data_PCOD9396822
_publ_section_title
;
Structure prediction by ZEFSAII (Michael W. Deem and Ramdas Pophale) SiO2 
 PCOD9396822
Probable space group: P B A N
;
_chemical_formula_sum "Si O2"
_cell_formula_units_Z 48
_cell_length_a 5.407665
_cell_length_b 27.765234
_cell_length_c 15.316736
_cell_angle_alpha 90.000000
_cell_angle_beta 90.000000
_cell_angle_gamma 90.000000
_cell_volume 2299.732615
_symmetry_space_group_name_H-M "P B A N"
_symmetry_group_IT_number 50
_space_group.IT_coordinate_system_code '2'
_symmetry_cell_setting 'orthorhombic'
loop_
_space_group_symop_operation_xyz
x,y,z
1/2-x,1/2-y,z
x,1/2-y,-z
1/2-x,y,-z
-x,-y,-z
1/2+x,1/2+y,-z
-x,1/2+y,z
1/2+x,-y,z
loop_
_atom_site_type_symbol
_atom_site_label
_atom_site_fract_x
_atom_site_fract_y
_atom_site_fract_z
Si Si1 0.750000 0.250000 0.628950
Si Si2 0.465516 0.845507 0.370226
Si Si3 0.229219 0.530564 0.102749
Si Si4 0.395697 0.610504 0.228620
Si Si5 0.602154 0.530283 0.334672
Si Si6 0.357213 0.202530 0.239166
Si Si7 0.250000 0.415064 0.500000
O O1 0.627288 0.203885 0.584421
O O2 0.546804 0.274251 0.691712
O O3 0.259946 0.873382 0.313804
O O4 0.656019 0.825509 0.297588
O O5 0.579676 0.881015 0.440707
O O6 0.473788 0.497841 0.119924
O O7 0.244447 0.578327 0.161061
O O8 0.250000 0.542407 0.000000
O O9 0.602510 0.574700 0.267465
O O10 0.504066 0.659799 0.188820
O O11 0.347724 0.501233 0.322447
O O12 0.604332 0.551747 0.432100
O O13 0.250000 0.250000 0.191836
#
# Coordination Sequence:
#
# PCOD9396822 Si02
#       7
#     4   8   8   8   8   8   4
#     4   8  18  38  59  82 117 154 214 272 331 378
#     4  10  21  38  60  86 120 167 217 267 333 382
#     4  10  23  42  66 102 143 171 210 269 324 384
#     4  11  22  38  66  92 121 174 216 260 323 405
#     4  12  26  42  59  84 119 168 219 267 316 372
#     4   9  18  37  60  90 119 156 210 266 322 384
#     4  12  24  42  59  82 126 168 221 282 324 382
#
# _framework density 20.87199
#
# number of rings (size 3 to 8) (size 9 to 14) (size 15 to 20)
#    0.000    1.667    1.667    2.500    2.333    2.000 
#    0.000    4.583    0.000    0.000    0.000   26.833 
#    0.000    0.000    0.000    0.000    0.000    0.000 
#
# Total GULP energy -268111.569371 kJ/mol
# GULP energy per Si atom -5585.657695 kJ/mol
# Density = 2.082448 g / cm^3
# Si number density = 20.871990 Si / 1000 Ang^3
#
#
#
# Elastic Constant Matrix: (Units=GPa)
#
#
# Indices 1 2 3 4 5 6 
#
# 1 95.1967 62.5909 13.6805 0.0000 0.0000 0.0000
# 2 62.5909 171.7867 50.5650 0.0000 0.0000 0.0000
# 3 13.6805 50.5650 63.8043 0.0000 0.0000 0.0000
# 4 0.0000 0.0000 0.0000 11.9161 0.0000 0.0000
# 5 0.0000 0.0000 0.0000 0.0000 20.7832 0.0000
# 6 0.0000 0.0000 0.0000 0.0000 0.0000 43.0020
#
#
#
# Elastic Compliance Matrix: (Units=1/GPa)
#
#
# Indices 1 2 3 4 5 6 
#
# 1 0.013902 -0.005462 0.001348 0.000000 0.000000 0.000000
# 2 -0.005462 0.009738 -0.006546 0.000000 0.000000 0.000000
# 3 0.001348 -0.006546 0.020572 0.000000 0.000000 0.000000
# 4 0.000000 0.000000 0.000000 0.083920 0.000000 0.000000
# 5 0.000000 0.000000 0.000000 0.000000 0.048116 0.000000
# 6 0.000000 0.000000 0.000000 0.000000 0.000000 0.023255
#
#
# Mechanical properties :
#
#
# Convention : Reuss Voigt Hill
#
# Bulk Modulus (GPa) = 43.68509 64.94007 54.31258
# Shear Modulus (GPa) = 21.88620 28.73702 25.31161
#
# Velocity S-wave (km/s) = 3.24171 3.71458 3.48617
# Velocity P-wave (km/s) = 5.91498 7.04120 6.50252
#
# Compressibility (1/GPa) = 0.02289110
#
# Stress axis : x y z
#
# Youngs Moduli (GPa) = 71.93175 102.68875 48.60992
#
# Poissons Ratio (x) = 0.56088 -0.06552
# Poissons Ratio (y) = 0.39289 0.31822
# Poissons Ratio (z) = -0.09695 0.67224
#
# Static dielectric constant tensor:
#      x y z
#    x 1.698400 0.000000 0.000000 
#    y 0.000000 1.845990 0.000000 
#    z 0.000000 0.000000 1.728560 
# 
# From -- ./inp_files/24096.got.cif
#   From: 2010.05.17/outbox.cif.g08.bks.cpg/sg50_13_cif.got.tgz:24096.got - 2010.06.03 11:33:33.
