data_PCOD9396940
_publ_section_title
;
Structure prediction by ZEFSAII (Michael W. Deem and Ramdas Pophale) SiO2 
 PCOD9396940
Probable space group: P B A N
;
_chemical_formula_sum "Si O2"
_cell_formula_units_Z 40
_cell_length_a 16.268402
_cell_length_b 8.639720
_cell_length_c 11.157559
_cell_angle_alpha 90.000000
_cell_angle_beta 90.000000
_cell_angle_gamma 90.000000
_cell_volume 1568.244436
_symmetry_space_group_name_H-M "P B A N"
_symmetry_group_IT_number 50
_space_group.IT_coordinate_system_code '2'
_symmetry_cell_setting 'orthorhombic'
loop_
_space_group_symop_operation_xyz
x,y,z
1/2-x,1/2-y,z
x,1/2-y,-z
1/2-x,y,-z
-x,-y,-z
1/2+x,1/2+y,-z
-x,1/2+y,z
1/2+x,-y,z
loop_
_atom_site_type_symbol
_atom_site_label
_atom_site_fract_x
_atom_site_fract_y
_atom_site_fract_z
Si Si1 0.784882 0.084510 0.653705
Si Si2 0.174043 0.160996 0.771025
Si Si3 0.474167 0.540624 0.809289
Si Si4 0.111884 0.842367 0.116230
Si Si5 0.074217 0.117208 0.402973
O O1 0.750000 0.250000 0.618825
O O2 0.820230 0.114455 0.787741
O O3 0.716727 0.953354 0.674672
O O4 0.858287 0.016839 0.571319
O O5 0.250000 0.250000 0.834261
O O6 0.122017 0.287645 0.700175
O O7 0.107184 0.058313 0.838901
O O8 0.449627 0.716979 0.826418
O O9 0.551340 0.489268 0.889945
O O10 0.500097 0.532851 0.668060
O O11 0.142452 0.750000 0.000000
O O12 0.054365 0.250000 0.500000
#
# Coordination Sequence:
#
# PCOD9396940 Si02
#       5
#     8   8   8   8   8
#     4  10  21  40  66  93 134 179 216 285 335 391
#     4  10  21  40  63  88 136 174 211 274 346 387
#     4  11  21  42  66  95 132 173 222 284 336 394
#     4  11  23  40  68  97 128 175 230 278 340 408
#     4  10  23  42  69  95 132 181 227 273 335 408
#
# _framework density 25.506228
#
# number of rings (size 3 to 8) (size 9 to 14) (size 15 to 20)
#    0.000    1.600    4.000    0.600    0.000    4.800 
#    0.000    2.000    0.000    0.000    0.000    0.000 
#    0.000    0.000    0.000    0.000    0.000    0.000 
#
# Total GULP energy -223460.425398 kJ/mol
# GULP energy per Si atom -5586.510635 kJ/mol
# Density = 2.544818 g / cm^3
# Si number density = 25.506228 Si / 1000 Ang^3
#
#
#
# Elastic Constant Matrix: (Units=GPa)
#
#
# Indices 1 2 3 4 5 6 
#
# 1 97.3077 31.5540 38.0970 0.0000 0.0000 0.0000
# 2 31.5540 122.8081 15.1796 0.0000 0.0000 0.0000
# 3 38.0970 15.1796 111.4825 0.0000 0.0000 0.0000
# 4 0.0000 0.0000 0.0000 14.0342 0.0000 0.0000
# 5 0.0000 0.0000 0.0000 0.0000 10.4270 0.0000
# 6 0.0000 0.0000 0.0000 0.0000 0.0000 55.6442
#
#
#
# Elastic Compliance Matrix: (Units=1/GPa)
#
#
# Indices 1 2 3 4 5 6 
#
# 1 0.012734 -0.002781 -0.003973 0.000000 0.000000 0.000000
# 2 -0.002781 0.008889 -0.000260 0.000000 0.000000 0.000000
# 3 -0.003973 -0.000260 0.010363 0.000000 0.000000 0.000000
# 4 0.000000 0.000000 0.000000 0.071254 0.000000 0.000000
# 5 0.000000 0.000000 0.000000 0.000000 0.095905 0.000000
# 6 0.000000 0.000000 0.000000 0.000000 0.000000 0.017971
#
#
# Mechanical properties :
#
#
# Convention : Reuss Voigt Hill
#
# Bulk Modulus (GPa) = 55.68300 55.69547 55.68924
# Shear Modulus (GPa) = 21.08537 32.47226 26.77881
#
# Velocity S-wave (km/s) = 2.87832 3.57194 3.24372
# Velocity P-wave (km/s) = 5.73801 6.23659 5.99249
#
# Compressibility (1/GPa) = 0.01795880
#
# Stress axis : x y z
#
# Youngs Moduli (GPa) = 78.53103 112.49335 96.49618
#
# Poissons Ratio (x) = 0.31281 0.38337
# Poissons Ratio (y) = 0.21837 0.02510
# Poissons Ratio (z) = 0.31200 0.02926
#
# Static dielectric constant tensor:
#      x y z
#    x 2.038490 0.000000 0.000000 
#    y 0.000000 2.004750 0.000000 
#    z 0.000000 0.000000 2.043750 
# 
# From -- ./inp_files/18761.got.cif
#   From: 2010.05.17/outbox.cif.g08.bks.cpg/sg50_10_cif.got.tgz:18761.got - 2010.06.03 11:33:33.
