data_PCOD9396798
_publ_section_title
;
Structure prediction by ZEFSAII (Michael W. Deem and Ramdas Pophale) SiO2 
 PCOD9396798
Probable space group: P B A N
;
_chemical_formula_sum "Si O2"
_cell_formula_units_Z 58
_cell_length_a 19.702386
_cell_length_b 15.743240
_cell_length_c 8.869049
_cell_angle_alpha 90.000000
_cell_angle_beta 90.000000
_cell_angle_gamma 90.000000
_cell_volume 2750.996221
_symmetry_space_group_name_H-M "P B A N"
_symmetry_group_IT_number 50
_space_group.IT_coordinate_system_code '2'
_symmetry_cell_setting 'orthorhombic'
loop_
_space_group_symop_operation_xyz
x,y,z
1/2-x,1/2-y,z
x,1/2-y,-z
1/2-x,y,-z
-x,-y,-z
1/2+x,1/2+y,-z
-x,1/2+y,z
1/2+x,-y,z
loop_
_atom_site_type_symbol
_atom_site_label
_atom_site_fract_x
_atom_site_fract_y
_atom_site_fract_z
Si Si1 0.137625 0.155098 0.290417
Si Si2 0.881068 0.204515 0.358326
Si Si3 0.080562 0.826299 0.103026
Si Si4 0.319062 0.415394 0.985443
Si Si5 0.987376 0.899506 0.511160
Si Si6 0.685400 0.398931 0.087799
Si Si7 0.750000 0.750000 0.500000
Si Si8 0.064086 0.173815 0.807473
O O1 0.156728 0.089426 0.158500
O O2 0.080229 0.113219 0.392355
O O3 0.199902 0.193085 0.392106
O O4 0.097150 0.234365 0.216289
O O5 0.845297 0.250000 0.500000
O O6 0.904787 0.212262 0.734862
O O7 0.837256 0.146240 0.243151
O O8 0.947704 0.150909 0.415162
O O9 0.000813 0.833631 0.083999
O O10 0.107023 0.750000 0.000000
O O11 0.123270 0.901795 0.033315
O O12 0.250000 0.361362 0.000000
O O13 0.298455 0.501820 0.897642
O O14 0.376570 0.379295 0.879968
O O15 0.965430 0.861172 0.349827
O O16 0.000000 0.000000 0.500000
O O17 0.750000 0.359126 0.000000
#
# Coordination Sequence:
#
# PCOD9396798 Si02
#       8
#     8   8   8   8   8   8   2   8
#     4  12  24  43  70  97 138 188 235 284 355 425
#     4  11  21  43  72  99 129 176 231 289 340 423
#     4  10  21  37  68  95 129 168 225 281 344 409
#     4  11  26  43  65  98 141 184 233 283 350 433
#     4  12  25  41  67 101 141 177 228 295 363 412
#     4  10  25  47  66  98 142 179 224 292 363 421
#     4  12  24  44  70 104 140 192 250 300 360 432
#     4  12  22  43  67  99 137 176 237 295 344 420
#
# _framework density 21.083272000000001
#
# number of rings (size 3 to 8) (size 9 to 14) (size 15 to 20)
#    0.000    0.828    4.138    2.897    3.862    3.586 
#    0.000    1.379    0.000    0.000    0.000    0.000 
#    0.000    0.000    0.000    0.000    0.000    0.000 
#
# Total GULP energy -323066.738494 kJ/mol
# GULP energy per Si atom -5570.116181 kJ/mol
# Density = 2.103529 g / cm^3
# Si number density = 21.083272 Si / 1000 Ang^3
#
#
#
# Elastic Constant Matrix: (Units=GPa)
#
#
# Indices 1 2 3 4 5 6 
#
# 1 131.4936 23.7767 57.3803 0.0000 0.0000 0.0000
# 2 23.7767 45.4175 30.8414 0.0000 0.0000 0.0000
# 3 57.3803 30.8414 126.1052 0.0000 0.0000 0.0000
# 4 0.0000 0.0000 0.0000 24.9279 0.0000 0.0000
# 5 0.0000 0.0000 0.0000 0.0000 38.1380 0.0000
# 6 0.0000 0.0000 0.0000 0.0000 0.0000 43.0223
#
#
#
# Elastic Compliance Matrix: (Units=1/GPa)
#
#
# Indices 1 2 3 4 5 6 
#
# 1 0.009720 -0.002501 -0.003811 0.000000 0.000000 0.000000
# 2 -0.002501 0.027046 -0.005477 0.000000 0.000000 0.000000
# 3 -0.003811 -0.005477 0.011004 0.000000 0.000000 0.000000
# 4 0.000000 0.000000 0.000000 0.040116 0.000000 0.000000
# 5 0.000000 0.000000 0.000000 0.000000 0.026221 0.000000
# 6 0.000000 0.000000 0.000000 0.000000 0.000000 0.023244
#
#
# Mechanical properties :
#
#
# Convention : Reuss Voigt Hill
#
# Bulk Modulus (GPa) = 41.33508 58.55699 49.94604
# Shear Modulus (GPa) = 29.58724 33.95215 31.76970
#
# Velocity S-wave (km/s) = 3.75020 4.01731 3.88605
# Velocity P-wave (km/s) = 6.19679 7.02516 6.62393
#
# Compressibility (1/GPa) = 0.02419253
#
# Stress axis : x y z
#
# Youngs Moduli (GPa) = 102.87795 36.97382 90.87946
#
# Poissons Ratio (x) = 0.09245 0.34637
# Poissons Ratio (y) = 0.25725 0.49773
# Poissons Ratio (z) = 0.39210 0.20250
#
# Static dielectric constant tensor:
#      x y z
#    x 1.342480 0.000000 0.000000 
#    y 0.000000 1.839780 0.000000 
#    z 0.000000 0.000000 1.886230 
# 
# From -- ./inp_files/14501.got.cif
#   From: 2010.05.17/outbox.cif.g08.bks.cpg/sg50_8_cif.got.tgz:14501.got - 2010.06.03 11:33:33.
