data_PCOD9396243
_publ_section_title
;
Structure prediction by ZEFSAII (Michael W. Deem and Ramdas Pophale) SiO2 
 PCOD9396243
Probable space group: P B A N
;
_chemical_formula_sum "Si O2"
_cell_formula_units_Z 54
_cell_length_a 11.149782
_cell_length_b 12.778031
_cell_length_c 18.962815
_cell_angle_alpha 90.000000
_cell_angle_beta 90.000000
_cell_angle_gamma 90.000000
_cell_volume 2701.675110
_symmetry_space_group_name_H-M "P B A N"
_symmetry_group_IT_number 50
_space_group.IT_coordinate_system_code '2'
_symmetry_cell_setting 'orthorhombic'
loop_
_space_group_symop_operation_xyz
x,y,z
1/2-x,1/2-y,z
x,1/2-y,-z
1/2-x,y,-z
-x,-y,-z
1/2+x,1/2+y,-z
-x,1/2+y,z
1/2+x,-y,z
loop_
_atom_site_type_symbol
_atom_site_label
_atom_site_fract_x
_atom_site_fract_y
_atom_site_fract_z
Si Si1 0.750000 0.250000 0.500000
Si Si2 0.022738 0.484958 0.118814
Si Si3 0.966072 0.145909 0.232283
Si Si4 0.890759 0.134733 0.993506
Si Si5 0.104556 0.009253 0.652305
Si Si6 0.250000 0.750000 0.740182
Si Si7 0.152503 0.603023 0.616674
Si Si8 0.143837 0.332985 0.219700
O O1 0.830982 0.321317 0.449671
O O2 0.977834 0.558675 0.182080
O O3 0.122009 0.408965 0.153366
O O4 0.925175 0.413110 0.081668
O O5 0.066737 0.560675 0.056899
O O6 0.830774 0.175771 0.211621
O O7 0.033635 0.254181 0.229226
O O8 0.947442 0.094265 0.308569
O O9 0.946382 0.250000 0.000000
O O10 0.750000 0.141762 0.000000
O O11 0.147420 0.091521 0.712337
O O12 0.982452 0.055496 0.617150
O O13 0.229608 0.974544 0.614626
O O14 0.175516 0.673470 0.687304
O O15 0.250000 0.250000 0.212793
#
# Coordination Sequence:
#
# PCOD9396243 Si02
#       8
#     2   8   8   8   8   4   8   8
#     4  10  24  40  68  86 130 178 228 248 312 370
#     4  10  23  37  58  87 114 149 203 248 309 373
#     4  10  20  35  60  90 121 156 197 249 306 385
#     4  10  22  42  59  75 109 159 202 254 299 366
#     4  10  21  38  65  94 131 164 210 254 322 374
#     4   9  18  35  60  86 123 161 194 236 318 371
#     4  10  20  40  62  93 125 171 211 260 300 374
#     4  11  22  36  59  97 128 157 190 259 322 381
#
# _framework density 19.987598999999999
#
# number of rings (size 3 to 8) (size 9 to 14) (size 15 to 20)
#    0.000    1.926    1.481    1.778    2.074    2.963 
#    0.000    0.000    0.000    0.889    0.000    0.000 
#    0.000    0.000    0.000    0.000    0.000    0.000 
#
# Total GULP energy -300907.697684 kJ/mol
# GULP energy per Si atom -5572.364772 kJ/mol
# Density = 1.994211 g / cm^3
# Si number density = 19.987599 Si / 1000 Ang^3
#
#
#
# Elastic Constant Matrix: (Units=GPa)
#
#
# Indices 1 2 3 4 5 6 
#
# 1 97.2882 43.8111 40.0973 0.0000 0.0000 0.0000
# 2 43.8111 119.1810 36.1941 0.0000 0.0000 0.0000
# 3 40.0973 36.1941 53.8541 0.0000 0.0000 0.0000
# 4 0.0000 0.0000 0.0000 36.2435 0.0000 0.0000
# 5 0.0000 0.0000 0.0000 0.0000 8.9790 0.0000
# 6 0.0000 0.0000 0.0000 0.0000 0.0000 6.5175
#
#
#
# Elastic Compliance Matrix: (Units=1/GPa)
#
#
# Indices 1 2 3 4 5 6 
#
# 1 0.015519 -0.002759 -0.009701 0.000000 0.000000 0.000000
# 2 -0.002759 0.011033 -0.005361 0.000000 0.000000 0.000000
# 3 -0.009701 -0.005361 0.029394 0.000000 0.000000 0.000000
# 4 0.000000 0.000000 0.000000 0.027591 0.000000 0.000000
# 5 0.000000 0.000000 0.000000 0.000000 0.111371 0.000000
# 6 0.000000 0.000000 0.000000 0.000000 0.000000 0.153434
#
#
# Mechanical properties :
#
#
# Convention : Reuss Voigt Hill
#
# Bulk Modulus (GPa) = 49.24763 56.72536 52.98649
# Shear Modulus (GPa) = 12.79585 20.36272 16.57928
#
# Velocity S-wave (km/s) = 2.53294 3.19528 2.88319
# Velocity P-wave (km/s) = 5.76602 6.48498 6.13604
#
# Compressibility (1/GPa) = 0.02030555
#
# Stress axis : x y z
#
# Youngs Moduli (GPa) = 64.43592 90.63905 34.02028
#
# Poissons Ratio (x) = 0.25006 0.33002
# Poissons Ratio (y) = 0.17777 0.18237
# Poissons Ratio (z) = 0.62508 0.48589
#
# Static dielectric constant tensor:
#      x y z
#    x 1.873780 0.000000 0.000000 
#    y 0.000000 1.749190 0.000000 
#    z 0.000000 0.000000 1.702350 
# 
# From -- ./inp_files/30867.got.cif
#   From: 2010.05.17/outbox.cif.g08.bks.cpg/sg50_16_cif.got.tgz:30867.got - 2010.06.03 11:33:33.
