data_PCOD9396050
_publ_section_title
;
Structure prediction by ZEFSAII (Michael W. Deem and Ramdas Pophale) SiO2 
 PCOD9396050
Probable space group: P B A N
;
_chemical_formula_sum "Si O2"
_cell_formula_units_Z 48
_cell_length_a 10.768450
_cell_length_b 28.264151
_cell_length_c 8.443189
_cell_angle_alpha 90.000000
_cell_angle_beta 90.000000
_cell_angle_gamma 90.000000
_cell_volume 2569.778265
_symmetry_space_group_name_H-M "P B A N"
_symmetry_group_IT_number 50
_space_group.IT_coordinate_system_code '2'
_symmetry_cell_setting 'orthorhombic'
loop_
_space_group_symop_operation_xyz
x,y,z
1/2-x,1/2-y,z
x,1/2-y,-z
1/2-x,y,-z
-x,-y,-z
1/2+x,1/2+y,-z
-x,1/2+y,z
1/2+x,-y,z
loop_
_atom_site_type_symbol
_atom_site_label
_atom_site_fract_x
_atom_site_fract_y
_atom_site_fract_z
Si Si1 0.369011 0.050731 0.620067
Si Si2 0.009836 0.855207 0.313287
Si Si3 0.879698 0.445352 0.409218
Si Si4 0.110202 0.757719 0.186393
Si Si5 0.241379 0.134344 0.188168
Si Si6 0.915634 0.703676 0.394408
O O1 0.250000 0.054315 0.500000
O O2 0.498311 0.056867 0.523856
O O3 0.342599 0.089915 0.754311
O O4 0.377465 0.996207 0.676996
O O5 0.105765 0.897973 0.309395
O O6 0.062472 0.810094 0.222642
O O7 0.973676 0.835025 0.486905
O O8 0.881814 0.873889 0.241947
O O9 0.750000 0.442985 0.500000
O O10 0.250000 0.750000 0.245771
O O11 0.019605 0.721690 0.274027
O O12 0.107294 0.750000 0.000000
O O13 0.191892 0.179190 0.290726
O O14 0.250000 0.142333 0.000000
O O15 0.883070 0.750000 0.500000
#
# Coordination Sequence:
#
# PCOD9396050 Si02
#       6
#     8   8   8   8   8   8
#     4  10  19  40  64  91 126 160 208 268 309 375
#     4  11  22  38  63  89 117 162 216 257 306 373
#     4  10  21  35  67  95 119 156 213 263 318 361
#     4  10  23  40  58  85 130 166 200 252 319 382
#     4  12  23  39  63  91 127 165 207 260 331 381
#     4  10  22  38  60  85 115 153 212 260 299 362
#
# _framework density 18.678654000000002
#
# number of rings (size 3 to 8) (size 9 to 14) (size 15 to 20)
#    0.000    1.500    3.333    1.500    2.333    7.000 
#    0.000    5.000    3.667    0.000    0.000    0.000 
#    0.000    0.000    0.000    0.000    0.000    0.000 
#
# Total GULP energy -267783.201273 kJ/mol
# GULP energy per Si atom -5578.816693 kJ/mol
# Density = 1.863614 g / cm^3
# Si number density = 18.678654 Si / 1000 Ang^3
#
#
#
# Elastic Constant Matrix: (Units=GPa)
#
#
# Indices 1 2 3 4 5 6 
#
# 1 97.8831 16.0680 13.4105 0.0000 0.0000 0.0000
# 2 16.0680 106.5364 36.0756 0.0000 0.0000 0.0000
# 3 13.4105 36.0756 75.5707 0.0000 0.0000 0.0000
# 4 0.0000 0.0000 0.0000 -14.1370 0.0000 0.0000
# 5 0.0000 0.0000 0.0000 0.0000 24.3238 0.0000
# 6 0.0000 0.0000 0.0000 0.0000 0.0000 30.9026
#
#
#
# Elastic Compliance Matrix: (Units=1/GPa)
#
#
# Indices 1 2 3 4 5 6 
#
# 1 0.010587 -0.001146 -0.001332 0.000000 0.000000 0.000000
# 2 -0.001146 0.011320 -0.005201 0.000000 0.000000 0.000000
# 3 -0.001332 -0.005201 0.015952 0.000000 0.000000 0.000000
# 4 0.000000 0.000000 0.000000 -0.070736 0.000000 0.000000
# 5 0.000000 0.000000 0.000000 0.000000 0.041112 0.000000
# 6 0.000000 0.000000 0.000000 0.000000 0.000000 0.032360
#
#
# Mechanical properties :
#
#
# Convention : Reuss Voigt Hill
#
# Bulk Modulus (GPa) = 44.43981 45.67761 45.05871
# Shear Modulus (GPa) = 78.80063 22.51364 50.65714
#
# Velocity S-wave (km/s) = 6.50224 3.47553 5.21337
# Velocity P-wave (km/s) = 8.95631 6.37285 7.77267
#
# Compressibility (1/GPa) = 0.02250235
#
# Stress axis : x y z
#
# Youngs Moduli (GPa) = 94.45724 88.33647 62.68939
#
# Poissons Ratio (x) = 0.10121 0.08349
# Poissons Ratio (y) = 0.10823 0.32603
# Poissons Ratio (z) = 0.12579 0.45941
#
# Static dielectric constant tensor:
#      x y z
#    x 1.688080 0.000000 0.000000 
#    y 0.000000 1.681160 0.000000 
#    z 0.000000 0.000000 1.648350 
# 
# From -- ./inp_files/10093.got.cif
#   From: 2010.05.17/outbox.cif.g08.bks.cpg/sg50_6_cif.got.tgz:10093.got - 2010.06.03 11:33:33.
