data_PCOD9396512
_publ_section_title
;
Structure prediction by ZEFSAII (Michael W. Deem and Ramdas Pophale) SiO2 
 PCOD9396512
Probable space group: P B A N
;
_chemical_formula_sum "Si O2"
_cell_formula_units_Z 48
_cell_length_a 17.477821
_cell_length_b 11.481616
_cell_length_c 11.888454
_cell_angle_alpha 90.000000
_cell_angle_beta 90.000000
_cell_angle_gamma 90.000000
_cell_volume 2385.699210
_symmetry_space_group_name_H-M "P B A N"
_symmetry_group_IT_number 50
_space_group.IT_coordinate_system_code '2'
_symmetry_cell_setting 'orthorhombic'
loop_
_space_group_symop_operation_xyz
x,y,z
1/2-x,1/2-y,z
x,1/2-y,-z
1/2-x,y,-z
-x,-y,-z
1/2+x,1/2+y,-z
-x,1/2+y,z
1/2+x,-y,z
loop_
_atom_site_type_symbol
_atom_site_label
_atom_site_fract_x
_atom_site_fract_y
_atom_site_fract_z
Si Si1 0.717372 0.383201 0.880418
Si Si2 0.271922 0.461065 0.670811
Si Si3 0.583314 0.670778 0.333581
Si Si4 0.335526 0.697261 0.614648
Si Si5 0.427471 0.631847 0.248248
Si Si6 0.607272 0.920144 0.416651
O O1 0.750000 0.250000 0.868234
O O2 0.746418 0.466494 0.780623
O O3 0.625467 0.389477 0.860873
O O4 0.750000 0.422544 0.000000
O O5 0.330992 0.361030 0.702092
O O6 0.320498 0.561270 0.606256
O O7 0.199604 0.416442 0.600268
O O8 0.518524 0.633414 0.245790
O O9 0.575678 0.808143 0.350675
O O10 0.577108 0.607468 0.456994
O O11 0.250000 0.750000 0.627751
O O12 0.366843 0.750000 0.500000
O O13 0.392086 0.745279 0.708386
O O14 0.411955 0.537610 0.348343
#
# Coordination Sequence:
#
# PCOD9396512 Si02
#       6
#     8   8   8   8   8   8
#     4  10  20  39  64  86 109 147 207 268 307 351
#     4  11  20  38  57  83 114 162 207 243 292 360
#     4  11  24  33  57  85 128 164 190 238 298 362
#     4  11  20  31  54  85 114 148 192 243 283 351
#     4  11  21  37  56  87 120 150 200 248 306 343
#     4  10  22  38  52  83 125 171 203 223 283 377
#
# _framework density 20.119886999999999
#
# number of rings (size 3 to 8) (size 9 to 14) (size 15 to 20)
#    0.000    1.333    5.000    2.500    7.000    1.333 
#    0.000    0.833    0.000   10.000    0.000    0.000 
#    0.000    0.000    0.000    0.000    0.000    0.000 
#
# Total GULP energy -267415.427185 kJ/mol
# GULP energy per Si atom -5571.154733 kJ/mol
# Density = 2.007409 g / cm^3
# Si number density = 20.119887 Si / 1000 Ang^3
#
#
#
# Elastic Constant Matrix: (Units=GPa)
#
#
# Indices 1 2 3 4 5 6 
#
# 1 106.1257 12.3012 20.1604 0.0000 0.0000 0.0000
# 2 12.3012 46.9910 0.2170 0.0000 0.0000 0.0000
# 3 20.1604 0.2170 82.3471 0.0000 0.0000 0.0000
# 4 0.0000 0.0000 0.0000 18.4890 0.0000 0.0000
# 5 0.0000 0.0000 0.0000 0.0000 27.4527 0.0000
# 6 0.0000 0.0000 0.0000 0.0000 0.0000 21.3310
#
#
#
# Elastic Compliance Matrix: (Units=1/GPa)
#
#
# Indices 1 2 3 4 5 6 
#
# 1 0.010204 -0.002660 -0.002491 0.000000 0.000000 0.000000
# 2 -0.002660 0.021974 0.000593 0.000000 0.000000 0.000000
# 3 -0.002491 0.000593 0.012752 0.000000 0.000000 0.000000
# 4 0.000000 0.000000 0.000000 0.054086 0.000000 0.000000
# 5 0.000000 0.000000 0.000000 0.000000 0.036426 0.000000
# 6 0.000000 0.000000 0.000000 0.000000 0.000000 0.046880
#
#
# Mechanical properties :
#
#
# Convention : Reuss Voigt Hill
#
# Bulk Modulus (GPa) = 27.92118 33.42458 30.67288
# Shear Modulus (GPa) = 24.58487 26.97355 25.77921
#
# Velocity S-wave (km/s) = 3.49939 3.66545 3.58338
# Velocity P-wave (km/s) = 5.49865 5.87901 5.69201
#
# Compressibility (1/GPa) = 0.03581510
#
# Stress axis : x y z
#
# Youngs Moduli (GPa) = 97.99751 45.50792 78.41867
#
# Poissons Ratio (x) = 0.12104 0.19536
# Poissons Ratio (y) = 0.26065 -0.04652
# Poissons Ratio (z) = 0.24414 -0.02700
#
# Static dielectric constant tensor:
#      x y z
#    x 1.768130 0.000000 0.000000 
#    y 0.000000 1.740660 0.000000 
#    z 0.000000 0.000000 1.744490 
# 
# From -- ./inp_files/21774.got.cif
#   From: 2010.05.17/outbox.cif.g08.bks.cpg/sg50_11_cif.got.tgz:21774.got - 2010.06.03 11:33:33.
