data_PCOD9396070
_publ_section_title
;
Structure prediction by ZEFSAII (Michael W. Deem and Ramdas Pophale) SiO2 
 PCOD9396070
Probable space group: P B A N
;
_chemical_formula_sum "Si O2"
_cell_formula_units_Z 58
_cell_length_a 15.020280
_cell_length_b 25.493199
_cell_length_c 7.806831
_cell_angle_alpha 90.000000
_cell_angle_beta 90.000000
_cell_angle_gamma 90.000000
_cell_volume 2989.352591
_symmetry_space_group_name_H-M "P B A N"
_symmetry_group_IT_number 50
_space_group.IT_coordinate_system_code '2'
_symmetry_cell_setting 'orthorhombic'
loop_
_space_group_symop_operation_xyz
x,y,z
1/2-x,1/2-y,z
x,1/2-y,-z
1/2-x,y,-z
-x,-y,-z
1/2+x,1/2+y,-z
-x,1/2+y,z
1/2+x,-y,z
loop_
_atom_site_type_symbol
_atom_site_label
_atom_site_fract_x
_atom_site_fract_y
_atom_site_fract_z
Si Si1 0.354879 0.639645 0.979535
Si Si2 0.983442 0.284872 0.828187
Si Si3 0.934903 0.624297 0.657209
Si Si4 0.223645 0.308776 0.201813
Si Si5 0.250000 0.750000 0.500000
Si Si6 0.116319 0.122221 0.283061
Si Si7 0.985599 0.938278 0.001375
Si Si8 0.591625 0.191115 0.337005
O O1 0.419743 0.589915 0.957971
O O2 0.387207 0.667190 0.152462
O O3 0.250000 0.629764 0.000000
O O4 0.389709 0.683363 0.845277
O O5 0.967738 0.242619 0.684182
O O6 0.057488 0.326912 0.778028
O O7 0.003888 0.250000 0.000000
O O8 0.874591 0.670987 0.743415
O O9 0.894673 0.604102 0.479231
O O10 0.953672 0.584358 0.813484
O O11 0.028503 0.647414 0.585158
O O12 0.250000 0.250000 0.265267
O O13 0.285101 0.355085 0.272618
O O14 0.250000 0.307953 0.000000
O O15 0.315609 0.789490 0.594840
O O16 0.085490 0.079605 0.143262
O O17 0.000000 0.000000 0.000000
#
# Coordination Sequence:
#
# PCOD9396070 Si02
#       8
#     8   8   8   8   2   8   8   8
#     4   9  18  34  54  78 107 146 189 237 292 352
#     4   9  18  31  54  82 120 162 200 233 287 352
#     4  11  23  41  60  91 124 165 208 259 312 377
#     4  11  23  37  63  95 137 173 211 253 313 394
#     4  12  20  28  46  84 118 172 196 234 280 356
#     4  11  22  38  63  88 123 167 205 255 309 375
#     4  10  23  44  63  86 113 151 206 267 325 367
#     4  10  20  31  51  81 124 156 195 236 280 349
#
# _framework density 19.402194000000001
#
# number of rings (size 3 to 8) (size 9 to 14) (size 15 to 20)
#    0.000    1.793    1.379    3.724    1.931    5.793 
#    2.483    0.000    0.000    0.000    0.000    0.000 
#    0.000    0.000    0.000    0.000    0.000    0.000 
#
# Total GULP energy -323051.278851 kJ/mol
# GULP energy per Si atom -5569.849635 kJ/mol
# Density = 1.935803 g / cm^3
# Si number density = 19.402194 Si / 1000 Ang^3
#
#
#
# Elastic Constant Matrix: (Units=GPa)
#
#
# Indices 1 2 3 4 5 6 
#
# 1 89.9907 31.2025 11.0935 0.0000 0.0000 0.0000
# 2 31.2025 120.0195 38.4762 0.0000 0.0000 0.0000
# 3 11.0935 38.4762 96.3292 0.0000 0.0000 0.0000
# 4 0.0000 0.0000 0.0000 2.2631 0.0000 0.0000
# 5 0.0000 0.0000 0.0000 0.0000 25.0172 0.0000
# 6 0.0000 0.0000 0.0000 0.0000 0.0000 10.5726
#
#
#
# Elastic Compliance Matrix: (Units=1/GPa)
#
#
# Indices 1 2 3 4 5 6 
#
# 1 0.012215 -0.003125 -0.000159 0.000000 0.000000 0.000000
# 2 -0.003125 0.010355 -0.003776 0.000000 0.000000 0.000000
# 3 -0.000159 -0.003776 0.011908 0.000000 0.000000 0.000000
# 4 0.000000 0.000000 0.000000 0.441874 0.000000 0.000000
# 5 0.000000 0.000000 0.000000 0.000000 0.039973 0.000000
# 6 0.000000 0.000000 0.000000 0.000000 0.000000 0.094584
#
#
# Mechanical properties :
#
#
# Convention : Reuss Voigt Hill
#
# Bulk Modulus (GPa) = 49.11921 51.98709 50.55315
# Shear Modulus (GPa) = 7.91373 22.60840 15.26107
#
# Velocity S-wave (km/s) = 2.02179 3.41728 2.80762
# Velocity P-wave (km/s) = 5.55171 6.51329 6.05163
#
# Compressibility (1/GPa) = 0.02035863
#
# Stress axis : x y z
#
# Youngs Moduli (GPa) = 81.86459 96.57222 83.97984
#
# Poissons Ratio (x) = 0.30178 0.01332
# Poissons Ratio (y) = 0.25582 0.31712
# Poissons Ratio (z) = 0.01298 0.36467
#
# Static dielectric constant tensor:
#      x y z
#    x 2.025000 0.000000 0.000000 
#    y 0.000000 1.665230 0.000000 
#    z 0.000000 0.000000 1.864020 
# 
# From -- ./inp_files/13426.got.cif
#   From: 2010.05.17/outbox.cif.g08.bks.cpg/sg50_7_cif.got.tgz:13426.got - 2010.06.03 11:33:33.
