data_PCOD9396336
_publ_section_title
;
Structure prediction by ZEFSAII (Michael W. Deem and Ramdas Pophale) SiO2 
 PCOD9396336
Probable space group: P B A N
;
_chemical_formula_sum "Si O2"
_cell_formula_units_Z 48
_cell_length_a 27.470095
_cell_length_b 5.403285
_cell_length_c 14.438718
_cell_angle_alpha 90.000000
_cell_angle_beta 90.000000
_cell_angle_gamma 90.000000
_cell_volume 2143.120897
_symmetry_space_group_name_H-M "P B A N"
_symmetry_group_IT_number 50
_space_group.IT_coordinate_system_code '2'
_symmetry_cell_setting 'orthorhombic'
loop_
_space_group_symop_operation_xyz
x,y,z
1/2-x,1/2-y,z
x,1/2-y,-z
1/2-x,y,-z
-x,-y,-z
1/2+x,1/2+y,-z
-x,1/2+y,z
1/2+x,-y,z
loop_
_atom_site_type_symbol
_atom_site_label
_atom_site_fract_x
_atom_site_fract_y
_atom_site_fract_z
Si Si1 0.848546 0.028605 0.661777
Si Si2 0.907273 0.161739 0.201420
Si Si3 0.402397 0.750000 0.000000
Si Si4 0.531268 0.578400 0.346429
Si Si5 0.690875 0.630229 0.193993
Si Si6 0.750000 0.250000 0.706387
Si Si7 0.102531 0.250000 0.500000
Si Si8 0.161992 0.250000 0.000000
O O1 0.829843 0.807084 0.726743
O O2 0.865521 0.926768 0.564122
O O3 0.894883 0.141775 0.717221
O O4 0.800551 0.202045 0.652824
O O5 0.939567 0.952702 0.250090
O O6 0.852422 0.071054 0.181889
O O7 0.928174 0.239464 0.101374
O O8 0.371221 0.496306 0.006392
O O9 0.501799 0.833959 0.351952
O O10 0.569230 0.590639 0.430719
O O11 0.737754 0.483627 0.228857
O O12 0.693125 0.748241 0.093317
#
# Coordination Sequence:
#
# PCOD9396336 Si02
#       8
#     8   8   4   8   8   4   4   4
#     4  11  22  45  69  96 138 187 243 290 352 422
#     4  10  22  42  72 103 139 190 225 288 351 429
#     4  10  20  38  72 106 138 185 242 269 342 440
#     4  12  27  47  75 110 143 174 233 304 364 427
#     4  10  20  42  68  97 140 185 239 290 350 422
#     4  10  24  42  68  96 144 186 236 309 353 400
#     4  12  26  48  77 100 134 194 236 297 366 434
#     4  10  20  36  71 103 134 191 240 289 340 411
#
# _framework density 22.397243
#
# number of rings (size 3 to 8) (size 9 to 14) (size 15 to 20)
#    0.000    1.333    3.333    2.000    0.000    2.000 
#    0.000    5.833    0.000    0.000    0.000    0.000 
#    0.000    0.000    0.000    0.000    0.000    0.000 
#
# Total GULP energy -268070.643012 kJ/mol
# GULP energy per Si atom -5584.805063 kJ/mol
# Density = 2.234627 g / cm^3
# Si number density = 22.397243 Si / 1000 Ang^3
#
#
#
# Elastic Constant Matrix: (Units=GPa)
#
#
# Indices 1 2 3 4 5 6 
#
# 1 71.0799 33.1519 63.0166 0.0000 0.0000 0.0000
# 2 33.1519 102.0904 25.3925 0.0000 0.0000 0.0000
# 3 63.0166 25.3925 157.4601 0.0000 0.0000 0.0000
# 4 0.0000 0.0000 0.0000 41.1259 0.0000 0.0000
# 5 0.0000 0.0000 0.0000 0.0000 27.2731 0.0000
# 6 0.0000 0.0000 0.0000 0.0000 0.0000 56.1341
#
#
#
# Elastic Compliance Matrix: (Units=1/GPa)
#
#
# Indices 1 2 3 4 5 6 
#
# 1 0.024712 -0.005797 -0.008955 0.000000 0.000000 0.000000
# 2 -0.005797 0.011565 0.000455 0.000000 0.000000 0.000000
# 3 -0.008955 0.000455 0.009861 0.000000 0.000000 0.000000
# 4 0.000000 0.000000 0.000000 0.024316 0.000000 0.000000
# 5 0.000000 0.000000 0.000000 0.000000 0.036666 0.000000
# 6 0.000000 0.000000 0.000000 0.000000 0.000000 0.017814
#
#
# Mechanical properties :
#
#
# Convention : Reuss Voigt Hill
#
# Bulk Modulus (GPa) = 57.00142 63.75024 60.37583
# Shear Modulus (GPa) = 31.37247 38.84458 35.10852
#
# Velocity S-wave (km/s) = 3.74669 4.16907 3.96351
# Velocity P-wave (km/s) = 6.64999 7.19027 6.92540
#
# Compressibility (1/GPa) = 0.01754342
#
# Stress axis : x y z
#
# Youngs Moduli (GPa) = 40.46683 86.47090 101.40743
#
# Poissons Ratio (x) = 0.50130 0.90809
# Poissons Ratio (y) = 0.23460 -0.04616
# Poissons Ratio (z) = 0.36237 -0.03936
#
# Static dielectric constant tensor:
#      x y z
#    x 1.851930 0.000000 0.000000 
#    y 0.000000 1.914870 0.000000 
#    z 0.000000 0.000000 1.842320 
# 
# From -- ./inp_files/27649.got.cif
#   From: 2010.05.17/outbox.cif.g08.bks.cpg/sg50_14_cif.got.tgz:27649.got - 2010.06.03 11:33:33.
