data_PCOD9396047
_publ_section_title
;
Structure prediction by ZEFSAII (Michael W. Deem and Ramdas Pophale) SiO2 
 PCOD9396047
Probable space group: P B A N
;
_chemical_formula_sum "Si O2"
_cell_formula_units_Z 60
_cell_length_a 10.502609
_cell_length_b 22.896980
_cell_length_c 12.961116
_cell_angle_alpha 90.000000
_cell_angle_beta 90.000000
_cell_angle_gamma 90.000000
_cell_volume 3116.863619
_symmetry_space_group_name_H-M "P B A N"
_symmetry_group_IT_number 50
_space_group.IT_coordinate_system_code '2'
_symmetry_cell_setting 'orthorhombic'
loop_
_space_group_symop_operation_xyz
x,y,z
1/2-x,1/2-y,z
x,1/2-y,-z
1/2-x,y,-z
-x,-y,-z
1/2+x,1/2+y,-z
-x,1/2+y,z
1/2+x,-y,z
loop_
_atom_site_type_symbol
_atom_site_label
_atom_site_fract_x
_atom_site_fract_y
_atom_site_fract_z
Si Si1 0.982354 0.576535 0.235297
Si Si2 0.876660 0.502635 0.426773
Si Si3 0.135940 0.833661 0.633791
Si Si4 0.238458 0.126054 0.880395
Si Si5 0.951525 0.765563 0.387023
Si Si6 0.250000 0.250000 0.224601
Si Si7 0.877766 0.506001 0.925608
Si Si8 0.400894 0.871326 0.601376
O O1 0.909406 0.546286 0.332978
O O2 0.870585 0.599963 0.162242
O O3 0.060139 0.630231 0.282055
O O4 0.082129 0.536188 0.170493
O O5 0.750000 0.512096 0.500000
O O6 0.877401 0.438539 0.375706
O O7 0.000000 0.500000 0.500000
O O8 0.284028 0.838557 0.654088
O O9 0.111813 0.864328 0.522527
O O10 0.083989 0.769040 0.618896
O O11 0.215176 0.189609 0.831472
O O12 0.141052 0.071015 0.877152
O O13 0.250000 0.138725 0.000000
O O14 0.899723 0.750000 0.500000
O O15 0.866374 0.737514 0.300289
O O16 0.972588 0.834787 0.373003
O O17 0.750000 0.495348 0.000000
O O18 0.000000 0.500000 0.000000
#
# Coordination Sequence:
#
# PCOD9396047 Si02
#       8
#     8   8   8   8   8   4   8   8
#     4  12  24  42  69  95 140 178 225 282 354 412
#     4  12  25  40  60  99 140 179 221 270 340 421
#     4  10  19  40  59  88 126 179 216 273 320 411
#     4  11  25  46  68  96 129 177 229 291 351 408
#     4  10  22  38  61  93 128 176 224 273 327 414
#     4  12  24  42  66  96 130 178 226 282 356 412
#     4  11  24  46  72 101 132 173 232 290 352 411
#     4  10  20  37  59  87 132 174 223 259 326 396
#
# _framework density 19.250119999999999
#
# number of rings (size 3 to 8) (size 9 to 14) (size 15 to 20)
#    0.000    1.067    6.667    0.800    5.600    1.600 
#    0.000    0.000    0.000    0.000    0.000    0.933 
#    0.000    0.000    0.000    0.000    0.000    0.000 
#
# Total GULP energy -334095.227589 kJ/mol
# GULP energy per Si atom -5568.253793 kJ/mol
# Density = 1.920631 g / cm^3
# Si number density = 19.250120 Si / 1000 Ang^3
#
#
#
# Elastic Constant Matrix: (Units=GPa)
#
#
# Indices 1 2 3 4 5 6 
#
# 1 97.5129 33.4399 41.7891 0.0000 0.0000 0.0000
# 2 33.4399 106.7850 44.7541 0.0000 0.0000 0.0000
# 3 41.7891 44.7541 101.2064 0.0000 0.0000 0.0000
# 4 0.0000 0.0000 0.0000 27.4129 0.0000 0.0000
# 5 0.0000 0.0000 0.0000 0.0000 37.0712 0.0000
# 6 0.0000 0.0000 0.0000 0.0000 0.0000 20.8304
#
#
#
# Elastic Compliance Matrix: (Units=1/GPa)
#
#
# Indices 1 2 3 4 5 6 
#
# 1 0.012873 -0.002214 -0.004336 0.000000 0.000000 0.000000
# 2 -0.002214 0.011876 -0.004337 0.000000 0.000000 0.000000
# 3 -0.004336 -0.004337 0.013589 0.000000 0.000000 0.000000
# 4 0.000000 0.000000 0.000000 0.036479 0.000000 0.000000
# 5 0.000000 0.000000 0.000000 0.000000 0.026975 0.000000
# 6 0.000000 0.000000 0.000000 0.000000 0.000000 0.048007
#
#
# Mechanical properties :
#
#
# Convention : Reuss Voigt Hill
#
# Bulk Modulus (GPa) = 60.37664 60.60782 60.49223
# Shear Modulus (GPa) = 28.23356 29.43098 28.83227
#
# Velocity S-wave (km/s) = 3.83387 3.91432 3.87430
# Velocity P-wave (km/s) = 7.14356 7.20985 7.17678
#
# Compressibility (1/GPa) = 0.01656270
#
# Stress axis : x y z
#
# Youngs Moduli (GPa) = 77.68497 84.20581 73.58718
#
# Poissons Ratio (x) = 0.18641 0.31909
# Poissons Ratio (y) = 0.17197 0.31918
# Poissons Ratio (z) = 0.33686 0.36524
#
# Static dielectric constant tensor:
#      x y z
#    x 1.713690 0.000000 0.000000 
#    y 0.000000 1.752090 0.000000 
#    z 0.000000 0.000000 1.679590 
# 
# From -- ./inp_files/20433.got.cif
#   From: 2010.05.17/outbox.cif.g08.bks.cpg/sg50_11_cif.got.tgz:20433.got - 2010.06.03 11:33:33.
