data_PCOD9396807
_publ_section_title
;
Structure prediction by ZEFSAII (Michael W. Deem and Ramdas Pophale) SiO2 
 PCOD9396807
Probable space group: P B A N
;
_chemical_formula_sum "Si O2"
_cell_formula_units_Z 40
_cell_length_a 25.311506
_cell_length_b 15.884768
_cell_length_c 4.982966
_cell_angle_alpha 90.000000
_cell_angle_beta 90.000000
_cell_angle_gamma 90.000000
_cell_volume 2003.488187
_symmetry_space_group_name_H-M "P B A N"
_symmetry_group_IT_number 50
_space_group.IT_coordinate_system_code '2'
_symmetry_cell_setting 'orthorhombic'
loop_
_space_group_symop_operation_xyz
x,y,z
1/2-x,1/2-y,z
x,1/2-y,-z
1/2-x,y,-z
-x,-y,-z
1/2+x,1/2+y,-z
-x,1/2+y,z
1/2+x,-y,z
loop_
_atom_site_type_symbol
_atom_site_label
_atom_site_fract_x
_atom_site_fract_y
_atom_site_fract_z
Si Si1 0.862853 0.846906 0.923213
Si Si2 0.034576 0.066135 0.834308
Si Si3 0.810388 0.923240 0.415266
Si Si4 0.393643 0.561988 0.622942
Si Si5 0.569148 0.159796 0.140210
O O1 0.916739 0.895455 0.998982
O O2 0.818724 0.885288 0.121142
O O3 0.869581 0.750000 0.000000
O O4 0.843518 0.865273 0.623319
O O5 0.991865 0.138947 0.782538
O O6 0.061802 0.012428 0.594868
O O7 0.000000 0.000000 0.000000
O O8 0.750000 0.926446 0.500000
O O9 0.838634 0.014246 0.412997
O O10 0.400771 0.637002 0.413279
O O11 0.405558 0.597070 0.918613
O O12 0.572267 0.250000 0.000000
#
# Coordination Sequence:
#
# PCOD9396807 Si02
#       5
#     8   8   8   8   8
#     4  11  23  37  56  86 118 144 182 234 279 323
#     4   9  19  36  57  82 115 154 188 220 267 334
#     4  11  23  40  61  80 106 150 192 229 278 334
#     4  10  21  38  57  81 112 147 190 232 270 330
#     4  11  21  35  58  86 116 147 182 228 282 333
#
# _framework density 19.965178000000002
#
# number of rings (size 3 to 8) (size 9 to 14) (size 15 to 20)
#    0.000    1.600    0.000    6.600    0.000    7.200 
#    0.000    8.000    0.000    3.600    0.000    0.000 
#    0.000    0.000    0.000    0.000    0.000    0.000 
#
# Total GULP energy -223277.976664 kJ/mol
# GULP energy per Si atom -5581.949417 kJ/mol
# Density = 1.991974 g / cm^3
# Si number density = 19.965178 Si / 1000 Ang^3
#
#
#
# Elastic Constant Matrix: (Units=GPa)
#
#
# Indices 1 2 3 4 5 6 
#
# 1 93.7988 28.2789 -12.3214 0.0000 0.0000 0.0000
# 2 28.2789 84.3307 -13.6925 0.0000 0.0000 0.0000
# 3 -12.3214 -13.6925 52.6069 0.0000 0.0000 0.0000
# 4 0.0000 0.0000 0.0000 36.8617 0.0000 0.0000
# 5 0.0000 0.0000 0.0000 0.0000 22.4029 0.0000
# 6 0.0000 0.0000 0.0000 0.0000 0.0000 9.1678
#
#
#
# Elastic Compliance Matrix: (Units=1/GPa)
#
#
# Indices 1 2 3 4 5 6 
#
# 1 0.012029 -0.003734 0.001846 0.000000 0.000000 0.000000
# 2 -0.003734 0.013540 0.002650 0.000000 0.000000 0.000000
# 3 0.001846 0.002650 0.020131 0.000000 0.000000 0.000000
# 4 0.000000 0.000000 0.000000 0.027128 0.000000 0.000000
# 5 0.000000 0.000000 0.000000 0.000000 0.044637 0.000000
# 6 0.000000 0.000000 0.000000 0.000000 0.000000 0.109077
#
#
# Mechanical properties :
#
#
# Convention : Reuss Voigt Hill
#
# Bulk Modulus (GPa) = 21.17624 26.14073 23.65848
# Shear Modulus (GPa) = 20.76739 28.91792 24.84266
#
# Velocity S-wave (km/s) = 3.22868 3.80994 3.53129
# Velocity P-wave (km/s) = 4.95266 5.69875 5.33875
#
# Compressibility (1/GPa) = 0.04722275
#
# Stress axis : x y z
#
# Youngs Moduli (GPa) = 83.13006 73.85254 49.67508
#
# Poissons Ratio (x) = 0.27578 -0.09168
# Poissons Ratio (y) = 0.31042 -0.13162
# Poissons Ratio (z) = -0.15342 -0.19569
#
# Static dielectric constant tensor:
#      x y z
#    x 1.700960 0.000000 0.000000 
#    y 0.000000 1.740720 0.000000 
#    z 0.000000 0.000000 1.706480 
# 
# From -- ./inp_files/5893.got.cif
#   From: 2010.05.17/outbox.cif.g08.bks.cpg/sg50_3_cif.got.tgz:5893.got - 2010.06.03 11:33:33.
