data_PCOD9396491
_publ_section_title
;
Structure prediction by ZEFSAII (Michael W. Deem and Ramdas Pophale) SiO2 
 PCOD9396491
Probable space group: P B A N
;
_chemical_formula_sum "Si O2"
_cell_formula_units_Z 48
_cell_length_a 11.425161
_cell_length_b 19.251467
_cell_length_c 11.005767
_cell_angle_alpha 90.000000
_cell_angle_beta 90.000000
_cell_angle_gamma 90.000000
_cell_volume 2420.730668
_symmetry_space_group_name_H-M "P B A N"
_symmetry_group_IT_number 50
_space_group.IT_coordinate_system_code '2'
_symmetry_cell_setting 'orthorhombic'
loop_
_space_group_symop_operation_xyz
x,y,z
1/2-x,1/2-y,z
x,1/2-y,-z
1/2-x,y,-z
-x,-y,-z
1/2+x,1/2+y,-z
-x,1/2+y,z
1/2+x,-y,z
loop_
_atom_site_type_symbol
_atom_site_label
_atom_site_fract_x
_atom_site_fract_y
_atom_site_fract_z
Si Si1 0.625038 0.920612 0.941689
Si Si2 0.003594 0.470286 0.816457
Si Si3 0.128467 0.586461 0.660503
Si Si4 0.119533 0.270054 0.141214
Si Si5 0.895777 0.110008 0.393973
Si Si6 0.617180 0.252659 0.726087
O O1 0.603072 0.853013 0.861331
O O2 0.611752 0.988139 0.858615
O O3 0.750000 0.911900 0.000000
O O4 0.544715 0.932524 0.060458
O O5 0.085212 0.531658 0.760907
O O6 0.982249 0.417216 0.708784
O O7 0.267462 0.580959 0.639573
O O8 0.071742 0.581162 0.526237
O O9 0.106296 0.666960 0.691670
O O10 0.250000 0.250000 0.191063
O O11 0.001636 0.237989 0.198178
O O12 0.121705 0.250000 0.000000
O O13 0.883601 0.193774 0.379640
O O14 0.750000 0.250000 0.782619
#
# Coordination Sequence:
#
# PCOD9396491 Si02
#       6
#     8   8   8   8   8   8
#     4  11  22  38  58  85 118 161 198 241 300 357
#     4  11  22  37  60  86 122 152 203 248 299 359
#     4  10  20  39  60  86 120 153 199 252 301 355
#     4  11  21  37  61  85 119 160 201 244 296 362
#     4  10  21  36  61  89 115 157 201 247 302 359
#     4  10  21  39  62  89 118 155 204 253 299 354
#
# _framework density 19.828724000000001
#
# number of rings (size 3 to 8) (size 9 to 14) (size 15 to 20)
#    0.000    1.500    3.333    3.000    0.000    2.333 
#    0.000    0.000    0.000    4.000    0.000    0.000 
#    0.000    0.000    0.000    0.000    0.000    0.000 
#
# Total GULP energy -267233.567792 kJ/mol
# GULP energy per Si atom -5567.365996 kJ/mol
# Density = 1.978359 g / cm^3
# Si number density = 19.828724 Si / 1000 Ang^3
#
#
#
# Elastic Constant Matrix: (Units=GPa)
#
#
# Indices 1 2 3 4 5 6 
#
# 1 78.9164 18.6361 28.1347 0.0000 0.0000 0.0000
# 2 18.6361 94.1225 15.4035 0.0000 0.0000 0.0000
# 3 28.1347 15.4035 54.1855 0.0000 0.0000 0.0000
# 4 0.0000 0.0000 0.0000 34.9536 0.0000 0.0000
# 5 0.0000 0.0000 0.0000 0.0000 23.9043 0.0000
# 6 0.0000 0.0000 0.0000 0.0000 0.0000 -12.6858
#
#
#
# Elastic Compliance Matrix: (Units=1/GPa)
#
#
# Indices 1 2 3 4 5 6 
#
# 1 0.015861 -0.001880 -0.007701 0.000000 0.000000 0.000000
# 2 -0.001880 0.011366 -0.002255 0.000000 0.000000 0.000000
# 3 -0.007701 -0.002255 0.023095 0.000000 0.000000 0.000000
# 4 0.000000 0.000000 0.000000 0.028609 0.000000 0.000000
# 5 0.000000 0.000000 0.000000 0.000000 0.041833 0.000000
# 6 0.000000 0.000000 0.000000 0.000000 0.000000 -0.078828
#
#
# Mechanical properties :
#
#
# Convention : Reuss Voigt Hill
#
# Bulk Modulus (GPa) = 37.52401 39.06366 38.29384
# Shear Modulus (GPa) = 67.12186 20.23776 43.67981
#
# Velocity S-wave (km/s) = 5.82446 3.19819 4.69855
# Velocity P-wave (km/s) = 8.01234 5.77765 6.98494
#
# Compressibility (1/GPa) = 0.02664960
#
# Stress axis : x y z
#
# Youngs Moduli (GPa) = 63.04696 87.98386 43.29996
#
# Poissons Ratio (x) = 0.16542 0.33346
# Poissons Ratio (y) = 0.11854 0.09763
# Poissons Ratio (z) = 0.48553 0.19838
#
# Static dielectric constant tensor:
#      x y z
#    x 1.739570 0.000000 0.000000 
#    y 0.000000 1.774540 0.000000 
#    z 0.000000 0.000000 1.717690 
# 
# From -- ./inp_files/20171.got.cif
#   From: 2010.05.17/outbox.cif.g08.bks.cpg/sg50_11_cif.got.tgz:20171.got - 2010.06.03 11:33:33.
