data_PCOD9396182
_publ_section_title
;
Structure prediction by ZEFSAII (Michael W. Deem and Ramdas Pophale) SiO2 
 PCOD9396182
Probable space group: P B A N
;
_chemical_formula_sum "Si O2"
_cell_formula_units_Z 64
_cell_length_a 12.078860
_cell_length_b 32.631409
_cell_length_c 7.683642
_cell_angle_alpha 90.000000
_cell_angle_beta 90.000000
_cell_angle_gamma 90.000000
_cell_volume 3028.509192
_symmetry_space_group_name_H-M "P B A N"
_symmetry_group_IT_number 50
_space_group.IT_coordinate_system_code '2'
_symmetry_cell_setting 'orthorhombic'
loop_
_space_group_symop_operation_xyz
x,y,z
1/2-x,1/2-y,z
x,1/2-y,-z
1/2-x,y,-z
-x,-y,-z
1/2+x,1/2+y,-z
-x,1/2+y,z
1/2+x,-y,z
loop_
_atom_site_type_symbol
_atom_site_label
_atom_site_fract_x
_atom_site_fract_y
_atom_site_fract_z
Si Si1 0.506525 0.921517 0.785350
Si Si2 0.484993 0.168340 0.791244
Si Si3 0.525482 0.171107 0.203718
Si Si4 0.209257 0.026804 0.694605
Si Si5 0.147498 0.094950 0.115574
Si Si6 0.878302 0.751859 0.213254
Si Si7 0.259056 0.939518 0.710662
Si Si8 0.268538 0.651345 0.705526
O O1 0.501533 0.874152 0.720346
O O2 0.594841 0.949126 0.687973
O O3 0.387025 0.940975 0.763835
O O4 0.553291 0.919622 0.981578
O O5 0.409160 0.128229 0.758236
O O6 0.429854 0.209448 0.724320
O O7 0.611106 0.169378 0.731922
O O8 0.493047 0.168791 0.001209
O O9 0.451808 0.208989 0.271092
O O10 0.659465 0.173788 0.218628
O O11 0.250000 0.021539 0.500000
O O12 0.295726 0.056065 0.794127
O O13 0.200359 0.981029 0.772036
O O14 0.250000 0.113842 0.000000
O O15 0.750000 0.750000 0.263416
O O16 0.881934 0.750000 0.000000
O O17 0.250000 0.937317 0.500000
O O18 0.221142 0.895170 0.778360
O O19 0.250000 0.649437 0.500000
#
# Coordination Sequence:
#
# PCOD9396182 Si02
#       8
#     8   8   8   8   8   8   8   8
#     4   9  19  36  55  77 112 151 177 231 292 325
#     4  10  20  34  60  87 110 144 187 232 275 329
#     4   9  19  37  58  80 115 145 183 230 275 333
#     4  10  21  34  54  80 107 145 192 235 279 336
#     4   9  20  35  55  83 117 147 182 232 288 341
#     4   9  19  32  59  89 109 142 185 230 274 327
#     4   9  20  36  55  78 106 146 194 233 272 335
#     4  10  21  38  58  80 110 151 188 225 281 332
#
# _framework density 21.132508999999999
#
# number of rings (size 3 to 8) (size 9 to 14) (size 15 to 20)
#    0.000    2.625    0.000    0.375    7.000    7.000 
#    0.000   13.125    0.000    0.750    0.000    0.000 
#    0.000    0.000    0.000    0.000    0.000    0.000 
#
# Total GULP energy -356913.195479 kJ/mol
# GULP energy per Si atom -5576.768679 kJ/mol
# Density = 2.108441 g / cm^3
# Si number density = 21.132509 Si / 1000 Ang^3
#
#
#
# Elastic Constant Matrix: (Units=GPa)
#
#
# Indices 1 2 3 4 5 6 
#
# 1 145.7744 67.8003 -0.8395 0.0000 0.0000 0.0000
# 2 67.8003 100.0409 -3.6828 0.0000 0.0000 0.0000
# 3 -0.8395 -3.6828 18.3094 0.0000 0.0000 0.0000
# 4 0.0000 0.0000 0.0000 19.8760 0.0000 0.0000
# 5 0.0000 0.0000 0.0000 0.0000 8.5499 0.0000
# 6 0.0000 0.0000 0.0000 0.0000 0.0000 -4.9571
#
#
#
# Elastic Compliance Matrix: (Units=1/GPa)
#
#
# Indices 1 2 3 4 5 6 
#
# 1 0.010033 -0.006833 -0.000914 0.000000 0.000000 0.000000
# 2 -0.006833 0.014724 0.002648 0.000000 0.000000 0.000000
# 3 -0.000914 0.002648 0.055107 0.000000 0.000000 0.000000
# 4 0.000000 0.000000 0.000000 0.050312 0.000000 0.000000
# 5 0.000000 0.000000 0.000000 0.000000 0.116960 0.000000
# 6 0.000000 0.000000 0.000000 0.000000 0.000000 -0.201729
#
#
# Mechanical properties :
#
#
# Convention : Reuss Voigt Hill
#
# Bulk Modulus (GPa) = 14.35414 43.40897 28.88156
# Shear Modulus (GPa) = 63.42903 18.08354 40.75628
#
# Velocity S-wave (km/s) = 5.48453 2.92844 4.39635
# Velocity P-wave (km/s) = 6.84938 5.65865 6.28229
#
# Compressibility (1/GPa) = 0.06966630
#
# Stress axis : x y z
#
# Youngs Moduli (GPa) = 99.67345 67.91454 18.14637
#
# Poissons Ratio (x) = 0.46407 0.01659
# Poissons Ratio (y) = 0.68108 -0.04806
# Poissons Ratio (z) = 0.09115 -0.17987
#
# Static dielectric constant tensor:
#      x y z
#    x -0.541460 0.000000 0.000000 
#    y 0.000000 1.808670 0.000000 
#    z 0.000000 0.000000 1.804650 
# 
# From -- ./inp_files/11854.got.cif
#   From: 2010.05.17/outbox.cif.g08.bks.cpg/sg50_6_cif.got.tgz:11854.got - 2010.06.03 11:33:33.
