data_PCOD9396022
_publ_section_title
;
Structure prediction by ZEFSAII (Michael W. Deem and Ramdas Pophale) SiO2 
 PCOD9396022
Probable space group: P B A N
;
_chemical_formula_sum "Si O2"
_cell_formula_units_Z 48
_cell_length_a 16.372339
_cell_length_b 13.260888
_cell_length_c 11.094829
_cell_angle_alpha 90.000000
_cell_angle_beta 90.000000
_cell_angle_gamma 90.000000
_cell_volume 2408.817782
_symmetry_space_group_name_H-M "P B A N"
_symmetry_group_IT_number 50
_space_group.IT_coordinate_system_code '2'
_symmetry_cell_setting 'orthorhombic'
loop_
_space_group_symop_operation_xyz
x,y,z
1/2-x,1/2-y,z
x,1/2-y,-z
1/2-x,y,-z
-x,-y,-z
1/2+x,1/2+y,-z
-x,1/2+y,z
1/2+x,-y,z
loop_
_atom_site_type_symbol
_atom_site_label
_atom_site_fract_x
_atom_site_fract_y
_atom_site_fract_z
Si Si1 0.483254 0.385284 0.845760
Si Si2 0.609192 0.019100 0.322275
Si Si3 0.765017 0.369185 0.779575
Si Si4 0.970132 0.675655 0.264134
Si Si5 0.090522 0.919003 0.936102
Si Si6 0.883415 0.353407 0.559279
O O1 0.523826 0.439874 0.731492
O O2 0.446580 0.283091 0.792751
O O3 0.425008 0.460869 0.920095
O O4 0.559755 0.373668 0.937879
O O5 0.602456 0.899882 0.299388
O O6 0.683557 0.068719 0.248490
O O7 0.612592 0.060847 0.457835
O O8 0.750000 0.250000 0.782822
O O9 0.817964 0.396571 0.896567
O O10 0.824463 0.388266 0.665759
O O11 0.027999 0.629251 0.160071
O O12 0.030601 0.678184 0.379407
O O13 0.850829 0.250000 0.500000
#
# Coordination Sequence:
#
# PCOD9396022 Si02
#       6
#     8   8   8   8   8   8
#     4  10  19  38  57  79 112 145 191 241 290 357
#     4  11  21  33  54  84 114 147 194 241 299 354
#     4  11  21  35  56  83 115 149 187 246 305 356
#     4  10  20  34  56  82 108 151 193 243 287 350
#     4   9  21  36  57  82 109 148 189 235 298 359
#     4  11  19  35  56  78 114 154 197 243 297 350
#
# _framework density 19.926787000000001
#
# number of rings (size 3 to 8) (size 9 to 14) (size 15 to 20)
#    0.000    1.667    3.333    2.500    0.000    0.667 
#    0.000    3.333    0.000    0.000    0.000    7.000 
#    0.000    0.000    0.000    0.000    0.000    0.000 
#
# Total GULP energy -267801.198071 kJ/mol
# GULP energy per Si atom -5579.191626 kJ/mol
# Density = 1.988143 g / cm^3
# Si number density = 19.926787 Si / 1000 Ang^3
#
#
#
# Elastic Constant Matrix: (Units=GPa)
#
#
# Indices 1 2 3 4 5 6 
#
# 1 54.4080 27.5372 19.4788 0.0000 0.0000 0.0000
# 2 27.5372 120.6916 25.7652 0.0000 0.0000 0.0000
# 3 19.4788 25.7652 82.5654 0.0000 0.0000 0.0000
# 4 0.0000 0.0000 0.0000 30.3842 0.0000 0.0000
# 5 0.0000 0.0000 0.0000 0.0000 14.3680 0.0000
# 6 0.0000 0.0000 0.0000 0.0000 0.0000 25.8770
#
#
#
# Elastic Compliance Matrix: (Units=1/GPa)
#
#
# Indices 1 2 3 4 5 6 
#
# 1 0.021870 -0.004166 -0.003860 0.000000 0.000000 0.000000
# 2 -0.004166 0.009670 -0.002035 0.000000 0.000000 0.000000
# 3 -0.003860 -0.002035 0.013657 0.000000 0.000000 0.000000
# 4 0.000000 0.000000 0.000000 0.032912 0.000000 0.000000
# 5 0.000000 0.000000 0.000000 0.000000 0.069599 0.000000
# 6 0.000000 0.000000 0.000000 0.000000 0.000000 0.038644
#
#
# Mechanical properties :
#
#
# Convention : Reuss Voigt Hill
#
# Bulk Modulus (GPa) = 39.87755 44.80305 42.34030
# Shear Modulus (GPa) = 23.27396 26.45144 24.86270
#
# Velocity S-wave (km/s) = 3.42127 3.64735 3.53612
# Velocity P-wave (km/s) = 5.97179 6.34588 6.16167
#
# Compressibility (1/GPa) = 0.02507677
#
# Stress axis : x y z
#
# Youngs Moduli (GPa) = 45.72501 103.40727 73.22165
#
# Poissons Ratio (x) = 0.43079 0.28260
# Poissons Ratio (y) = 0.19049 0.14900
# Poissons Ratio (z) = 0.17648 0.21043
#
# Static dielectric constant tensor:
#      x y z
#    x 1.716900 0.000000 0.000000 
#    y 0.000000 1.767670 0.000000 
#    z 0.000000 0.000000 1.748650 
# 
# From -- ./inp_files/21781.got.cif
#   From: 2010.05.17/outbox.cif.g08.bks.cpg/sg50_11_cif.got.tgz:21781.got - 2010.06.03 11:33:33.
