data_PCOD9396385
_publ_section_title
;
Structure prediction by ZEFSAII (Michael W. Deem and Ramdas Pophale) SiO2 
 PCOD9396385
Probable space group: P B A N
;
_chemical_formula_sum "Si O2"
_cell_formula_units_Z 30
_cell_length_a 7.330423
_cell_length_b 28.903143
_cell_length_c 6.329379
_cell_angle_alpha 90.000000
_cell_angle_beta 90.000000
_cell_angle_gamma 90.000000
_cell_volume 1341.019860
_symmetry_space_group_name_H-M "P B A N"
_symmetry_group_IT_number 50
_space_group.IT_coordinate_system_code '2'
_symmetry_cell_setting 'orthorhombic'
loop_
_space_group_symop_operation_xyz
x,y,z
1/2-x,1/2-y,z
x,1/2-y,-z
1/2-x,y,-z
-x,-y,-z
1/2+x,1/2+y,-z
-x,1/2+y,z
1/2+x,-y,z
loop_
_atom_site_type_symbol
_atom_site_label
_atom_site_fract_x
_atom_site_fract_y
_atom_site_fract_z
Si Si1 0.936096 0.941128 0.764258
Si Si2 0.750000 0.250000 0.500000
Si Si3 0.614672 0.174681 0.192462
Si Si4 0.250000 0.984308 0.000000
Si Si5 0.750000 0.405439 0.500000
Si Si6 0.750000 0.639482 0.000000
O O1 0.071140 0.934457 0.568068
O O2 0.793321 0.982892 0.797968
O O3 0.833487 0.894075 0.819512
O O4 0.077131 0.952868 0.953612
O O5 0.628732 0.216454 0.356430
O O6 0.688041 0.128476 0.310602
O O7 0.750000 0.184211 0.000000
O O8 0.414032 0.167581 0.101486
#
# Coordination Sequence:
#
# PCOD9396385 Si02
#       6
#     8   2   8   4   4   4
#     4  10  20  37  62  99 134 188 232 289 331 409
#     4  10  26  48  78 102 140 166 222 272 350 418
#     4  11  23  47  73 103 138 179 213 285 343 411
#     4   9  20  38  60  91 150 186 228 293 368 360
#     4  11  22  39  72 100 134 182 246 278 330 407
#     4  11  22  42  77  97 138 186 226 271 352 401
#
# _framework density 22.371033000000001
#
# number of rings (size 3 to 8) (size 9 to 14) (size 15 to 20)
#    0.000    1.600    2.667    2.000    0.000    2.133 
#    0.000    4.000    0.000    0.000    0.000    0.000 
#    0.000    0.000    0.000    0.000    0.000    0.000 
#
# Total GULP energy -167752.370863 kJ/mol
# GULP energy per Si atom -5591.745695 kJ/mol
# Density = 2.232012 g / cm^3
# Si number density = 22.371033 Si / 1000 Ang^3
#
#
#
# Elastic Constant Matrix: (Units=GPa)
#
#
# Indices 1 2 3 4 5 6 
#
# 1 162.5882 56.6929 47.9372 0.0000 0.0000 0.0000
# 2 56.6929 89.3059 48.9822 0.0000 0.0000 0.0000
# 3 47.9372 48.9822 92.8803 0.0000 0.0000 0.0000
# 4 0.0000 0.0000 0.0000 -19.9719 0.0000 0.0000
# 5 0.0000 0.0000 0.0000 0.0000 52.5332 0.0000
# 6 0.0000 0.0000 0.0000 0.0000 0.0000 -11.7506
#
#
#
# Elastic Compliance Matrix: (Units=1/GPa)
#
#
# Indices 1 2 3 4 5 6 
#
# 1 0.008177 -0.004046 -0.002086 0.000000 0.000000 0.000000
# 2 -0.004046 0.017757 -0.007276 0.000000 0.000000 0.000000
# 3 -0.002086 -0.007276 0.015680 0.000000 0.000000 0.000000
# 4 0.000000 0.000000 0.000000 -0.050070 0.000000 0.000000
# 5 0.000000 0.000000 0.000000 0.000000 0.019036 0.000000
# 6 0.000000 0.000000 0.000000 0.000000 0.000000 -0.085102
#
#
# Mechanical properties :
#
#
# Convention : Reuss Voigt Hill
#
# Bulk Modulus (GPa) = 67.58249 72.44437 70.01343
# Shear Modulus (GPa) = -116.89556 16.90626 -49.99465
#
# Velocity S-wave (km/s) = -7.23647 2.75202 -4.73249
# Velocity P-wave (km/s) = 6.28861 6.52316 1.22575
#
# Compressibility (1/GPa) = 0.01479673
#
# Stress axis : x y z
#
# Youngs Moduli (GPa) = 122.30151 56.31601 63.77402
#
# Poissons Ratio (x) = 0.22788 0.13304
# Poissons Ratio (y) = 0.49488 0.46402
# Poissons Ratio (z) = 0.25513 0.40976
#
# Static dielectric constant tensor:
#      x y z
#    x 1.828520 0.000000 0.000000 
#    y 0.000000 1.825700 0.000000 
#    z 0.000000 0.000000 1.884750 
# 
# From -- ./inp_files/1193.got.cif
#   From: 2010.05.17/outbox.cif.g08.bks.cpg/sg50_1_cif.got.tgz:1193.got - 2010.06.03 11:33:33.
