data_PCOD9396910
_publ_section_title
;
Structure prediction by ZEFSAII (Michael W. Deem and Ramdas Pophale) SiO2 
 PCOD9396910
Probable space group: P B A N
;
_chemical_formula_sum "Si O2"
_cell_formula_units_Z 34
_cell_length_a 24.000166
_cell_length_b 9.072609
_cell_length_c 7.539386
_cell_angle_alpha 90.000000
_cell_angle_beta 90.000000
_cell_angle_gamma 90.000000
_cell_volume 1641.656985
_symmetry_space_group_name_H-M "P B A N"
_symmetry_group_IT_number 50
_space_group.IT_coordinate_system_code '2'
_symmetry_cell_setting 'orthorhombic'
loop_
_space_group_symop_operation_xyz
x,y,z
1/2-x,1/2-y,z
x,1/2-y,-z
1/2-x,y,-z
-x,-y,-z
1/2+x,1/2+y,-z
-x,1/2+y,z
1/2+x,-y,z
loop_
_atom_site_type_symbol
_atom_site_label
_atom_site_fract_x
_atom_site_fract_y
_atom_site_fract_z
Si Si1 0.578177 0.006713 0.123467
Si Si2 0.999634 0.750000 0.000000
Si Si3 0.750000 0.750000 0.228113
Si Si4 0.827548 0.010448 0.172224
Si Si5 0.250000 0.750000 0.000000
Si Si6 0.652609 0.592073 0.559994
O O1 0.616405 0.990431 0.294776
O O2 0.539219 0.149669 0.121849
O O3 0.539247 0.863385 0.105489
O O4 0.617847 0.012265 0.950021
O O5 0.707275 0.639117 0.133903
O O6 0.710184 0.857059 0.345245
O O7 0.789233 0.146906 0.118646
O O8 0.839463 0.000433 0.381320
O O9 0.626862 0.750000 0.500000
#
# Coordination Sequence:
#
# PCOD9396910 Si02
#       6
#     8   4   4   8   2   8
#     4  11  23  43  65  90 124 164 214 269 320 373
#     4  10  23  44  66  88 122 164 215 278 330 368
#     4  10  21  39  66  93 123 170 217 247 292 379
#     4  11  23  42  64  96 133 170 210 251 311 382
#     4  12  26  38  62 104 144 172 190 244 330 380
#     4  10  21  39  65  96 124 164 215 258 303 376
#
# _framework density 20.710782999999999
#
# number of rings (size 3 to 8) (size 9 to 14) (size 15 to 20)
#    0.000    1.412    0.000    8.118    0.000    5.176 
#    0.000   30.588    0.000    0.000    0.000    0.000 
#    0.000    0.000    0.000    0.000    0.000    0.000 
#
# Total GULP energy -190121.861007 kJ/mol
# GULP energy per Si atom -5591.819441 kJ/mol
# Density = 2.066364 g / cm^3
# Si number density = 20.710783 Si / 1000 Ang^3
#
#
#
# Elastic Constant Matrix: (Units=GPa)
#
#
# Indices 1 2 3 4 5 6 
#
# 1 133.0982 68.6956 72.6107 0.0000 0.0000 0.0000
# 2 68.6956 130.4904 67.3730 0.0000 0.0000 0.0000
# 3 72.6107 67.3730 138.3618 0.0000 0.0000 0.0000
# 4 0.0000 0.0000 0.0000 10.6504 0.0000 0.0000
# 5 0.0000 0.0000 0.0000 0.0000 -20.6325 0.0000
# 6 0.0000 0.0000 0.0000 0.0000 0.0000 18.5481
#
#
#
# Elastic Compliance Matrix: (Units=1/GPa)
#
#
# Indices 1 2 3 4 5 6 
#
# 1 0.011960 -0.004082 -0.004289 0.000000 0.000000 0.000000
# 2 -0.004082 0.011630 -0.003521 0.000000 0.000000 0.000000
# 3 -0.004289 -0.003521 0.011193 0.000000 0.000000 0.000000
# 4 0.000000 0.000000 0.000000 0.093894 0.000000 0.000000
# 5 0.000000 0.000000 0.000000 0.000000 -0.048467 0.000000
# 6 0.000000 0.000000 0.000000 0.000000 0.000000 0.053914
#
#
# Mechanical properties :
#
#
# Convention : Reuss Voigt Hill
#
# Bulk Modulus (GPa) = 90.91466 91.03433 90.97449
# Shear Modulus (GPa) = 30.94591 14.59792 22.77192
#
# Velocity S-wave (km/s) = 3.86967 2.65777 3.31950
# Velocity P-wave (km/s) = 7.99740 7.31224 7.66248
#
# Compressibility (1/GPa) = 0.01099933
#
# Stress axis : x y z
#
# Youngs Moduli (GPa) = 83.61449 85.98341 89.34455
#
# Poissons Ratio (x) = 0.35096 0.38318
# Poissons Ratio (y) = 0.34129 0.31459
# Poissons Ratio (z) = 0.35860 0.30275
#
# Static dielectric constant tensor:
#      x y z
#    x 1.741190 0.000000 0.000000 
#    y 0.000000 1.732300 0.000000 
#    z 0.000000 0.000000 1.789300 
# 
# From -- ./inp_files/14971.got.cif
#   From: 2010.05.17/outbox.cif.g08.bks.cpg/sg50_8_cif.got.tgz:14971.got - 2010.06.03 11:33:33.
