data_PCOD9396574
_publ_section_title
;
Structure prediction by ZEFSAII (Michael W. Deem and Ramdas Pophale) SiO2 
 PCOD9396574
Probable space group: P B A N
;
_chemical_formula_sum "Si O2"
_cell_formula_units_Z 34
_cell_length_a 13.964811
_cell_length_b 12.842311
_cell_length_c 8.346837
_cell_angle_alpha 90.000000
_cell_angle_beta 90.000000
_cell_angle_gamma 90.000000
_cell_volume 1496.925470
_symmetry_space_group_name_H-M "P B A N"
_symmetry_group_IT_number 50
_space_group.IT_coordinate_system_code '2'
_symmetry_cell_setting 'orthorhombic'
loop_
_space_group_symop_operation_xyz
x,y,z
1/2-x,1/2-y,z
x,1/2-y,-z
1/2-x,y,-z
-x,-y,-z
1/2+x,1/2+y,-z
-x,1/2+y,z
1/2+x,-y,z
loop_
_atom_site_type_symbol
_atom_site_label
_atom_site_fract_x
_atom_site_fract_y
_atom_site_fract_z
Si Si1 0.523524 0.345036 0.388634
Si Si2 0.250000 0.750000 0.000000
Si Si3 0.427099 0.358693 0.042858
Si Si4 0.359307 0.011706 0.505744
Si Si5 0.114530 0.578188 0.854847
O O1 0.555704 0.250000 0.500000
O O2 0.481484 0.333082 0.210881
O O3 0.434781 0.395341 0.487461
O O4 0.608261 0.429833 0.371609
O O5 0.184065 0.827925 0.101368
O O6 0.367135 0.464510 0.064863
O O7 0.376918 0.250000 0.000000
O O8 0.509271 0.387890 0.914311
O O9 0.250000 0.044816 0.500000
O O10 0.377799 0.947927 0.668832
#
# Coordination Sequence:
#
# PCOD9396574 Si02
#       5
#     8   2   8   8   8
#     4  10  22  39  64  90 122 167 208 257 321 377
#     4  12  24  40  60  96 120 154 210 266 308 384
#     4  10  20  41  63  90 127 170 210 259 318 389
#     4  10  23  41  61  93 124 160 213 264 313 380
#     4  10  23  38  63  93 124 165 210 261 324 366
#
# _framework density 22.713221999999998
#
# number of rings (size 3 to 8) (size 9 to 14) (size 15 to 20)
#    0.000    1.882    1.176    1.412    3.294    2.824 
#    0.000    0.588    0.000    0.000    0.000    0.000 
#    0.000    0.000    0.000    0.000    0.000    0.000 
#
# Total GULP energy -189879.101863 kJ/mol
# GULP energy per Si atom -5584.679467 kJ/mol
# Density = 2.266153 g / cm^3
# Si number density = 22.713222 Si / 1000 Ang^3
#
#
#
# Elastic Constant Matrix: (Units=GPa)
#
#
# Indices 1 2 3 4 5 6 
#
# 1 62.1944 6.4503 -16.8391 0.0000 0.0000 0.0000
# 2 6.4503 146.3275 -1.4849 0.0000 0.0000 0.0000
# 3 -16.8391 -1.4849 51.1160 0.0000 0.0000 0.0000
# 4 0.0000 0.0000 0.0000 20.0316 0.0000 0.0000
# 5 0.0000 0.0000 0.0000 0.0000 7.9027 0.0000
# 6 0.0000 0.0000 0.0000 0.0000 0.0000 22.8061
#
#
#
# Elastic Compliance Matrix: (Units=1/GPa)
#
#
# Indices 1 2 3 4 5 6 
#
# 1 0.017729 -0.000722 0.005820 0.000000 0.000000 0.000000
# 2 -0.000722 0.006865 -0.000039 0.000000 0.000000 0.000000
# 3 0.005820 -0.000039 0.021479 0.000000 0.000000 0.000000
# 4 0.000000 0.000000 0.000000 0.049921 0.000000 0.000000
# 5 0.000000 0.000000 0.000000 0.000000 0.126539 0.000000
# 6 0.000000 0.000000 0.000000 0.000000 0.000000 0.043848
#
#
# Mechanical properties :
#
#
# Convention : Reuss Voigt Hill
#
# Bulk Modulus (GPa) = 17.79647 26.21005 22.00326
# Shear Modulus (GPa) = 18.18215 28.24885 23.21550
#
# Velocity S-wave (km/s) = 2.83240 3.53046 3.20052
# Velocity P-wave (km/s) = 4.30685 5.30882 4.83386
#
# Compressibility (1/GPa) = 0.05619092
#
# Stress axis : x y z
#
# Youngs Moduli (GPa) = 56.40417 145.65701 46.55640
#
# Poissons Ratio (x) = 0.10523 -0.27094
# Poissons Ratio (y) = 0.04075 0.00180
# Poissons Ratio (z) = -0.32824 0.00562
#
# Static dielectric constant tensor:
#      x y z
#    x 1.834050 0.000000 0.000000 
#    y 0.000000 1.910740 0.000000 
#    z 0.000000 0.000000 1.903580 
# 
# From -- ./inp_files/10714.got.cif
#   From: 2010.05.17/outbox.cif.g08.bks.cpg/sg50_6_cif.got.tgz:10714.got - 2010.06.03 11:33:33.
