data_PCOD9396771
_publ_section_title
;
Structure prediction by ZEFSAII (Michael W. Deem and Ramdas Pophale) SiO2 
 PCOD9396771
Probable space group: P B A N
;
_chemical_formula_sum "Si O2"
_cell_formula_units_Z 48
_cell_length_a 19.740660
_cell_length_b 8.842235
_cell_length_c 13.716060
_cell_angle_alpha 90.000000
_cell_angle_beta 90.000000
_cell_angle_gamma 90.000000
_cell_volume 2394.159598
_symmetry_space_group_name_H-M "P B A N"
_symmetry_group_IT_number 50
_space_group.IT_coordinate_system_code '2'
_symmetry_cell_setting 'orthorhombic'
loop_
_space_group_symop_operation_xyz
x,y,z
1/2-x,1/2-y,z
x,1/2-y,-z
1/2-x,y,-z
-x,-y,-z
1/2+x,1/2+y,-z
-x,1/2+y,z
1/2+x,-y,z
loop_
_atom_site_type_symbol
_atom_site_label
_atom_site_fract_x
_atom_site_fract_y
_atom_site_fract_z
Si Si1 0.851148 0.966458 0.781316
Si Si2 0.062379 0.920703 0.621759
Si Si3 0.417207 0.567231 0.404503
Si Si4 0.406650 0.370056 0.804096
Si Si5 0.273120 0.426929 0.898299
Si Si6 0.960600 0.385344 0.071915
O O1 0.873887 0.790929 0.777749
O O2 0.774186 0.990606 0.814019
O O3 0.861235 0.024544 0.672868
O O4 0.900841 0.043807 0.862059
O O5 0.098323 0.956980 0.518380
O O6 0.064834 0.739937 0.622540
O O7 0.089301 0.013680 0.714142
O O8 0.984106 0.968555 0.614213
O O9 0.352801 0.437040 0.881521
O O10 0.479903 0.339717 0.851535
O O11 0.250000 0.250000 0.901466
O O12 0.250000 0.495822 0.000000
O O13 0.938685 0.250000 0.000000
O O14 0.000000 0.500000 0.000000
#
# Coordination Sequence:
#
# PCOD9396771 Si02
#       6
#     8   8   8   8   8   8
#     4  11  22  39  61  90 119 157 201 250 297 356
#     4  10  21  37  59  88 119 155 193 249 309 363
#     4  10  21  37  59  87 121 153 194 249 309 362
#     4  11  22  38  63  89 117 160 202 246 301 354
#     4   9  20  39  61  83 120 163 202 240 291 356
#     4  12  24  36  57  90 121 154 197 253 296 352
#
# _framework density 20.048787999999998
#
# number of rings (size 3 to 8) (size 9 to 14) (size 15 to 20)
#    0.000    1.500    3.333    2.000    4.667    2.000 
#    0.000    1.667    0.000    5.000    0.000    0.000 
#    0.000    0.000    0.000    0.000    0.000    0.000 
#
# Total GULP energy -267835.796652 kJ/mol
# GULP energy per Si atom -5579.912430 kJ/mol
# Density = 2.000316 g / cm^3
# Si number density = 20.048788 Si / 1000 Ang^3
#
#
#
# Elastic Constant Matrix: (Units=GPa)
#
#
# Indices 1 2 3 4 5 6 
#
# 1 51.0497 -8.3871 6.1693 0.0000 0.0000 0.0000
# 2 -8.3871 47.0029 13.2587 0.0000 0.0000 0.0000
# 3 6.1693 13.2587 91.0045 0.0000 0.0000 0.0000
# 4 0.0000 0.0000 0.0000 39.3688 0.0000 0.0000
# 5 0.0000 0.0000 0.0000 0.0000 24.7173 0.0000
# 6 0.0000 0.0000 0.0000 0.0000 0.0000 15.2698
#
#
#
# Elastic Compliance Matrix: (Units=1/GPa)
#
#
# Indices 1 2 3 4 5 6 
#
# 1 0.020526 0.004229 -0.002008 0.000000 0.000000 0.000000
# 2 0.004229 0.023058 -0.003646 0.000000 0.000000 0.000000
# 3 -0.002008 -0.003646 0.011656 0.000000 0.000000 0.000000
# 4 0.000000 0.000000 0.000000 0.025401 0.000000 0.000000
# 5 0.000000 0.000000 0.000000 0.000000 0.040457 0.000000
# 6 0.000000 0.000000 0.000000 0.000000 0.000000 0.065489
#
#
# Mechanical properties :
#
#
# Convention : Reuss Voigt Hill
#
# Bulk Modulus (GPa) = 19.08731 23.45986 21.27359
# Shear Modulus (GPa) = 24.16621 27.73894 25.95257
#
# Velocity S-wave (km/s) = 3.47561 3.72367 3.60178
# Velocity P-wave (km/s) = 5.06435 5.49677 5.28498
#
# Compressibility (1/GPa) = 0.05239082
#
# Stress axis : x y z
#
# Youngs Moduli (GPa) = 48.71828 43.36815 85.79435
#
# Poissons Ratio (x) = -0.18340 0.17224
# Poissons Ratio (y) = -0.20603 0.31282
# Poissons Ratio (z) = 0.09781 0.15813
#
# Static dielectric constant tensor:
#      x y z
#    x 1.689290 0.000000 0.000000 
#    y 0.000000 1.744450 0.000000 
#    z 0.000000 0.000000 1.741950 
# 
# From -- ./inp_files/24968.got.cif
#   From: 2010.05.17/outbox.cif.g08.bks.cpg/sg50_13_cif.got.tgz:24968.got - 2010.06.03 11:33:33.
