data_PCOD9396285
_publ_section_title
;
Structure prediction by ZEFSAII (Michael W. Deem and Ramdas Pophale) SiO2 
 PCOD9396285
Probable space group: P B A N
;
_chemical_formula_sum "Si O2"
_cell_formula_units_Z 48
_cell_length_a 8.564003
_cell_length_b 11.471275
_cell_length_c 24.831926
_cell_angle_alpha 90.000000
_cell_angle_beta 90.000000
_cell_angle_gamma 90.000000
_cell_volume 2439.489242
_symmetry_space_group_name_H-M "P B A N"
_symmetry_group_IT_number 50
_space_group.IT_coordinate_system_code '2'
_symmetry_cell_setting 'orthorhombic'
loop_
_space_group_symop_operation_xyz
x,y,z
1/2-x,1/2-y,z
x,1/2-y,-z
1/2-x,y,-z
-x,-y,-z
1/2+x,1/2+y,-z
-x,1/2+y,z
1/2+x,-y,z
loop_
_atom_site_type_symbol
_atom_site_label
_atom_site_fract_x
_atom_site_fract_y
_atom_site_fract_z
Si Si1 0.173109 0.623758 0.228983
Si Si2 0.920438 0.994009 0.705115
Si Si3 0.832323 0.872919 0.357046
Si Si4 0.624702 0.561324 0.960281
Si Si5 0.661994 0.372750 0.103899
Si Si6 0.572465 0.877110 0.520338
O O1 0.250000 0.750000 0.233388
O O2 0.304498 0.534387 0.248621
O O3 0.136071 0.600068 0.166793
O O4 0.028458 0.606718 0.269643
O O5 0.811697 0.960624 0.654434
O O6 0.037039 0.095259 0.686462
O O7 0.750000 0.750000 0.350138
O O8 0.912439 0.878659 0.415167
O O9 0.726139 0.468865 0.924911
O O10 0.509020 0.634824 0.923013
O O11 0.750000 0.619513 0.000000
O O12 0.500000 0.500000 0.000000
O O13 0.750000 0.250000 0.098965
O O14 0.505100 0.750000 0.500000
O O15 0.750000 0.877398 0.500000
O O16 0.500000 0.000000 0.500000
#
# Coordination Sequence:
#
# PCOD9396285 Si02
#       6
#     8   8   8   8   8   8
#     4  10  20  37  57  86 116 151 196 237 296 356
#     4  10  22  36  59  87 118 150 194 245 299 349
#     4  11  21  38  60  85 116 155 194 244 295 354
#     4   9  19  35  54  82 114 149 198 243 289 349
#     4  10  20  36  59  81 115 158 192 245 300 350
#     4  11  23  42  63  89 122 159 201 248 301 363
#
# _framework density 19.676252000000002
#
# number of rings (size 3 to 8) (size 9 to 14) (size 15 to 20)
#    0.000    1.833    1.667    3.000    0.000    3.333 
#    0.000    5.833    0.000   14.000    0.000    0.000 
#    0.000    0.000    0.000    0.000    0.000    0.000 
#
# Total GULP energy -267471.623087 kJ/mol
# GULP energy per Si atom -5572.325481 kJ/mol
# Density = 1.963147 g / cm^3
# Si number density = 19.676252 Si / 1000 Ang^3
#
#
#
# Elastic Constant Matrix: (Units=GPa)
#
#
# Indices 1 2 3 4 5 6 
#
# 1 105.7350 34.6535 48.1141 0.0000 0.0000 0.0000
# 2 34.6535 92.7439 38.2115 0.0000 0.0000 0.0000
# 3 48.1141 38.2115 125.0147 0.0000 0.0000 0.0000
# 4 0.0000 0.0000 0.0000 -24.2597 0.0000 0.0000
# 5 0.0000 0.0000 0.0000 0.0000 49.9788 0.0000
# 6 0.0000 0.0000 0.0000 0.0000 0.0000 29.8118
#
#
#
# Elastic Compliance Matrix: (Units=1/GPa)
#
#
# Indices 1 2 3 4 5 6 
#
# 1 0.012149 -0.002990 -0.003762 0.000000 0.000000 0.000000
# 2 -0.002990 0.013072 -0.002845 0.000000 0.000000 0.000000
# 3 -0.003762 -0.002845 0.010317 0.000000 0.000000 0.000000
# 4 0.000000 0.000000 0.000000 -0.041221 0.000000 0.000000
# 5 0.000000 0.000000 0.000000 0.000000 0.020008 0.000000
# 6 0.000000 0.000000 0.000000 0.000000 0.000000 0.033544
#
#
# Mechanical properties :
#
#
# Convention : Reuss Voigt Hill
#
# Bulk Modulus (GPa) = 61.18293 62.82798 62.00546
# Shear Modulus (GPa) = 68.95599 24.60715 46.78157
#
# Velocity S-wave (km/s) = 5.92633 3.54022 4.88132
# Velocity P-wave (km/s) = 8.83124 6.97933 7.95933
#
# Compressibility (1/GPa) = 0.01634443
#
# Stress axis : x y z
#
# Youngs Moduli (GPa) = 82.30911 76.50230 96.93205
#
# Poissons Ratio (x) = 0.22871 0.36467
# Poissons Ratio (y) = 0.24607 0.27575
# Poissons Ratio (z) = 0.30966 0.21763
#
# Static dielectric constant tensor:
#      x y z
#    x 1.677630 0.000000 0.000000 
#    y 0.000000 1.701720 0.000000 
#    z 0.000000 0.000000 1.715030 
# 
# From -- ./inp_files/31583.got.cif
#   From: 2010.05.17/outbox.cif.g08.bks.cpg/sg50_16_cif.got.tgz:31583.got - 2010.06.03 11:33:33.
