data_PCOD9396504
_publ_section_title
;
Structure prediction by ZEFSAII (Michael W. Deem and Ramdas Pophale) SiO2 
 PCOD9396504
Probable space group: P B A N
;
_chemical_formula_sum "Si O2"
_cell_formula_units_Z 56
_cell_length_a 21.533841
_cell_length_b 16.233577
_cell_length_c 8.274375
_cell_angle_alpha 90.000000
_cell_angle_beta 90.000000
_cell_angle_gamma 90.000000
_cell_volume 2892.483744
_symmetry_space_group_name_H-M "P B A N"
_symmetry_group_IT_number 50
_space_group.IT_coordinate_system_code '2'
_symmetry_cell_setting 'orthorhombic'
loop_
_space_group_symop_operation_xyz
x,y,z
1/2-x,1/2-y,z
x,1/2-y,-z
1/2-x,y,-z
-x,-y,-z
1/2+x,1/2+y,-z
-x,1/2+y,z
1/2+x,-y,z
loop_
_atom_site_type_symbol
_atom_site_label
_atom_site_fract_x
_atom_site_fract_y
_atom_site_fract_z
Si Si1 0.119903 0.919750 0.192323
Si Si2 0.375166 0.346283 0.500076
Si Si3 0.604095 0.403187 0.171458
Si Si4 0.808600 0.576839 0.194925
Si Si5 0.321017 0.747612 0.308756
Si Si6 0.836844 0.582468 0.840503
Si Si7 0.022541 0.450077 0.653016
O O1 0.141070 0.836495 0.277563
O O2 0.180371 0.978740 0.187985
O O3 0.068646 0.984606 0.259251
O O4 0.097087 0.890718 0.018626
O O5 0.364557 0.250000 0.500000
O O6 0.329366 0.389273 0.369400
O O7 0.369238 0.374373 0.686876
O O8 0.440144 0.372856 0.419694
O O9 0.640297 0.326326 0.247064
O O10 0.644121 0.487259 0.183261
O O11 0.536778 0.421039 0.246737
O O12 0.736461 0.595543 0.178469
O O13 0.846489 0.606336 0.031854
O O14 0.250000 0.750000 0.240150
O O15 0.315270 0.750000 0.500000
O O16 0.000000 0.500000 0.500000
#
# Coordination Sequence:
#
# PCOD9396504 Si02
#       7
#     8   8   8   8   8   8   8
#     4  10  22  40  62  91 124 164 211 257 312 379
#     4  11  24  40  61  90 122 160 206 258 314 369
#     4  11  22  40  64  89 124 166 211 257 315 374
#     4   9  21  38  63  91 124 160 206 251 309 378
#     4  11  24  39  62  98 133 164 206 266 330 391
#     4  10  20  39  63  91 122 163 202 254 312 373
#     4  11  22  41  64  87 119 165 210 257 307 379
#
# _framework density 19.360524999999999
#
# number of rings (size 3 to 8) (size 9 to 14) (size 15 to 20)
#    0.000    1.571    1.429    3.000    2.000    5.714 
#    0.000    1.429    0.000    0.000    0.000    0.000 
#    0.000    0.000    0.000    0.000    0.000    0.000 
#
# Total GULP energy -311951.174299 kJ/mol
# GULP energy per Si atom -5570.556684 kJ/mol
# Density = 1.931646 g / cm^3
# Si number density = 19.360525 Si / 1000 Ang^3
#
#
#
# Elastic Constant Matrix: (Units=GPa)
#
#
# Indices 1 2 3 4 5 6 
#
# 1 70.5798 17.0769 20.3708 0.0000 0.0000 0.0000
# 2 17.0769 88.3086 36.7882 0.0000 0.0000 0.0000
# 3 20.3708 36.7882 108.9825 0.0000 0.0000 0.0000
# 4 0.0000 0.0000 0.0000 13.8953 0.0000 0.0000
# 5 0.0000 0.0000 0.0000 0.0000 21.4458 0.0000
# 6 0.0000 0.0000 0.0000 0.0000 0.0000 39.2896
#
#
#
# Elastic Compliance Matrix: (Units=1/GPa)
#
#
# Indices 1 2 3 4 5 6 
#
# 1 0.015290 -0.002055 -0.002164 0.000000 0.000000 0.000000
# 2 -0.002055 0.013453 -0.004157 0.000000 0.000000 0.000000
# 3 -0.002164 -0.004157 0.010984 0.000000 0.000000 0.000000
# 4 0.000000 0.000000 0.000000 0.071967 0.000000 0.000000
# 5 0.000000 0.000000 0.000000 0.000000 0.046629 0.000000
# 6 0.000000 0.000000 0.000000 0.000000 0.000000 0.025452
#
#
# Mechanical properties :
#
#
# Convention : Reuss Voigt Hill
#
# Bulk Modulus (GPa) = 43.52768 46.26031 44.89400
# Shear Modulus (GPa) = 24.01694 27.83513 25.92604
#
# Velocity S-wave (km/s) = 3.52591 3.79585 3.66337
# Velocity P-wave (km/s) = 6.25360 6.56942 6.41346
#
# Compressibility (1/GPa) = 0.02297389
#
# Stress axis : x y z
#
# Youngs Moduli (GPa) = 65.40107 74.33210 91.04474
#
# Poissons Ratio (x) = 0.15277 0.19705
# Poissons Ratio (y) = 0.13441 0.37848
# Poissons Ratio (z) = 0.14155 0.30901
#
# Static dielectric constant tensor:
#      x y z
#    x 1.715420 0.000000 0.000000 
#    y 0.000000 1.631000 0.000000 
#    z 0.000000 0.000000 1.681460 
# 
# From -- ./inp_files/15371.got.cif
#   From: 2010.05.17/outbox.cif.g08.bks.cpg/sg50_8_cif.got.tgz:15371.got - 2010.06.03 11:33:33.
