data_PCOD9396908
_publ_section_title
;
Structure prediction by ZEFSAII (Michael W. Deem and Ramdas Pophale) SiO2 
 PCOD9396908
Probable space group: P B A N
;
_chemical_formula_sum "Si O2"
_cell_formula_units_Z 44
_cell_length_a 5.123649
_cell_length_b 27.604021
_cell_length_c 15.584068
_cell_angle_alpha 90.000000
_cell_angle_beta 90.000000
_cell_angle_gamma 90.000000
_cell_volume 2204.106392
_symmetry_space_group_name_H-M "P B A N"
_symmetry_group_IT_number 50
_space_group.IT_coordinate_system_code '2'
_symmetry_cell_setting 'orthorhombic'
loop_
_space_group_symop_operation_xyz
x,y,z
1/2-x,1/2-y,z
x,1/2-y,-z
1/2-x,y,-z
-x,-y,-z
1/2+x,1/2+y,-z
-x,1/2+y,z
1/2+x,-y,z
loop_
_atom_site_type_symbol
_atom_site_label
_atom_site_fract_x
_atom_site_fract_y
_atom_site_fract_z
Si Si1 0.607229 0.180213 0.182392
Si Si2 0.128753 0.370547 0.753047
Si Si3 0.250000 0.409670 0.000000
Si Si4 0.750000 0.250000 0.678393
Si Si5 0.750000 0.339556 0.000000
Si Si6 0.853995 0.694768 0.406960
Si Si7 0.773797 0.531152 0.823307
O O1 0.333224 0.152816 0.180083
O O2 0.569436 0.224053 0.249553
O O3 0.837321 0.146040 0.221422
O O4 0.702137 0.190870 0.086455
O O5 0.205445 0.345887 0.662849
O O6 0.182578 0.427221 0.757566
O O7 0.502958 0.375454 0.007518
O O8 0.253658 0.444251 0.916897
O O9 0.655073 0.207665 0.614663
O O10 0.750000 0.750000 0.392540
O O11 0.750000 0.681161 0.500000
O O12 0.568173 0.487534 0.814216
#
# Coordination Sequence:
#
# PCOD9396908 Si02
#       7
#     8   8   4   4   4   8   8
#     4  11  21  37  58  82 123 167 203 243 297 349
#     4  11  22  41  59  87 124 161 195 251 308 363
#     4  12  22  37  56  87 117 152 212 264 308 337
#     4  10  22  38  60  90 128 156 204 245 295 366
#     4  12  20  36  58  82 121 168 205 248 293 355
#     4  10  21  39  65  95 123 152 190 249 307 369
#     4  12  23  38  60  86 118 161 208 256 304 353
#
# _framework density 19.962738999999999
#
# number of rings (size 3 to 8) (size 9 to 14) (size 15 to 20)
#    0.000    0.909    5.455    2.727    0.000    1.818 
#    0.000    0.000    0.000    4.364    0.000    0.000 
#    0.000    0.000    0.000    0.000    0.000    0.000 
#
# Total GULP energy -245276.647815 kJ/mol
# GULP energy per Si atom -5574.469269 kJ/mol
# Density = 1.991730 g / cm^3
# Si number density = 19.962739 Si / 1000 Ang^3
#
#
#
# Elastic Constant Matrix: (Units=GPa)
#
#
# Indices 1 2 3 4 5 6 
#
# 1 75.8583 -2.4415 0.9321 0.0000 0.0000 0.0000
# 2 -2.4415 53.3511 33.0683 0.0000 0.0000 0.0000
# 3 0.9321 33.0683 143.5767 0.0000 0.0000 0.0000
# 4 0.0000 0.0000 0.0000 31.2901 0.0000 0.0000
# 5 0.0000 0.0000 0.0000 0.0000 19.1858 0.0000
# 6 0.0000 0.0000 0.0000 0.0000 0.0000 26.0368
#
#
#
# Elastic Compliance Matrix: (Units=1/GPa)
#
#
# Indices 1 2 3 4 5 6 
#
# 1 0.013210 0.000767 -0.000262 0.000000 0.000000 0.000000
# 2 0.000767 0.021910 -0.005051 0.000000 0.000000 0.000000
# 3 -0.000262 -0.005051 0.008130 0.000000 0.000000 0.000000
# 4 0.000000 0.000000 0.000000 0.031959 0.000000 0.000000
# 5 0.000000 0.000000 0.000000 0.000000 0.052122 0.000000
# 6 0.000000 0.000000 0.000000 0.000000 0.000000 0.038407
#
#
# Mechanical properties :
#
#
# Convention : Reuss Voigt Hill
#
# Bulk Modulus (GPa) = 29.27634 37.32265 33.29949
# Shear Modulus (GPa) = 26.85043 31.38434 29.11739
#
# Velocity S-wave (km/s) = 3.67144 3.96933 3.82329
# Velocity P-wave (km/s) = 5.71576 6.30430 6.01723
#
# Compressibility (1/GPa) = 0.03415728
#
# Stress axis : x y z
#
# Youngs Moduli (GPa) = 75.69794 45.64187 123.00120
#
# Poissons Ratio (x) = -0.03502 0.03228
# Poissons Ratio (y) = -0.05808 0.62130
# Poissons Ratio (z) = 0.01987 0.23055
#
# Static dielectric constant tensor:
#      x y z
#    x 1.971130 0.000000 0.000000 
#    y 0.000000 1.725860 0.000000 
#    z 0.000000 0.000000 1.709920 
# 
# From -- ./inp_files/24054.got.cif
#   From: 2010.05.17/outbox.cif.g08.bks.cpg/sg50_13_cif.got.tgz:24054.got - 2010.06.03 11:33:33.
