data_PCOD9396093
_publ_section_title
;
Structure prediction by ZEFSAII (Michael W. Deem and Ramdas Pophale) SiO2 
 PCOD9396093
Probable space group: P B A N
;
_chemical_formula_sum "Si O2"
_cell_formula_units_Z 48
_cell_length_a 18.385677
_cell_length_b 8.933874
_cell_length_c 13.349381
_cell_angle_alpha 90.000000
_cell_angle_beta 90.000000
_cell_angle_gamma 90.000000
_cell_volume 2192.706871
_symmetry_space_group_name_H-M "P B A N"
_symmetry_group_IT_number 50
_space_group.IT_coordinate_system_code '2'
_symmetry_cell_setting 'orthorhombic'
loop_
_space_group_symop_operation_xyz
x,y,z
1/2-x,1/2-y,z
x,1/2-y,-z
1/2-x,y,-z
-x,-y,-z
1/2+x,1/2+y,-z
-x,1/2+y,z
1/2+x,-y,z
loop_
_atom_site_type_symbol
_atom_site_label
_atom_site_fract_x
_atom_site_fract_y
_atom_site_fract_z
Si Si1 0.250000 0.250000 0.184885
Si Si2 0.469316 0.002415 0.354072
Si Si3 0.347403 0.021341 0.216877
Si Si4 0.877479 0.540612 0.260714
Si Si5 0.261534 0.573569 0.391149
Si Si6 0.534497 0.250000 0.500000
Si Si7 0.663257 0.224239 0.116968
O O1 0.203252 0.386480 0.137948
O O2 0.319946 0.324249 0.241420
O O3 0.419292 0.078826 0.270109
O O4 0.431562 0.865486 0.417233
O O5 0.539988 0.938273 0.295308
O O6 0.489410 0.132062 0.432923
O O7 0.291787 0.994120 0.308490
O O8 0.371779 0.863607 0.173097
O O9 0.842751 0.454477 0.354953
O O10 0.865724 0.429121 0.165592
O O11 0.250000 0.750000 0.394062
O O12 0.250000 0.506499 0.500000
O O13 0.750000 0.250000 0.135924
O O14 0.650926 0.250000 0.000000
#
# Coordination Sequence:
#
# PCOD9396093 Si02
#       7
#     4   8   8   8   8   4   8
#     4  10  22  38  60  86 136 158 204 252 338 372
#     4  11  24  38  65  86 136 168 219 254 307 376
#     4  11  21  42  58  94 124 170 206 263 317 375
#     4  11  21  42  58  94 124 170 206 263 317 375
#     4  10  20  32  57  84 117 159 210 250 292 355
#     4  10  24  38  54  96 120 178 214 246 296 370
#     4  11  21  41  71  90 109 156 220 267 310 385
#
# _framework density 21.890750000000001
#
# number of rings (size 3 to 8) (size 9 to 14) (size 15 to 20)
#    0.000    1.333    5.000    2.000    4.667    0.000 
#    0.000    4.167    0.000    0.000    0.000    0.000 
#    0.000    0.000    0.000    0.000    0.000    0.000 
#
# Total GULP energy -267204.605099 kJ/mol
# GULP energy per Si atom -5566.762606 kJ/mol
# Density = 2.184093 g / cm^3
# Si number density = 21.890750 Si / 1000 Ang^3
#
#
#
# Elastic Constant Matrix: (Units=GPa)
#
#
# Indices 1 2 3 4 5 6 
#
# 1 91.3060 16.7299 12.3261 0.0000 0.0000 0.0000
# 2 16.7299 82.4184 3.0429 0.0000 0.0000 0.0000
# 3 12.3261 3.0429 84.4178 0.0000 0.0000 0.0000
# 4 0.0000 0.0000 0.0000 -8.6044 0.0000 0.0000
# 5 0.0000 0.0000 0.0000 0.0000 59.9031 0.0000
# 6 0.0000 0.0000 0.0000 0.0000 0.0000 16.1186
#
#
#
# Elastic Compliance Matrix: (Units=1/GPa)
#
#
# Indices 1 2 3 4 5 6 
#
# 1 0.011590 -0.002293 -0.001610 0.000000 0.000000 0.000000
# 2 -0.002293 0.012603 -0.000119 0.000000 0.000000 0.000000
# 3 -0.001610 -0.000119 0.012085 0.000000 0.000000 0.000000
# 4 0.000000 0.000000 0.000000 -0.116220 0.000000 0.000000
# 5 0.000000 0.000000 0.000000 0.000000 0.016694 0.000000
# 6 0.000000 0.000000 0.000000 0.000000 0.000000 0.062040
#
#
# Mechanical properties :
#
#
# Convention : Reuss Voigt Hill
#
# Bulk Modulus (GPa) = 35.41882 35.81555 35.61719
# Shear Modulus (GPa) = 307.74849 28.55304 168.15076
#
# Velocity S-wave (km/s) = 11.86967 3.61549 8.77385
# Velocity P-wave (km/s) = 14.28520 5.81597 10.90625
#
# Compressibility (1/GPa) = 0.02823358
#
# Stress axis : x y z
#
# Youngs Moduli (GPa) = 86.28399 79.34556 82.74603
#
# Poissons Ratio (x) = 0.18195 0.13319
# Poissons Ratio (y) = 0.19786 0.00988
# Poissons Ratio (z) = 0.13888 0.00948
#
# Static dielectric constant tensor:
#      x y z
#    x 1.858850 0.000000 0.000000 
#    y 0.000000 1.946870 0.000000 
#    z 0.000000 0.000000 1.853850 
# 
# From -- ./inp_files/26896.got.cif
#   From: 2010.05.17/outbox.cif.g08.bks.cpg/sg50_14_cif.got.tgz:26896.got - 2010.06.03 11:33:33.
