data_PCOD9396737
_publ_section_title
;
Structure prediction by ZEFSAII (Michael W. Deem and Ramdas Pophale) SiO2 
 PCOD9396737
Probable space group: P B A N
;
_chemical_formula_sum "Si O2"
_cell_formula_units_Z 48
_cell_length_a 16.525213
_cell_length_b 5.325639
_cell_length_c 26.735137
_cell_angle_alpha 90.000000
_cell_angle_beta 90.000000
_cell_angle_gamma 90.000000
_cell_volume 2352.887726
_symmetry_space_group_name_H-M "P B A N"
_symmetry_group_IT_number 50
_space_group.IT_coordinate_system_code '2'
_symmetry_cell_setting 'orthorhombic'
loop_
_space_group_symop_operation_xyz
x,y,z
1/2-x,1/2-y,z
x,1/2-y,-z
1/2-x,y,-z
-x,-y,-z
1/2+x,1/2+y,-z
-x,1/2+y,z
1/2+x,-y,z
loop_
_atom_site_type_symbol
_atom_site_label
_atom_site_fract_x
_atom_site_fract_y
_atom_site_fract_z
Si Si1 0.054738 0.006548 0.115584
Si Si2 0.300103 0.495947 0.303979
Si Si3 0.026687 0.829906 0.444139
Si Si4 0.550437 0.960734 0.231653
Si Si5 0.200603 0.003631 0.422864
Si Si6 0.156856 0.000302 0.022059
O O1 0.078667 0.012651 0.174012
O O2 0.999806 0.256254 0.106784
O O3 0.134429 0.002958 0.080401
O O4 0.250000 0.250000 0.288758
O O5 0.380281 0.506177 0.271626
O O6 0.315659 0.472663 0.363387
O O7 0.250000 0.750000 0.296376
O O8 0.000593 0.750000 0.500000
O O9 0.114307 0.955005 0.447131
O O10 0.027073 0.551288 0.419332
O O11 0.515344 0.681330 0.238163
O O12 0.250000 0.750000 0.431781
O O13 0.250000 0.250000 0.438920
O O14 0.119082 0.750000 0.000000
O O15 0.250000 0.000343 0.000000
O O16 0.118684 0.250000 0.000000
#
# Coordination Sequence:
#
# PCOD9396737 Si02
#       6
#     8   8   8   8   8   8
#     4  10  21  37  57  81 109 143 181 226 277 330
#     4  10  21  38  57  87 118 151 191 238 290 342
#     4  10  21  37  56  82 116 151 194 243 290 340
#     4  10  21  38  59  85 116 148 190 235 284 348
#     4  10  21  37  58  83 118 153 196 243 287 347
#     4  10  21  37  53  78 110 137 179 227 268 327
#
# _framework density 20.400462999999998
#
# number of rings (size 3 to 8) (size 9 to 14) (size 15 to 20)
#    0.000    2.000    0.000    3.000    0.000    3.667 
#    6.000    0.833    0.000    0.000    0.000    0.000 
#    0.000    0.000    0.000    0.000    0.000    0.000 
#
# Total GULP energy -267620.256258 kJ/mol
# GULP energy per Si atom -5575.422005 kJ/mol
# Density = 2.035403 g / cm^3
# Si number density = 20.400463 Si / 1000 Ang^3
#
#
#
# Elastic Constant Matrix: (Units=GPa)
#
#
# Indices 1 2 3 4 5 6 
#
# 1 77.3844 25.3491 43.3118 0.0000 0.0000 0.0000
# 2 25.3491 173.4737 28.2895 0.0000 0.0000 0.0000
# 3 43.3118 28.2895 41.8658 0.0000 0.0000 0.0000
# 4 0.0000 0.0000 0.0000 588.8863 0.0000 0.0000
# 5 0.0000 0.0000 0.0000 0.0000 36.9639 0.0000
# 6 0.0000 0.0000 0.0000 0.0000 0.0000 -0.2838
#
#
#
# Elastic Compliance Matrix: (Units=1/GPa)
#
#
# Indices 1 2 3 4 5 6 
#
# 1 0.030791 0.000781 -0.032382 0.000000 0.000000 0.000000
# 2 0.000781 0.006498 -0.005199 0.000000 0.000000 0.000000
# 3 -0.032382 -0.005199 0.060900 0.000000 0.000000 0.000000
# 4 0.000000 0.000000 0.000000 0.001698 0.000000 0.000000
# 5 0.000000 0.000000 0.000000 0.000000 0.027053 0.000000
# 6 0.000000 0.000000 0.000000 0.000000 0.000000 -3.523337
#
#
# Mechanical properties :
#
#
# Convention : Reuss Voigt Hill
#
# Bulk Modulus (GPa) = 40.66953 54.06939 47.36946
# Shear Modulus (GPa) = -1.50848 138.16485 68.32818
#
# Velocity S-wave (km/s) = -0.86084 8.23853 5.79363
# Velocity P-wave (km/s) = 4.35785 10.81940 8.24773
#
# Compressibility (1/GPa) = 0.02458843
#
# Stress axis : x y z
#
# Youngs Moduli (GPa) = 32.47735 153.88695 16.42042
#
# Poissons Ratio (x) = -0.12025 0.53173
# Poissons Ratio (y) = -0.02538 0.08538
# Poissons Ratio (z) = 1.05169 0.80012
#
# Static dielectric constant tensor:
#      x y z
#    x 1.734930 0.000000 0.000000 
#    y 0.000000 1.825260 0.000000 
#    z 0.000000 0.000000 1.726820 
# 
# From -- ./inp_files/32249.got.cif
#   From: 2010.05.17/outbox.cif.g08.bks.cpg/sg50_17_cif.got.tgz:32249.got - 2010.06.03 11:33:33.
