data_PCOD9396157
_publ_section_title
;
Structure prediction by ZEFSAII (Michael W. Deem and Ramdas Pophale) SiO2 
 PCOD9396157
Probable space group: P B A N
;
_chemical_formula_sum "Si O2"
_cell_formula_units_Z 64
_cell_length_a 8.746670
_cell_length_b 21.813953
_cell_length_c 14.764011
_cell_angle_alpha 90.000000
_cell_angle_beta 90.000000
_cell_angle_gamma 90.000000
_cell_volume 2816.965153
_symmetry_space_group_name_H-M "P B A N"
_symmetry_group_IT_number 50
_space_group.IT_coordinate_system_code '2'
_symmetry_cell_setting 'orthorhombic'
loop_
_space_group_symop_operation_xyz
x,y,z
1/2-x,1/2-y,z
x,1/2-y,-z
1/2-x,y,-z
-x,-y,-z
1/2+x,1/2+y,-z
-x,1/2+y,z
1/2+x,-y,z
loop_
_atom_site_type_symbol
_atom_site_label
_atom_site_fract_x
_atom_site_fract_y
_atom_site_fract_z
Si Si1 0.919362 0.060558 0.532231
Si Si2 0.741782 0.933138 0.264200
Si Si3 0.339920 0.588451 0.113309
Si Si4 0.871555 0.856117 0.575928
Si Si5 0.578650 0.276958 0.911671
Si Si6 0.964542 0.127306 0.710391
Si Si7 0.051501 0.525065 0.161520
Si Si8 0.567762 0.746710 0.718171
O O1 0.750000 0.055127 0.500000
O O2 0.941552 0.074708 0.637333
O O3 0.992662 0.117369 0.481527
O O4 0.000000 0.000000 0.500000
O O5 0.704931 0.912748 0.367044
O O6 0.834834 0.994706 0.237217
O O7 0.871580 0.883118 0.239198
O O8 0.583357 0.935954 0.208973
O O9 0.402394 0.650205 0.068271
O O10 0.334877 0.616658 0.216106
O O11 0.169406 0.561926 0.097085
O O12 0.459419 0.531530 0.114643
O O13 0.750000 0.832151 0.500000
O O14 0.941119 0.811133 0.651420
O O15 0.750000 0.250000 0.906114
O O16 0.500447 0.253736 0.819078
O O17 0.498500 0.250000 0.000000
O O18 0.985361 0.194759 0.671053
O O19 0.750000 0.750000 0.726383
#
# Coordination Sequence:
#
# PCOD9396157 Si02
#       8
#     8   8   8   8   8   8   8   8
#     4  12  29  39  57  85 127 171 225 285 339 401
#     4  10  20  34  55  87 125 167 216 272 336 384
#     4   9  20  37  67  97 134 173 227 278 353 417
#     4  12  25  41  60  92 130 181 231 283 340 407
#     4  10  24  45  71 106 142 178 225 296 361 442
#     4  10  22  41  55  91 126 167 225 276 334 410
#     4   9  20  34  63  98 129 171 222 283 335 420
#     4  11  23  43  73  95 128 176 230 281 346 410
#
# _framework density 22.719484000000001
#
# number of rings (size 3 to 8) (size 9 to 14) (size 15 to 20)
#    0.000    1.625    2.500    0.375    8.750    3.000 
#    0.000    0.625    0.000    3.000    0.000    0.000 
#    0.000    0.000    0.000    0.000    0.000    0.000 
#
# Total GULP energy -356772.307965 kJ/mol
# GULP energy per Si atom -5574.567312 kJ/mol
# Density = 2.266777 g / cm^3
# Si number density = 22.719484 Si / 1000 Ang^3
#
#
#
# Elastic Constant Matrix: (Units=GPa)
#
#
# Indices 1 2 3 4 5 6 
#
# 1 92.5088 25.6558 9.0362 0.0000 0.0000 0.0000
# 2 25.6558 113.0442 44.5219 0.0000 0.0000 0.0000
# 3 9.0362 44.5219 81.4375 0.0000 0.0000 0.0000
# 4 0.0000 0.0000 0.0000 32.9172 0.0000 0.0000
# 5 0.0000 0.0000 0.0000 0.0000 29.4693 0.0000
# 6 0.0000 0.0000 0.0000 0.0000 0.0000 23.3517
#
#
#
# Elastic Compliance Matrix: (Units=1/GPa)
#
#
# Indices 1 2 3 4 5 6 
#
# 1 0.011538 -0.002695 0.000193 0.000000 0.000000 0.000000
# 2 -0.002695 0.011903 -0.006208 0.000000 0.000000 0.000000
# 3 0.000193 -0.006208 0.015652 0.000000 0.000000 0.000000
# 4 0.000000 0.000000 0.000000 0.030379 0.000000 0.000000
# 5 0.000000 0.000000 0.000000 0.000000 0.033934 0.000000
# 6 0.000000 0.000000 0.000000 0.000000 0.000000 0.042823
#
#
# Mechanical properties :
#
#
# Convention : Reuss Voigt Hill
#
# Bulk Modulus (GPa) = 46.14027 49.49092 47.81559
# Shear Modulus (GPa) = 29.26141 30.99943 30.13042
#
# Velocity S-wave (km/s) = 3.59269 3.69784 3.64564
# Velocity P-wave (km/s) = 6.12884 6.32952 6.22999
#
# Compressibility (1/GPa) = 0.02167304
#
# Stress axis : x y z
#
# Youngs Moduli (GPa) = 86.66827 84.01434 63.88962
#
# Poissons Ratio (x) = 0.22639 -0.01232
# Poissons Ratio (y) = 0.23354 0.39664
# Poissons Ratio (z) = -0.01672 0.52158
#
# Static dielectric constant tensor:
#      x y z
#    x 1.842700 0.000000 0.000000 
#    y 0.000000 1.938220 0.000000 
#    z 0.000000 0.000000 1.988310 
# 
# From -- ./inp_files/25407.got.cif
#   From: 2010.05.17/outbox.cif.g08.bks.cpg/sg50_13_cif.got.tgz:25407.got - 2010.06.03 11:33:33.
