data_PCOD9396085
_publ_section_title
;
Structure prediction by ZEFSAII (Michael W. Deem and Ramdas Pophale) SiO2 
 PCOD9396085
Probable space group: P B A N
;
_chemical_formula_sum "Si O2"
_cell_formula_units_Z 38
_cell_length_a 14.802882
_cell_length_b 9.047782
_cell_length_c 13.566201
_cell_angle_alpha 90.000000
_cell_angle_beta 90.000000
_cell_angle_gamma 90.000000
_cell_volume 1816.965381
_symmetry_space_group_name_H-M "P B A N"
_symmetry_group_IT_number 50
_space_group.IT_coordinate_system_code '2'
_symmetry_cell_setting 'orthorhombic'
loop_
_space_group_symop_operation_xyz
x,y,z
1/2-x,1/2-y,z
x,1/2-y,-z
1/2-x,y,-z
-x,-y,-z
1/2+x,1/2+y,-z
-x,1/2+y,z
1/2+x,-y,z
loop_
_atom_site_type_symbol
_atom_site_label
_atom_site_fract_x
_atom_site_fract_y
_atom_site_fract_z
Si Si1 0.250000 0.250000 0.500000
Si Si2 0.133064 0.999657 0.554182
Si Si3 0.250000 0.750000 0.000000
Si Si4 0.943163 0.965949 0.661244
Si Si5 0.019977 0.193815 0.792492
Si Si6 0.750000 0.250000 0.500000
Si Si7 0.576686 0.436929 0.076921
O O1 0.310261 0.353725 0.569023
O O2 0.189930 0.853497 0.567747
O O3 0.043673 0.983929 0.615986
O O4 0.115135 0.009797 0.436090
O O5 0.325790 0.867760 0.045233
O O6 0.936419 0.808097 0.714245
O O7 0.941232 0.097348 0.739962
O O8 0.974053 0.300536 0.871357
O O9 0.084197 0.072884 0.844724
O O10 0.500000 0.500000 0.000000
#
# Coordination Sequence:
#
# PCOD9396085 Si02
#       7
#     2   8   2   8   8   2   8
#     4  10  20  32  52  82 128 160 226 290 300 364
#     4  10  20  36  57  84 120 184 219 251 332 380
#     4  12  24  44  84 102 128 186 218 264 360 448
#     4  10  20  37  63  87 123 176 223 253 321 398
#     4  10  21  38  67  96 130 167 211 294 322 382
#     4  10  20  32  54  78 116 160 222 282 296 366
#     4  11  22  45  73  98 134 172 216 274 343 417
#
# _framework density 20.913993000000001
#
# number of rings (size 3 to 8) (size 9 to 14) (size 15 to 20)
#    0.000    1.684    2.105    2.526    0.000    3.368 
#    0.000   17.895   18.526    0.000    0.000    0.000 
#    0.000    0.000    0.000    0.000    0.000    0.000 
#
# Total GULP energy -211597.382683 kJ/mol
# GULP energy per Si atom -5568.352176 kJ/mol
# Density = 2.086639 g / cm^3
# Si number density = 20.913993 Si / 1000 Ang^3
#
#
#
# Elastic Constant Matrix: (Units=GPa)
#
#
# Indices 1 2 3 4 5 6 
#
# 1 110.7876 57.2762 41.7167 0.0000 0.0000 0.0000
# 2 57.2762 186.4761 63.9214 0.0000 0.0000 0.0000
# 3 41.7167 63.9214 91.7268 0.0000 0.0000 0.0000
# 4 0.0000 0.0000 0.0000 40.2235 0.0000 0.0000
# 5 0.0000 0.0000 0.0000 0.0000 5.0930 0.0000
# 6 0.0000 0.0000 0.0000 0.0000 0.0000 3149.0683
#
#
#
# Elastic Compliance Matrix: (Units=1/GPa)
#
#
# Indices 1 2 3 4 5 6 
#
# 1 0.011600 -0.002305 -0.003669 0.000000 0.000000 0.000000
# 2 -0.002305 0.007504 -0.004181 0.000000 0.000000 0.000000
# 3 -0.003669 -0.004181 0.015484 0.000000 0.000000 0.000000
# 4 0.000000 0.000000 0.000000 0.024861 0.000000 0.000000
# 5 0.000000 0.000000 0.000000 0.000000 0.196349 0.000000
# 6 0.000000 0.000000 0.000000 0.000000 0.000000 0.000318
#
#
# Mechanical properties :
#
#
# Convention : Reuss Voigt Hill
#
# Bulk Modulus (GPa) = 70.04026 79.42435 74.73230
# Shear Modulus (GPa) = 17.78192 653.94870 335.86531
#
# Velocity S-wave (km/s) = 2.91905 17.70208 12.68630
# Velocity P-wave (km/s) = 6.70250 21.35128 15.82404
#
# Compressibility (1/GPa) = 0.01427750
#
# Stress axis : x y z
#
# Youngs Moduli (GPa) = 86.21008 133.26676 64.58264
#
# Poissons Ratio (x) = 0.30720 0.23696
# Poissons Ratio (y) = 0.19872 0.27001
# Poissons Ratio (z) = 0.31631 0.55716
#
# Static dielectric constant tensor:
#      x y z
#    x 1.709760 0.000000 0.000000 
#    y 0.000000 1.783150 0.000000 
#    z 0.000000 0.000000 1.826140 
# 
# From -- ./inp_files/26251.got.cif
#   From: 2010.05.17/outbox.cif.g08.bks.cpg/sg50_14_cif.got.tgz:26251.got - 2010.06.03 11:33:33.
