data_PCOD9396106
_publ_section_title
;
Structure prediction by ZEFSAII (Michael W. Deem and Ramdas Pophale) SiO2 
 PCOD9396106
Probable space group: P B A N
;
_chemical_formula_sum "Si O2"
_cell_formula_units_Z 40
_cell_length_a 21.849664
_cell_length_b 12.228433
_cell_length_c 7.704738
_cell_angle_alpha 90.000000
_cell_angle_beta 90.000000
_cell_angle_gamma 90.000000
_cell_volume 2058.607005
_symmetry_space_group_name_H-M "P B A N"
_symmetry_group_IT_number 50
_space_group.IT_coordinate_system_code '2'
_symmetry_cell_setting 'orthorhombic'
loop_
_space_group_symop_operation_xyz
x,y,z
1/2-x,1/2-y,z
x,1/2-y,-z
1/2-x,y,-z
-x,-y,-z
1/2+x,1/2+y,-z
-x,1/2+y,z
1/2+x,-y,z
loop_
_atom_site_type_symbol
_atom_site_label
_atom_site_fract_x
_atom_site_fract_y
_atom_site_fract_z
Si Si1 0.577526 0.375269 0.948665
Si Si2 0.620848 0.587463 0.376443
Si Si3 0.004574 0.984863 0.739628
Si Si4 0.888744 0.663654 0.263208
Si Si5 0.678078 0.971348 0.976048
O O1 0.537721 0.409897 0.782264
O O2 0.646606 0.419884 0.943832
O O3 0.573255 0.250000 0.000000
O O4 0.546822 0.450630 0.096817
O O5 0.557479 0.518953 0.394087
O O6 0.607548 0.707717 0.296848
O O7 0.645154 0.609392 0.569838
O O8 0.663336 0.534784 0.229462
O O9 0.957141 0.885248 0.728937
O O10 0.855829 0.624448 0.087536
O O11 0.750000 0.964983 0.000000
#
# Coordination Sequence:
#
# PCOD9396106 Si02
#       5
#     8   8   8   8   8
#     4   9  17  30  52  78 101 132 168 199 243 300
#     4  10  20  33  52  77 102 131 165 201 248 302
#     4   9  17  30  50  77 109 130 153 201 250 297
#     4  10  20  33  52  77 102 131 165 201 248 302
#     4  10  22  37  51  70  99 133 171 215 249 280
#
# _framework density 19.430613000000001
#
# number of rings (size 3 to 8) (size 9 to 14) (size 15 to 20)
#    0.000    2.400    0.000    3.600    0.000    2.800 
#    0.000    2.000    0.000   10.800    0.000   11.200 
#    0.000    0.000    0.000    0.000    0.000    0.000 
#
# Total GULP energy -222720.485111 kJ/mol
# GULP energy per Si atom -5568.012128 kJ/mol
# Density = 1.938639 g / cm^3
# Si number density = 19.430613 Si / 1000 Ang^3
#
#
#
# Elastic Constant Matrix: (Units=GPa)
#
#
# Indices 1 2 3 4 5 6 
#
# 1 86.2855 4.6359 13.9716 0.0000 0.0000 0.0000
# 2 4.6359 65.8200 -18.7340 0.0000 0.0000 0.0000
# 3 13.9716 -18.7340 60.2045 0.0000 0.0000 0.0000
# 4 0.0000 0.0000 0.0000 18.6796 0.0000 0.0000
# 5 0.0000 0.0000 0.0000 0.0000 16.0911 0.0000
# 6 0.0000 0.0000 0.0000 0.0000 0.0000 5.0957
#
#
#
# Elastic Compliance Matrix: (Units=1/GPa)
#
#
# Indices 1 2 3 4 5 6 
#
# 1 0.012240 -0.001833 -0.003411 0.000000 0.000000 0.000000
# 2 -0.001833 0.016944 0.005698 0.000000 0.000000 0.000000
# 3 -0.003411 0.005698 0.019175 0.000000 0.000000 0.000000
# 4 0.000000 0.000000 0.000000 0.053534 0.000000 0.000000
# 5 0.000000 0.000000 0.000000 0.000000 0.062146 0.000000
# 6 0.000000 0.000000 0.000000 0.000000 0.000000 0.196246
#
#
# Mechanical properties :
#
#
# Convention : Reuss Voigt Hill
#
# Bulk Modulus (GPa) = 20.29775 23.56188 21.92982
# Shear Modulus (GPa) = 13.30498 22.13570 17.72034
#
# Velocity S-wave (km/s) = 2.61960 3.37889 3.02318
# Velocity P-wave (km/s) = 4.42930 5.23212 4.84736
#
# Compressibility (1/GPa) = 0.04926653
#
# Stress axis : x y z
#
# Youngs Moduli (GPa) = 81.69783 59.01863 52.15219
#
# Poissons Ratio (x) = 0.10818 0.17789
# Poissons Ratio (y) = 0.14975 -0.29715
# Poissons Ratio (z) = 0.27867 -0.33628
#
# Static dielectric constant tensor:
#      x y z
#    x 1.686750 0.000000 0.000000 
#    y 0.000000 1.666340 0.000000 
#    z 0.000000 0.000000 1.801500 
# 
# From -- ./inp_files/11323.got.cif
#   From: 2010.05.17/outbox.cif.g08.bks.cpg/sg50_6_cif.got.tgz:11323.got - 2010.06.03 11:33:33.
