data_PCOD9396456
_publ_section_title
;
Structure prediction by ZEFSAII (Michael W. Deem and Ramdas Pophale) SiO2 
 PCOD9396456
Probable space group: P B A N
;
_chemical_formula_sum "Si O2"
_cell_formula_units_Z 64
_cell_length_a 8.703539
_cell_length_b 20.967930
_cell_length_c 17.490507
_cell_angle_alpha 90.000000
_cell_angle_beta 90.000000
_cell_angle_gamma 90.000000
_cell_volume 3191.933512
_symmetry_space_group_name_H-M "P B A N"
_symmetry_group_IT_number 50
_space_group.IT_coordinate_system_code '2'
_symmetry_cell_setting 'orthorhombic'
loop_
_space_group_symop_operation_xyz
x,y,z
1/2-x,1/2-y,z
x,1/2-y,-z
1/2-x,y,-z
-x,-y,-z
1/2+x,1/2+y,-z
-x,1/2+y,z
1/2+x,-y,z
loop_
_atom_site_type_symbol
_atom_site_label
_atom_site_fract_x
_atom_site_fract_y
_atom_site_fract_z
Si Si1 0.595413 0.087729 0.137357
Si Si2 0.343273 0.420628 0.239746
Si Si3 0.286088 0.023457 0.089671
Si Si4 0.145377 0.834701 0.282161
Si Si5 0.570292 0.230812 0.081152
Si Si6 0.514496 0.291386 0.235067
Si Si7 0.073807 0.488299 0.328337
Si Si8 0.308387 0.579907 0.414079
O O1 0.459996 0.042347 0.108229
O O2 0.597220 0.106518 0.227146
O O3 0.569872 0.155658 0.097026
O O4 0.747988 0.049506 0.113688
O O5 0.309637 0.433299 0.150214
O O6 0.401698 0.348956 0.255274
O O7 0.190079 0.439801 0.286357
O O8 0.470596 0.470849 0.269467
O O9 0.250000 0.032497 0.000000
O O10 0.310332 0.815840 0.246335
O O11 0.024066 0.777049 0.277354
O O12 0.173644 0.854231 0.368685
O O13 0.750000 0.250000 0.083027
O O14 0.489871 0.270034 0.148050
O O15 0.504996 0.250000 0.000000
O O16 0.180680 0.539631 0.369693
O O17 0.967750 0.455852 0.393341
O O18 0.250000 0.585754 0.500000
#
# Coordination Sequence:
#
# PCOD9396456 Si02
#       8
#     8   8   8   8   8   8   8   8
#     4  11  24  42  60  89 124 165 215 261 331 381
#     4  11  22  40  65  88 130 178 214 265 324 377
#     4  12  27  38  58  93 131 165 206 278 329 384
#     4  10  20  39  63  91 122 157 228 252 307 400
#     4  10  21  37  65  87 114 166 222 273 314 380
#     4  10  20  38  63  86 118 170 217 265 305 378
#     4  10  22  39  63  97 130 171 215 244 316 407
#     4  11  21  38  65  99 135 159 198 262 315 378
#
# _framework density 20.050543000000001
#
# number of rings (size 3 to 8) (size 9 to 14) (size 15 to 20)
#    0.000    1.375    3.750    3.750    5.250    0.000 
#    0.000    6.875    0.000    0.000    0.000    0.000 
#   18.750    0.000    0.000    0.000    0.000    0.000 
#
# Total GULP energy -357301.145431 kJ/mol
# GULP energy per Si atom -5582.830397 kJ/mol
# Density = 2.000491 g / cm^3
# Si number density = 20.050543 Si / 1000 Ang^3
#
#
#
# Elastic Constant Matrix: (Units=GPa)
#
#
# Indices 1 2 3 4 5 6 
#
# 1 82.4397 47.8127 44.1117 0.0000 0.0000 0.0000
# 2 47.8127 117.5456 61.7547 0.0000 0.0000 0.0000
# 3 44.1117 61.7547 139.0280 0.0000 0.0000 0.0000
# 4 0.0000 0.0000 0.0000 15.5495 0.0000 0.0000
# 5 0.0000 0.0000 0.0000 0.0000 18.7521 0.0000
# 6 0.0000 0.0000 0.0000 0.0000 0.0000 28.2247
#
#
#
# Elastic Compliance Matrix: (Units=1/GPa)
#
#
# Indices 1 2 3 4 5 6 
#
# 1 0.016777 -0.005253 -0.002989 0.000000 0.000000 0.000000
# 2 -0.005253 0.012742 -0.003993 0.000000 0.000000 0.000000
# 3 -0.002989 -0.003993 0.009915 0.000000 0.000000 0.000000
# 4 0.000000 0.000000 0.000000 0.064311 0.000000 0.000000
# 5 0.000000 0.000000 0.000000 0.000000 0.053327 0.000000
# 6 0.000000 0.000000 0.000000 0.000000 0.000000 0.035430
#
#
# Mechanical properties :
#
#
# Convention : Reuss Voigt Hill
#
# Bulk Modulus (GPa) = 66.83735 71.81907 69.32821
# Shear Modulus (GPa) = 22.52652 24.86087 23.69369
#
# Velocity S-wave (km/s) = 3.35548 3.52506 3.44131
# Velocity P-wave (km/s) = 6.95839 7.24326 7.10225
#
# Compressibility (1/GPa) = 0.01496169
#
# Stress axis : x y z
#
# Youngs Moduli (GPa) = 59.60710 78.48045 100.85769
#
# Poissons Ratio (x) = 0.41229 0.30151
# Poissons Ratio (y) = 0.31314 0.40273
# Poissons Ratio (z) = 0.17819 0.31337
#
# Static dielectric constant tensor:
#      x y z
#    x 1.756750 0.000000 0.000000 
#    y 0.000000 1.747630 0.000000 
#    z 0.000000 0.000000 1.711960 
# 
# From -- ./inp_files/28955.got.cif
#   From: 2010.05.17/outbox.cif.g08.bks.cpg/sg50_15_cif.got.tgz:28955.got - 2010.06.03 11:33:33.
