data_PCOD9396598
_publ_section_title
;
Structure prediction by ZEFSAII (Michael W. Deem and Ramdas Pophale) SiO2 
 PCOD9396598
Probable space group: P B A N
;
_chemical_formula_sum "Si O2"
_cell_formula_units_Z 36
_cell_length_a 25.890659
_cell_length_b 7.842260
_cell_length_c 8.632807
_cell_angle_alpha 90.000000
_cell_angle_beta 90.000000
_cell_angle_gamma 90.000000
_cell_volume 1752.816179
_symmetry_space_group_name_H-M "P B A N"
_symmetry_group_IT_number 50
_space_group.IT_coordinate_system_code '2'
_symmetry_cell_setting 'orthorhombic'
loop_
_space_group_symop_operation_xyz
x,y,z
1/2-x,1/2-y,z
x,1/2-y,-z
1/2-x,y,-z
-x,-y,-z
1/2+x,1/2+y,-z
-x,1/2+y,z
1/2+x,-y,z
loop_
_atom_site_type_symbol
_atom_site_label
_atom_site_fract_x
_atom_site_fract_y
_atom_site_fract_z
Si Si1 0.608490 0.923876 0.904603
Si Si2 0.825378 0.192444 0.241681
Si Si3 0.033255 0.235305 0.317154
Si Si4 0.750000 0.250000 0.500000
Si Si5 0.750000 0.250000 0.000000
Si Si6 0.569739 0.376883 0.802332
O O1 0.572545 0.871361 0.759654
O O2 0.659376 0.017841 0.843634
O O3 0.617663 0.750000 0.000000
O O4 0.581445 0.057170 0.023258
O O5 0.789915 0.153423 0.388367
O O6 0.791669 0.314132 0.127297
O O7 0.879595 0.286408 0.266347
O O8 0.024313 0.250000 0.500000
O O9 0.980245 0.260264 0.222755
O O10 0.056600 0.049723 0.288181
#
# Coordination Sequence:
#
# PCOD9396598 Si02
#       6
#     8   8   8   2   2   8
#     4  10  22  41  66  93 129 169 211 260 316 390
#     4  11  22  43  68  95 124 162 217 268 322 378
#     4  11  24  37  61  98 137 170 206 258 328 398
#     4  10  28  38  72  96 124 162 220 280 328 380
#     4  10  20  42  70  86 116 158 222 258 308 368
#     4  11  22  39  65  93 131 172 212 258 318 392
#
# _framework density 20.538378000000002
#
# number of rings (size 3 to 8) (size 9 to 14) (size 15 to 20)
#    0.000    1.333    2.222    2.667    4.667    3.556 
#    0.000    0.556    0.000    5.333    0.000    0.000 
#    0.000    0.000    0.000    0.000    0.000    0.000 
#
# Total GULP energy -200665.672925 kJ/mol
# GULP energy per Si atom -5574.046470 kJ/mol
# Density = 2.049163 g / cm^3
# Si number density = 20.538378 Si / 1000 Ang^3
#
#
#
# Elastic Constant Matrix: (Units=GPa)
#
#
# Indices 1 2 3 4 5 6 
#
# 1 123.0457 37.1722 52.9350 0.0000 0.0000 0.0000
# 2 37.1722 96.4481 33.1148 0.0000 0.0000 0.0000
# 3 52.9350 33.1148 128.6174 0.0000 0.0000 0.0000
# 4 0.0000 0.0000 0.0000 14.1841 0.0000 0.0000
# 5 0.0000 0.0000 0.0000 0.0000 47.6302 0.0000
# 6 0.0000 0.0000 0.0000 0.0000 0.0000 -1.0896
#
#
#
# Elastic Compliance Matrix: (Units=1/GPa)
#
#
# Indices 1 2 3 4 5 6 
#
# 1 0.010531 -0.002820 -0.003608 0.000000 0.000000 0.000000
# 2 -0.002820 0.012129 -0.001962 0.000000 0.000000 0.000000
# 3 -0.003608 -0.001962 0.009765 0.000000 0.000000 0.000000
# 4 0.000000 0.000000 0.000000 0.070501 0.000000 0.000000
# 5 0.000000 0.000000 0.000000 0.000000 0.020995 0.000000
# 6 0.000000 0.000000 0.000000 0.000000 0.000000 -0.917734
#
#
# Mechanical properties :
#
#
# Convention : Reuss Voigt Hill
#
# Bulk Modulus (GPa) = 63.92037 66.06171 64.99104
# Shear Modulus (GPa) = -6.47822 27.13754 10.32966
#
# Velocity S-wave (km/s) = -1.77793 3.63892 2.24507
# Velocity P-wave (km/s) = 5.19377 7.06332 6.19943
#
# Compressibility (1/GPa) = 0.01564446
#
# Stress axis : x y z
#
# Youngs Moduli (GPa) = 94.95500 82.44824 102.40385
#
# Poissons Ratio (x) = 0.23250 0.36950
# Poissons Ratio (y) = 0.26777 0.20093
# Poissons Ratio (z) = 0.34263 0.16178
#
# Static dielectric constant tensor:
#      x y z
#    x 1.724550 0.000000 0.000000 
#    y 0.000000 1.750960 0.000000 
#    z 0.000000 0.000000 1.762960 
# 
# From -- ./inp_files/14969.got.cif
#   From: 2010.05.17/outbox.cif.g08.bks.cpg/sg50_8_cif.got.tgz:14969.got - 2010.06.03 11:33:33.
