data_PCOD9396546
_publ_section_title
;
Structure prediction by ZEFSAII (Michael W. Deem and Ramdas Pophale) SiO2 
 PCOD9396546
Probable space group: P B A N
;
_chemical_formula_sum "Si O2"
_cell_formula_units_Z 26
_cell_length_a 18.599823
_cell_length_b 5.522203
_cell_length_c 11.527052
_cell_angle_alpha 90.000000
_cell_angle_beta 90.000000
_cell_angle_gamma 90.000000
_cell_volume 1183.966546
_symmetry_space_group_name_H-M "P B A N"
_symmetry_group_IT_number 50
_space_group.IT_coordinate_system_code '2'
_symmetry_cell_setting 'orthorhombic'
loop_
_space_group_symop_operation_xyz
x,y,z
1/2-x,1/2-y,z
x,1/2-y,-z
1/2-x,y,-z
-x,-y,-z
1/2+x,1/2+y,-z
-x,1/2+y,z
1/2+x,-y,z
loop_
_atom_site_type_symbol
_atom_site_label
_atom_site_fract_x
_atom_site_fract_y
_atom_site_fract_z
Si Si1 0.820430 0.416826 0.184136
Si Si2 0.332516 0.496914 0.453245
Si Si3 0.250000 0.250000 0.000000
Si Si4 0.976716 0.072500 0.868404
O O1 0.750000 0.250000 0.185897
O O2 0.829466 0.508599 0.314795
O O3 0.897053 0.314794 0.144604
O O4 0.801404 0.607068 0.085859
O O5 0.364606 0.750000 0.500000
O O6 0.250000 0.497881 0.500000
O O7 0.366823 0.250000 0.500000
O O8 0.023519 0.296366 0.817064
O O9 0.000000 0.000000 0.000000
#
# Coordination Sequence:
#
# PCOD9396546 Si02
#       4
#     8   8   2   8
#     4  12  26  41  72 107 142 187 245 302 353 431
#     4  10  20  40  64 100 135 177 228 306 358 392
#     4  12  26  36  62 110 148 164 240 306 350 424
#     4  10  24  44  64  91 142 195 221 272 361 436
#
# _framework density 21.960079
#
# number of rings (size 3 to 8) (size 9 to 14) (size 15 to 20)
#    0.000    1.231    3.077    4.154   12.923    0.000 
#    0.000    0.000    0.000    5.538    0.000    0.000 
#    0.000    0.000    0.000    0.000    0.000    0.000 
#
# Total GULP energy -144856.951806 kJ/mol
# GULP energy per Si atom -5571.421223 kJ/mol
# Density = 2.191010 g / cm^3
# Si number density = 21.960079 Si / 1000 Ang^3
#
#
#
# Elastic Constant Matrix: (Units=GPa)
#
#
# Indices 1 2 3 4 5 6 
#
# 1 92.0425 7.1863 22.9726 0.0000 0.0000 0.0000
# 2 7.1863 185.5528 48.0631 0.0000 0.0000 0.0000
# 3 22.9726 48.0631 176.4473 0.0000 0.0000 0.0000
# 4 0.0000 0.0000 0.0000 36.4127 0.0000 0.0000
# 5 0.0000 0.0000 0.0000 0.0000 -103.6251 0.0000
# 6 0.0000 0.0000 0.0000 0.0000 0.0000 18.4624
#
#
#
# Elastic Compliance Matrix: (Units=1/GPa)
#
#
# Indices 1 2 3 4 5 6 
#
# 1 0.011230 -0.000060 -0.001446 0.000000 0.000000 0.000000
# 2 -0.000060 0.005799 -0.001572 0.000000 0.000000 0.000000
# 3 -0.001446 -0.001572 0.006284 0.000000 0.000000 0.000000
# 4 0.000000 0.000000 0.000000 0.027463 0.000000 0.000000
# 5 0.000000 0.000000 0.000000 0.000000 -0.009650 0.000000
# 6 0.000000 0.000000 0.000000 0.000000 0.000000 0.054164
#
#
# Mechanical properties :
#
#
# Convention : Reuss Voigt Hill
#
# Bulk Modulus (GPa) = 58.28519 67.83186 63.05853
# Shear Modulus (GPa) = 46.65753 15.30472 30.98112
#
# Velocity S-wave (km/s) = 4.61440 2.64281 3.76013
# Velocity P-wave (km/s) = 7.41547 6.34574 6.90136
#
# Compressibility (1/GPa) = 0.01715702
#
# Stress axis : x y z
#
# Youngs Moduli (GPa) = 89.04662 172.45101 159.14084
#
# Poissons Ratio (x) = 0.01043 0.23006
# Poissons Ratio (y) = 0.00538 0.25012
# Poissons Ratio (z) = 0.12873 0.27104
#
# Static dielectric constant tensor:
#      x y z
#    x 2.018770 0.000000 0.000000 
#    y 0.000000 2.065420 0.000000 
#    z 0.000000 0.000000 1.759150 
# 
# From -- ./inp_files/21469.got.cif
#   From: 2010.05.17/outbox.cif.g08.bks.cpg/sg50_11_cif.got.tgz:21469.got - 2010.06.03 11:33:33.
