data_PCOD9396289
_publ_section_title
;
Structure prediction by ZEFSAII (Michael W. Deem and Ramdas Pophale) SiO2 
 PCOD9396289
Probable space group: P B A N
;
_chemical_formula_sum "Si O2"
_cell_formula_units_Z 58
_cell_length_a 8.846189
_cell_length_b 12.357900
_cell_length_c 27.205848
_cell_angle_alpha 90.000000
_cell_angle_beta 90.000000
_cell_angle_gamma 90.000000
_cell_volume 2974.151983
_symmetry_space_group_name_H-M "P B A N"
_symmetry_group_IT_number 50
_space_group.IT_coordinate_system_code '2'
_symmetry_cell_setting 'orthorhombic'
loop_
_space_group_symop_operation_xyz
x,y,z
1/2-x,1/2-y,z
x,1/2-y,-z
1/2-x,y,-z
-x,-y,-z
1/2+x,1/2+y,-z
-x,1/2+y,z
1/2+x,-y,z
loop_
_atom_site_type_symbol
_atom_site_label
_atom_site_fract_x
_atom_site_fract_y
_atom_site_fract_z
Si Si1 0.173489 0.634016 0.085173
Si Si2 0.899012 0.588790 0.579169
Si Si3 0.203628 0.628657 0.202257
Si Si4 0.750000 0.750000 0.500000
Si Si5 0.952003 0.501676 0.258281
Si Si6 0.877488 0.556617 0.035173
Si Si7 0.794179 0.869219 0.312314
Si Si8 0.238236 0.628305 0.558917
O O1 0.250000 0.750000 0.071413
O O2 0.177032 0.623683 0.144047
O O3 0.279569 0.536743 0.063424
O O4 0.996539 0.625369 0.068170
O O5 0.843029 0.668378 0.535321
O O6 0.834137 0.630836 0.630386
O O7 0.853593 0.463713 0.574221
O O8 0.077241 0.589052 0.576492
O O9 0.250000 0.750000 0.215607
O O10 0.340727 0.551579 0.218669
O O11 0.057029 0.589884 0.231919
O O12 0.846715 0.553592 0.300017
O O13 0.063171 0.414578 0.282472
O O14 0.750000 0.611752 0.000000
O O15 0.000000 0.500000 0.000000
O O16 0.750000 0.750000 0.295757
O O17 0.250000 0.750000 0.578366
O O18 0.250000 0.633208 0.500000
#
# Coordination Sequence:
#
# PCOD9396289 Si02
#       8
#     8   8   8   2   8   8   8   8
#     4  10  20  36  59  86 118 160 210 257 312 362
#     4  12  25  42  65  91 123 162 202 249 301 357
#     4  10  20  37  62  89 118 156 199 255 307 364
#     4  12  24  40  68  88 124 164 206 250 300 356
#     4  10  22  39  61  88 121 155 196 246 311 369
#     4   9  19  35  54  82 121 162 205 253 298 355
#     4  11  23  41  61  89 121 157 196 243 299 371
#     4  11  25  42  63  89 120 154 199 242 293 350
#
# _framework density 19.501356000000001
#
# number of rings (size 3 to 8) (size 9 to 14) (size 15 to 20)
#    0.000    1.517    1.379    3.724    1.931    3.586 
#    0.000    8.276    0.000   11.586    0.000    0.000 
#    0.000    0.000    0.000    0.000    0.000    0.000 
#
# Total GULP energy -323683.150639 kJ/mol
# GULP energy per Si atom -5580.743977 kJ/mol
# Density = 1.945697 g / cm^3
# Si number density = 19.501356 Si / 1000 Ang^3
#
#
#
# Elastic Constant Matrix: (Units=GPa)
#
#
# Indices 1 2 3 4 5 6 
#
# 1 167.3692 74.4970 52.3809 0.0000 0.0000 0.0000
# 2 74.4970 114.1244 26.7321 0.0000 0.0000 0.0000
# 3 52.3809 26.7321 85.9858 0.0000 0.0000 0.0000
# 4 0.0000 0.0000 0.0000 24.7391 0.0000 0.0000
# 5 0.0000 0.0000 0.0000 0.0000 54.7398 0.0000
# 6 0.0000 0.0000 0.0000 0.0000 0.0000 51.6416
#
#
#
# Elastic Compliance Matrix: (Units=1/GPa)
#
#
# Indices 1 2 3 4 5 6 
#
# 1 0.009668 -0.005319 -0.004236 0.000000 0.000000 0.000000
# 2 -0.005319 0.012377 -0.000608 0.000000 0.000000 0.000000
# 3 -0.004236 -0.000608 0.014399 0.000000 0.000000 0.000000
# 4 0.000000 0.000000 0.000000 0.040422 0.000000 0.000000
# 5 0.000000 0.000000 0.000000 0.000000 0.018268 0.000000
# 6 0.000000 0.000000 0.000000 0.000000 0.000000 0.019364
#
#
# Mechanical properties :
#
#
# Convention : Reuss Voigt Hill
#
# Bulk Modulus (GPa) = 62.03868 74.96662 68.50265
# Shear Modulus (GPa) = 35.66435 40.48202 38.07319
#
# Velocity S-wave (km/s) = 4.28110 4.56110 4.42332
# Velocity P-wave (km/s) = 7.50458 8.14023 7.82886
#
# Compressibility (1/GPa) = 0.01611898
#
# Stress axis : x y z
#
# Youngs Moduli (GPa) = 103.43473 80.79749 69.44808
#
# Poissons Ratio (x) = 0.42974 0.29418
# Poissons Ratio (y) = 0.55014 0.04220
# Poissons Ratio (z) = 0.43815 0.04910
#
# Static dielectric constant tensor:
#      x y z
#    x 1.670710 0.000000 0.000000 
#    y 0.000000 1.730790 0.000000 
#    z 0.000000 0.000000 1.673910 
# 
# From -- ./inp_files/32143.got.cif
#   From: 2010.05.17/outbox.cif.g08.bks.cpg/sg50_17_cif.got.tgz:32143.got - 2010.06.03 11:33:33.
