data_PCOD9396883
_publ_section_title
;
Structure prediction by ZEFSAII (Michael W. Deem and Ramdas Pophale) SiO2 
 PCOD9396883
Probable space group: P B A N
;
_chemical_formula_sum "Si O2"
_cell_formula_units_Z 32
_cell_length_a 11.331737
_cell_length_b 13.919929
_cell_length_c 9.577534
_cell_angle_alpha 90.000000
_cell_angle_beta 90.000000
_cell_angle_gamma 90.000000
_cell_volume 1510.731236
_symmetry_space_group_name_H-M "P B A N"
_symmetry_group_IT_number 50
_space_group.IT_coordinate_system_code '2'
_symmetry_cell_setting 'orthorhombic'
loop_
_space_group_symop_operation_xyz
x,y,z
1/2-x,1/2-y,z
x,1/2-y,-z
1/2-x,y,-z
-x,-y,-z
1/2+x,1/2+y,-z
-x,1/2+y,z
1/2+x,-y,z
loop_
_atom_site_type_symbol
_atom_site_label
_atom_site_fract_x
_atom_site_fract_y
_atom_site_fract_z
Si Si1 0.126647 0.044480 0.473135
Si Si2 0.142290 0.049792 0.144900
Si Si3 0.340294 0.162212 0.251103
Si Si4 0.549035 0.348909 0.946208
O O1 0.250000 0.986196 0.500000
O O2 0.119791 0.067199 0.310059
O O3 0.143447 0.126644 0.590685
O O4 0.000000 0.000000 0.500000
O O5 0.278777 0.083571 0.147614
O O6 0.043336 0.109836 0.061916
O O7 0.127671 0.938756 0.102003
O O8 0.250000 0.250000 0.243777
O O9 0.466771 0.180345 0.184744
O O10 0.605319 0.250000 0.000000
#
# Coordination Sequence:
#
# PCOD9396883 Si02
#       4
#     8   8   8   8
#     4  10  21  39  61  97 131 170 219 276 340 398
#     4  10  22  35  59  95 124 173 211 275 335 402
#     4  11  21  38  64  96 130 172 231 285 336 402
#     4  11  21  38  61  92 132 169 222 275 345 396
#
# _framework density 21.181795999999999
#
# number of rings (size 3 to 8) (size 9 to 14) (size 15 to 20)
#    0.000    1.500    5.000    0.750    0.000    4.500 
#    0.000    0.000    0.000   12.000    6.500   12.250 
#    0.000    0.000    0.000    0.000    0.000    0.000 
#
# Total GULP energy -178334.715502 kJ/mol
# GULP energy per Si atom -5572.959859 kJ/mol
# Density = 2.113358 g / cm^3
# Si number density = 21.181796 Si / 1000 Ang^3
#
#
#
# Elastic Constant Matrix: (Units=GPa)
#
#
# Indices 1 2 3 4 5 6 
#
# 1 101.5508 32.8298 21.6370 0.0000 0.0000 0.0000
# 2 32.8298 146.2157 28.6938 0.0000 0.0000 0.0000
# 3 21.6370 28.6938 125.6600 0.0000 0.0000 0.0000
# 4 0.0000 0.0000 0.0000 28.3728 0.0000 0.0000
# 5 0.0000 0.0000 0.0000 0.0000 24.0373 0.0000
# 6 0.0000 0.0000 0.0000 0.0000 0.0000 32.7372
#
#
#
# Elastic Compliance Matrix: (Units=1/GPa)
#
#
# Indices 1 2 3 4 5 6 
#
# 1 0.010839 -0.002164 -0.001372 0.000000 0.000000 0.000000
# 2 -0.002164 0.007592 -0.001361 0.000000 0.000000 0.000000
# 3 -0.001372 -0.001361 0.008505 0.000000 0.000000 0.000000
# 4 0.000000 0.000000 0.000000 0.035245 0.000000 0.000000
# 5 0.000000 0.000000 0.000000 0.000000 0.041602 0.000000
# 6 0.000000 0.000000 0.000000 0.000000 0.000000 0.030546
#
#
# Mechanical properties :
#
#
# Convention : Reuss Voigt Hill
#
# Bulk Modulus (GPa) = 58.33802 59.97197 59.15499
# Shear Modulus (GPa) = 33.36915 36.38053 34.87484
#
# Velocity S-wave (km/s) = 3.97340 4.14881 4.06205
# Velocity P-wave (km/s) = 6.97509 7.16412 7.07024
#
# Compressibility (1/GPa) = 0.01714148
#
# Stress axis : x y z
#
# Youngs Moduli (GPa) = 92.25606 131.71270 117.57765
#
# Poissons Ratio (x) = 0.28509 0.16133
# Poissons Ratio (y) = 0.19969 0.16002
# Poissons Ratio (z) = 0.12659 0.17926
#
# Static dielectric constant tensor:
#      x y z
#    x 1.288950 0.000000 0.000000 
#    y 0.000000 1.835300 0.000000 
#    z 0.000000 0.000000 1.821640 
# 
# From -- ./inp_files/10560.got.cif
#   From: 2010.05.17/outbox.cif.g08.bks.cpg/sg50_6_cif.got.tgz:10560.got - 2010.06.03 11:33:33.
