data_PCOD9396372
_publ_section_title
;
Structure prediction by ZEFSAII (Michael W. Deem and Ramdas Pophale) SiO2 
 PCOD9396372
Probable space group: P B A N
;
_chemical_formula_sum "Si O2"
_cell_formula_units_Z 60
_cell_length_a 5.294807
_cell_length_b 26.189433
_cell_length_c 19.885994
_cell_angle_alpha 90.000000
_cell_angle_beta 90.000000
_cell_angle_gamma 90.000000
_cell_volume 2757.550880
_symmetry_space_group_name_H-M "P B A N"
_symmetry_group_IT_number 50
_space_group.IT_coordinate_system_code '2'
_symmetry_cell_setting 'orthorhombic'
loop_
_space_group_symop_operation_xyz
x,y,z
1/2-x,1/2-y,z
x,1/2-y,-z
1/2-x,y,-z
-x,-y,-z
1/2+x,1/2+y,-z
-x,1/2+y,z
1/2+x,-y,z
loop_
_atom_site_type_symbol
_atom_site_label
_atom_site_fract_x
_atom_site_fract_y
_atom_site_fract_z
Si Si1 0.264486 0.349133 0.655755
Si Si2 0.736626 0.860734 0.924143
Si Si3 0.737913 0.188225 0.578418
Si Si4 0.308549 0.507916 0.158840
Si Si5 0.270354 0.880313 0.158841
Si Si6 0.750000 0.750000 0.121185
Si Si7 0.574410 0.291405 0.760459
Si Si8 0.712811 0.531461 0.693967
O O1 0.517832 0.337292 0.613071
O O2 0.334493 0.314768 0.721499
O O3 0.233949 0.409255 0.673043
O O4 0.017271 0.329994 0.616036
O O5 0.458894 0.868999 0.893054
O O6 0.796025 0.800139 0.921860
O O7 0.959270 0.882165 0.877030
O O8 0.750000 0.879750 0.000000
O O9 0.750000 0.250000 0.579633
O O10 0.750000 0.173243 0.500000
O O11 0.559630 0.502175 0.117527
O O12 0.291102 0.564567 0.187604
O O13 0.296206 0.472127 0.224271
O O14 0.247382 0.838709 0.216967
O O15 0.524960 0.735861 0.172137
O O16 0.750000 0.250000 0.723918
O O17 0.457097 0.501930 0.672045
#
# Coordination Sequence:
#
# PCOD9396372 Si02
#       8
#     8   8   8   8   8   4   8   8
#     4  12  25  40  72 103 133 180 228 284 338 404
#     4  11  23  41  63  87 124 175 231 270 317 396
#     4  11  26  48  70  98 140 191 237 270 314 390
#     4  10  20  37  61  88 120 159 203 255 327 403
#     4  11  23  40  64  92 127 172 213 271 337 401
#     4  10  23  38  56  90 133 176 206 266 338 402
#     4  11  23  38  58  97 145 170 209 270 354 418
#     4  10  21  39  62  97 134 168 215 272 338 412
#
# _framework density 21.758438000000002
#
# number of rings (size 3 to 8) (size 9 to 14) (size 15 to 20)
#    0.000    1.200    1.333    5.000    3.733    5.333 
#    0.000    1.333    0.000   16.000    0.000    0.000 
#    0.000    0.000    0.000    0.000    0.000    0.000 
#
# Total GULP energy -335248.410169 kJ/mol
# GULP energy per Si atom -5587.473503 kJ/mol
# Density = 2.170891 g / cm^3
# Si number density = 21.758438 Si / 1000 Ang^3
#
#
#
# Elastic Constant Matrix: (Units=GPa)
#
#
# Indices 1 2 3 4 5 6 
#
# 1 160.3855 46.6432 31.3246 0.0000 0.0000 0.0000
# 2 46.6432 130.4371 24.1542 0.0000 0.0000 0.0000
# 3 31.3246 24.1542 83.4919 0.0000 0.0000 0.0000
# 4 0.0000 0.0000 0.0000 -41.1723 0.0000 0.0000
# 5 0.0000 0.0000 0.0000 0.0000 25.3659 0.0000
# 6 0.0000 0.0000 0.0000 0.0000 0.0000 36.2116
#
#
#
# Elastic Compliance Matrix: (Units=1/GPa)
#
#
# Indices 1 2 3 4 5 6 
#
# 1 0.007289 -0.002219 -0.002093 0.000000 0.000000 0.000000
# 2 -0.002219 0.008776 -0.001706 0.000000 0.000000 0.000000
# 3 -0.002093 -0.001706 0.013256 0.000000 0.000000 0.000000
# 4 0.000000 0.000000 0.000000 -0.024288 0.000000 0.000000
# 5 0.000000 0.000000 0.000000 0.000000 0.039423 0.000000
# 6 0.000000 0.000000 0.000000 0.000000 0.000000 0.027615
#
#
# Mechanical properties :
#
#
# Convention : Reuss Voigt Hill
#
# Bulk Modulus (GPa) = 57.85414 64.28428 61.06921
# Shear Modulus (GPa) = 55.63644 22.22722 38.93183
#
# Velocity S-wave (km/s) = 5.06217 3.19963 4.23457
# Velocity P-wave (km/s) = 7.79836 6.57714 7.21364
#
# Compressibility (1/GPa) = 0.01728485
#
# Stress axis : x y z
#
# Youngs Moduli (GPa) = 137.19255 113.94715 75.43740
#
# Poissons Ratio (x) = 0.25284 0.15787
# Poissons Ratio (y) = 0.30442 0.12873
# Poissons Ratio (z) = 0.28711 0.19444
#
# Static dielectric constant tensor:
#      x y z
#    x 1.917870 0.000000 0.000000 
#    y 0.000000 1.825490 0.000000 
#    z 0.000000 0.000000 1.783590 
# 
# From -- ./inp_files/30460.got.cif
#   From: 2010.05.17/outbox.cif.g08.bks.cpg/sg50_16_cif.got.tgz:30460.got - 2010.06.03 11:33:33.
