data_PCOD9396155
_publ_section_title
;
Structure prediction by ZEFSAII (Michael W. Deem and Ramdas Pophale) SiO2 
 PCOD9396155
Probable space group: P B A N
;
_chemical_formula_sum "Si O2"
_cell_formula_units_Z 40
_cell_length_a 5.143865
_cell_length_b 18.403030
_cell_length_c 19.011803
_cell_angle_alpha 90.000000
_cell_angle_beta 90.000000
_cell_angle_gamma 90.000000
_cell_volume 1799.708640
_symmetry_space_group_name_H-M "P B A N"
_symmetry_group_IT_number 50
_space_group.IT_coordinate_system_code '2'
_symmetry_cell_setting 'orthorhombic'
loop_
_space_group_symop_operation_xyz
x,y,z
1/2-x,1/2-y,z
x,1/2-y,-z
1/2-x,y,-z
-x,-y,-z
1/2+x,1/2+y,-z
-x,1/2+y,z
1/2+x,-y,z
loop_
_atom_site_type_symbol
_atom_site_label
_atom_site_fract_x
_atom_site_fract_y
_atom_site_fract_z
Si Si1 0.676582 0.546710 0.928438
Si Si2 0.374875 0.829327 0.727327
Si Si3 0.629851 0.897178 0.225907
Si Si4 0.310364 0.663064 0.578107
Si Si5 0.833240 0.545202 0.377819
O O1 0.381290 0.519638 0.931822
O O2 0.711332 0.579217 0.851390
O O3 0.750000 0.590157 0.000000
O O4 0.250000 0.750000 0.727224
O O5 0.667282 0.833960 0.753138
O O6 0.350818 0.859332 0.647624
O O7 0.172415 0.875963 0.773056
O O8 0.667694 0.951166 0.292131
O O9 0.250000 0.750000 0.575937
O O10 0.250000 0.636935 0.500000
O O11 0.591647 0.627081 0.596014
O O12 0.575333 0.504686 0.401805
#
# Coordination Sequence:
#
# PCOD9396155 Si02
#       5
#     8   8   8   8   8
#     4  10  20  34  55  84 115 147 185 230 284 349
#     4  10  21  37  59  84 109 148 199 245 289 345
#     4  11  20  36  59  82 116 152 189 238 294 357
#     4   9  20  40  62  85 117 159 206 254 306 367
#     4  11  22  37  59  88 119 153 195 246 304 360
#
# _framework density 22.225819000000001
#
# number of rings (size 3 to 8) (size 9 to 14) (size 15 to 20)
#    0.000    1.800    0.000    5.400    0.000    0.800 
#    0.000   11.000    0.000   30.000    0.000    0.000 
#    0.000    0.000    0.000    0.000    0.000    0.000 
#
# Total GULP energy -223027.071836 kJ/mol
# GULP energy per Si atom -5575.676796 kJ/mol
# Density = 2.217523 g / cm^3
# Si number density = 22.225819 Si / 1000 Ang^3
#
#
#
# Elastic Constant Matrix: (Units=GPa)
#
#
# Indices 1 2 3 4 5 6 
#
# 1 113.2052 35.0784 23.2583 0.0000 0.0000 0.0000
# 2 35.0784 74.7825 17.5343 0.0000 0.0000 0.0000
# 3 23.2583 17.5343 177.7239 0.0000 0.0000 0.0000
# 4 0.0000 0.0000 0.0000 18.3644 0.0000 0.0000
# 5 0.0000 0.0000 0.0000 0.0000 27.3488 0.0000
# 6 0.0000 0.0000 0.0000 0.0000 0.0000 36.8662
#
#
#
# Elastic Compliance Matrix: (Units=1/GPa)
#
#
# Indices 1 2 3 4 5 6 
#
# 1 0.010477 -0.004702 -0.000907 0.000000 0.000000 0.000000
# 2 -0.004702 0.015799 -0.000943 0.000000 0.000000 0.000000
# 3 -0.000907 -0.000943 0.005839 0.000000 0.000000 0.000000
# 4 0.000000 0.000000 0.000000 0.054453 0.000000 0.000000
# 5 0.000000 0.000000 0.000000 0.000000 0.036565 0.000000
# 6 0.000000 0.000000 0.000000 0.000000 0.000000 0.027125
#
#
# Mechanical properties :
#
#
# Convention : Reuss Voigt Hill
#
# Bulk Modulus (GPa) = 52.60533 57.49483 55.05008
# Shear Modulus (GPa) = 29.46410 35.83859 32.65134
#
# Velocity S-wave (km/s) = 3.64492 4.01992 3.83701
# Velocity P-wave (km/s) = 6.43692 6.88992 6.66727
#
# Compressibility (1/GPa) = 0.01900948
#
# Stress axis : x y z
#
# Youngs Moduli (GPa) = 95.44910 63.29622 171.27670
#
# Poissons Ratio (x) = 0.29760 0.15538
# Poissons Ratio (y) = 0.44877 0.16158
# Poissons Ratio (z) = 0.08659 0.05971
#
# Static dielectric constant tensor:
#      x y z
#    x 1.856330 0.000000 0.000000 
#    y 0.000000 1.925170 0.000000 
#    z 0.000000 0.000000 1.850160 
# 
# From -- ./inp_files/28063.got.cif
#   From: 2010.05.17/outbox.cif.g08.bks.cpg/sg50_15_cif.got.tgz:28063.got - 2010.06.03 11:33:33.
