data_PCOD9396847
_publ_section_title
;
Structure prediction by ZEFSAII (Michael W. Deem and Ramdas Pophale) SiO2 
 PCOD9396847
Probable space group: P B A N
;
_chemical_formula_sum "Si O2"
_cell_formula_units_Z 64
_cell_length_a 27.410929
_cell_length_b 14.267461
_cell_length_c 7.916523
_cell_angle_alpha 90.000000
_cell_angle_beta 90.000000
_cell_angle_gamma 90.000000
_cell_volume 3096.028335
_symmetry_space_group_name_H-M "P B A N"
_symmetry_group_IT_number 50
_space_group.IT_coordinate_system_code '2'
_symmetry_cell_setting 'orthorhombic'
loop_
_space_group_symop_operation_xyz
x,y,z
1/2-x,1/2-y,z
x,1/2-y,-z
1/2-x,y,-z
-x,-y,-z
1/2+x,1/2+y,-z
-x,1/2+y,z
1/2+x,-y,z
loop_
_atom_site_type_symbol
_atom_site_label
_atom_site_fract_x
_atom_site_fract_y
_atom_site_fract_z
Si Si1 0.276017 0.882641 0.827495
Si Si2 0.030595 0.081437 0.594629
Si Si3 0.702982 0.966490 0.394035
Si Si4 0.613604 0.831148 0.371702
Si Si5 0.129452 0.649994 0.027773
Si Si6 0.685014 0.155297 0.609137
Si Si7 0.479432 0.232131 0.802657
Si Si8 0.538668 0.050722 0.881162
O O1 0.277075 0.991199 0.780587
O O2 0.240377 0.842790 0.683507
O O3 0.250000 0.859503 0.000000
O O4 0.330843 0.855282 0.877388
O O5 0.072659 0.110630 0.469512
O O6 0.008662 0.178663 0.678317
O O7 0.054370 0.027095 0.749236
O O8 0.000000 0.000000 0.500000
O O9 0.750000 0.931609 0.500000
O O10 0.682458 0.059795 0.495726
O O11 0.660555 0.895150 0.347900
O O12 0.629208 0.750000 0.500000
O O13 0.578428 0.789073 0.226645
O O14 0.152970 0.645417 0.217448
O O15 0.086160 0.577514 0.014018
O O16 0.105300 0.750000 0.000000
O O17 0.673914 0.250000 0.500000
O O18 0.514123 0.139924 0.783593
O O19 0.485976 0.250000 0.000000
O O20 0.500000 0.000000 0.000000
#
# Coordination Sequence:
#
# PCOD9396847 Si02
#       8
#     8   8   8   8   8   8   8   8
#     4   9  21  37  61  88 127 166 205 255 314 388
#     4  11  23  42  67  93 122 169 216 271 326 385
#     4  10  21  38  64  91 121 162 207 259 315 380
#     4  10  23  42  65  93 122 162 214 261 321 384
#     4  11  24  38  56  93 129 168 214 265 314 385
#     4  10  21  41  60  95 131 170 210 254 325 393
#     4  11  23  43  64  93 127 168 222 262 326 394
#     4  12  25  42  64  91 131 177 217 277 325 383
#
# _framework density 20.671645000000002
#
# number of rings (size 3 to 8) (size 9 to 14) (size 15 to 20)
#    0.000    1.500    2.500    1.875    1.750    8.750 
#    4.500    1.250    0.000    0.000    0.000    0.000 
#    0.000    0.000    0.000    0.000    0.000    0.000 
#
# Total GULP energy -356327.308129 kJ/mol
# GULP energy per Si atom -5567.614190 kJ/mol
# Density = 2.062460 g / cm^3
# Si number density = 20.671645 Si / 1000 Ang^3
#
#
#
# Elastic Constant Matrix: (Units=GPa)
#
#
# Indices 1 2 3 4 5 6 
#
# 1 82.4799 38.4882 20.2779 0.0000 0.0000 0.0000
# 2 38.4882 89.5763 9.7760 0.0000 0.0000 0.0000
# 3 20.2779 9.7760 65.1313 0.0000 0.0000 0.0000
# 4 0.0000 0.0000 0.0000 29.2513 0.0000 0.0000
# 5 0.0000 0.0000 0.0000 0.0000 6.1955 0.0000
# 6 0.0000 0.0000 0.0000 0.0000 0.0000 -54.5755
#
#
#
# Elastic Compliance Matrix: (Units=1/GPa)
#
#
# Indices 1 2 3 4 5 6 
#
# 1 0.016153 -0.006498 -0.004054 0.000000 0.000000 0.000000
# 2 -0.006498 0.013964 -0.000073 0.000000 0.000000 0.000000
# 3 -0.004054 -0.000073 0.016627 0.000000 0.000000 0.000000
# 4 0.000000 0.000000 0.000000 0.034187 0.000000 0.000000
# 5 0.000000 0.000000 0.000000 0.000000 0.161407 0.000000
# 6 0.000000 0.000000 0.000000 0.000000 0.000000 -0.018323
#
#
# Mechanical properties :
#
#
# Convention : Reuss Voigt Hill
#
# Bulk Modulus (GPa) = 39.22476 41.58575 40.40525
# Shear Modulus (GPa) = 19.70356 7.41729 13.56043
#
# Velocity S-wave (km/s) = 3.09069 1.89630 2.56401
# Velocity P-wave (km/s) = 5.63497 4.99555 5.32487
#
# Compressibility (1/GPa) = 0.02549410
#
# Stress axis : x y z
#
# Youngs Moduli (GPa) = 61.90791 71.61458 60.14461
#
# Poissons Ratio (x) = 0.46536 0.24381
# Poissons Ratio (y) = 0.40228 0.00438
# Poissons Ratio (z) = 0.25096 0.00521
#
# Static dielectric constant tensor:
#      x y z
#    x 1.771200 0.000000 0.000000 
#    y 0.000000 1.837150 0.000000 
#    z 0.000000 0.000000 2.064250 
# 
# From -- ./inp_files/16128.got.cif
#   From: 2010.05.17/outbox.cif.g08.bks.cpg/sg50_9_cif.got.tgz:16128.got - 2010.06.03 11:33:33.
