data_PCOD9396217
_publ_section_title
;
Structure prediction by ZEFSAII (Michael W. Deem and Ramdas Pophale) SiO2 
 PCOD9396217
Probable space group: P B A N
;
_chemical_formula_sum "Si O2"
_cell_formula_units_Z 64
_cell_length_a 10.262366
_cell_length_b 21.542865
_cell_length_c 16.181070
_cell_angle_alpha 90.000000
_cell_angle_beta 90.000000
_cell_angle_gamma 90.000000
_cell_volume 3577.323339
_symmetry_space_group_name_H-M "P B A N"
_symmetry_group_IT_number 50
_space_group.IT_coordinate_system_code '2'
_symmetry_cell_setting 'orthorhombic'
loop_
_space_group_symop_operation_xyz
x,y,z
1/2-x,1/2-y,z
x,1/2-y,-z
1/2-x,y,-z
-x,-y,-z
1/2+x,1/2+y,-z
-x,1/2+y,z
1/2+x,-y,z
loop_
_atom_site_type_symbol
_atom_site_label
_atom_site_fract_x
_atom_site_fract_y
_atom_site_fract_z
Si Si1 0.202729 0.456385 0.211502
Si Si2 0.920798 0.320401 0.971108
Si Si3 0.844700 0.973334 0.400820
Si Si4 0.054826 0.377635 0.729076
Si Si5 0.394079 0.231951 0.838537
Si Si6 0.705566 0.097079 0.829995
Si Si7 0.013119 0.863324 0.149800
Si Si8 0.565620 0.932725 0.442043
O O1 0.141462 0.465321 0.303289
O O2 0.346793 0.428010 0.228811
O O3 0.204702 0.522170 0.164244
O O4 0.108577 0.407721 0.166881
O O5 0.827357 0.361162 0.911549
O O6 0.043527 0.306909 0.912764
O O7 0.881350 0.250000 0.000000
O O8 0.959110 0.358340 0.051955
O O9 0.690141 0.976065 0.417369
O O10 0.902360 0.919675 0.461917
O O11 0.930324 0.031445 0.429888
O O12 0.104570 0.311521 0.759404
O O13 0.065272 0.382651 0.630475
O O14 0.908675 0.387130 0.764198
O O15 0.250000 0.250000 0.862203
O O16 0.477066 0.293664 0.823985
O O17 0.853450 0.114779 0.807124
#
# Coordination Sequence:
#
# PCOD9396217 Si02
#       8
#     8   8   8   8   8   8   8   8
#     4  11  21  36  55  84 121 151 184 236 292 357
#     4   9  22  39  59  78 109 147 198 246 285 341
#     4   9  18  30  53  79 119 147 189 219 283 343
#     4  10  20  35  57  83 119 148 189 239 289 341
#     4  10  20  40  60  85 106 147 197 247 285 341
#     4  11  22  36  56  84 115 148 187 242 296 341
#     4  11  23  37  59  80 109 153 195 237 290 346
#     4   9  17  32  52  84 112 154 181 233 271 346
#
# _framework density 17.890471000000002
#
# number of rings (size 3 to 8) (size 9 to 14) (size 15 to 20)
#    0.000    2.000    2.500    1.125    1.750    8.750 
#    0.000    2.500    0.000    0.750    0.000    0.000 
#    0.000    6.000    0.000    0.000    0.000    0.000 
#
# Total GULP energy -356308.325501 kJ/mol
# GULP energy per Si atom -5567.317586 kJ/mol
# Density = 1.784975 g / cm^3
# Si number density = 17.890471 Si / 1000 Ang^3
#
#
#
# Elastic Constant Matrix: (Units=GPa)
#
#
# Indices 1 2 3 4 5 6 
#
# 1 84.0861 15.8847 21.2444 0.0000 0.0000 0.0000
# 2 15.8847 59.1588 31.6012 0.0000 0.0000 0.0000
# 3 21.2444 31.6012 83.1630 0.0000 0.0000 0.0000
# 4 0.0000 0.0000 0.0000 27.8365 0.0000 0.0000
# 5 0.0000 0.0000 0.0000 0.0000 -7.8809 0.0000
# 6 0.0000 0.0000 0.0000 0.0000 0.0000 20.5106
#
#
#
# Elastic Compliance Matrix: (Units=1/GPa)
#
#
# Indices 1 2 3 4 5 6 
#
# 1 0.012926 -0.002142 -0.002488 0.000000 0.000000 0.000000
# 2 -0.002142 0.021563 -0.007647 0.000000 0.000000 0.000000
# 3 -0.002488 -0.007647 0.015566 0.000000 0.000000 0.000000
# 4 0.000000 0.000000 0.000000 0.035924 0.000000 0.000000
# 5 0.000000 0.000000 0.000000 0.000000 -0.126889 0.000000
# 6 0.000000 0.000000 0.000000 0.000000 0.000000 0.048755
#
#
# Mechanical properties :
#
#
# Convention : Reuss Voigt Hill
#
# Bulk Modulus (GPa) = 39.21266 40.42984 39.82125
# Shear Modulus (GPa) = 122.25199 18.60507 70.42853
#
# Velocity S-wave (km/s) = 8.27538 3.22831 6.28108
# Velocity P-wave (km/s) = 10.64307 6.04513 8.65502
#
# Compressibility (1/GPa) = 0.02550197
#
# Stress axis : x y z
#
# Youngs Moduli (GPa) = 77.36480 46.37478 64.24292
#
# Poissons Ratio (x) = 0.09932 0.15985
# Poissons Ratio (y) = 0.16568 0.49125
# Poissons Ratio (z) = 0.19250 0.35462
#
# Static dielectric constant tensor:
#      x y z
#    x 1.633700 0.000000 0.000000 
#    y 0.000000 1.613230 0.000000 
#    z 0.000000 0.000000 1.654850 
# 
# From -- ./inp_files/28957.got.cif
#   From: 2010.05.17/outbox.cif.g08.bks.cpg/sg50_15_cif.got.tgz:28957.got - 2010.06.03 11:33:33.
