data_PCOD9396762
_publ_section_title
;
Structure prediction by ZEFSAII (Michael W. Deem and Ramdas Pophale) SiO2 
 PCOD9396762
Probable space group: P B A N
;
_chemical_formula_sum "Si O2"
_cell_formula_units_Z 34
_cell_length_a 13.175249
_cell_length_b 26.486935
_cell_length_c 5.271079
_cell_angle_alpha 90.000000
_cell_angle_beta 90.000000
_cell_angle_gamma 90.000000
_cell_volume 1839.458790
_symmetry_space_group_name_H-M "P B A N"
_symmetry_group_IT_number 50
_space_group.IT_coordinate_system_code '2'
_symmetry_cell_setting 'orthorhombic'
loop_
_space_group_symop_operation_xyz
x,y,z
1/2-x,1/2-y,z
x,1/2-y,-z
1/2-x,y,-z
-x,-y,-z
1/2+x,1/2+y,-z
-x,1/2+y,z
1/2+x,-y,z
loop_
_atom_site_type_symbol
_atom_site_label
_atom_site_fract_x
_atom_site_fract_y
_atom_site_fract_z
Si Si1 0.473121 0.901428 0.543105
Si Si2 0.654306 0.846922 0.344976
Si Si3 0.750000 0.012453 0.000000
Si Si4 0.250000 0.581160 0.500000
Si Si5 0.571021 0.932952 0.049326
Si Si6 0.250000 0.250000 0.500000
O O1 0.551313 0.855162 0.504966
O O2 0.355507 0.888831 0.515468
O O3 0.498342 0.926600 0.810563
O O4 0.507758 0.937637 0.310350
O O5 0.750000 0.870451 0.500000
O O6 0.684191 0.788544 0.330114
O O7 0.632096 0.880061 0.097194
O O8 0.746142 0.046309 0.749081
O O9 0.651726 0.976620 0.012731
#
# Coordination Sequence:
#
# PCOD9396762 Si02
#       6
#     8   8   4   4   8   2
#     4  10  22  39  57  80 123 162 186 246 299 334
#     4   8  18  36  60  88 116 145 183 239 309 350
#     4  12  24  36  60  87 112 161 214 248 282 342
#     4  12  26  37  54  87 116 165 216 235 270 356
#     4  10  21  37  58  82 119 155 190 246 308 322
#     4   8  16  38  66  98 110 140 194 234 292 388
#
# _framework density 18.483698
#
# number of rings (size 3 to 8) (size 9 to 14) (size 15 to 20)
#    2.118    0.000    0.000    4.235    1.647    5.647 
#    0.000    2.353    0.000    0.706    0.000    0.000 
#    7.059    0.000    0.000    0.000    0.000    0.000 
#
# Total GULP energy -189353.971946 kJ/mol
# GULP energy per Si atom -5569.234469 kJ/mol
# Density = 1.844163 g / cm^3
# Si number density = 18.483698 Si / 1000 Ang^3
#
#
#
# Elastic Constant Matrix: (Units=GPa)
#
#
# Indices 1 2 3 4 5 6 
#
# 1 161.3075 35.4745 29.6169 0.0000 0.0000 0.0000
# 2 35.4745 71.6341 16.4396 0.0000 0.0000 0.0000
# 3 29.6169 16.4396 120.5819 0.0000 0.0000 0.0000
# 4 0.0000 0.0000 0.0000 9.1626 0.0000 0.0000
# 5 0.0000 0.0000 0.0000 0.0000 22.2526 0.0000
# 6 0.0000 0.0000 0.0000 0.0000 0.0000 14.2807
#
#
#
# Elastic Compliance Matrix: (Units=1/GPa)
#
#
# Indices 1 2 3 4 5 6 
#
# 1 0.007154 -0.003241 -0.001315 0.000000 0.000000 0.000000
# 2 -0.003241 0.015879 -0.001369 0.000000 0.000000 0.000000
# 3 -0.001315 -0.001369 0.008803 0.000000 0.000000 0.000000
# 4 0.000000 0.000000 0.000000 0.109139 0.000000 0.000000
# 5 0.000000 0.000000 0.000000 0.000000 0.044939 0.000000
# 6 0.000000 0.000000 0.000000 0.000000 0.000000 0.070025
#
#
# Mechanical properties :
#
#
# Convention : Reuss Voigt Hill
#
# Bulk Modulus (GPa) = 50.03616 57.39840 53.71728
# Shear Modulus (GPa) = 18.21833 27.27201 22.74517
#
# Velocity S-wave (km/s) = 3.14290 3.84534 3.51173
# Velocity P-wave (km/s) = 6.34820 7.12997 6.75041
#
# Compressibility (1/GPa) = 0.01998555
#
# Stress axis : x y z
#
# Youngs Moduli (GPa) = 139.79149 62.97689 113.60044
#
# Poissons Ratio (x) = 0.20409 0.14941
# Poissons Ratio (y) = 0.45303 0.15551
# Poissons Ratio (z) = 0.18385 0.08621
#
# Static dielectric constant tensor:
#      x y z
#    x 1.678060 0.000000 0.000000 
#    y 0.000000 1.616000 0.000000 
#    z 0.000000 0.000000 1.660890 
# 
# From -- ./inp_files/2522.got.cif
#   From: 2010.05.17/outbox.cif.g08.bks.cpg/sg50_2_cif.got.tgz:2522.got - 2010.06.03 11:33:33.
