data_PCOD9396547
_publ_section_title
;
Structure prediction by ZEFSAII (Michael W. Deem and Ramdas Pophale) SiO2 
 PCOD9396547
Probable space group: P B A N
;
_chemical_formula_sum "Si O2"
_cell_formula_units_Z 40
_cell_length_a 14.524163
_cell_length_b 15.339136
_cell_length_c 7.183769
_cell_angle_alpha 90.000000
_cell_angle_beta 90.000000
_cell_angle_gamma 90.000000
_cell_volume 1600.458329
_symmetry_space_group_name_H-M "P B A N"
_symmetry_group_IT_number 50
_space_group.IT_coordinate_system_code '2'
_symmetry_cell_setting 'orthorhombic'
loop_
_space_group_symop_operation_xyz
x,y,z
1/2-x,1/2-y,z
x,1/2-y,-z
1/2-x,y,-z
-x,-y,-z
1/2+x,1/2+y,-z
-x,1/2+y,z
1/2+x,-y,z
loop_
_atom_site_type_symbol
_atom_site_label
_atom_site_fract_x
_atom_site_fract_y
_atom_site_fract_z
Si Si1 0.106711 0.933156 0.647532
Si Si2 0.796302 0.110196 0.821414
Si Si3 0.083717 0.030268 0.252951
Si Si4 0.147728 0.229654 0.219338
Si Si5 0.549636 0.242450 0.228702
O O1 0.212209 0.928012 0.705845
O O2 0.074173 0.832393 0.669176
O O3 0.025704 0.976353 0.771332
O O4 0.101597 0.984954 0.453569
O O5 0.867465 0.176649 0.729951
O O6 0.857913 0.028940 0.885617
O O7 0.750000 0.153208 0.000000
O O8 0.121004 0.128440 0.246855
O O9 0.250000 0.250000 0.294085
O O10 0.055564 0.281778 0.285037
O O11 0.152556 0.250000 0.000000
O O12 0.548665 0.250000 0.000000
#
# Coordination Sequence:
#
# PCOD9396547 Si02
#       5
#     8   8   8   8   8
#     4  10  22  44  66  90 147 187 234 301 362 444
#     4  12  24  37  69 104 138 188 236 308 364 434
#     4  10  24  42  63 102 137 188 241 293 374 438
#     4   9  20  40  69 100 136 184 237 300 355 431
#     4  10  20  40  64 101 138 179 239 291 362 433
#
# _framework density 24.992840000000001
#
# number of rings (size 3 to 8) (size 9 to 14) (size 15 to 20)
#    0.000    1.800    2.000    1.200    2.800    3.200 
#    0.000    2.000    0.000    9.600    0.000    0.000 
#    0.000    0.000    0.000    0.000    0.000    0.000 
#
# Total GULP energy -223402.002405 kJ/mol
# GULP energy per Si atom -5585.050060 kJ/mol
# Density = 2.493595 g / cm^3
# Si number density = 24.992840 Si / 1000 Ang^3
#
#
#
# Elastic Constant Matrix: (Units=GPa)
#
#
# Indices 1 2 3 4 5 6 
#
# 1 280.7797 66.1486 56.1657 0.0000 0.0000 0.0000
# 2 66.1486 119.8354 34.4614 0.0000 0.0000 0.0000
# 3 56.1657 34.4614 118.8116 0.0000 0.0000 0.0000
# 4 0.0000 0.0000 0.0000 22.5585 0.0000 0.0000
# 5 0.0000 0.0000 0.0000 0.0000 45.4243 0.0000
# 6 0.0000 0.0000 0.0000 0.0000 0.0000 43.2059
#
#
#
# Elastic Compliance Matrix: (Units=1/GPa)
#
#
# Indices 1 2 3 4 5 6 
#
# 1 0.004318 -0.001960 -0.001473 0.000000 0.000000 0.000000
# 2 -0.001960 0.009994 -0.001972 0.000000 0.000000 0.000000
# 3 -0.001473 -0.001972 0.009685 0.000000 0.000000 0.000000
# 4 0.000000 0.000000 0.000000 0.044329 0.000000 0.000000
# 5 0.000000 0.000000 0.000000 0.000000 0.022015 0.000000
# 6 0.000000 0.000000 0.000000 0.000000 0.000000 0.023145
#
#
# Mechanical properties :
#
#
# Convention : Reuss Voigt Hill
#
# Bulk Modulus (GPa) = 75.83273 92.55313 84.19293
# Shear Modulus (GPa) = 38.85284 46.41446 42.63365
#
# Velocity S-wave (km/s) = 3.94707 4.31410 4.13466
# Velocity P-wave (km/s) = 7.15403 7.86940 7.52023
#
# Compressibility (1/GPa) = 0.01318692
#
# Stress axis : x y z
#
# Youngs Moduli (GPa) = 231.59751 100.06210 103.25348
#
# Poissons Ratio (x) = 0.19611 0.15206
# Poissons Ratio (y) = 0.45391 0.20364
# Poissons Ratio (z) = 0.34107 0.19734
#
# Static dielectric constant tensor:
#      x y z
#    x 2.039250 0.000000 0.000000 
#    y 0.000000 1.964670 0.000000 
#    z 0.000000 0.000000 2.110720 
# 
# From -- ./inp_files/12569.got.cif
#   From: 2010.05.17/outbox.cif.g08.bks.cpg/sg50_7_cif.got.tgz:12569.got - 2010.06.03 11:33:33.
