data_PCOD9396493
_publ_section_title
;
Structure prediction by ZEFSAII (Michael W. Deem and Ramdas Pophale) SiO2 
 PCOD9396493
Probable space group: P B A N
;
_chemical_formula_sum "Si O2"
_cell_formula_units_Z 60
_cell_length_a 11.840629
_cell_length_b 20.685979
_cell_length_c 9.723717
_cell_angle_alpha 90.000000
_cell_angle_beta 90.000000
_cell_angle_gamma 90.000000
_cell_volume 2381.678651
_symmetry_space_group_name_H-M "P B A N"
_symmetry_group_IT_number 50
_space_group.IT_coordinate_system_code '2'
_symmetry_cell_setting 'orthorhombic'
loop_
_space_group_symop_operation_xyz
x,y,z
1/2-x,1/2-y,z
x,1/2-y,-z
1/2-x,y,-z
-x,-y,-z
1/2+x,1/2+y,-z
-x,1/2+y,z
1/2+x,-y,z
loop_
_atom_site_type_symbol
_atom_site_label
_atom_site_fract_x
_atom_site_fract_y
_atom_site_fract_z
Si Si1 0.381605 0.846365 0.483114
Si Si2 0.918217 0.933694 0.824192
Si Si3 0.118391 0.980115 0.639481
Si Si4 0.694252 0.055534 0.132510
Si Si5 0.750000 0.750000 0.313639
Si Si6 0.809536 0.885801 0.319912
Si Si7 0.510883 0.800818 0.204358
Si Si8 0.975115 0.163665 0.777358
O O1 0.250000 0.826245 0.500000
O O2 0.380117 0.924771 0.474743
O O3 0.442551 0.822427 0.342858
O O4 0.453769 0.824347 0.613677
O O5 0.809619 0.907925 0.740457
O O6 0.978805 0.868520 0.878014
O O7 0.001825 0.970689 0.720564
O O8 0.870157 0.990524 0.918435
O O9 0.215275 0.962995 0.750964
O O10 0.140605 0.053905 0.595131
O O11 0.613544 0.109418 0.189459
O O12 0.750000 0.085218 0.000000
O O13 0.797218 0.814750 0.382944
O O14 0.639862 0.776645 0.232968
O O15 0.902477 0.869365 0.203488
O O16 0.458506 0.733401 0.153748
#
# Coordination Sequence:
#
# PCOD9396493 Si02
#       8
#     8   8   8   8   4   8   8   8
#     4  11  22  38  61  94 131 172 218 261 331 405
#     4   9  19  40  60  92 128 167 218 267 330 390
#     4  10  20  39  60  93 130 167 214 267 330 394
#     4  11  23  40  66  97 128 170 220 277 331 393
#     4   8  16  36  59  88 123 170 222 257 324 397
#     4   9  18  35  61  88 129 167 211 268 323 388
#     4   9  20  37  64  91 127 177 213 273 330 399
#     4  11  21  39  61  98 131 170 220 270 328 399
#
# _framework density 25.192316999999999
#
# number of rings (size 3 to 8) (size 9 to 14) (size 15 to 20)
#    0.000    2.133    2.667    0.400    0.000    2.133 
#    0.000   14.667    0.000    6.400   13.867    4.200 
#    0.000    0.000    0.000    0.000    0.000    0.000 
#
# Total GULP energy -335085.765582 kJ/mol
# GULP energy per Si atom -5584.762760 kJ/mol
# Density = 2.513498 g / cm^3
# Si number density = 25.192317 Si / 1000 Ang^3
#
#
#
# Elastic Constant Matrix: (Units=GPa)
#
#
# Indices 1 2 3 4 5 6 
#
# 1 132.1209 29.7001 12.6746 0.0000 0.0000 0.0000
# 2 29.7001 199.6980 9.4639 0.0000 0.0000 0.0000
# 3 12.6746 9.4639 41.5157 0.0000 0.0000 0.0000
# 4 0.0000 0.0000 0.0000 7.5061 0.0000 0.0000
# 5 0.0000 0.0000 0.0000 0.0000 12.4195 0.0000
# 6 0.0000 0.0000 0.0000 0.0000 0.0000 26.6514
#
#
#
# Elastic Compliance Matrix: (Units=1/GPa)
#
#
# Indices 1 2 3 4 5 6 
#
# 1 0.008025 -0.001089 -0.002202 0.000000 0.000000 0.000000
# 2 -0.001089 0.005210 -0.000855 0.000000 0.000000 0.000000
# 3 -0.002202 -0.000855 0.024954 0.000000 0.000000 0.000000
# 4 0.000000 0.000000 0.000000 0.133224 0.000000 0.000000
# 5 0.000000 0.000000 0.000000 0.000000 0.080518 0.000000
# 6 0.000000 0.000000 0.000000 0.000000 0.000000 0.037521
#
#
# Mechanical properties :
#
#
# Convention : Reuss Voigt Hill
#
# Bulk Modulus (GPa) = 33.44783 53.00131 43.22457
# Shear Modulus (GPa) = 16.24900 30.74849 23.49874
#
# Velocity S-wave (km/s) = 2.54244 3.49743 3.05745
# Velocity P-wave (km/s) = 4.68236 6.11504 5.44601
#
# Compressibility (1/GPa) = 0.02989730
#
# Stress axis : x y z
#
# Youngs Moduli (GPa) = 124.61251 191.93589 40.07313
#
# Poissons Ratio (x) = 0.20905 0.08823
# Poissons Ratio (y) = 0.13572 0.03427
# Poissons Ratio (z) = 0.27436 0.16414
#
# Static dielectric constant tensor:
#      x y z
#    x 2.019240 0.000000 0.000000 
#    y 0.000000 2.014390 0.000000 
#    z 0.000000 0.000000 1.251510 
# 
# From -- ./inp_files/20421.got.cif
#   From: 2010.05.17/outbox.cif.g08.bks.cpg/sg50_11_cif.got.tgz:20421.got - 2010.06.03 11:33:33.
