data_PCOD9396315
_publ_section_title
;
Structure prediction by ZEFSAII (Michael W. Deem and Ramdas Pophale) SiO2 
 PCOD9396315
Probable space group: P B A N
;
_chemical_formula_sum "Si O2"
_cell_formula_units_Z 58
_cell_length_a 9.090288
_cell_length_b 12.542696
_cell_length_c 26.512176
_cell_angle_alpha 90.000000
_cell_angle_beta 90.000000
_cell_angle_gamma 90.000000
_cell_volume 3022.831319
_symmetry_space_group_name_H-M "P B A N"
_symmetry_group_IT_number 50
_space_group.IT_coordinate_system_code '2'
_symmetry_cell_setting 'orthorhombic'
loop_
_space_group_symop_operation_xyz
x,y,z
1/2-x,1/2-y,z
x,1/2-y,-z
1/2-x,y,-z
-x,-y,-z
1/2+x,1/2+y,-z
-x,1/2+y,z
1/2+x,-y,z
loop_
_atom_site_type_symbol
_atom_site_label
_atom_site_fract_x
_atom_site_fract_y
_atom_site_fract_z
Si Si1 0.228790 0.487765 0.894055
Si Si2 0.183556 0.132370 0.794203
Si Si3 0.602917 0.304012 0.845903
Si Si4 0.744142 0.621352 0.319409
Si Si5 0.471765 0.872097 0.073466
Si Si6 0.757339 0.123159 0.440339
Si Si7 0.250000 0.750000 0.000000
Si Si8 0.506301 0.998163 0.380172
O O1 0.245641 0.434537 0.839353
O O2 0.155064 0.602611 0.883460
O O3 0.389470 0.518240 0.912659
O O4 0.139159 0.411233 0.931619
O O5 0.250000 0.250000 0.796429
O O6 0.219235 0.089252 0.738918
O O7 0.010844 0.147451 0.806352
O O8 0.750000 0.250000 0.823358
O O9 0.530025 0.211651 0.880113
O O10 0.750000 0.750000 0.322382
O O11 0.607108 0.574440 0.350698
O O12 0.893065 0.571198 0.342186
O O13 0.365216 0.820894 0.031954
O O14 0.750000 0.250000 0.432875
O O15 0.750000 0.100971 0.500000
O O16 0.905565 0.076370 0.415568
O O17 0.619990 0.066920 0.413104
#
# Coordination Sequence:
#
# PCOD9396315 Si02
#       8
#     8   8   8   8   8   8   2   8
#     4  11  21  38  64  87 115 157 193 244 299 340
#     4  11  22  37  63  90 120 151 210 246 282 369
#     4  10  21  40  59  90 117 153 190 250 298 341
#     4  10  23  39  56  88 125 167 198 250 312 368
#     4  11  23  40  64  87 120 154 193 247 299 361
#     4  10  20  36  62  89 114 160 215 263 311 367
#     4  12  24  44  60  90 130 152 198 244 308 376
#     4  10  21  39  58  83 129 162 202 257 316 370
#
# _framework density 19.187308999999999
#
# number of rings (size 3 to 8) (size 9 to 14) (size 15 to 20)
#    0.000    1.517    4.828    1.241    1.931    0.552 
#    2.483    0.690    0.000    8.276    0.000    0.000 
#    0.000    0.000    0.000    0.000    0.000    0.000 
#
# Total GULP energy -323550.653636 kJ/mol
# GULP energy per Si atom -5578.459545 kJ/mol
# Density = 1.914364 g / cm^3
# Si number density = 19.187309 Si / 1000 Ang^3
#
#
#
# Elastic Constant Matrix: (Units=GPa)
#
#
# Indices 1 2 3 4 5 6 
#
# 1 97.1905 34.3657 34.6506 0.0000 0.0000 0.0000
# 2 34.3657 68.4070 33.2155 0.0000 0.0000 0.0000
# 3 34.6506 33.2155 92.8613 0.0000 0.0000 0.0000
# 4 0.0000 0.0000 0.0000 30.2194 0.0000 0.0000
# 5 0.0000 0.0000 0.0000 0.0000 27.5176 0.0000
# 6 0.0000 0.0000 0.0000 0.0000 0.0000 18.0220
#
#
#
# Elastic Compliance Matrix: (Units=1/GPa)
#
#
# Indices 1 2 3 4 5 6 
#
# 1 0.013206 -0.005133 -0.003092 0.000000 0.000000 0.000000
# 2 -0.005133 0.019686 -0.005126 0.000000 0.000000 0.000000
# 3 -0.003092 -0.005126 0.013756 0.000000 0.000000 0.000000
# 4 0.000000 0.000000 0.000000 0.033091 0.000000 0.000000
# 5 0.000000 0.000000 0.000000 0.000000 0.036340 0.000000
# 6 0.000000 0.000000 0.000000 0.000000 0.000000 0.055488
#
#
# Mechanical properties :
#
#
# Convention : Reuss Voigt Hill
#
# Bulk Modulus (GPa) = 50.13462 51.43583 50.78522
# Shear Modulus (GPa) = 24.39984 25.56692 24.98338
#
# Velocity S-wave (km/s) = 3.56991 3.65429 3.61235
# Velocity P-wave (km/s) = 6.57101 6.68360 6.62754
#
# Compressibility (1/GPa) = 0.01994630
#
# Stress axis : x y z
#
# Youngs Moduli (GPa) = 75.72056 50.79695 72.69562
#
# Poissons Ratio (x) = 0.26076 0.22476
# Poissons Ratio (y) = 0.38870 0.37265
# Poissons Ratio (z) = 0.23411 0.26039
#
# Static dielectric constant tensor:
#      x y z
#    x 1.724130 0.000000 0.000000 
#    y 0.000000 1.826530 0.000000 
#    z 0.000000 0.000000 1.666660 
# 
# From -- ./inp_files/32150.got.cif
#   From: 2010.05.17/outbox.cif.g08.bks.cpg/sg50_17_cif.got.tgz:32150.got - 2010.06.03 11:33:33.
