data_PCOD9396902
_publ_section_title
;
Structure prediction by ZEFSAII (Michael W. Deem and Ramdas Pophale) SiO2 
 PCOD9396902
Probable space group: P B A N
;
_chemical_formula_sum "Si O2"
_cell_formula_units_Z 52
_cell_length_a 9.027862
_cell_length_b 19.810960
_cell_length_c 13.889299
_cell_angle_alpha 90.000000
_cell_angle_beta 90.000000
_cell_angle_gamma 90.000000
_cell_volume 2484.109640
_symmetry_space_group_name_H-M "P B A N"
_symmetry_group_IT_number 50
_space_group.IT_coordinate_system_code '2'
_symmetry_cell_setting 'orthorhombic'
loop_
_space_group_symop_operation_xyz
x,y,z
1/2-x,1/2-y,z
x,1/2-y,-z
1/2-x,y,-z
-x,-y,-z
1/2+x,1/2+y,-z
-x,1/2+y,z
1/2+x,-y,z
loop_
_atom_site_type_symbol
_atom_site_label
_atom_site_fract_x
_atom_site_fract_y
_atom_site_fract_z
Si Si1 0.474378 0.441638 0.790461
Si Si2 0.018472 0.405140 0.756423
Si Si3 0.779938 0.586048 0.604165
Si Si4 0.713544 0.172646 0.250136
Si Si5 0.980711 0.784050 0.401152
Si Si6 0.250000 0.250000 0.259731
Si Si7 0.252742 0.356921 0.890117
O O1 0.519747 0.518800 0.797548
O O2 0.393947 0.441934 0.684816
O O3 0.602120 0.383872 0.797754
O O4 0.350862 0.422672 0.869776
O O5 0.128215 0.407865 0.664369
O O6 0.091230 0.364071 0.844591
O O7 0.862986 0.370050 0.734274
O O8 0.750000 0.552281 0.500000
O O9 0.862031 0.656483 0.580724
O O10 0.750000 0.250000 0.210199
O O11 0.624778 0.189298 0.347668
O O12 0.018502 0.750000 0.500000
O O13 0.888745 0.735677 0.328854
O O14 0.317996 0.195614 0.187165
O O15 0.250000 0.336705 0.000000
#
# Coordination Sequence:
#
# PCOD9396902 Si02
#       7
#     8   8   8   8   8   4   8
#     4  10  23  45  67  92 138 180 223 283 354 416
#     4  11  23  44  69  94 135 182 223 289 345 407
#     4  10  21  39  64  90 124 187 232 264 318 419
#     4  11  23  40  63 101 141 172 220 291 350 391
#     4  11  23  37  66  99 136 179 224 268 336 414
#     4  12  18  42  68  94 130 172 220 284 330 404
#     4  11  24  42  71  98 121 175 238 279 338 427
#
# _framework density 20.933056000000001
#
# number of rings (size 3 to 8) (size 9 to 14) (size 15 to 20)
#    0.000    1.231    4.615    4.154    2.154    1.538 
#    2.769    0.769    0.000    0.923    0.000    0.000 
#    0.000    0.000    0.000    0.000    0.000    0.000 
#
# Total GULP energy -289545.226914 kJ/mol
# GULP energy per Si atom -5568.177441 kJ/mol
# Density = 2.088541 g / cm^3
# Si number density = 20.933056 Si / 1000 Ang^3
#
#
#
# Elastic Constant Matrix: (Units=GPa)
#
#
# Indices 1 2 3 4 5 6 
#
# 1 133.0321 21.1408 22.2242 0.0000 0.0000 0.0000
# 2 21.1408 72.8123 -6.0870 0.0000 0.0000 0.0000
# 3 22.2242 -6.0870 91.5695 0.0000 0.0000 0.0000
# 4 0.0000 0.0000 0.0000 2.7258 0.0000 0.0000
# 5 0.0000 0.0000 0.0000 0.0000 12.7045 0.0000
# 6 0.0000 0.0000 0.0000 0.0000 0.0000 29.2021
#
#
#
# Elastic Compliance Matrix: (Units=1/GPa)
#
#
# Indices 1 2 3 4 5 6 
#
# 1 0.008294 -0.002591 -0.002185 0.000000 0.000000 0.000000
# 2 -0.002591 0.014620 0.001601 0.000000 0.000000 0.000000
# 3 -0.002185 0.001601 0.011557 0.000000 0.000000 0.000000
# 4 0.000000 0.000000 0.000000 0.366858 0.000000 0.000000
# 5 0.000000 0.000000 0.000000 0.000000 0.078712 0.000000
# 6 0.000000 0.000000 0.000000 0.000000 0.000000 0.034244
#
#
# Mechanical properties :
#
#
# Convention : Reuss Voigt Hill
#
# Bulk Modulus (GPa) = 35.56106 41.32997 38.44551
# Shear Modulus (GPa) = 9.43378 26.26888 17.85133
#
# Velocity S-wave (km/s) = 2.12519 3.54630 2.92341
# Velocity P-wave (km/s) = 4.80071 6.04608 5.45902
#
# Compressibility (1/GPa) = 0.02812065
#
# Stress axis : x y z
#
# Youngs Moduli (GPa) = 120.57291 68.39960 86.52455
#
# Poissons Ratio (x) = 0.17720 0.18907
# Poissons Ratio (y) = 0.31237 -0.13849
# Poissons Ratio (z) = 0.26347 -0.10948
#
# Static dielectric constant tensor:
#      x y z
#    x 1.809210 0.000000 0.000000 
#    y 0.000000 1.911390 0.000000 
#    z 0.000000 0.000000 1.762510 
# 
# From -- ./inp_files/25179.got.cif
#   From: 2010.05.17/outbox.cif.g08.bks.cpg/sg50_13_cif.got.tgz:25179.got - 2010.06.03 11:33:33.
