data_PCOD9396277
_publ_section_title
;
Structure prediction by ZEFSAII (Michael W. Deem and Ramdas Pophale) SiO2 
 PCOD9396277
Probable space group: P B A N
;
_chemical_formula_sum "Si O2"
_cell_formula_units_Z 60
_cell_length_a 14.545364
_cell_length_b 14.143912
_cell_length_c 13.130386
_cell_angle_alpha 90.000000
_cell_angle_beta 90.000000
_cell_angle_gamma 90.000000
_cell_volume 2701.292626
_symmetry_space_group_name_H-M "P B A N"
_symmetry_group_IT_number 50
_space_group.IT_coordinate_system_code '2'
_symmetry_cell_setting 'orthorhombic'
loop_
_space_group_symop_operation_xyz
x,y,z
1/2-x,1/2-y,z
x,1/2-y,-z
1/2-x,y,-z
-x,-y,-z
1/2+x,1/2+y,-z
-x,1/2+y,z
1/2+x,-y,z
loop_
_atom_site_type_symbol
_atom_site_label
_atom_site_fract_x
_atom_site_fract_y
_atom_site_fract_z
Si Si1 0.443420 0.602005 0.608310
Si Si2 0.421365 0.939388 0.607686
Si Si3 0.051164 0.278892 0.325976
Si Si4 0.468978 0.753571 0.111245
Si Si5 0.571541 0.038494 0.827617
Si Si6 0.624657 0.065287 0.173836
Si Si7 0.266771 0.087597 0.111044
Si Si8 0.750000 0.750000 0.278185
O O1 0.389083 0.591015 0.503631
O O2 0.539951 0.544940 0.597650
O O3 0.477326 0.707634 0.626320
O O4 0.399453 0.560763 0.710978
O O5 0.513006 0.879091 0.637792
O O6 0.356660 0.925262 0.704757
O O7 0.157503 0.259411 0.344510
O O8 0.038520 0.263010 0.204503
O O9 0.426854 0.858362 0.121391
O O10 0.396603 0.667843 0.126645
O O11 0.512647 0.750000 0.000000
O O12 0.468014 0.998320 0.830619
O O13 0.632746 0.957467 0.876722
O O14 0.701731 0.004278 0.120588
O O15 0.246177 0.159144 0.203120
O O16 0.250000 0.130653 0.000000
#
# Coordination Sequence:
#
# PCOD9396277 Si02
#       8
#     8   8   8   8   8   8   8   4
#     4   9  17  34  58  79 105 145 188 232 288 346
#     4   9  17  34  58  79 105 145 188 232 288 346
#     4  10  21  34  54  84 117 151 192 242 292 354
#     4  10  20  36  58  79 107 151 199 247 299 351
#     4  10  22  39  58  85 118 153 198 251 300 354
#     4  10  22  39  58  85 118 153 198 251 300 354
#     4  12  25  39  59  86 120 162 205 247 297 356
#     4  12  23  36  53  82 126 162 195 242 297 356
#
# _framework density 22.211587999999999
#
# number of rings (size 3 to 8) (size 9 to 14) (size 15 to 20)
#    0.000    1.867    0.000    6.200    0.000    5.867 
#    0.000    3.333    0.000    9.600    0.000    5.600 
#    0.000    0.000    0.000    0.000    0.000    0.000 
#
# Total GULP energy -335128.042487 kJ/mol
# GULP energy per Si atom -5585.467375 kJ/mol
# Density = 2.216103 g / cm^3
# Si number density = 22.211588 Si / 1000 Ang^3
#
#
#
# Elastic Constant Matrix: (Units=GPa)
#
#
# Indices 1 2 3 4 5 6 
#
# 1 25.0099 -14.4307 -7.4953 0.0000 0.0000 0.0000
# 2 -14.4307 108.2626 -8.6157 0.0000 0.0000 0.0000
# 3 -7.4953 -8.6157 103.5389 0.0000 0.0000 0.0000
# 4 0.0000 0.0000 0.0000 12.2178 0.0000 0.0000
# 5 0.0000 0.0000 0.0000 0.0000 5.4581 0.0000
# 6 0.0000 0.0000 0.0000 0.0000 0.0000 15.5712
#
#
#
# Elastic Compliance Matrix: (Units=1/GPa)
#
#
# Indices 1 2 3 4 5 6 
#
# 1 0.044723 0.006260 0.003758 0.000000 0.000000 0.000000
# 2 0.006260 0.010175 0.001300 0.000000 0.000000 0.000000
# 3 0.003758 0.001300 0.010038 0.000000 0.000000 0.000000
# 4 0.000000 0.000000 0.000000 0.081847 0.000000 0.000000
# 5 0.000000 0.000000 0.000000 0.000000 0.183215 0.000000
# 6 0.000000 0.000000 0.000000 0.000000 0.000000 0.064221
#
#
# Mechanical properties :
#
#
# Convention : Reuss Voigt Hill
#
# Bulk Modulus (GPa) = 11.41901 19.52534 15.47218
# Shear Modulus (GPa) = 12.47590 24.47297 18.47444
#
# Velocity S-wave (km/s) = 2.37256 3.32296 2.88713
# Velocity P-wave (km/s) = 3.55775 4.85102 4.25382
#
# Compressibility (1/GPa) = 0.08757323
#
# Stress axis : x y z
#
# Youngs Moduli (GPa) = 22.36000 98.28292 99.61698
#
# Poissons Ratio (x) = -0.61529 -0.37441
# Poissons Ratio (y) = -0.13998 -0.12949
# Poissons Ratio (z) = -0.08404 -0.12775
#
# Static dielectric constant tensor:
#      x y z
#    x 1.798060 0.000000 0.000000 
#    y 0.000000 1.786610 0.000000 
#    z 0.000000 0.000000 1.891770 
# 
# From -- ./inp_files/26591.got.cif
#   From: 2010.05.17/outbox.cif.g08.bks.cpg/sg50_14_cif.got.tgz:26591.got - 2010.06.03 11:33:33.
