data_PCOD9396057
_publ_section_title
;
Structure prediction by ZEFSAII (Michael W. Deem and Ramdas Pophale) SiO2 
 PCOD9396057
Probable space group: P B A N
;
_chemical_formula_sum "Si O2"
_cell_formula_units_Z 56
_cell_length_a 15.245324
_cell_length_b 21.960621
_cell_length_c 7.124291
_cell_angle_alpha 90.000000
_cell_angle_beta 90.000000
_cell_angle_gamma 90.000000
_cell_volume 2385.189704
_symmetry_space_group_name_H-M "P B A N"
_symmetry_group_IT_number 50
_space_group.IT_coordinate_system_code '2'
_symmetry_cell_setting 'orthorhombic'
loop_
_space_group_symop_operation_xyz
x,y,z
1/2-x,1/2-y,z
x,1/2-y,-z
1/2-x,y,-z
-x,-y,-z
1/2+x,1/2+y,-z
-x,1/2+y,z
1/2+x,-y,z
loop_
_atom_site_type_symbol
_atom_site_label
_atom_site_fract_x
_atom_site_fract_y
_atom_site_fract_z
Si Si1 0.650840 0.117359 0.307766
Si Si2 0.347645 0.640991 0.757924
Si Si3 0.092154 0.012130 0.404592
Si Si4 0.006974 0.068270 0.070618
Si Si5 0.750000 0.919224 0.500000
Si Si6 0.829071 0.878675 0.891717
Si Si7 0.548479 0.262674 0.721807
Si Si8 0.889408 0.750000 0.000000
O O1 0.744725 0.129678 0.213671
O O2 0.647917 0.125954 0.534491
O O3 0.587600 0.170681 0.240444
O O4 0.621363 0.047594 0.289169
O O5 0.415663 0.598193 0.870678
O O6 0.382635 0.709758 0.784905
O O7 0.168523 0.034276 0.540561
O O8 0.069802 0.065578 0.257595
O O9 0.000000 0.000000 0.500000
O O10 0.082445 0.105576 0.971000
O O11 0.000000 0.000000 0.000000
O O12 0.786282 0.882949 0.677628
O O13 0.834679 0.807106 0.931513
O O14 0.750000 0.912992 0.000000
O O15 0.538097 0.250000 0.500000
O O16 0.457883 0.258076 0.827692
#
# Coordination Sequence:
#
# PCOD9396057 Si02
#       8
#     8   8   8   8   4   8   8   4
#     4  10  21  36  71 106 140 189 241 295 361 455
#     4  10  19  42  64  99 148 184 242 294 366 448
#     4  11  23  39  68 102 138 186 243 292 365 437
#     4  11  25  41  67 100 143 185 232 308 372 443
#     4  10  26  48  71 104 145 196 240 314 370 446
#     4  11  27  48  73 101 143 187 255 309 373 447
#     4  10  23  41  70 105 146 193 237 302 378 446
#     4  12  25  46  73 106 138 196 250 307 369 450
#
# _framework density 23.478217000000001
#
# number of rings (size 3 to 8) (size 9 to 14) (size 15 to 20)
#    0.000    1.429    2.857    1.500    4.000    4.000 
#    0.000    3.571    0.000    0.000    0.000    0.000 
#    0.000    0.000    0.000    0.000    0.000    0.000 
#
# Total GULP energy -311795.380836 kJ/mol
# GULP energy per Si atom -5567.774658 kJ/mol
# Density = 2.342478 g / cm^3
# Si number density = 23.478217 Si / 1000 Ang^3
#
#
#
# Elastic Constant Matrix: (Units=GPa)
#
#
# Indices 1 2 3 4 5 6 
#
# 1 181.6976 60.3687 31.3120 0.0000 0.0000 0.0000
# 2 60.3687 115.6766 21.7590 0.0000 0.0000 0.0000
# 3 31.3120 21.7590 76.1660 0.0000 0.0000 0.0000
# 4 0.0000 0.0000 0.0000 43.7139 0.0000 0.0000
# 5 0.0000 0.0000 0.0000 0.0000 59.5236 0.0000
# 6 0.0000 0.0000 0.0000 0.0000 0.0000 119.0070
#
#
#
# Elastic Compliance Matrix: (Units=1/GPa)
#
#
# Indices 1 2 3 4 5 6 
#
# 1 0.006912 -0.003247 -0.001914 0.000000 0.000000 0.000000
# 2 -0.003247 0.010661 -0.001711 0.000000 0.000000 0.000000
# 3 -0.001914 -0.001711 0.014405 0.000000 0.000000 0.000000
# 4 0.000000 0.000000 0.000000 0.022876 0.000000 0.000000
# 5 0.000000 0.000000 0.000000 0.000000 0.016800 0.000000
# 6 0.000000 0.000000 0.000000 0.000000 0.000000 0.008403
#
#
# Mechanical properties :
#
#
# Convention : Reuss Voigt Hill
#
# Bulk Modulus (GPa) = 54.84161 66.71328 60.77744
# Shear Modulus (GPa) = 50.06019 61.78894 55.92456
#
# Velocity S-wave (km/s) = 4.62258 5.13563 4.88584
# Velocity P-wave (km/s) = 7.20418 7.97765 7.60076
#
# Compressibility (1/GPa) = 0.01823433
#
# Stress axis : x y z
#
# Youngs Moduli (GPa) = 144.66690 93.79712 69.42143
#
# Poissons Ratio (x) = 0.30460 0.13287
# Poissons Ratio (y) = 0.46979 0.11876
# Poissons Ratio (z) = 0.27689 0.16046
#
# Static dielectric constant tensor:
#      x y z
#    x 1.767000 0.000000 0.000000 
#    y 0.000000 1.900480 0.000000 
#    z 0.000000 0.000000 1.940200 
# 
# From -- ./inp_files/13338.got.cif
#   From: 2010.05.17/outbox.cif.g08.bks.cpg/sg50_7_cif.got.tgz:13338.got - 2010.06.03 11:33:33.
