data_PCOD9396202
_publ_section_title
;
Structure prediction by ZEFSAII (Michael W. Deem and Ramdas Pophale) SiO2 
 PCOD9396202
Probable space group: P B A N
;
_chemical_formula_sum "Si O2"
_cell_formula_units_Z 40
_cell_length_a 12.368711
_cell_length_b 9.545140
_cell_length_c 16.676154
_cell_angle_alpha 90.000000
_cell_angle_beta 90.000000
_cell_angle_gamma 90.000000
_cell_volume 1968.804720
_symmetry_space_group_name_H-M "P B A N"
_symmetry_group_IT_number 50
_space_group.IT_coordinate_system_code '2'
_symmetry_cell_setting 'orthorhombic'
loop_
_space_group_symop_operation_xyz
x,y,z
1/2-x,1/2-y,z
x,1/2-y,-z
1/2-x,y,-z
-x,-y,-z
1/2+x,1/2+y,-z
-x,1/2+y,z
1/2+x,-y,z
loop_
_atom_site_type_symbol
_atom_site_label
_atom_site_fract_x
_atom_site_fract_y
_atom_site_fract_z
Si Si1 0.886964 0.030515 0.334476
Si Si2 0.679420 0.881158 0.317169
Si Si3 0.002713 0.230032 0.590598
Si Si4 0.488216 0.480299 0.182519
Si Si5 0.377045 0.740206 0.096104
O O1 0.761275 0.000465 0.345636
O O2 0.961405 0.928030 0.389277
O O3 0.918012 0.977352 0.245443
O O4 0.918174 0.191810 0.350380
O O5 0.750000 0.750000 0.289211
O O6 0.610287 0.820466 0.390834
O O7 0.602256 0.925200 0.244789
O O8 0.966586 0.250000 0.500000
O O9 0.432459 0.599449 0.129799
O O10 0.547032 0.363524 0.129706
O O11 0.250000 0.750000 0.121937
O O12 0.377821 0.750000 0.000000
#
# Coordination Sequence:
#
# PCOD9396202 Si02
#       5
#     8   8   8   8   8
#     4  10  20  35  57  83 109 149 196 236 289 348
#     4   9  19  34  57  84 109 149 198 237 289 352
#     4  10  20  35  54  79 113 148 187 239 290 342
#     4  11  21  39  62  83 118 156 195 248 296 357
#     4  11  24  40  61  90 121 155 196 246 304 360
#
# _framework density 20.316894999999999
#
# number of rings (size 3 to 8) (size 9 to 14) (size 15 to 20)
#    0.000    1.800    0.000    6.000    0.000    3.600 
#    0.000    3.000    0.000    9.600    0.000    0.000 
#    0.000    0.000    0.000    0.000    0.000    0.000 
#
# Total GULP energy -223115.794024 kJ/mol
# GULP energy per Si atom -5577.894851 kJ/mol
# Density = 2.027065 g / cm^3
# Si number density = 20.316895 Si / 1000 Ang^3
#
#
#
# Elastic Constant Matrix: (Units=GPa)
#
#
# Indices 1 2 3 4 5 6 
#
# 1 67.5172 44.0113 -2.5581 0.0000 0.0000 0.0000
# 2 44.0113 82.0372 21.4034 0.0000 0.0000 0.0000
# 3 -2.5581 21.4034 61.3969 0.0000 0.0000 0.0000
# 4 0.0000 0.0000 0.0000 40.6119 0.0000 0.0000
# 5 0.0000 0.0000 0.0000 0.0000 3.3735 0.0000
# 6 0.0000 0.0000 0.0000 0.0000 0.0000 30.4492
#
#
#
# Elastic Compliance Matrix: (Units=1/GPa)
#
#
# Indices 1 2 3 4 5 6 
#
# 1 0.024768 -0.014913 0.006231 0.000000 0.000000 0.000000
# 2 -0.014913 0.022389 -0.008426 0.000000 0.000000 0.000000
# 3 0.006231 -0.008426 0.019485 0.000000 0.000000 0.000000
# 4 0.000000 0.000000 0.000000 0.024623 0.000000 0.000000
# 5 0.000000 0.000000 0.000000 0.000000 0.296429 0.000000
# 6 0.000000 0.000000 0.000000 0.000000 0.000000 0.032842
#
#
# Mechanical properties :
#
#
# Convention : Reuss Voigt Hill
#
# Bulk Modulus (GPa) = 30.84114 37.40716 34.12415
# Shear Modulus (GPa) = 10.73973 24.75990 17.74981
#
# Velocity S-wave (km/s) = 2.30165 3.49475 2.95896
# Velocity P-wave (km/s) = 4.71979 5.89374 5.33913
#
# Compressibility (1/GPa) = 0.03242423
#
# Stress axis : x y z
#
# Youngs Moduli (GPa) = 40.37393 44.66533 51.32274
#
# Poissons Ratio (x) = 0.66611 -0.31979
# Poissons Ratio (y) = 0.60211 0.43246
# Poissons Ratio (z) = -0.25157 0.37636
#
# Static dielectric constant tensor:
#      x y z
#    x 1.776440 0.000000 0.000000 
#    y 0.000000 1.762910 0.000000 
#    z 0.000000 0.000000 1.710760 
# 
# From -- ./inp_files/26270.got.cif
#   From: 2010.05.17/outbox.cif.g08.bks.cpg/sg50_14_cif.got.tgz:26270.got - 2010.06.03 11:33:33.
