data_PCOD9396580
_publ_section_title
;
Structure prediction by ZEFSAII (Michael W. Deem and Ramdas Pophale) SiO2 
 PCOD9396580
Probable space group: P B A N
;
_chemical_formula_sum "Si O2"
_cell_formula_units_Z 52
_cell_length_a 7.985479
_cell_length_b 25.856149
_cell_length_c 10.530744
_cell_angle_alpha 90.000000
_cell_angle_beta 90.000000
_cell_angle_gamma 90.000000
_cell_volume 2174.322045
_symmetry_space_group_name_H-M "P B A N"
_symmetry_group_IT_number 50
_space_group.IT_coordinate_system_code '2'
_symmetry_cell_setting 'orthorhombic'
loop_
_space_group_symop_operation_xyz
x,y,z
1/2-x,1/2-y,z
x,1/2-y,-z
1/2-x,y,-z
-x,-y,-z
1/2+x,1/2+y,-z
-x,1/2+y,z
1/2+x,-y,z
loop_
_atom_site_type_symbol
_atom_site_label
_atom_site_fract_x
_atom_site_fract_y
_atom_site_fract_z
Si Si1 0.008685 0.422805 0.358537
Si Si2 0.802382 0.806690 0.804695
Si Si3 0.322826 0.697811 0.777975
Si Si4 0.482416 0.383936 0.362636
Si Si5 0.750000 0.061412 0.000000
Si Si6 0.313255 0.976912 0.277104
Si Si7 0.977997 0.356071 0.105439
O O1 0.039119 0.394740 0.490329
O O2 0.834322 0.454164 0.362871
O O3 0.988098 0.385621 0.239761
O O4 0.143178 0.466170 0.321911
O O5 0.750000 0.750000 0.755059
O O6 0.653941 0.826343 0.895683
O O7 0.996337 0.798746 0.848480
O O8 0.831150 0.851578 0.699758
O O9 0.250000 0.750000 0.718556
O O10 0.362265 0.654269 0.672667
O O11 0.178050 0.681423 0.873229
O O12 0.529793 0.438060 0.296376
O O13 0.738747 0.028448 0.871184
O O14 0.913472 0.099450 0.991370
#
# Coordination Sequence:
#
# PCOD9396580 Si02
#       7
#     8   8   8   8   4   8   8
#     4  11  24  43  68 100 138 185 236 301 369 439
#     4  10  21  40  72 105 146 193 241 285 363 435
#     4  10  20  41  69 100 149 187 235 289 352 430
#     4  10  22  42  64 101 149 180 235 288 361 439
#     4  10  22  46  71  96 138 184 245 300 362 420
#     4  11  24  42  70 100 135 188 235 297 369 428
#     4  11  22  43  70  98 143 190 233 306 356 420
#
# _framework density 23.915500000000002
#
# number of rings (size 3 to 8) (size 9 to 14) (size 15 to 20)
#    0.923    0.615    4.615    0.923    2.154    3.077 
#    0.000    8.077    0.000    3.692    0.000    0.000 
#    0.000    0.000    0.000    0.000    0.000    0.000 
#
# Total GULP energy -290469.074225 kJ/mol
# GULP energy per Si atom -5585.943735 kJ/mol
# Density = 2.386107 g / cm^3
# Si number density = 23.915500 Si / 1000 Ang^3
#
#
#
# Elastic Constant Matrix: (Units=GPa)
#
#
# Indices 1 2 3 4 5 6 
#
# 1 176.9340 49.7098 40.7583 0.0000 0.0000 0.0000
# 2 49.7098 95.0425 30.0095 0.0000 0.0000 0.0000
# 3 40.7583 30.0095 95.1628 0.0000 0.0000 0.0000
# 4 0.0000 0.0000 0.0000 -0.4587 0.0000 0.0000
# 5 0.0000 0.0000 0.0000 0.0000 29.3272 0.0000
# 6 0.0000 0.0000 0.0000 0.0000 0.0000 24.1138
#
#
#
# Elastic Compliance Matrix: (Units=1/GPa)
#
#
# Indices 1 2 3 4 5 6 
#
# 1 0.006964 -0.002999 -0.002037 0.000000 0.000000 0.000000
# 2 -0.002999 0.012977 -0.002808 0.000000 0.000000 0.000000
# 3 -0.002037 -0.002808 0.012266 0.000000 0.000000 0.000000
# 4 0.000000 0.000000 0.000000 -2.180086 0.000000 0.000000
# 5 0.000000 0.000000 0.000000 0.000000 0.034098 0.000000
# 6 0.000000 0.000000 0.000000 0.000000 0.000000 0.041470
#
#
# Mechanical properties :
#
#
# Convention : Reuss Voigt Hill
#
# Bulk Modulus (GPa) = 60.53507 67.56606 64.05057
# Shear Modulus (GPa) = -2.43769 27.04058 12.30144
#
# Velocity S-wave (km/s) = -1.01070 3.36619 2.27044
# Velocity P-wave (km/s) = 4.89949 6.58951 5.80632
#
# Compressibility (1/GPa) = 0.01651935
#
# Stress axis : x y z
#
# Youngs Moduli (GPa) = 143.60395 77.06115 81.52575
#
# Poissons Ratio (x) = 0.23111 0.16605
# Poissons Ratio (y) = 0.43067 0.22890
# Poissons Ratio (z) = 0.29249 0.21636
#
# Static dielectric constant tensor:
#      x y z
#    x 2.011900 0.000000 0.000000 
#    y 0.000000 1.920780 0.000000 
#    z 0.000000 0.000000 1.878490 
# 
# From -- ./inp_files/19362.got.cif
#   From: 2010.05.17/outbox.cif.g08.bks.cpg/sg50_10_cif.got.tgz:19362.got - 2010.06.03 11:33:33.
