data_PCOD9396239
_publ_section_title
;
Structure prediction by ZEFSAII (Michael W. Deem and Ramdas Pophale) SiO2 
 PCOD9396239
Probable space group: P B A N
;
_chemical_formula_sum "Si O2"
_cell_formula_units_Z 64
_cell_length_a 12.056068
_cell_length_b 14.968752
_cell_length_c 14.131700
_cell_angle_alpha 90.000000
_cell_angle_beta 90.000000
_cell_angle_gamma 90.000000
_cell_volume 2550.267235
_symmetry_space_group_name_H-M "P B A N"
_symmetry_group_IT_number 50
_space_group.IT_coordinate_system_code '2'
_symmetry_cell_setting 'orthorhombic'
loop_
_space_group_symop_operation_xyz
x,y,z
1/2-x,1/2-y,z
x,1/2-y,-z
1/2-x,y,-z
-x,-y,-z
1/2+x,1/2+y,-z
-x,1/2+y,z
1/2+x,-y,z
loop_
_atom_site_type_symbol
_atom_site_label
_atom_site_fract_x
_atom_site_fract_y
_atom_site_fract_z
Si Si1 0.335821 0.415793 0.420269
Si Si2 0.272344 0.423655 0.901397
Si Si3 0.026879 0.115459 0.154928
Si Si4 0.993588 0.349840 0.040628
Si Si5 0.283303 0.874304 0.606764
Si Si6 0.447371 0.934115 0.344660
Si Si7 0.158967 0.404024 0.291872
Si Si8 0.052317 0.802761 0.235413
O O1 0.250000 0.387683 0.500000
O O2 0.329144 0.523917 0.406586
O O3 0.465055 0.394478 0.418317
O O4 0.276000 0.372046 0.329822
O O5 0.156384 0.376102 0.873119
O O6 0.377568 0.361643 0.928463
O O7 0.312245 0.463126 0.801529
O O8 0.250000 0.474894 0.000000
O O9 0.011746 0.052271 0.245418
O O10 0.966824 0.203512 0.195583
O O11 0.972884 0.090285 0.053159
O O12 0.924794 0.359802 0.138026
O O13 0.979007 0.250000 0.000000
O O14 0.250000 0.845027 0.500000
O O15 0.164629 0.878741 0.658089
O O16 0.365286 0.822868 0.678022
O O17 0.399970 0.031810 0.368630
O O18 0.069845 0.330503 0.269751
#
# Coordination Sequence:
#
# PCOD9396239 Si02
#       8
#     8   8   8   8   8   8   8   8
#     4  10  21  37  63  88 113 153 206 259 307 356
#     4   9  17  32  54  87 119 155 194 248 312 364
#     4  10  20  36  59  87 124 158 199 253 310 371
#     4   8  17  32  57  87 119 158 205 248 299 372
#     4  10  23  39  63  86 116 163 207 251 297 370
#     4  11  22  39  58  87 122 156 203 252 307 374
#     4  10  20  35  60  85 117 151 199 258 301 366
#     4  10  20  37  59  90 120 157 203 247 302 362
#
# _framework density 25.095407999999999
#
# number of rings (size 3 to 8) (size 9 to 14) (size 15 to 20)
#    0.000    2.250    2.500    0.000    1.750   11.250 
#    0.000   10.000    0.000    3.000    0.000    0.000 
#    0.000    0.000    0.000    0.000    0.000    0.000 
#
# Total GULP energy -356517.063018 kJ/mol
# GULP energy per Si atom -5570.579110 kJ/mol
# Density = 2.503829 g / cm^3
# Si number density = 25.095408 Si / 1000 Ang^3
#
#
#
# Elastic Constant Matrix: (Units=GPa)
#
#
# Indices 1 2 3 4 5 6 
#
# 1 125.5057 9.2670 53.2234 0.0000 0.0000 0.0000
# 2 9.2670 22.8794 10.5594 0.0000 0.0000 0.0000
# 3 53.2234 10.5594 149.0193 0.0000 0.0000 0.0000
# 4 0.0000 0.0000 0.0000 20.4886 0.0000 0.0000
# 5 0.0000 0.0000 0.0000 0.0000 45.5248 0.0000
# 6 0.0000 0.0000 0.0000 0.0000 0.0000 8.2274
#
#
#
# Elastic Compliance Matrix: (Units=1/GPa)
#
#
# Indices 1 2 3 4 5 6 
#
# 1 0.009512 -0.002362 -0.003230 0.000000 0.000000 0.000000
# 2 -0.002362 0.045772 -0.002400 0.000000 0.000000 0.000000
# 3 -0.003230 -0.002400 0.008034 0.000000 0.000000 0.000000
# 4 0.000000 0.000000 0.000000 0.048808 0.000000 0.000000
# 5 0.000000 0.000000 0.000000 0.000000 0.021966 0.000000
# 6 0.000000 0.000000 0.000000 0.000000 0.000000 0.121544
#
#
# Mechanical properties :
#
#
# Convention : Reuss Voigt Hill
#
# Bulk Modulus (GPa) = 21.12625 49.27822 35.20224
# Shear Modulus (GPa) = 17.39753 29.80515 23.60134
#
# Velocity S-wave (km/s) = 2.63583 3.45000 3.07003
# Velocity P-wave (km/s) = 4.20715 5.96230 5.15990
#
# Compressibility (1/GPa) = 0.04733447
#
# Stress axis : x y z
#
# Youngs Moduli (GPa) = 105.13182 21.84758 124.46859
#
# Poissons Ratio (x) = 0.05160 0.40202
# Poissons Ratio (y) = 0.24832 0.29869
# Poissons Ratio (z) = 0.33956 0.05243
#
# Static dielectric constant tensor:
#      x y z
#    x 1.958530 0.000000 0.000000 
#    y 0.000000 2.053120 0.000000 
#    z 0.000000 0.000000 2.174130 
# 
# From -- ./inp_files/26068.got.cif
#   From: 2010.05.17/outbox.cif.g08.bks.cpg/sg50_14_cif.got.tgz:26068.got - 2010.06.03 11:33:33.
