data_PCOD9396782
_publ_section_title
;
Structure prediction by ZEFSAII (Michael W. Deem and Ramdas Pophale) SiO2 
 PCOD9396782
Probable space group: P B A N
;
_chemical_formula_sum "Si O2"
_cell_formula_units_Z 40
_cell_length_a 24.023157
_cell_length_b 17.280515
_cell_length_c 4.982961
_cell_angle_alpha 90.000000
_cell_angle_beta 90.000000
_cell_angle_gamma 90.000000
_cell_volume 2068.589181
_symmetry_space_group_name_H-M "P B A N"
_symmetry_group_IT_number 50
_space_group.IT_coordinate_system_code '2'
_symmetry_cell_setting 'orthorhombic'
loop_
_space_group_symop_operation_xyz
x,y,z
1/2-x,1/2-y,z
x,1/2-y,-z
1/2-x,y,-z
-x,-y,-z
1/2+x,1/2+y,-z
-x,1/2+y,z
1/2+x,-y,z
loop_
_atom_site_type_symbol
_atom_site_label
_atom_site_fract_x
_atom_site_fract_y
_atom_site_fract_z
Si Si1 0.508164 0.305839 0.750581
Si Si2 0.212245 0.428333 0.234231
Si Si3 0.383998 0.306253 0.753868
Si Si4 0.875738 0.162570 0.613169
Si Si5 0.689167 0.102802 0.890661
O O1 0.499262 0.250000 0.500000
O O2 0.446717 0.338772 0.808042
O O3 0.559154 0.359678 0.655034
O O4 0.525071 0.250000 0.000000
O O5 0.250000 0.441596 0.500000
O O6 0.160206 0.373666 0.289917
O O7 0.191122 0.509664 0.110309
O O8 0.250000 0.391657 0.000000
O O9 0.383645 0.250000 0.500000
O O10 0.369591 0.250000 0.000000
O O11 0.876896 0.250000 0.500000
O O12 0.833838 0.121514 0.405485
O O13 0.851179 0.146465 0.905102
O O14 0.750000 0.127460 0.000000
#
# Coordination Sequence:
#
# PCOD9396782 Si02
#       5
#     8   8   8   8   8
#     4   9  18  35  56  83 116 146 180 236 299 337
#     4  11  23  40  58  81 119 158 189 234 296 347
#     4  10  21  37  61  88 114 148 194 240 283 344
#     4  11  21  36  59  83 108 144 190 233 276 336
#     4  11  23  38  54  79 115 150 183 229 288 336
#
# _framework density 19.336849000000001
#
# number of rings (size 3 to 8) (size 9 to 14) (size 15 to 20)
#    0.000    1.600    0.000    7.200    0.000    4.800 
#    0.000    2.000    0.000    0.000    0.000    0.000 
#    0.000    0.000    0.000    0.000    0.000    0.000 
#
# Total GULP energy -222738.174654 kJ/mol
# GULP energy per Si atom -5568.454366 kJ/mol
# Density = 1.929284 g / cm^3
# Si number density = 19.336849 Si / 1000 Ang^3
#
#
#
# Elastic Constant Matrix: (Units=GPa)
#
#
# Indices 1 2 3 4 5 6 
#
# 1 114.6012 40.1090 -6.6325 0.0000 0.0000 0.0000
# 2 40.1090 41.2383 -2.4658 0.0000 0.0000 0.0000
# 3 -6.6325 -2.4658 94.7027 0.0000 0.0000 0.0000
# 4 0.0000 0.0000 0.0000 20.6549 0.0000 0.0000
# 5 0.0000 0.0000 0.0000 0.0000 31.9907 0.0000
# 6 0.0000 0.0000 0.0000 0.0000 0.0000 -52.9748
#
#
#
# Elastic Compliance Matrix: (Units=1/GPa)
#
#
# Indices 1 2 3 4 5 6 
#
# 1 0.013262 -0.012864 0.000594 0.000000 0.000000 0.000000
# 2 -0.012864 0.036764 0.000056 0.000000 0.000000 0.000000
# 3 0.000594 0.000056 0.010602 0.000000 0.000000 0.000000
# 4 0.000000 0.000000 0.000000 0.048415 0.000000 0.000000
# 5 0.000000 0.000000 0.000000 0.000000 0.031259 0.000000
# 6 0.000000 0.000000 0.000000 0.000000 0.000000 -0.018877
#
#
# Mechanical properties :
#
#
# Convention : Reuss Voigt Hill
#
# Bulk Modulus (GPa) = 27.62278 34.72925 31.17602
# Shear Modulus (GPa) = 31.66154 14.56959 23.11556
#
# Velocity S-wave (km/s) = 4.05083 2.74790 3.46123
# Velocity P-wave (km/s) = 6.01623 5.29784 5.66843
#
# Compressibility (1/GPa) = 0.03620201
#
# Stress axis : x y z
#
# Youngs Moduli (GPa) = 75.40094 27.20042 94.31803
#
# Poissons Ratio (x) = 0.34990 -0.05602
# Poissons Ratio (y) = 0.96994 -0.00531
# Poissons Ratio (z) = -0.04478 -0.00153
#
# Static dielectric constant tensor:
#      x y z
#    x 1.773060 0.000000 0.000000 
#    y 0.000000 1.639860 0.000000 
#    z 0.000000 0.000000 1.648040 
# 
# From -- ./inp_files/5153.got.cif
#   From: 2010.05.17/outbox.cif.g08.bks.cpg/sg50_3_cif.got.tgz:5153.got - 2010.06.03 11:33:33.
