data_PCOD9396948
_publ_section_title
;
Structure prediction by ZEFSAII (Michael W. Deem and Ramdas Pophale) SiO2 
 PCOD9396948
Probable space group: P B A N
;
_chemical_formula_sum "Si O2"
_cell_formula_units_Z 38
_cell_length_a 14.682493
_cell_length_b 8.497514
_cell_length_c 15.248541
_cell_angle_alpha 90.000000
_cell_angle_beta 90.000000
_cell_angle_gamma 90.000000
_cell_volume 1902.479488
_symmetry_space_group_name_H-M "P B A N"
_symmetry_group_IT_number 50
_space_group.IT_coordinate_system_code '2'
_symmetry_cell_setting 'orthorhombic'
loop_
_space_group_symop_operation_xyz
x,y,z
1/2-x,1/2-y,z
x,1/2-y,-z
1/2-x,y,-z
-x,-y,-z
1/2+x,1/2+y,-z
-x,1/2+y,z
1/2+x,-y,z
loop_
_atom_site_type_symbol
_atom_site_label
_atom_site_fract_x
_atom_site_fract_y
_atom_site_fract_z
Si Si1 0.395031 0.953347 0.399612
Si Si2 0.972555 0.214304 0.898610
Si Si3 0.250000 0.750000 0.500000
Si Si4 0.382265 0.016056 0.194131
Si Si5 0.716612 0.067298 0.094717
Si Si6 0.956625 0.750000 0.500000
O O1 0.309990 0.857971 0.436741
O O2 0.393078 0.983897 0.296625
O O3 0.480440 0.847136 0.431584
O O4 0.400822 0.120062 0.448117
O O5 0.926670 0.367721 0.856621
O O6 0.892186 0.080675 0.897371
O O7 0.994379 0.250000 0.000000
O O8 0.059200 0.160839 0.842744
O O9 0.275898 0.021586 0.167351
O O10 0.750000 0.250000 0.098125
O O11 0.750000 0.006892 0.000000
#
# Coordination Sequence:
#
# PCOD9396948 Si02
#       6
#     8   8   2   8   8   4
#     4  10  21  40  64  94 119 163 209 257 324 388
#     4  11  21  37  60  89 124 167 206 251 311 358
#     4  10  24  38  64  90 126 164 204 258 332 394
#     4  11  22  36  64  90 119 161 214 253 298 381
#     4   9  17  34  55  82 118 162 195 240 297 354
#     4   9  20  42  64  85 130 156 194 271 328 376
#
# _framework density 19.973935000000001
#
# number of rings (size 3 to 8) (size 9 to 14) (size 15 to 20)
#    0.000    1.895    4.211    1.895    4.421    0.421 
#    0.000    1.053    4.632    0.000    0.000    0.000 
#    0.000    0.000    0.000    0.000    0.000    0.000 
#
# Total GULP energy -212174.039550 kJ/mol
# GULP energy per Si atom -5583.527357 kJ/mol
# Density = 1.992847 g / cm^3
# Si number density = 19.973935 Si / 1000 Ang^3
#
#
#
# Elastic Constant Matrix: (Units=GPa)
#
#
# Indices 1 2 3 4 5 6 
#
# 1 58.1514 15.6984 27.9714 0.0000 0.0000 0.0000
# 2 15.6984 72.6377 28.4372 0.0000 0.0000 0.0000
# 3 27.9714 28.4372 152.9053 0.0000 0.0000 0.0000
# 4 0.0000 0.0000 0.0000 13.1428 0.0000 0.0000
# 5 0.0000 0.0000 0.0000 0.0000 2.3149 0.0000
# 6 0.0000 0.0000 0.0000 0.0000 0.0000 -13.2718
#
#
#
# Elastic Compliance Matrix: (Units=1/GPa)
#
#
# Indices 1 2 3 4 5 6 
#
# 1 0.019456 -0.003032 -0.002995 0.000000 0.000000 0.000000
# 2 -0.003032 0.015321 -0.002295 0.000000 0.000000 0.000000
# 3 -0.002995 -0.002295 0.007515 0.000000 0.000000 0.000000
# 4 0.000000 0.000000 0.000000 0.076087 0.000000 0.000000
# 5 0.000000 0.000000 0.000000 0.000000 0.431993 0.000000
# 6 0.000000 0.000000 0.000000 0.000000 0.000000 -0.075348
#
#
# Mechanical properties :
#
#
# Convention : Reuss Voigt Hill
#
# Bulk Modulus (GPa) = 38.99082 47.54539 43.26811
# Shear Modulus (GPa) = 9.99567 14.54300 12.26933
#
# Velocity S-wave (km/s) = 2.23947 2.70126 2.48113
# Velocity P-wave (km/s) = 5.12349 5.79521 5.46967
#
# Compressibility (1/GPa) = 0.02564706
#
# Stress axis : x y z
#
# Youngs Moduli (GPa) = 51.39870 65.27165 133.07313
#
# Poissons Ratio (x) = 0.19791 0.39858
# Poissons Ratio (y) = 0.15585 0.30535
# Poissons Ratio (z) = 0.15395 0.14977
#
# Static dielectric constant tensor:
#      x y z
#    x 1.746650 0.000000 0.000000 
#    y 0.000000 1.716510 0.000000 
#    z 0.000000 0.000000 1.648470 
# 
# From -- ./inp_files/24605.got.cif
#   From: 2010.05.17/outbox.cif.g08.bks.cpg/sg50_13_cif.got.tgz:24605.got - 2010.06.03 11:33:33.
