data_PCOD9397608
_publ_section_title
;
Structure prediction by ZEFSAII (Michael W. Deem and Ramdas Pophale) SiO2 
 PCOD9397608
Probable space group: P B A N
;
_chemical_formula_sum "Si O2"
_cell_formula_units_Z 48
_cell_length_a 13.359310
_cell_length_b 17.895525
_cell_length_c 9.937449
_cell_angle_alpha 90.000000
_cell_angle_beta 90.000000
_cell_angle_gamma 90.000000
_cell_volume 2375.764477
_symmetry_space_group_name_H-M "P B A N"
_symmetry_group_IT_number 50
_space_group.IT_coordinate_system_code '2'
_symmetry_cell_setting 'orthorhombic'
loop_
_space_group_symop_operation_xyz
x,y,z
1/2-x,1/2-y,z
x,1/2-y,-z
1/2-x,y,-z
-x,-y,-z
1/2+x,1/2+y,-z
-x,1/2+y,z
1/2+x,-y,z
loop_
_atom_site_type_symbol
_atom_site_label
_atom_site_fract_x
_atom_site_fract_y
_atom_site_fract_z
Si Si1 0.671312 0.681375 0.266495
Si Si2 0.557308 0.297681 0.637830
Si Si3 0.250000 0.402110 0.000000
Si Si4 0.577632 0.028909 0.395379
Si Si5 0.085313 0.515990 0.897402
Si Si6 0.250000 0.427981 0.500000
Si Si7 0.353285 0.811481 0.913464
O O1 0.750000 0.750000 0.279644
O O2 0.555010 0.704062 0.295065
O O3 0.693445 0.645451 0.117987
O O4 0.696686 0.623512 0.387611
O O5 0.560129 0.250000 0.500000
O O6 0.583644 0.382367 0.596559
O O7 0.635387 0.281335 0.760097
O O8 0.173778 0.457836 0.924473
O O9 0.540588 0.006400 0.249283
O O10 0.500000 0.000000 0.500000
O O11 0.677891 0.983648 0.420587
O O12 0.113411 0.603025 0.907754
O O13 0.000000 0.500000 0.000000
O O14 0.414110 0.750000 0.000000
O O15 0.250000 0.817736 0.000000
#
# Coordination Sequence:
#
# PCOD9397608 Si02
#       7
#     8   8   4   8   8   4   8
#     4  12  26  44  72 104 145 187 234 293 362 430
#     4  11  25  48  70 108 143 188 242 294 363 427
#     4  12  23  44  65 106 140 178 238 286 357 430
#     4  11  24  44  69 104 138 183 238 287 351 428
#     4  11  24  42  71 101 140 183 231 290 352 421
#     4  12  23  46  69  98 146 186 232 296 357 420
#     4  10  23  47  69  97 143 186 233 291 357 422
#
# _framework density 20.204022999999999
#
# number of rings (size 3 to 8) (size 9 to 14) (size 15 to 20)
#    0.000    0.833    4.167    3.500    0.000    4.000 
#   12.000    0.000    0.000    0.000    0.000    0.000 
#    0.000    0.000    0.000    0.000    0.000    0.000 
#
# Total GULP energy -267563.792513 kJ/mol
# GULP energy per Si atom -5574.245677 kJ/mol
# Density = 2.015804 g / cm^3
# Si number density = 20.204023 Si / 1000 Ang^3
#
#
#
# Elastic Constant Matrix: (Units=GPa)
#
#
# Indices 1 2 3 4 5 6 
#
# 1 79.7762 26.1147 54.0382 0.0000 0.0000 0.0000
# 2 26.1147 89.7664 65.6809 0.0000 0.0000 0.0000
# 3 54.0382 65.6809 212.2477 0.0000 0.0000 0.0000
# 4 0.0000 0.0000 0.0000 41.4185 0.0000 0.0000
# 5 0.0000 0.0000 0.0000 0.0000 38.4966 0.0000
# 6 0.0000 0.0000 0.0000 0.0000 0.0000 -54.6701
#
#
#
# Elastic Compliance Matrix: (Units=1/GPa)
#
#
# Indices 1 2 3 4 5 6 
#
# 1 0.015445 -0.002089 -0.003286 0.000000 0.000000 0.000000
# 2 -0.002089 0.014683 -0.004012 0.000000 0.000000 0.000000
# 3 -0.003286 -0.004012 0.006790 0.000000 0.000000 0.000000
# 4 0.000000 0.000000 0.000000 0.024144 0.000000 0.000000
# 5 0.000000 0.000000 0.000000 0.000000 0.025976 0.000000
# 6 0.000000 0.000000 0.000000 0.000000 0.000000 -0.018292
#
#
# Mechanical properties :
#
#
# Convention : Reuss Voigt Hill
#
# Bulk Modulus (GPa) = 55.11454 74.82865 64.97159
# Shear Modulus (GPa) = 53.43752 20.77943 37.10847
#
# Velocity S-wave (km/s) = 5.14843 3.21047 4.29031
# Velocity P-wave (km/s) = 7.91707 7.13160 7.53458
#
# Compressibility (1/GPa) = 0.01814403
#
# Stress axis : x y z
#
# Youngs Moduli (GPa) = 64.74775 68.10492 147.28558
#
# Poissons Ratio (x) = 0.14227 0.48394
# Poissons Ratio (y) = 0.13526 0.59090
# Poissons Ratio (z) = 0.21274 0.27323
#
# Static dielectric constant tensor:
#      x y z
#    x 1.656870 0.000000 0.000000 
#    y 0.000000 1.801450 0.000000 
#    z 0.000000 0.000000 1.717560 
# 
# From -- ./inp_files/13008.got.cif
#   From: 2010.05.17/outbox.cif.g08.bks.cpg/sg50_7_cif.got.tgz:13008.got - 2010.06.03 11:33:33.
