data_PCOD9397243
_publ_section_title
;
Structure prediction by ZEFSAII (Michael W. Deem and Ramdas Pophale) SiO2 
 PCOD9397243
Probable space group: P B A N
;
_chemical_formula_sum "Si O2"
_cell_formula_units_Z 48
_cell_length_a 18.869271
_cell_length_b 8.230788
_cell_length_c 15.104723
_cell_angle_alpha 90.000000
_cell_angle_beta 90.000000
_cell_angle_gamma 90.000000
_cell_volume 2345.898961
_symmetry_space_group_name_H-M "P B A N"
_symmetry_group_IT_number 50
_space_group.IT_coordinate_system_code '2'
_symmetry_cell_setting 'orthorhombic'
loop_
_space_group_symop_operation_xyz
x,y,z
1/2-x,1/2-y,z
x,1/2-y,-z
1/2-x,y,-z
-x,-y,-z
1/2+x,1/2+y,-z
-x,1/2+y,z
1/2+x,-y,z
loop_
_atom_site_type_symbol
_atom_site_label
_atom_site_fract_x
_atom_site_fract_y
_atom_site_fract_z
Si Si1 0.250000 0.250000 0.500000
Si Si2 0.455130 0.750000 0.000000
Si Si3 0.173428 0.214674 0.787471
Si Si4 0.434298 0.460701 0.285538
Si Si5 0.750000 0.250000 0.500000
Si Si6 0.960676 0.281973 0.604460
Si Si7 0.047693 0.476694 0.126147
Si Si8 0.666218 0.504779 0.382467
O O1 0.304039 0.353075 0.557418
O O2 0.501738 0.629999 0.059196
O O3 0.421043 0.867068 0.074086
O O4 0.250000 0.250000 0.828333
O O5 0.138521 0.381744 0.749497
O O6 0.111653 0.137597 0.845342
O O7 0.185260 0.074369 0.713423
O O8 0.463927 0.326976 0.354203
O O9 0.429185 0.630941 0.338877
O O10 0.493601 0.477013 0.206841
O O11 0.703143 0.353703 0.432104
O O12 0.963567 0.250000 0.500000
O O13 0.914544 0.445541 0.618464
#
# Coordination Sequence:
#
# PCOD9397243 Si02
#       8
#     2   4   8   8   2   8   8   8
#     4  10  24  42  60  88 140 188 244 288 348 418
#     4  10  22  40  81 105 128 172 226 270 350 418
#     4  12  26  43  68 103 137 187 223 290 356 423
#     4  12  24  44  65  99 139 181 237 284 350 416
#     4  10  24  42  56  92 136 188 242 290 348 406
#     4  12  24  39  64  95 136 181 246 301 340 395
#     4  11  21  45  72 105 133 176 226 280 337 437
#     4  11  23  40  62  89 131 186 235 288 344 408
#
# _framework density 20.461238999999999
#
# number of rings (size 3 to 8) (size 9 to 14) (size 15 to 20)
#    0.000    0.667    6.667    0.500    4.667    0.000 
#    1.500    0.417    0.000    1.000    0.000    0.000 
#    0.000    0.000    0.000    0.000    0.000    0.000 
#
# Total GULP energy -267673.982183 kJ/mol
# GULP energy per Si atom -5576.541295 kJ/mol
# Density = 2.041467 g / cm^3
# Si number density = 20.461239 Si / 1000 Ang^3
#
#
#
# Elastic Constant Matrix: (Units=GPa)
#
#
# Indices 1 2 3 4 5 6 
#
# 1 89.8437 20.7777 15.6179 0.0000 0.0000 0.0000
# 2 20.7777 96.0550 30.1893 0.0000 0.0000 0.0000
# 3 15.6179 30.1893 86.8132 0.0000 0.0000 0.0000
# 4 0.0000 0.0000 0.0000 52.9764 0.0000 0.0000
# 5 0.0000 0.0000 0.0000 0.0000 18.3492 0.0000
# 6 0.0000 0.0000 0.0000 0.0000 0.0000 -6.4086
#
#
#
# Elastic Compliance Matrix: (Units=1/GPa)
#
#
# Indices 1 2 3 4 5 6 
#
# 1 0.011865 -0.002128 -0.001394 0.000000 0.000000 0.000000
# 2 -0.002128 0.012070 -0.003814 0.000000 0.000000 0.000000
# 3 -0.001394 -0.003814 0.013096 0.000000 0.000000 0.000000
# 4 0.000000 0.000000 0.000000 0.018876 0.000000 0.000000
# 5 0.000000 0.000000 0.000000 0.000000 0.054498 0.000000
# 6 0.000000 0.000000 0.000000 0.000000 0.000000 -0.156039
#
#
# Mechanical properties :
#
#
# Convention : Reuss Voigt Hill
#
# Bulk Modulus (GPa) = 44.72877 45.09798 44.91337
# Shear Modulus (GPa) = -212.70470 26.72519 -92.98976
#
# Velocity S-wave (km/s) = -10.20689 3.61797 -6.74874
# Velocity P-wave (km/s) = 10.81664 6.28820 6.22327
#
# Compressibility (1/GPa) = 0.02235698
#
# Stress axis : x y z
#
# Youngs Moduli (GPa) = 84.28118 82.85057 76.35734
#
# Poissons Ratio (x) = 0.17633 0.10648
# Poissons Ratio (y) = 0.17937 0.29126
# Poissons Ratio (z) = 0.11753 0.31603
#
# Static dielectric constant tensor:
#      x y z
#    x 1.758880 0.000000 0.000000 
#    y 0.000000 1.789230 0.000000 
#    z 0.000000 0.000000 2.117420 
# 
# From -- ./inp_files/26929.got.cif
#   From: 2010.05.17/outbox.cif.g08.bks.cpg/sg50_14_cif.got.tgz:26929.got - 2010.06.03 11:33:33.
