data_PCOD9397936
_publ_section_title
;
Structure prediction by ZEFSAII (Michael W. Deem and Ramdas Pophale) SiO2 
 PCOD9397936
Probable space group: P B A N
;
_chemical_formula_sum "Si O2"
_cell_formula_units_Z 44
_cell_length_a 8.559752
_cell_length_b 20.174878
_cell_length_c 13.466875
_cell_angle_alpha 90.000000
_cell_angle_beta 90.000000
_cell_angle_gamma 90.000000
_cell_volume 2325.620935
_symmetry_space_group_name_H-M "P B A N"
_symmetry_group_IT_number 50
_space_group.IT_coordinate_system_code '2'
_symmetry_cell_setting 'orthorhombic'
loop_
_space_group_symop_operation_xyz
x,y,z
1/2-x,1/2-y,z
x,1/2-y,-z
1/2-x,y,-z
-x,-y,-z
1/2+x,1/2+y,-z
-x,1/2+y,z
1/2+x,-y,z
loop_
_atom_site_type_symbol
_atom_site_label
_atom_site_fract_x
_atom_site_fract_y
_atom_site_fract_z
Si Si1 0.171906 0.685560 0.177661
Si Si2 0.750000 0.750000 0.000000
Si Si3 0.750000 0.750000 0.500000
Si Si4 0.226800 0.430078 0.798839
Si Si5 0.582541 0.073166 0.181239
Si Si6 0.056366 0.373045 0.986755
Si Si7 0.116696 0.198735 0.307390
O O1 0.250000 0.750000 0.133038
O O2 0.303358 0.633080 0.210062
O O3 0.068820 0.651393 0.093704
O O4 0.054736 0.711227 0.263883
O O5 0.873305 0.805920 0.039074
O O6 0.857340 0.791761 0.575535
O O7 0.409401 0.426061 0.774298
O O8 0.164427 0.504323 0.792893
O O9 0.181548 0.407927 0.911781
O O10 0.150068 0.375586 0.728124
O O11 0.536003 0.081862 0.064743
O O12 0.250000 0.250000 0.263731
#
# Coordination Sequence:
#
# PCOD9397936 Si02
#       7
#     8   2   2   8   8   8   8
#     4  11  23  36  59  88 129 166 215 267 310 377
#     4  12  20  34  54  76 112 166 232 280 306 340
#     4   8  20  42  78  96 126 140 212 268 342 412
#     4  11  22  37  61  83 127 169 224 261 323 375
#     4  12  23  39  54  90 128 180 215 268 307 378
#     4  11  23  35  54  82 123 178 231 262 310 346
#     4   9  20  40  67  97 117 160 201 262 334 394
#
# _framework density 18.919677
#
# number of rings (size 3 to 8) (size 9 to 14) (size 15 to 20)
#    0.545    0.727    1.818    5.455    5.091    2.182 
#    0.000    0.455    0.000    4.364    0.000    0.000 
#    0.000    0.000    0.000    0.000    0.000    0.000 
#
# Total GULP energy -244969.160146 kJ/mol
# GULP energy per Si atom -5567.480912 kJ/mol
# Density = 1.887661 g / cm^3
# Si number density = 18.919677 Si / 1000 Ang^3
#
#
#
# Elastic Constant Matrix: (Units=GPa)
#
#
# Indices 1 2 3 4 5 6 
#
# 1 107.1296 28.8071 6.5616 0.0000 0.0000 0.0000
# 2 28.8071 111.5092 3.6881 0.0000 0.0000 0.0000
# 3 6.5616 3.6881 70.6507 0.0000 0.0000 0.0000
# 4 0.0000 0.0000 0.0000 17.0851 0.0000 0.0000
# 5 0.0000 0.0000 0.0000 0.0000 9.0435 0.0000
# 6 0.0000 0.0000 0.0000 0.0000 0.0000 34.8398
#
#
#
# Elastic Compliance Matrix: (Units=1/GPa)
#
#
# Indices 1 2 3 4 5 6 
#
# 1 0.010076 -0.002577 -0.000801 0.000000 0.000000 0.000000
# 2 -0.002577 0.009642 -0.000264 0.000000 0.000000 0.000000
# 3 -0.000801 -0.000264 0.014242 0.000000 0.000000 0.000000
# 4 0.000000 0.000000 0.000000 0.058531 0.000000 0.000000
# 5 0.000000 0.000000 0.000000 0.000000 0.110576 0.000000
# 6 0.000000 0.000000 0.000000 0.000000 0.000000 0.028703
#
#
# Mechanical properties :
#
#
# Convention : Reuss Voigt Hill
#
# Bulk Modulus (GPa) = 37.48544 40.82257 39.15401
# Shear Modulus (GPa) = 20.16560 28.87588 24.52074
#
# Velocity S-wave (km/s) = 3.26828 3.91094 3.60397
# Velocity P-wave (km/s) = 5.83937 6.48210 6.16911
#
# Compressibility (1/GPa) = 0.02667702
#
# Stress axis : x y z
#
# Youngs Moduli (GPa) = 99.24163 103.71035 70.21317
#
# Poissons Ratio (x) = 0.26722 0.05626
# Poissons Ratio (y) = 0.25571 0.01854
# Poissons Ratio (z) = 0.07953 0.02738
#
# Static dielectric constant tensor:
#      x y z
#    x 1.757390 0.000000 0.000000 
#    y 0.000000 1.691080 0.000000 
#    z 0.000000 0.000000 1.654300 
# 
# From -- ./inp_files/24932.got.cif
#   From: 2010.05.17/outbox.cif.g08.bks.cpg/sg50_13_cif.got.tgz:24932.got - 2010.06.03 11:33:33.
