data_PCOD9397376
_publ_section_title
;
Structure prediction by ZEFSAII (Michael W. Deem and Ramdas Pophale) SiO2 
 PCOD9397376
Probable space group: P B A N
;
_chemical_formula_sum "Si O2"
_cell_formula_units_Z 58
_cell_length_a 30.954475
_cell_length_b 11.067322
_cell_length_c 8.617692
_cell_angle_alpha 90.000000
_cell_angle_beta 90.000000
_cell_angle_gamma 90.000000
_cell_volume 2952.276004
_symmetry_space_group_name_H-M "P B A N"
_symmetry_group_IT_number 50
_space_group.IT_coordinate_system_code '2'
_symmetry_cell_setting 'orthorhombic'
loop_
_space_group_symop_operation_xyz
x,y,z
1/2-x,1/2-y,z
x,1/2-y,-z
1/2-x,y,-z
-x,-y,-z
1/2+x,1/2+y,-z
-x,1/2+y,z
1/2+x,-y,z
loop_
_atom_site_type_symbol
_atom_site_label
_atom_site_fract_x
_atom_site_fract_y
_atom_site_fract_z
Si Si1 0.325344 0.906112 0.645626
Si Si2 0.985197 0.273447 0.822011
Si Si3 0.979077 0.530041 0.663914
Si Si4 0.804732 0.691299 0.671147
Si Si5 0.250000 0.750000 0.500000
Si Si6 0.270120 0.082529 0.830730
Si Si7 0.375921 0.018294 0.352958
Si Si8 0.881762 0.280349 0.825489
O O1 0.282863 0.835600 0.591027
O O2 0.350223 0.977914 0.509051
O O3 0.358938 0.809628 0.708482
O O4 0.307015 0.989896 0.781738
O O5 0.992796 0.413498 0.770443
O O6 0.933200 0.263096 0.811425
O O7 0.005703 0.161973 0.724922
O O8 0.998263 0.250000 0.000000
O O9 0.927349 0.530829 0.637508
O O10 0.000000 0.500000 0.500000
O O11 0.799726 0.750000 0.500000
O O12 0.769481 0.586451 0.705340
O O13 0.792990 0.789020 0.801014
O O14 0.852395 0.641448 0.691519
O O15 0.250000 0.065375 0.000000
O O16 0.368927 0.914629 0.225227
O O17 0.868738 0.250000 0.000000
#
# Coordination Sequence:
#
# PCOD9397376 Si02
#       8
#     8   8   8   8   2   8   8   8
#     4  12  23  39  62  92 122 166 215 266 320 385
#     4  10  22  44  68  98 138 180 216 268 344 405
#     4  11  23  41  70 102 135 176 225 282 327 403
#     4  11  22  41  63  85 121 168 214 254 327 381
#     4  12  24  36  66  90 120 164 222 256 310 388
#     4  11  25  41  61  87 125 167 209 271 329 383
#     4  11  23  42  65  94 131 166 217 270 326 386
#     4  10  23  42  65  92 130 169 208 267 327 385
#
# _framework density 19.645859000000002
#
# number of rings (size 3 to 8) (size 9 to 14) (size 15 to 20)
#    0.000    1.103    2.759    4.138    1.931    3.310 
#    2.483    1.379    0.000    0.000    0.000    0.000 
#    0.000    0.000    0.000    0.000    0.000    0.000 
#
# Total GULP energy -323637.594080 kJ/mol
# GULP energy per Si atom -5579.958519 kJ/mol
# Density = 1.960114 g / cm^3
# Si number density = 19.645859 Si / 1000 Ang^3
#
#
#
# Elastic Constant Matrix: (Units=GPa)
#
#
# Indices 1 2 3 4 5 6 
#
# 1 63.0881 36.9306 37.5007 0.0000 0.0000 0.0000
# 2 36.9306 77.8038 27.3732 0.0000 0.0000 0.0000
# 3 37.5007 27.3732 96.9836 0.0000 0.0000 0.0000
# 4 0.0000 0.0000 0.0000 24.1580 0.0000 0.0000
# 5 0.0000 0.0000 0.0000 0.0000 27.9150 0.0000
# 6 0.0000 0.0000 0.0000 0.0000 0.0000 34.5100
#
#
#
# Elastic Compliance Matrix: (Units=1/GPa)
#
#
# Indices 1 2 3 4 5 6 
#
# 1 0.025851 -0.009719 -0.007253 0.000000 0.000000 0.000000
# 2 -0.009719 0.017924 -0.001301 0.000000 0.000000 0.000000
# 3 -0.007253 -0.001301 0.013483 0.000000 0.000000 0.000000
# 4 0.000000 0.000000 0.000000 0.041394 0.000000 0.000000
# 5 0.000000 0.000000 0.000000 0.000000 0.035823 0.000000
# 6 0.000000 0.000000 0.000000 0.000000 0.000000 0.028977
#
#
# Mechanical properties :
#
#
# Convention : Reuss Voigt Hill
#
# Bulk Modulus (GPa) = 48.28017 49.05384 48.66700
# Shear Modulus (GPa) = 24.16608 26.38800 25.27704
#
# Velocity S-wave (km/s) = 3.51106 3.66892 3.59086
# Velocity P-wave (km/s) = 6.40822 6.55525 6.48215
#
# Compressibility (1/GPa) = 0.02071244
#
# Stress axis : x y z
#
# Youngs Moduli (GPa) = 38.68266 55.79184 74.16948
#
# Poissons Ratio (x) = 0.54224 0.53794
# Poissons Ratio (y) = 0.37596 0.09648
# Poissons Ratio (z) = 0.28056 0.07258
#
# Static dielectric constant tensor:
#      x y z
#    x 1.731450 0.000000 0.000000 
#    y 0.000000 1.792040 0.000000 
#    z 0.000000 0.000000 1.706190 
# 
# From -- ./inp_files/16562.got.cif
#   From: 2010.05.17/outbox.cif.g08.bks.cpg/sg50_9_cif.got.tgz:16562.got - 2010.06.03 11:33:33.
