data_PCOD9397851
_publ_section_title
;
Structure prediction by ZEFSAII (Michael W. Deem and Ramdas Pophale) SiO2 
 PCOD9397851
Probable space group: P B A N
;
_chemical_formula_sum "Si O2"
_cell_formula_units_Z 34
_cell_length_a 17.032542
_cell_length_b 10.872111
_cell_length_c 7.925900
_cell_angle_alpha 90.000000
_cell_angle_beta 90.000000
_cell_angle_gamma 90.000000
_cell_volume 1467.715683
_symmetry_space_group_name_H-M "P B A N"
_symmetry_group_IT_number 50
_space_group.IT_coordinate_system_code '2'
_symmetry_cell_setting 'orthorhombic'
loop_
_space_group_symop_operation_xyz
x,y,z
1/2-x,1/2-y,z
x,1/2-y,-z
1/2-x,y,-z
-x,-y,-z
1/2+x,1/2+y,-z
-x,1/2+y,z
1/2+x,-y,z
loop_
_atom_site_type_symbol
_atom_site_label
_atom_site_fract_x
_atom_site_fract_y
_atom_site_fract_z
Si Si1 0.703498 0.638547 0.675282
Si Si2 0.048451 0.031381 0.834224
Si Si3 0.750000 0.250000 0.500000
Si Si4 0.280300 0.920008 0.181946
Si Si5 0.523466 0.794995 0.328273
O O1 0.750000 0.750000 0.764273
O O2 0.750000 0.622109 0.500000
O O3 0.710478 0.512150 0.770722
O O4 0.614423 0.671631 0.645918
O O5 0.141256 0.002002 0.844630
O O6 0.017752 0.922321 0.715127
O O7 0.027740 0.172534 0.788116
O O8 0.000000 0.000000 0.000000
O O9 0.708203 0.163567 0.646556
O O10 0.250000 0.869961 0.000000
O O11 0.485533 0.750000 0.500000
#
# Coordination Sequence:
#
# PCOD9397851 Si02
#       5
#     8   8   2   8   8
#     4  11  20  44  79 110 143 183 259 315 371 445
#     4  12  28  48  71 111 157 198 252 316 388 462
#     4  12  30  48  74 110 152 200 260 310 392 454
#     4  12  27  49  79 109 150 205 256 320 380 457
#     4  12  25  45  77 112 149 199 248 315 385 455
#
# _framework density 23.165251000000001
#
# number of rings (size 3 to 8) (size 9 to 14) (size 15 to 20)
#    0.000    0.235    5.882    3.176    1.647    6.118 
#    0.000    0.000    0.000    0.000    0.000    0.000 
#    0.000    0.000    0.000    0.000    0.000    0.000 
#
# Total GULP energy -189475.674177 kJ/mol
# GULP energy per Si atom -5572.813946 kJ/mol
# Density = 2.311253 g / cm^3
# Si number density = 23.165251 Si / 1000 Ang^3
#
#
#
# Elastic Constant Matrix: (Units=GPa)
#
#
# Indices 1 2 3 4 5 6 
#
# 1 54.7966 9.8505 4.7488 0.0000 0.0000 0.0000
# 2 9.8505 97.7354 22.5692 0.0000 0.0000 0.0000
# 3 4.7488 22.5692 110.4139 0.0000 0.0000 0.0000
# 4 0.0000 0.0000 0.0000 4.0360 0.0000 0.0000
# 5 0.0000 0.0000 0.0000 0.0000 28.2415 0.0000
# 6 0.0000 0.0000 0.0000 0.0000 0.0000 24.2232
#
#
#
# Elastic Compliance Matrix: (Units=1/GPa)
#
#
# Indices 1 2 3 4 5 6 
#
# 1 0.018606 -0.001774 -0.000438 0.000000 0.000000 0.000000
# 2 -0.001774 0.010908 -0.002153 0.000000 0.000000 0.000000
# 3 -0.000438 -0.002153 0.009516 0.000000 0.000000 0.000000
# 4 0.000000 0.000000 0.000000 0.247772 0.000000 0.000000
# 5 0.000000 0.000000 0.000000 0.000000 0.035409 0.000000
# 6 0.000000 0.000000 0.000000 0.000000 0.000000 0.041283
#
#
# Mechanical properties :
#
#
# Convention : Reuss Voigt Hill
#
# Bulk Modulus (GPa) = 33.00378 37.47586 35.23982
# Shear Modulus (GPa) = 13.07794 26.35196 19.71495
#
# Velocity S-wave (km/s) = 2.37860 3.37644 2.92045
# Velocity P-wave (km/s) = 4.67137 5.60475 5.15921
#
# Compressibility (1/GPa) = 0.03029956
#
# Stress axis : x y z
#
# Youngs Moduli (GPa) = 53.74562 91.67781 105.08840
#
# Poissons Ratio (x) = 0.16266 0.04598
# Poissons Ratio (y) = 0.09536 0.22629
# Poissons Ratio (z) = 0.02352 0.19741
#
# Static dielectric constant tensor:
#      x y z
#    x 1.920920 0.000000 0.000000 
#    y 0.000000 4.407670 0.000000 
#    z 0.000000 0.000000 1.980900 
# 
# From -- ./inp_files/12221.got.cif
#   From: 2010.05.17/outbox.cif.g08.bks.cpg/sg50_7_cif.got.tgz:12221.got - 2010.06.03 11:33:33.
