data_PCOD9397151
_publ_section_title
;
Structure prediction by ZEFSAII (Michael W. Deem and Ramdas Pophale) SiO2 
 PCOD9397151
Probable space group: P B A N
;
_chemical_formula_sum "Si O2"
_cell_formula_units_Z 32
_cell_length_a 33.615005
_cell_length_b 4.859962
_cell_length_c 8.847464
_cell_angle_alpha 90.000000
_cell_angle_beta 90.000000
_cell_angle_gamma 90.000000
_cell_volume 1445.389375
_symmetry_space_group_name_H-M "P B A N"
_symmetry_group_IT_number 50
_space_group.IT_coordinate_system_code '2'
_symmetry_cell_setting 'orthorhombic'
loop_
_space_group_symop_operation_xyz
x,y,z
1/2-x,1/2-y,z
x,1/2-y,-z
1/2-x,y,-z
-x,-y,-z
1/2+x,1/2+y,-z
-x,1/2+y,z
1/2+x,-y,z
loop_
_atom_site_type_symbol
_atom_site_label
_atom_site_fract_x
_atom_site_fract_y
_atom_site_fract_z
Si Si1 0.796446 0.809663 0.327358
Si Si2 0.088404 0.523156 0.105190
Si Si3 0.674051 0.197945 0.164403
Si Si4 0.975960 0.298467 0.680754
O O1 0.750000 0.750000 0.303884
O O2 0.807153 0.750000 0.500000
O O3 0.822507 0.616748 0.215789
O O4 0.803528 0.125548 0.289166
O O5 0.130467 0.665210 0.149338
O O6 0.062175 0.540298 0.255965
O O7 0.067208 0.750000 0.000000
O O8 0.092811 0.250000 0.000000
O O9 0.692914 0.250000 0.000000
O O10 0.972892 0.250000 0.500000
O O11 0.012835 0.491696 0.730887
#
# Coordination Sequence:
#
# PCOD9397151 Si02
#       4
#     8   8   8   8
#     4  11  24  41  62  90 122 157 201 250 301 363
#     4  11  23  40  61  88 121 157 202 252 303 365
#     4  11  23  41  62  89 123 158 201 250 302 363
#     4  10  22  39  59  87 121 157 202 253 304 364
#
# _framework density 22.139362999999999
#
# number of rings (size 3 to 8) (size 9 to 14) (size 15 to 20)
#    0.000    1.250    0.000    6.750    0.000   10.000 
#    0.000    2.500    0.000    0.000    0.000    0.000 
#    0.000    0.000    0.000    0.000    0.000    0.000 
#
# Total GULP energy -178383.046960 kJ/mol
# GULP energy per Si atom -5574.470218 kJ/mol
# Density = 2.208897 g / cm^3
# Si number density = 22.139363 Si / 1000 Ang^3
#
#
#
# Elastic Constant Matrix: (Units=GPa)
#
#
# Indices 1 2 3 4 5 6 
#
# 1 56.6137 10.7791 24.8943 0.0000 0.0000 0.0000
# 2 10.7791 109.2852 16.0577 0.0000 0.0000 0.0000
# 3 24.8943 16.0577 71.5087 0.0000 0.0000 0.0000
# 4 0.0000 0.0000 0.0000 39.1680 0.0000 0.0000
# 5 0.0000 0.0000 0.0000 0.0000 25.1239 0.0000
# 6 0.0000 0.0000 0.0000 0.0000 0.0000 10.4695
#
#
#
# Elastic Compliance Matrix: (Units=1/GPa)
#
#
# Indices 1 2 3 4 5 6 
#
# 1 0.020968 -0.001030 -0.007068 0.000000 0.000000 0.000000
# 2 -0.001030 0.009513 -0.001778 0.000000 0.000000 0.000000
# 3 -0.007068 -0.001778 0.016844 0.000000 0.000000 0.000000
# 4 0.000000 0.000000 0.000000 0.025531 0.000000 0.000000
# 5 0.000000 0.000000 0.000000 0.000000 0.039803 0.000000
# 6 0.000000 0.000000 0.000000 0.000000 0.000000 0.095515
#
#
# Mechanical properties :
#
#
# Convention : Reuss Voigt Hill
#
# Bulk Modulus (GPa) = 36.26637 37.87442 37.07040
# Shear Modulus (GPa) = 21.08667 27.33072 24.20869
#
# Velocity S-wave (km/s) = 3.08953 3.51734 3.31035
# Velocity P-wave (km/s) = 5.39847 5.80000 5.60283
#
# Compressibility (1/GPa) = 0.02757375
#
# Stress axis : x y z
#
# Youngs Moduli (GPa) = 47.69245 105.11780 59.36760
#
# Poissons Ratio (x) = 0.10822 0.41963
# Poissons Ratio (y) = 0.04910 0.10554
# Poissons Ratio (z) = 0.33710 0.18688
#
# Static dielectric constant tensor:
#      x y z
#    x 1.831970 0.000000 0.000000 
#    y 0.000000 1.752330 0.000000 
#    z 0.000000 0.000000 1.868150 
# 
# From -- ./inp_files/8004.got.cif
#   From: 2010.05.17/outbox.cif.g08.bks.cpg/sg50_5_cif.got.tgz:8004.got - 2010.06.03 11:33:33.
