data_PCOD9397782
_publ_section_title
;
Structure prediction by ZEFSAII (Michael W. Deem and Ramdas Pophale) SiO2 
 PCOD9397782
Probable space group: P B A N
;
_chemical_formula_sum "Si O2"
_cell_formula_units_Z 30
_cell_length_a 17.680078
_cell_length_b 5.556343
_cell_length_c 14.801779
_cell_angle_alpha 90.000000
_cell_angle_beta 90.000000
_cell_angle_gamma 90.000000
_cell_volume 1454.076112
_symmetry_space_group_name_H-M "P B A N"
_symmetry_group_IT_number 50
_space_group.IT_coordinate_system_code '2'
_symmetry_cell_setting 'orthorhombic'
loop_
_space_group_symop_operation_xyz
x,y,z
1/2-x,1/2-y,z
x,1/2-y,-z
1/2-x,y,-z
-x,-y,-z
1/2+x,1/2+y,-z
-x,1/2+y,z
1/2+x,-y,z
loop_
_atom_site_type_symbol
_atom_site_label
_atom_site_fract_x
_atom_site_fract_y
_atom_site_fract_z
Si Si1 0.250000 0.750000 0.314673
Si Si2 0.750000 0.250000 0.000000
Si Si3 0.333025 0.152078 0.600326
Si Si4 0.816964 0.560367 0.846058
Si Si5 0.546383 0.752530 0.752634
O O1 0.312715 0.625887 0.379684
O O2 0.198737 0.602272 0.242544
O O3 0.695744 0.403587 0.065136
O O4 0.250000 0.250000 0.627637
O O5 0.345965 0.250000 0.500000
O O6 0.400481 0.236286 0.663853
O O7 0.750000 0.750000 0.846955
O O8 0.894621 0.703625 0.834163
O O9 0.504288 0.494804 0.754339
#
# Coordination Sequence:
#
# PCOD9397782 Si02
#       5
#     4   2   8   8   8
#     4  11  18  42  73  96 138 178 247 305 349 397
#     4  10  26  40  82 106 134 168 246 308 350 422
#     4  11  24  42  67 104 133 189 250 306 340 404
#     4  11  22  45  74 104 132 183 241 294 353 433
#     4  12  26  45  71 103 150 196 231 285 368 439
#
# _framework density 20.631654999999999
#
# number of rings (size 3 to 8) (size 9 to 14) (size 15 to 20)
#    0.000    0.800    5.333    2.000    3.733    3.200 
#    0.000    1.333    0.000    0.000    0.000    0.000 
#    0.000    0.000    0.000    0.000    0.000    0.000 
#
# Total GULP energy -167222.689123 kJ/mol
# GULP energy per Si atom -5574.089637 kJ/mol
# Density = 2.058470 g / cm^3
# Si number density = 20.631655 Si / 1000 Ang^3
#
#
#
# Elastic Constant Matrix: (Units=GPa)
#
#
# Indices 1 2 3 4 5 6 
#
# 1 125.9119 62.8302 40.3488 0.0000 0.0000 0.0000
# 2 62.8302 121.8506 59.7825 0.0000 0.0000 0.0000
# 3 40.3488 59.7825 136.3027 0.0000 0.0000 0.0000
# 4 0.0000 0.0000 0.0000 12.1460 0.0000 0.0000
# 5 0.0000 0.0000 0.0000 0.0000-2885.2257 0.0000
# 6 0.0000 0.0000 0.0000 0.0000 0.0000 49.8239
#
#
#
# Elastic Compliance Matrix: (Units=1/GPa)
#
#
# Indices 1 2 3 4 5 6 
#
# 1 0.010791 -0.005093 -0.000961 0.000000 0.000000 0.000000
# 2 -0.005093 0.012861 -0.004133 0.000000 0.000000 0.000000
# 3 -0.000961 -0.004133 0.009434 0.000000 0.000000 0.000000
# 4 0.000000 0.000000 0.000000 0.082332 0.000000 0.000000
# 5 0.000000 0.000000 0.000000 0.000000 -0.000347 0.000000
# 6 0.000000 0.000000 0.000000 0.000000 0.000000 0.020071
#
#
# Mechanical properties :
#
#
# Convention : Reuss Voigt Hill
#
# Bulk Modulus (GPa) = 78.66433 78.88756 78.77595
# Shear Modulus (GPa) = 31.29843 -549.91091 -259.30624
#
# Velocity S-wave (km/s) = 3.89911 -16.34369 -11.22304
# Velocity P-wave (km/s) = 7.64732 17.82794 11.38758
#
# Compressibility (1/GPa) = 0.01271224
#
# Stress axis : x y z
#
# Youngs Moduli (GPa) = 92.66689 77.75642 106.00232
#
# Poissons Ratio (x) = 0.39602 0.10183
# Poissons Ratio (y) = 0.47196 0.43811
# Poissons Ratio (z) = 0.08902 0.32137
#
# Static dielectric constant tensor:
#      x y z
#    x 1.728500 0.000000 0.000000 
#    y 0.000000 2.164990 0.000000 
#    z 0.000000 0.000000 1.740320 
# 
# From -- ./inp_files/23670.got.cif
#   From: 2010.05.17/outbox.cif.g08.bks.cpg/sg50_12_cif.got.tgz:23670.got - 2010.06.03 11:33:33.
