data_PCOD9397627
_publ_section_title
;
Structure prediction by ZEFSAII (Michael W. Deem and Ramdas Pophale) SiO2 
 PCOD9397627
Probable space group: P B A N
;
_chemical_formula_sum "Si O2"
_cell_formula_units_Z 54
_cell_length_a 14.732825
_cell_length_b 31.580122
_cell_length_c 4.995068
_cell_angle_alpha 90.000000
_cell_angle_beta 90.000000
_cell_angle_gamma 90.000000
_cell_volume 2324.027370
_symmetry_space_group_name_H-M "P B A N"
_symmetry_group_IT_number 50
_space_group.IT_coordinate_system_code '2'
_symmetry_cell_setting 'orthorhombic'
loop_
_space_group_symop_operation_xyz
x,y,z
1/2-x,1/2-y,z
x,1/2-y,-z
1/2-x,y,-z
-x,-y,-z
1/2+x,1/2+y,-z
-x,1/2+y,z
1/2+x,-y,z
loop_
_atom_site_type_symbol
_atom_site_label
_atom_site_fract_x
_atom_site_fract_y
_atom_site_fract_z
Si Si1 0.343588 0.037261 0.664223
Si Si2 0.475439 0.297487 0.938120
Si Si3 0.144762 0.375914 0.994107
Si Si4 0.686402 0.056482 0.234998
Si Si5 0.250000 0.812744 0.500000
Si Si6 0.989618 0.916877 0.414960
Si Si7 0.750000 0.250000 0.000000
Si Si8 0.558129 0.335462 0.398332
O O1 0.250000 0.040066 0.500000
O O2 0.437590 0.040509 0.498287
O O3 0.336053 0.993404 0.821203
O O4 0.351301 0.080873 0.824279
O O5 0.558772 0.305975 0.138176
O O6 0.445598 0.250000 0.000000
O O7 0.403732 0.331020 0.056678
O O8 0.505684 0.310428 0.638651
O O9 0.087920 0.392299 0.249283
O O10 0.250000 0.364298 0.000000
O O11 0.750000 0.057368 0.500000
O O12 0.585759 0.075914 0.269192
O O13 0.750000 0.073859 0.000000
O O14 0.274165 0.784637 0.762417
O O15 0.162185 0.841299 0.533633
O O16 0.016354 0.882213 0.640755
#
# Coordination Sequence:
#
# PCOD9397627 Si02
#       8
#     8   8   8   8   4   8   2   8
#     4  11  22  44  73 103 137 184 238 292 351 416
#     4  11  25  43  66  99 135 176 226 287 349 415
#     4  11  23  43  72  99 141 178 238 291 352 422
#     4  11  28  46  70 106 147 187 234 290 350 422
#     4  11  24  40  62  94 132 178 226 284 338 408
#     4  11  25  45  70 104 137 191 229 292 351 419
#     4  10  24  38  64  94 120 174 230 282 332 406
#     4  11  25  42  66  95 134 180 228 282 343 409
#
# _framework density 23.235527999999999
#
# number of rings (size 3 to 8) (size 9 to 14) (size 15 to 20)
#    0.000    1.037    2.963    2.222   11.407    0.889 
#    1.333    0.000    0.000    1.778    0.000    0.000 
#    0.000    0.000    0.000    0.000    0.000    0.000 
#
# Total GULP energy -300756.738433 kJ/mol
# GULP energy per Si atom -5569.569230 kJ/mol
# Density = 2.318264 g / cm^3
# Si number density = 23.235528 Si / 1000 Ang^3
#
#
#
# Elastic Constant Matrix: (Units=GPa)
#
#
# Indices 1 2 3 4 5 6 
#
# 1 136.9068 24.7218 9.2137 0.0000 0.0000 0.0000
# 2 24.7218 90.0909 2.3811 0.0000 0.0000 0.0000
# 3 9.2137 2.3811 82.4057 0.0000 0.0000 0.0000
# 4 0.0000 0.0000 0.0000 21.9752 0.0000 0.0000
# 5 0.0000 0.0000 0.0000 0.0000 23.2988 0.0000
# 6 0.0000 0.0000 0.0000 0.0000 0.0000 107.3035
#
#
#
# Elastic Compliance Matrix: (Units=1/GPa)
#
#
# Indices 1 2 3 4 5 6 
#
# 1 0.007738 -0.002102 -0.000804 0.000000 0.000000 0.000000
# 2 -0.002102 0.011679 -0.000102 0.000000 0.000000 0.000000
# 3 -0.000804 -0.000102 0.012228 0.000000 0.000000 0.000000
# 4 0.000000 0.000000 0.000000 0.045506 0.000000 0.000000
# 5 0.000000 0.000000 0.000000 0.000000 0.042921 0.000000
# 6 0.000000 0.000000 0.000000 0.000000 0.000000 0.009319
#
#
# Mechanical properties :
#
#
# Convention : Reuss Voigt Hill
#
# Bulk Modulus (GPa) = 39.02071 42.44852 40.73461
# Shear Modulus (GPa) = 34.73389 48.72131 41.72760
#
# Velocity S-wave (km/s) = 3.87054 4.58410 4.24235
# Velocity P-wave (km/s) = 6.06669 6.80640 6.44716
#
# Compressibility (1/GPa) = 0.02562742
#
# Stress axis : x y z
#
# Youngs Moduli (GPa) = 129.23302 85.62049 81.77964
#
# Poissons Ratio (x) = 0.17998 0.06579
# Poissons Ratio (y) = 0.27166 0.00838
# Poissons Ratio (z) = 0.10396 0.00877
#
# Static dielectric constant tensor:
#      x y z
#    x 1.285940 0.000000 0.000000 
#    y 0.000000 1.893060 0.000000 
#    z 0.000000 0.000000 2.024490 
# 
# From -- ./inp_files/3782.got.cif
#   From: 2010.05.17/outbox.cif.g08.bks.cpg/sg50_2_cif.got.tgz:3782.got - 2010.06.03 11:33:33.
