data_PCOD9397342
_publ_section_title
;
Structure prediction by ZEFSAII (Michael W. Deem and Ramdas Pophale) SiO2 
 PCOD9397342
Probable space group: P B A N
;
_chemical_formula_sum "Si O2"
_cell_formula_units_Z 40
_cell_length_a 14.365264
_cell_length_b 16.190031
_cell_length_c 7.378632
_cell_angle_alpha 90.000000
_cell_angle_beta 90.000000
_cell_angle_gamma 90.000000
_cell_volume 1716.078471
_symmetry_space_group_name_H-M "P B A N"
_symmetry_group_IT_number 50
_space_group.IT_coordinate_system_code '2'
_symmetry_cell_setting 'orthorhombic'
loop_
_space_group_symop_operation_xyz
x,y,z
1/2-x,1/2-y,z
x,1/2-y,-z
1/2-x,y,-z
-x,-y,-z
1/2+x,1/2+y,-z
-x,1/2+y,z
1/2+x,-y,z
loop_
_atom_site_type_symbol
_atom_site_label
_atom_site_fract_x
_atom_site_fract_y
_atom_site_fract_z
Si Si1 0.578467 0.931904 0.713219
Si Si2 0.341687 0.393015 0.097049
Si Si3 0.949292 0.750004 0.211146
Si Si4 0.158033 0.714008 0.700600
Si Si5 0.135984 0.525425 0.633902
O O1 0.583259 0.831455 0.680749
O O2 0.473294 0.964546 0.688341
O O3 0.635562 0.985732 0.567098
O O4 0.601509 0.931498 0.927585
O O5 0.401087 0.337931 0.242626
O O6 0.311814 0.467874 0.223948
O O7 0.250000 0.355169 0.000000
O O8 0.060490 0.758122 0.213399
O O9 0.920240 0.750000 0.000000
O O10 0.250000 0.750000 0.791011
O O11 0.150522 0.750000 0.500000
O O12 0.170946 0.617504 0.665820
#
# Coordination Sequence:
#
# PCOD9397342 Si02
#       5
#     8   8   8   8   8
#     4   9  21  41  68  96 128 171 224 272 330 403
#     4  11  24  40  65 100 136 175 222 275 332 406
#     4   9  21  41  64  96 131 175 216 269 336 394
#     4  10  23  42  65  95 131 172 220 282 336 398
#     4  10  22  43  66  97 128 176 224 274 339 398
#
# _framework density 23.308958000000001
#
# number of rings (size 3 to 8) (size 9 to 14) (size 15 to 20)
#    0.000    2.200    0.000    0.600    8.400    8.000 
#   10.800    0.000    0.000    7.200    0.000    0.000 
#    0.000    0.000    0.000    0.000    0.000    0.000 
#
# Total GULP energy -222838.551932 kJ/mol
# GULP energy per Si atom -5570.963798 kJ/mol
# Density = 2.325591 g / cm^3
# Si number density = 23.308958 Si / 1000 Ang^3
#
#
#
# Elastic Constant Matrix: (Units=GPa)
#
#
# Indices 1 2 3 4 5 6 
#
# 1 95.0153 79.9470 43.4826 0.0000 0.0000 0.0000
# 2 79.9470 146.7993 46.7606 0.0000 0.0000 0.0000
# 3 43.4826 46.7606 111.6283 0.0000 0.0000 0.0000
# 4 0.0000 0.0000 0.0000 -10.8385 0.0000 0.0000
# 5 0.0000 0.0000 0.0000 0.0000 50.4826 0.0000
# 6 0.0000 0.0000 0.0000 0.0000 0.0000 55.6090
#
#
#
# Elastic Compliance Matrix: (Units=1/GPa)
#
#
# Indices 1 2 3 4 5 6 
#
# 1 0.020781 -0.010085 -0.003871 0.000000 0.000000 0.000000
# 2 -0.010085 0.012755 -0.001415 0.000000 0.000000 0.000000
# 3 -0.003871 -0.001415 0.011059 0.000000 0.000000 0.000000
# 4 0.000000 0.000000 0.000000 -0.092264 0.000000 0.000000
# 5 0.000000 0.000000 0.000000 0.000000 0.019809 0.000000
# 6 0.000000 0.000000 0.000000 0.000000 0.000000 0.017983
#
#
# Mechanical properties :
#
#
# Convention : Reuss Voigt Hill
#
# Bulk Modulus (GPa) = 72.17611 77.09150 74.63380
# Shear Modulus (GPa) = 196.23220 31.26746 113.74983
#
# Velocity S-wave (km/s) = 9.18533 3.66653 6.99334
# Velocity P-wave (km/s) = 11.98023 7.14634 9.86398
#
# Compressibility (1/GPa) = 0.01385500
#
# Stress axis : x y z
#
# Youngs Moduli (GPa) = 48.12043 78.40254 90.42753
#
# Poissons Ratio (x) = 0.79065 0.35000
# Poissons Ratio (y) = 0.48527 0.12792
# Poissons Ratio (z) = 0.18625 0.11091
#
# Static dielectric constant tensor:
#      x y z
#    x 2.227500 0.000000 0.000000 
#    y 0.000000 2.143620 0.000000 
#    z 0.000000 0.000000 1.865380 
# 
# From -- ./inp_files/12567.got.cif
#   From: 2010.05.17/outbox.cif.g08.bks.cpg/sg50_7_cif.got.tgz:12567.got - 2010.06.03 11:33:33.
