data_PCOD9397939
_publ_section_title
;
Structure prediction by ZEFSAII (Michael W. Deem and Ramdas Pophale) SiO2 
 PCOD9397939
Probable space group: P B A N
;
_chemical_formula_sum "Si O2"
_cell_formula_units_Z 60
_cell_length_a 10.596202
_cell_length_b 22.356353
_cell_length_c 11.070758
_cell_angle_alpha 90.000000
_cell_angle_beta 90.000000
_cell_angle_gamma 90.000000
_cell_volume 2622.578791
_symmetry_space_group_name_H-M "P B A N"
_symmetry_group_IT_number 50
_space_group.IT_coordinate_system_code '2'
_symmetry_cell_setting 'orthorhombic'
loop_
_space_group_symop_operation_xyz
x,y,z
1/2-x,1/2-y,z
x,1/2-y,-z
1/2-x,y,-z
-x,-y,-z
1/2+x,1/2+y,-z
-x,1/2+y,z
1/2+x,-y,z
loop_
_atom_site_type_symbol
_atom_site_label
_atom_site_fract_x
_atom_site_fract_y
_atom_site_fract_z
Si Si1 0.220467 0.410934 0.639772
Si Si2 0.299752 0.862449 0.129851
Si Si3 0.800028 0.028879 0.771904
Si Si4 0.250000 0.451693 0.000000
Si Si5 0.432266 0.343130 0.019674
Si Si6 0.128036 0.289694 0.747861
Si Si7 0.982485 0.618974 0.761592
Si Si8 0.631610 0.218375 0.295396
O O1 0.250000 0.404143 0.500000
O O2 0.178912 0.478976 0.669950
O O3 0.136250 0.355933 0.688340
O O4 0.351727 0.401568 0.709844
O O5 0.294319 0.914081 0.231527
O O6 0.436946 0.842540 0.091406
O O7 0.209582 0.809623 0.178905
O O8 0.250000 0.885312 0.000000
O O9 0.931345 0.063066 0.799629
O O10 0.745315 0.991926 0.883269
O O11 0.132811 0.407838 0.978316
O O12 0.354393 0.300127 0.107500
O O13 0.455660 0.337302 0.876636
O O14 0.250000 0.250000 0.706585
O O15 0.990771 0.261211 0.717401
O O16 0.062513 0.657116 0.663982
O O17 0.750000 0.250000 0.360442
#
# Coordination Sequence:
#
# PCOD9397939 Si02
#       8
#     8   8   8   4   8   8   8   8
#     4  12  28  51  73 102 137 197 268 326 381 427
#     4  11  22  37  64 107 146 199 218 278 361 461
#     4  11  23  41  69 103 144 189 238 295 370 452
#     4  12  22  36  63 104 143 186 228 284 360 466
#     4  12  22  39  64 107 152 182 235 276 372 447
#     4  12  26  46  71 107 149 197 242 310 370 450
#     4  11  24  45  69 105 150 186 242 305 371 453
#     4  11  23  43  68 106 151 192 241 286 369 453
#
# _framework density 22.878247000000002
#
# number of rings (size 3 to 8) (size 9 to 14) (size 15 to 20)
#    0.000    0.533    8.667    0.000    1.867    3.733 
#    2.400    0.000    0.000    0.800    0.000    0.000 
#    0.000    0.000    0.000    0.000    0.000    0.000 
#
# Total GULP energy -334325.049228 kJ/mol
# GULP energy per Si atom -5572.084154 kJ/mol
# Density = 2.282617 g / cm^3
# Si number density = 22.878247 Si / 1000 Ang^3
#
#
#
# Elastic Constant Matrix: (Units=GPa)
#
#
# Indices 1 2 3 4 5 6 
#
# 1 121.3184 36.7787 16.7424 0.0000 0.0000 0.0000
# 2 36.7787 116.7733 29.8180 0.0000 0.0000 0.0000
# 3 16.7424 29.8180 76.8321 0.0000 0.0000 0.0000
# 4 0.0000 0.0000 0.0000 -15.0418 0.0000 0.0000
# 5 0.0000 0.0000 0.0000 0.0000 -1.2623 0.0000
# 6 0.0000 0.0000 0.0000 0.0000 0.0000 37.2096
#
#
#
# Elastic Compliance Matrix: (Units=1/GPa)
#
#
# Indices 1 2 3 4 5 6 
#
# 1 0.009178 -0.002642 -0.000975 0.000000 0.000000 0.000000
# 2 -0.002642 0.010266 -0.003408 0.000000 0.000000 0.000000
# 3 -0.000975 -0.003408 0.014551 0.000000 0.000000 0.000000
# 4 0.000000 0.000000 0.000000 -0.066481 0.000000 0.000000
# 5 0.000000 0.000000 0.000000 0.000000 -0.792174 0.000000
# 6 0.000000 0.000000 0.000000 0.000000 0.000000 0.026875
#
#
# Mechanical properties :
#
#
# Convention : Reuss Voigt Hill
#
# Bulk Modulus (GPa) = 50.13867 53.51135 51.82501
# Shear Modulus (GPa) = -6.43428 19.62007 6.59289
#
# Velocity S-wave (km/s) = -1.67884 2.93163 1.69941
# Velocity P-wave (km/s) = 4.26673 5.90760 5.15290
#
# Compressibility (1/GPa) = 0.01994469
#
# Stress axis : x y z
#
# Youngs Moduli (GPa) = 108.95392 97.40863 68.72565
#
# Poissons Ratio (x) = 0.25734 0.06699
# Poissons Ratio (y) = 0.28784 0.23425
# Poissons Ratio (z) = 0.10620 0.33202
#
# Static dielectric constant tensor:
#      x y z
#    x 1.931520 0.000000 0.000000 
#    y 0.000000 1.955200 0.000000 
#    z 0.000000 0.000000 1.886000 
# 
# From -- ./inp_files/20411.got.cif
#   From: 2010.05.17/outbox.cif.g08.bks.cpg/sg50_11_cif.got.tgz:20411.got - 2010.06.03 11:33:33.
