data_PCOD9397545
_publ_section_title
;
Structure prediction by ZEFSAII (Michael W. Deem and Ramdas Pophale) SiO2 
 PCOD9397545
Probable space group: P B A N
;
_chemical_formula_sum "Si O2"
_cell_formula_units_Z 64
_cell_length_a 23.890651
_cell_length_b 8.332054
_cell_length_c 16.213504
_cell_angle_alpha 90.000000
_cell_angle_beta 90.000000
_cell_angle_gamma 90.000000
_cell_volume 3227.430828
_symmetry_space_group_name_H-M "P B A N"
_symmetry_group_IT_number 50
_space_group.IT_coordinate_system_code '2'
_symmetry_cell_setting 'orthorhombic'
loop_
_space_group_symop_operation_xyz
x,y,z
1/2-x,1/2-y,z
x,1/2-y,-z
1/2-x,y,-z
-x,-y,-z
1/2+x,1/2+y,-z
-x,1/2+y,z
1/2+x,-y,z
loop_
_atom_site_type_symbol
_atom_site_label
_atom_site_fract_x
_atom_site_fract_y
_atom_site_fract_z
Si Si1 0.818197 0.567948 0.313654
Si Si2 0.095875 0.061972 0.175360
Si Si3 0.184448 0.434492 0.312025
Si Si4 0.504687 0.208629 0.590442
Si Si5 0.002446 0.455673 0.291001
Si Si6 0.935974 0.439213 0.999914
Si Si7 0.861167 0.249116 0.405926
Si Si8 0.098575 0.063437 0.825518
O O1 0.845639 0.551186 0.223352
O O2 0.832169 0.752591 0.342312
O O3 0.751321 0.557471 0.311565
O O4 0.842246 0.417440 0.365096
O O5 0.081330 0.250043 0.169100
O O6 0.051182 0.968956 0.233088
O O7 0.093646 0.996298 0.083356
O O8 0.161460 0.587110 0.362566
O O9 0.157481 0.448116 0.221013
O O10 0.482238 0.250000 0.500000
O O11 0.480796 0.280223 0.676266
O O12 0.571392 0.236694 0.593067
O O13 0.494637 0.024698 0.616007
O O14 0.053700 0.519132 0.236232
O O15 0.938138 0.250000 0.000000
O O16 0.905837 0.495504 0.916608
O O17 0.000000 0.500000 0.000000
O O18 0.841099 0.250000 0.500000
#
# Coordination Sequence:
#
# PCOD9397545 Si02
#       8
#     8   8   8   8   8   8   8   8
#     4  10  23  43  66  92 125 169 217 265 320 380
#     4  11  23  40  63  90 121 161 206 252 313 375
#     4  10  23  43  66  92 125 169 217 265 320 380
#     4  11  24  39  58  91 128 165 211 257 313 376
#     4  12  21  37  62  86 122 164 204 249 307 374
#     4  12  26  38  61  94 129 159 199 257 309 385
#     4  11  23  40  65  96 128 167 218 273 321 374
#     4  11  23  40  63  90 121 161 206 252 313 375
#
# _framework density 19.830015
#
# number of rings (size 3 to 8) (size 9 to 14) (size 15 to 20)
#    0.000    1.000    5.000    1.875    3.500    1.500 
#    0.000    1.875    0.000    3.750    0.000    0.000 
#    0.000    0.000    0.000    0.000    0.000    0.000 
#
# Total GULP energy -356978.459797 kJ/mol
# GULP energy per Si atom -5577.788434 kJ/mol
# Density = 1.978488 g / cm^3
# Si number density = 19.830015 Si / 1000 Ang^3
#
#
#
# Elastic Constant Matrix: (Units=GPa)
#
#
# Indices 1 2 3 4 5 6 
#
# 1 50.5386 23.2919 24.5464 0.0000 0.0000 0.0000
# 2 23.2919 118.8596 77.6412 0.0000 0.0000 0.0000
# 3 24.5464 77.6412 166.0597 0.0000 0.0000 0.0000
# 4 0.0000 0.0000 0.0000 31.5767 0.0000 0.0000
# 5 0.0000 0.0000 0.0000 0.0000 15.2716 0.0000
# 6 0.0000 0.0000 0.0000 0.0000 0.0000 25.5600
#
#
#
# Elastic Compliance Matrix: (Units=1/GPa)
#
#
# Indices 1 2 3 4 5 6 
#
# 1 0.022114 -0.003165 -0.001789 0.000000 0.000000 0.000000
# 2 -0.003165 0.012566 -0.005407 0.000000 0.000000 0.000000
# 3 -0.001789 -0.005407 0.008815 0.000000 0.000000 0.000000
# 4 0.000000 0.000000 0.000000 0.031669 0.000000 0.000000
# 5 0.000000 0.000000 0.000000 0.000000 0.065481 0.000000
# 6 0.000000 0.000000 0.000000 0.000000 0.000000 0.039124
#
#
# Mechanical properties :
#
#
# Convention : Reuss Voigt Hill
#
# Bulk Modulus (GPa) = 43.91339 65.15743 54.53541
# Shear Modulus (GPa) = 24.02908 28.48022 26.25465
#
# Velocity S-wave (km/s) = 3.48480 3.79386 3.64261
# Velocity P-wave (km/s) = 6.19554 7.21945 6.72701
#
# Compressibility (1/GPa) = 0.02277210
#
# Stress axis : x y z
#
# Youngs Moduli (GPa) = 45.21928 79.58260 113.44890
#
# Poissons Ratio (x) = 0.25187 0.20298
# Poissons Ratio (y) = 0.14311 0.61344
# Poissons Ratio (z) = 0.08090 0.43032
#
# Static dielectric constant tensor:
#      x y z
#    x 1.674090 0.000000 0.000000 
#    y 0.000000 1.793460 0.000000 
#    z 0.000000 0.000000 1.673170 
# 
# From -- ./inp_files/25426.got.cif
#   From: 2010.05.17/outbox.cif.g08.bks.cpg/sg50_13_cif.got.tgz:25426.got - 2010.06.03 11:33:33.
