data_PCOD9397721
_publ_section_title
;
Structure prediction by ZEFSAII (Michael W. Deem and Ramdas Pophale) SiO2 
 PCOD9397721
Probable space group: P B A N
;
_chemical_formula_sum "Si O2"
_cell_formula_units_Z 32
_cell_length_a 6.219364
_cell_length_b 29.842864
_cell_length_c 7.068060
_cell_angle_alpha 90.000000
_cell_angle_beta 90.000000
_cell_angle_gamma 90.000000
_cell_volume 1311.857621
_symmetry_space_group_name_H-M "P B A N"
_symmetry_group_IT_number 50
_space_group.IT_coordinate_system_code '2'
_symmetry_cell_setting 'orthorhombic'
loop_
_space_group_symop_operation_xyz
x,y,z
1/2-x,1/2-y,z
x,1/2-y,-z
1/2-x,y,-z
-x,-y,-z
1/2+x,1/2+y,-z
-x,1/2+y,z
1/2+x,-y,z
loop_
_atom_site_type_symbol
_atom_site_label
_atom_site_fract_x
_atom_site_fract_y
_atom_site_fract_z
Si Si1 0.143787 0.109763 0.695497
Si Si2 0.769185 0.988033 0.782017
Si Si3 0.250000 0.629135 0.500000
Si Si4 0.250000 0.181530 0.000000
Si Si5 0.141313 0.795545 0.797350
O O1 0.250000 0.126619 0.500000
O O2 0.265396 0.065992 0.764706
O O3 0.133115 0.147479 0.854686
O O4 0.905695 0.098828 0.623723
O O5 0.518087 0.000141 0.712613
O O6 0.750000 0.003474 0.000000
O O7 0.347140 0.663688 0.653186
O O8 0.398400 0.210005 0.862690
O O9 0.250000 0.750000 0.725537
O O10 0.250000 0.805675 0.000000
#
# Coordination Sequence:
#
# PCOD9397721 Si02
#       5
#     8   8   4   4   8
#     4  12  26  44  75 107 143 193 239 307 366 440
#     4  10  24  46  72 107 148 197 251 306 374 447
#     4  12  25  46  70 110 142 186 244 302 366 444
#     4  12  24  49  72 106 140 186 248 298 358 448
#     4  11  25  45  73 101 141 185 235 297 368 434
#
# _framework density 24.392890000000001
#
# number of rings (size 3 to 8) (size 9 to 14) (size 15 to 20)
#    0.000    0.750    6.250    0.375    3.500    3.000 
#    4.500    0.000    0.000    0.000    0.000    0.000 
#    0.000    0.000    0.000    0.000    0.000    0.000 
#
# Total GULP energy -178228.555310 kJ/mol
# GULP energy per Si atom -5569.642353 kJ/mol
# Density = 2.433737 g / cm^3
# Si number density = 24.392890 Si / 1000 Ang^3
#
#
#
# Elastic Constant Matrix: (Units=GPa)
#
#
# Indices 1 2 3 4 5 6 
#
# 1 134.4755 36.3386 12.3277 0.0000 0.0000 0.0000
# 2 36.3386 78.9192 0.2921 0.0000 0.0000 0.0000
# 3 12.3277 0.2921 90.5741 0.0000 0.0000 0.0000
# 4 0.0000 0.0000 0.0000 26.3673 0.0000 0.0000
# 5 0.0000 0.0000 0.0000 0.0000 26.3082 0.0000
# 6 0.0000 0.0000 0.0000 0.0000 0.0000 68.6892
#
#
#
# Elastic Compliance Matrix: (Units=1/GPa)
#
#
# Indices 1 2 3 4 5 6 
#
# 1 0.008613 -0.003962 -0.001160 0.000000 0.000000 0.000000
# 2 -0.003962 0.014494 0.000492 0.000000 0.000000 0.000000
# 3 -0.001160 0.000492 0.011197 0.000000 0.000000 0.000000
# 4 0.000000 0.000000 0.000000 0.037926 0.000000 0.000000
# 5 0.000000 0.000000 0.000000 0.000000 0.038011 0.000000
# 6 0.000000 0.000000 0.000000 0.000000 0.000000 0.014558
#
#
# Mechanical properties :
#
#
# Convention : Reuss Voigt Hill
#
# Bulk Modulus (GPa) = 39.92630 44.65396 42.29013
# Shear Modulus (GPa) = 35.11119 41.27363 38.19241
#
# Velocity S-wave (km/s) = 3.79806 4.11790 3.96121
# Velocity P-wave (km/s) = 5.96969 6.39963 6.18840
#
# Compressibility (1/GPa) = 0.02504615
#
# Stress axis : x y z
#
# Youngs Moduli (GPa) = 116.10174 68.99628 89.31034
#
# Poissons Ratio (x) = 0.27334 0.10356
# Poissons Ratio (y) = 0.45996 -0.04398
# Poissons Ratio (z) = 0.13462 -0.03398
#
# Static dielectric constant tensor:
#      x y z
#    x 2.135040 0.000000 0.000000 
#    y 0.000000 1.867270 0.000000 
#    z 0.000000 0.000000 1.924880 
# 
# From -- ./inp_files/8028.got.cif
#   From: 2010.05.17/outbox.cif.g08.bks.cpg/sg50_5_cif.got.tgz:8028.got - 2010.06.03 11:33:33.
