data_PCOD9397099
_publ_section_title
;
Structure prediction by ZEFSAII (Michael W. Deem and Ramdas Pophale) SiO2 
 PCOD9397099
Probable space group: P B A N
;
_chemical_formula_sum "Si O2"
_cell_formula_units_Z 36
_cell_length_a 19.862698
_cell_length_b 8.410568
_cell_length_c 11.245054
_cell_angle_alpha 90.000000
_cell_angle_beta 90.000000
_cell_angle_gamma 90.000000
_cell_volume 1878.560175
_symmetry_space_group_name_H-M "P B A N"
_symmetry_group_IT_number 50
_space_group.IT_coordinate_system_code '2'
_symmetry_cell_setting 'orthorhombic'
loop_
_space_group_symop_operation_xyz
x,y,z
1/2-x,1/2-y,z
x,1/2-y,-z
1/2-x,y,-z
-x,-y,-z
1/2+x,1/2+y,-z
-x,1/2+y,z
1/2+x,-y,z
loop_
_atom_site_type_symbol
_atom_site_label
_atom_site_fract_x
_atom_site_fract_y
_atom_site_fract_z
Si Si1 0.677651 0.994102 0.163512
Si Si2 0.250000 0.250000 0.000000
Si Si3 0.437196 0.406245 0.338112
Si Si4 0.728897 0.065798 0.628687
Si Si5 0.419023 0.032094 0.386215
Si Si6 0.750000 0.250000 0.000000
O O1 0.605363 0.980782 0.229065
O O2 0.728565 0.979158 0.272966
O O3 0.700981 0.147732 0.086647
O O4 0.698757 0.852845 0.077798
O O5 0.423441 0.217459 0.349337
O O6 0.418994 0.477628 0.468921
O O7 0.516725 0.441822 0.332579
O O8 0.750000 0.250000 0.631795
O O9 0.750000 0.001782 0.500000
O O10 0.650599 0.044886 0.652685
#
# Coordination Sequence:
#
# PCOD9397099 Si02
#       6
#     8   2   8   8   8   2
#     4  11  21  42  61  93 120 178 210 280 301 382
#     4  10  24  38  66  84 132 170 246 252 312 346
#     4  10  22  38  63  88 138 165 202 258 330 390
#     4  11  22  35  65  98 129 159 209 266 332 389
#     4  10  22  37  59 100 128 167 197 254 338 407
#     4  10  24  38  66  88 128 170 244 254 308 354
#
# _framework density 19.163613000000002
#
# number of rings (size 3 to 8) (size 9 to 14) (size 15 to 20)
#    0.000    1.556    3.333    1.333    3.111    1.778 
#    0.000    0.000    0.000   22.667    0.000    0.000 
#    0.000    0.000    0.000    0.000    0.000    0.000 
#
# Total GULP energy -200867.829138 kJ/mol
# GULP energy per Si atom -5579.661921 kJ/mol
# Density = 1.912000 g / cm^3
# Si number density = 19.163613 Si / 1000 Ang^3
#
#
#
# Elastic Constant Matrix: (Units=GPa)
#
#
# Indices 1 2 3 4 5 6 
#
# 1 173.6275 47.4894 49.6083 0.0000 0.0000 0.0000
# 2 47.4894 75.1608 46.1558 0.0000 0.0000 0.0000
# 3 49.6083 46.1558 124.6083 0.0000 0.0000 0.0000
# 4 0.0000 0.0000 0.0000 -12.2909 0.0000 0.0000
# 5 0.0000 0.0000 0.0000 0.0000 37.8083 0.0000
# 6 0.0000 0.0000 0.0000 0.0000 0.0000 19.8506
#
#
#
# Elastic Compliance Matrix: (Units=1/GPa)
#
#
# Indices 1 2 3 4 5 6 
#
# 1 0.007180 -0.003600 -0.001525 0.000000 0.000000 0.000000
# 2 -0.003600 0.019027 -0.005615 0.000000 0.000000 0.000000
# 3 -0.001525 -0.005615 0.010712 0.000000 0.000000 0.000000
# 4 0.000000 0.000000 0.000000 -0.081361 0.000000 0.000000
# 5 0.000000 0.000000 0.000000 0.000000 0.026449 0.000000
# 6 0.000000 0.000000 0.000000 0.000000 0.000000 0.050376
#
#
# Mechanical properties :
#
#
# Convention : Reuss Voigt Hill
#
# Bulk Modulus (GPa) = 64.76712 73.32264 69.04488
# Shear Modulus (GPa) = 84.73197 24.41648 54.57422
#
# Velocity S-wave (km/s) = 6.65665 3.57333 5.34227
# Velocity P-wave (km/s) = 9.64114 7.44106 8.61165
#
# Compressibility (1/GPa) = 0.01543993
#
# Stress axis : x y z
#
# Youngs Moduli (GPa) = 139.27958 52.55587 93.35380
#
# Poissons Ratio (x) = 0.18920 0.14235
# Poissons Ratio (y) = 0.50141 0.52415
# Poissons Ratio (z) = 0.21239 0.29508
#
# Static dielectric constant tensor:
#      x y z
#    x 1.667460 0.000000 0.000000 
#    y 0.000000 1.681210 0.000000 
#    z 0.000000 0.000000 1.638420 
# 
# From -- ./inp_files/22194.got.cif
#   From: 2010.05.17/outbox.cif.g08.bks.cpg/sg50_12_cif.got.tgz:22194.got - 2010.06.03 11:33:33.
