data_PCOD9397417
_publ_section_title
;
Structure prediction by ZEFSAII (Michael W. Deem and Ramdas Pophale) SiO2 
 PCOD9397417
Probable space group: P B A N
;
_chemical_formula_sum "Si O2"
_cell_formula_units_Z 56
_cell_length_a 17.431971
_cell_length_b 14.181573
_cell_length_c 10.004981
_cell_angle_alpha 90.000000
_cell_angle_beta 90.000000
_cell_angle_gamma 90.000000
_cell_volume 2473.359060
_symmetry_space_group_name_H-M "P B A N"
_symmetry_group_IT_number 50
_space_group.IT_coordinate_system_code '2'
_symmetry_cell_setting 'orthorhombic'
loop_
_space_group_symop_operation_xyz
x,y,z
1/2-x,1/2-y,z
x,1/2-y,-z
1/2-x,y,-z
-x,-y,-z
1/2+x,1/2+y,-z
-x,1/2+y,z
1/2+x,-y,z
loop_
_atom_site_type_symbol
_atom_site_label
_atom_site_fract_x
_atom_site_fract_y
_atom_site_fract_z
Si Si1 0.008503 0.253137 0.657965
Si Si2 0.660016 0.503519 0.518808
Si Si3 0.058783 0.930446 0.226256
Si Si4 0.278584 0.650452 0.846193
Si Si5 0.427396 0.934582 0.255516
Si Si6 0.326627 0.190868 0.668992
Si Si7 0.805391 0.525379 0.125156
O O1 0.990097 0.250000 0.500000
O O2 0.099280 0.243010 0.679318
O O3 0.959481 0.178496 0.743628
O O4 0.990286 0.358744 0.701316
O O5 0.750000 0.474659 0.500000
O O6 0.605094 0.463405 0.638832
O O7 0.617022 0.473815 0.384481
O O8 0.661724 0.615438 0.549625
O O9 0.114019 0.970271 0.109294
O O10 0.976847 0.979075 0.201604
O O11 0.250000 0.750000 0.785893
O O12 0.367243 0.626349 0.830486
O O13 0.239617 0.555398 0.791266
O O14 0.250000 0.653370 0.000000
O O15 0.250000 0.250000 0.656256
O O16 0.318577 0.121508 0.796563
O O17 0.750000 0.543562 0.000000
#
# Coordination Sequence:
#
# PCOD9397417 Si02
#       7
#     8   8   8   8   8   8   8
#     4  12  24  40  68 105 151 188 231 294 361 446
#     4  11  23  40  63 101 145 190 229 282 355 443
#     4  11  23  41  66 106 143 183 239 293 366 424
#     4  10  23  45  74  99 134 186 247 304 352 419
#     4  12  22  42  70 100 149 182 231 302 356 428
#     4  11  26  41  67 104 145 196 238 286 362 441
#     4  10  22  47  73  96 138 190 245 303 357 415
#
# _framework density 22.641275
#
# number of rings (size 3 to 8) (size 9 to 14) (size 15 to 20)
#    0.000    1.000    4.286    3.857    6.000    0.286 
#    0.000    3.571    6.286    0.000    0.000    0.000 
#    0.000    0.000    0.000    0.000    0.000    0.000 
#
# Total GULP energy -312391.836658 kJ/mol
# GULP energy per Si atom -5578.425655 kJ/mol
# Density = 2.258974 g / cm^3
# Si number density = 22.641275 Si / 1000 Ang^3
#
#
#
# Elastic Constant Matrix: (Units=GPa)
#
#
# Indices 1 2 3 4 5 6 
#
# 1 130.1715 14.3292 32.4625 0.0000 0.0000 0.0000
# 2 14.3292 93.9079 22.4699 0.0000 0.0000 0.0000
# 3 32.4625 22.4699 83.7006 0.0000 0.0000 0.0000
# 4 0.0000 0.0000 0.0000 2.8720 0.0000 0.0000
# 5 0.0000 0.0000 0.0000 0.0000 35.4113 0.0000
# 6 0.0000 0.0000 0.0000 0.0000 0.0000 35.2018
#
#
#
# Elastic Compliance Matrix: (Units=1/GPa)
#
#
# Indices 1 2 3 4 5 6 
#
# 1 0.008531 -0.000545 -0.003162 0.000000 0.000000 0.000000
# 2 -0.000545 0.011415 -0.002853 0.000000 0.000000 0.000000
# 3 -0.003162 -0.002853 0.013940 0.000000 0.000000 0.000000
# 4 0.000000 0.000000 0.000000 0.348194 0.000000 0.000000
# 5 0.000000 0.000000 0.000000 0.000000 0.028240 0.000000
# 6 0.000000 0.000000 0.000000 0.000000 0.000000 0.028408
#
#
# Mechanical properties :
#
#
# Convention : Reuss Voigt Hill
#
# Bulk Modulus (GPa) = 48.15897 49.58926 48.87411
# Shear Modulus (GPa) = 10.89875 30.59824 20.74849
#
# Velocity S-wave (km/s) = 2.19639 3.68018 3.03050
# Velocity P-wave (km/s) = 5.26771 6.32518 5.82051
#
# Compressibility (1/GPa) = 0.02076456
#
# Stress axis : x y z
#
# Youngs Moduli (GPa) = 117.22246 87.60763 71.73766
#
# Poissons Ratio (x) = 0.04775 0.22685
# Poissons Ratio (y) = 0.06389 0.20466
# Poissons Ratio (z) = 0.37069 0.24994
#
# Static dielectric constant tensor:
#      x y z
#    x 1.928910 0.000000 0.000000 
#    y 0.000000 1.844080 0.000000 
#    z 0.000000 0.000000 1.934730 
# 
# From -- ./inp_files/21148.got.cif
#   From: 2010.05.17/outbox.cif.g08.bks.cpg/sg50_11_cif.got.tgz:21148.got - 2010.06.03 11:33:33.
