data_PCOD9397069
_publ_section_title
;
Structure prediction by ZEFSAII (Michael W. Deem and Ramdas Pophale) SiO2 
 PCOD9397069
Probable space group: P B A N
;
_chemical_formula_sum "Si O2"
_cell_formula_units_Z 40
_cell_length_a 9.506524
_cell_length_b 14.857790
_cell_length_c 11.167264
_cell_angle_alpha 90.000000
_cell_angle_beta 90.000000
_cell_angle_gamma 90.000000
_cell_volume 1577.330670
_symmetry_space_group_name_H-M "P B A N"
_symmetry_group_IT_number 50
_space_group.IT_coordinate_system_code '2'
_symmetry_cell_setting 'orthorhombic'
loop_
_space_group_symop_operation_xyz
x,y,z
1/2-x,1/2-y,z
x,1/2-y,-z
1/2-x,y,-z
-x,-y,-z
1/2+x,1/2+y,-z
-x,1/2+y,z
1/2+x,-y,z
loop_
_atom_site_type_symbol
_atom_site_label
_atom_site_fract_x
_atom_site_fract_y
_atom_site_fract_z
Si Si1 0.592497 0.506789 0.619924
Si Si2 0.565636 0.710405 0.628192
Si Si3 0.302398 0.632374 0.712792
Si Si4 0.493992 0.365754 0.793993
Si Si5 0.903071 0.143083 0.031349
O O1 0.500000 0.500000 0.500000
O O2 0.627823 0.610798 0.642632
O O3 0.765070 0.449597 0.362464
O O4 0.493920 0.456637 0.718032
O O5 0.603412 0.750000 0.500000
O O6 0.397523 0.689467 0.623705
O O7 0.590905 0.785321 0.731037
O O8 0.157977 0.666495 0.774530
O O9 0.408735 0.625613 0.827514
O O10 0.481210 0.388259 0.934445
O O11 0.902727 0.250000 0.000000
O O12 0.750000 0.102777 0.000000
#
# Coordination Sequence:
#
# PCOD9397069 Si02
#       5
#     8   8   8   8   8
#     4  10  22  33  46  87 124 147 193 262 313 377
#     4  12  20  34  59  84 115 156 204 253 325 371
#     4   9  20  33  55  86 110 157 196 261 313 363
#     4   9  19  32  54  82 111 155 193 259 307 351
#     4   9  14  28  55  79 107 147 194 253 302 355
#
# _framework density 25.359299
#
# number of rings (size 3 to 8) (size 9 to 14) (size 15 to 20)
#    1.200    1.000    4.000    0.600    0.000    5.600 
#    0.000    1.000    0.000    1.200    0.000    0.000 
#    0.000    0.000    0.000    0.000    0.000    0.000 
#
# Total GULP energy -222708.411510 kJ/mol
# GULP energy per Si atom -5567.710288 kJ/mol
# Density = 2.530158 g / cm^3
# Si number density = 25.359299 Si / 1000 Ang^3
#
#
#
# Elastic Constant Matrix: (Units=GPa)
#
#
# Indices 1 2 3 4 5 6 
#
# 1 71.7961 25.1310 40.7640 0.0000 0.0000 0.0000
# 2 25.1310 160.7743 91.1312 0.0000 0.0000 0.0000
# 3 40.7640 91.1312 197.3542 0.0000 0.0000 0.0000
# 4 0.0000 0.0000 0.0000 40.7233 0.0000 0.0000
# 5 0.0000 0.0000 0.0000 0.0000 -3.1144 0.0000
# 6 0.0000 0.0000 0.0000 0.0000 0.0000 38.8431
#
#
#
# Elastic Compliance Matrix: (Units=1/GPa)
#
#
# Indices 1 2 3 4 5 6 
#
# 1 0.015863 -0.000843 -0.002887 0.000000 0.000000 0.000000
# 2 -0.000843 0.008470 -0.003737 0.000000 0.000000 0.000000
# 3 -0.002887 -0.003737 0.007389 0.000000 0.000000 0.000000
# 4 0.000000 0.000000 0.000000 0.024556 0.000000 0.000000
# 5 0.000000 0.000000 0.000000 0.000000 -0.321086 0.000000
# 6 0.000000 0.000000 0.000000 0.000000 0.000000 0.025745
#
#
# Mechanical properties :
#
#
# Convention : Reuss Voigt Hill
#
# Bulk Modulus (GPa) = 59.56910 82.66411 71.11660
# Shear Modulus (GPa) = -22.87979 33.48362 5.30191
#
# Velocity S-wave (km/s) = -3.00696 3.63763 1.44750
# Velocity P-wave (km/s) = 3.38899 7.09303 5.55861
#
# Compressibility (1/GPa) = 0.01678723
#
# Stress axis : x y z
#
# Youngs Moduli (GPa) = 63.04102 118.06535 135.33633
#
# Poissons Ratio (x) = 0.09953 0.39075
# Poissons Ratio (y) = 0.05314 0.50575
# Poissons Ratio (z) = 0.18201 0.44121
#
# Static dielectric constant tensor:
#      x y z
#    x 2.043200 0.000000 0.000000 
#    y 0.000000 2.130070 0.000000 
#    z 0.000000 0.000000 2.111350 
# 
# From -- ./inp_files/20981.got.cif
#   From: 2010.05.17/outbox.cif.g08.bks.cpg/sg50_11_cif.got.tgz:20981.got - 2010.06.03 11:33:33.
