data_PCOD9397252
_publ_section_title
;
Structure prediction by ZEFSAII (Michael W. Deem and Ramdas Pophale) SiO2 
 PCOD9397252
Probable space group: P B A N
;
_chemical_formula_sum "Si O2"
_cell_formula_units_Z 34
_cell_length_a 5.149959
_cell_length_b 13.258768
_cell_length_c 21.112296
_cell_angle_alpha 90.000000
_cell_angle_beta 90.000000
_cell_angle_gamma 90.000000
_cell_volume 1441.592151
_symmetry_space_group_name_H-M "P B A N"
_symmetry_group_IT_number 50
_space_group.IT_coordinate_system_code '2'
_symmetry_cell_setting 'orthorhombic'
loop_
_space_group_symop_operation_xyz
x,y,z
1/2-x,1/2-y,z
x,1/2-y,-z
1/2-x,y,-z
-x,-y,-z
1/2+x,1/2+y,-z
-x,1/2+y,z
1/2+x,-y,z
loop_
_atom_site_type_symbol
_atom_site_label
_atom_site_fract_x
_atom_site_fract_y
_atom_site_fract_z
Si Si1 0.535337 0.068878 0.925380
Si Si2 0.750000 0.750000 0.611267
Si Si3 0.250000 0.750000 0.695142
Si Si4 0.250000 0.250000 0.000000
Si Si5 0.038433 0.562904 0.225167
Si Si6 0.707054 0.538427 0.571144
O O1 0.540076 0.087385 0.849860
O O2 0.821485 0.020332 0.937829
O O3 0.432717 0.171551 0.959567
O O4 0.498533 0.777958 0.652312
O O5 0.667083 0.655915 0.569373
O O6 0.139902 0.841172 0.736896
O O7 0.246450 0.473970 0.238483
O O8 0.750000 0.495396 0.500000
O O9 0.469157 0.489076 0.605381
#
# Coordination Sequence:
#
# PCOD9397252 Si02
#       6
#     8   4   4   2   8   8
#     4  10  24  43  64  95 128 165 211 254 312 380
#     4  12  25  39  62  98 131 157 208 276 314 366
#     4  12  26  40  65  97 122 166 218 256 322 378
#     4  12  24  40  72 100 134 166 200 274 326 376
#     4  10  23  44  65  87 125 168 208 257 306 372
#     4  10  22  41  64  90 126 172 212 252 316 385
#
# _framework density 23.585034
#
# number of rings (size 3 to 8) (size 9 to 14) (size 15 to 20)
#    0.000    1.412    0.000    3.882    0.000   14.118 
#    0.000    4.706    0.000    0.000    0.000    0.000 
#    0.000    0.000    0.000    0.000    0.000    0.000 
#
# Total GULP energy -189999.507084 kJ/mol
# GULP energy per Si atom -5588.220797 kJ/mol
# Density = 2.353135 g / cm^3
# Si number density = 23.585034 Si / 1000 Ang^3
#
#
#
# Elastic Constant Matrix: (Units=GPa)
#
#
# Indices 1 2 3 4 5 6 
#
# 1 164.4960 31.3533 26.2739 0.0000 0.0000 0.0000
# 2 31.3533 129.8482 19.8632 0.0000 0.0000 0.0000
# 3 26.2739 19.8632 70.2543 0.0000 0.0000 0.0000
# 4 0.0000 0.0000 0.0000 81.4109 0.0000 0.0000
# 5 0.0000 0.0000 0.0000 0.0000 93.0392 0.0000
# 6 0.0000 0.0000 0.0000 0.0000 0.0000 36.0356
#
#
#
# Elastic Compliance Matrix: (Units=1/GPa)
#
#
# Indices 1 2 3 4 5 6 
#
# 1 0.006664 -0.001283 -0.002129 0.000000 0.000000 0.000000
# 2 -0.001283 0.008297 -0.001866 0.000000 0.000000 0.000000
# 3 -0.002129 -0.001866 0.015558 0.000000 0.000000 0.000000
# 4 0.000000 0.000000 0.000000 0.012283 0.000000 0.000000
# 5 0.000000 0.000000 0.000000 0.000000 0.010748 0.000000
# 6 0.000000 0.000000 0.000000 0.000000 0.000000 0.027750
#
#
# Mechanical properties :
#
#
# Convention : Reuss Voigt Hill
#
# Bulk Modulus (GPa) = 50.09661 57.73103 53.91382
# Shear Modulus (GPa) = 50.75579 61.23767 55.99673
#
# Velocity S-wave (km/s) = 4.64403 5.10108 4.87791
# Velocity P-wave (km/s) = 7.07411 7.69582 7.39150
#
# Compressibility (1/GPa) = 0.01996143
#
# Stress axis : x y z
#
# Youngs Moduli (GPa) = 150.06251 120.53144 64.27623
#
# Poissons Ratio (x) = 0.15468 0.13687
# Poissons Ratio (y) = 0.19258 0.11992
# Poissons Ratio (z) = 0.31953 0.22488
#
# Static dielectric constant tensor:
#      x y z
#    x 1.982650 0.000000 0.000000 
#    y 0.000000 1.851220 0.000000 
#    z 0.000000 0.000000 1.942530 
# 
# From -- ./inp_files/31369.got.cif
#   From: 2010.05.17/outbox.cif.g08.bks.cpg/sg50_16_cif.got.tgz:31369.got - 2010.06.03 11:33:33.
