data_PCOD9397064
_publ_section_title
;
Structure prediction by ZEFSAII (Michael W. Deem and Ramdas Pophale) SiO2 
 PCOD9397064
Probable space group: P B A N
;
_chemical_formula_sum "Si O2"
_cell_formula_units_Z 34
_cell_length_a 8.895079
_cell_length_b 10.693969
_cell_length_c 19.016223
_cell_angle_alpha 90.000000
_cell_angle_beta 90.000000
_cell_angle_gamma 90.000000
_cell_volume 1808.893474
_symmetry_space_group_name_H-M "P B A N"
_symmetry_group_IT_number 50
_space_group.IT_coordinate_system_code '2'
_symmetry_cell_setting 'orthorhombic'
loop_
_space_group_symop_operation_xyz
x,y,z
1/2-x,1/2-y,z
x,1/2-y,-z
1/2-x,y,-z
-x,-y,-z
1/2+x,1/2+y,-z
-x,1/2+y,z
1/2+x,-y,z
loop_
_atom_site_type_symbol
_atom_site_label
_atom_site_fract_x
_atom_site_fract_y
_atom_site_fract_z
Si Si1 0.180687 0.120980 0.682121
Si Si2 0.957372 0.654581 0.062578
Si Si3 0.250000 0.750000 0.500000
Si Si4 0.250000 0.250000 0.818598
Si Si5 0.659301 0.130540 0.363470
Si Si6 0.250000 0.944607 0.000000
O O1 0.250000 0.250000 0.651408
O O2 0.214219 0.136495 0.765307
O O3 0.004783 0.121356 0.668156
O O4 0.254005 0.997388 0.650839
O O5 0.892249 0.715457 0.133116
O O6 0.134388 0.627210 0.051633
O O7 0.920541 0.750000 0.000000
O O8 0.860639 0.530145 0.047011
O O9 0.344930 0.835750 0.553368
O O10 0.750000 0.250000 0.332910
#
# Coordination Sequence:
#
# PCOD9397064 Si02
#       6
#     8   8   2   4   8   4
#     4  10  23  41  66  96 141 182 218 280 336 414
#     4  11  20  43  59  93 128 159 228 285 320 405
#     4   8  24  40  76  96 136 176 222 284 336 384
#     4  10  23  40  64  91 136 182 214 274 356 389
#     4  10  21  46  65 100 135 173 228 274 334 398
#     4  10  22  34  68  86 120 166 202 302 328 378
#
# _framework density 18.796022000000001
#
# number of rings (size 3 to 8) (size 9 to 14) (size 15 to 20)
#    1.412    0.471    2.353    1.765    0.000    2.824 
#    0.000    0.000    0.000    0.000    0.000    0.000 
#    0.000    0.000    0.000    0.000    0.000    0.000 
#
# Total GULP energy -189321.257381 kJ/mol
# GULP energy per Si atom -5568.272276 kJ/mol
# Density = 1.875324 g / cm^3
# Si number density = 18.796022 Si / 1000 Ang^3
#
#
#
# Elastic Constant Matrix: (Units=GPa)
#
#
# Indices 1 2 3 4 5 6 
#
# 1 164.3169 70.3968 41.4271 0.0000 0.0000 0.0000
# 2 70.3968 134.0078 41.6813 0.0000 0.0000 0.0000
# 3 41.4271 41.6813 112.7590 0.0000 0.0000 0.0000
# 4 0.0000 0.0000 0.0000 89.6633 0.0000 0.0000
# 5 0.0000 0.0000 0.0000 0.0000 -4.9151 0.0000
# 6 0.0000 0.0000 0.0000 0.0000 0.0000 32.7089
#
#
#
# Elastic Compliance Matrix: (Units=1/GPa)
#
#
# Indices 1 2 3 4 5 6 
#
# 1 0.008096 -0.003760 -0.001585 0.000000 0.000000 0.000000
# 2 -0.003760 0.010178 -0.002381 0.000000 0.000000 0.000000
# 3 -0.001585 -0.002381 0.010331 0.000000 0.000000 0.000000
# 4 0.000000 0.000000 0.000000 0.011153 0.000000 0.000000
# 5 0.000000 0.000000 0.000000 0.000000 -0.203455 0.000000
# 6 0.000000 0.000000 0.000000 0.000000 0.000000 0.030573
#
#
# Mechanical properties :
#
#
# Convention : Reuss Voigt Hill
#
# Bulk Modulus (GPa) = 76.02372 79.78823 77.90598
# Shear Modulus (GPa) = -44.13528 40.66332 -1.73598
#
# Velocity S-wave (km/s) = -4.85100 4.65628 -0.96208
# Velocity P-wave (km/s) = 3.02627 8.45279 6.34854
#
# Compressibility (1/GPa) = 0.01315379
#
# Stress axis : x y z
#
# Youngs Moduli (GPa) = 123.51361 98.24997 96.79886
#
# Poissons Ratio (x) = 0.36945 0.15338
# Poissons Ratio (y) = 0.46444 0.23046
# Poissons Ratio (z) = 0.19571 0.23392
#
# Static dielectric constant tensor:
#      x y z
#    x 1.618290 0.000000 0.000000 
#    y 0.000000 1.745330 0.000000 
#    z 0.000000 0.000000 1.647880 
# 
# From -- ./inp_files/28472.got.cif
#   From: 2010.05.17/outbox.cif.g08.bks.cpg/sg50_15_cif.got.tgz:28472.got - 2010.06.03 11:33:33.
