data_PCOD9397000
_publ_section_title
;
Structure prediction by ZEFSAII (Michael W. Deem and Ramdas Pophale) SiO2 
 PCOD9397000
Probable space group: P B A N
;
_chemical_formula_sum "Si O2"
_cell_formula_units_Z 56
_cell_length_a 16.911845
_cell_length_b 11.576269
_cell_length_c 14.133773
_cell_angle_alpha 90.000000
_cell_angle_beta 90.000000
_cell_angle_gamma 90.000000
_cell_volume 2767.054490
_symmetry_space_group_name_H-M "P B A N"
_symmetry_group_IT_number 50
_space_group.IT_coordinate_system_code '2'
_symmetry_cell_setting 'orthorhombic'
loop_
_space_group_symop_operation_xyz
x,y,z
1/2-x,1/2-y,z
x,1/2-y,-z
1/2-x,y,-z
-x,-y,-z
1/2+x,1/2+y,-z
-x,1/2+y,z
1/2+x,-y,z
loop_
_atom_site_type_symbol
_atom_site_label
_atom_site_fract_x
_atom_site_fract_y
_atom_site_fract_z
Si Si1 0.400379 0.886723 0.356355
Si Si2 0.428361 0.294779 0.396262
Si Si3 0.345407 0.853073 0.706013
Si Si4 0.468902 0.396842 0.742437
Si Si5 0.672999 0.993727 0.459091
Si Si6 0.204021 0.872029 0.087996
Si Si7 0.982985 0.126528 0.953783
O O1 0.479775 0.826595 0.394211
O O2 0.349457 0.786349 0.305864
O O3 0.429942 0.980952 0.281154
O O4 0.368806 0.953925 0.448470
O O5 0.408731 0.250000 0.500000
O O6 0.420159 0.199725 0.315253
O O7 0.376945 0.409401 0.392706
O O8 0.438879 0.889235 0.709717
O O9 0.303809 0.903358 0.800373
O O10 0.306751 0.901672 0.610911
O O11 0.473961 0.374936 0.852948
O O12 0.750000 0.932581 0.500000
O O13 0.250000 0.750000 0.093474
O O14 0.112119 0.865156 0.058802
O O15 0.250000 0.934520 0.000000
O O16 0.006425 0.250000 0.000000
O O17 0.000000 0.000000 0.000000
#
# Coordination Sequence:
#
# PCOD9397000 Si02
#       7
#     8   8   8   8   8   8   8
#     4  11  21  39  64  92 127 170 217 273 337 398
#     4  11  21  40  63  85 125 171 224 258 324 409
#     4  10  23  37  62  94 129 163 223 280 330 402
#     4  10  22  38  67  93 124 171 221 273 332 410
#     4  12  25  39  57  94 133 173 216 279 335 401
#     4  10  21  41  68  96 131 181 230 277 361 429
#     4  11  25  43  70 110 140 175 236 309 359 425
#
# _framework density 20.238126000000001
#
# number of rings (size 3 to 8) (size 9 to 14) (size 15 to 20)
#    0.000    1.286    4.286    2.571    8.000    0.857 
#    0.000    0.000    0.000    0.429    0.000    0.000 
#    0.000    0.000    0.000    0.000    0.000    0.000 
#
# Total GULP energy -312013.088150 kJ/mol
# GULP energy per Si atom -5571.662288 kJ/mol
# Density = 2.019206 g / cm^3
# Si number density = 20.238126 Si / 1000 Ang^3
#
#
#
# Elastic Constant Matrix: (Units=GPa)
#
#
# Indices 1 2 3 4 5 6 
#
# 1 38.5576 19.4258 28.6992 0.0000 0.0000 0.0000
# 2 19.4258 107.9161 56.7450 0.0000 0.0000 0.0000
# 3 28.6992 56.7450 145.5145 0.0000 0.0000 0.0000
# 4 0.0000 0.0000 0.0000 29.6151 0.0000 0.0000
# 5 0.0000 0.0000 0.0000 0.0000 54.7563 0.0000
# 6 0.0000 0.0000 0.0000 0.0000 0.0000 15.3508
#
#
#
# Elastic Compliance Matrix: (Units=1/GPa)
#
#
# Indices 1 2 3 4 5 6 
#
# 1 0.031146 -0.002989 -0.004977 0.000000 0.000000 0.000000
# 2 -0.002989 0.011944 -0.004068 0.000000 0.000000 0.000000
# 3 -0.004977 -0.004068 0.009440 0.000000 0.000000 0.000000
# 4 0.000000 0.000000 0.000000 0.033767 0.000000 0.000000
# 5 0.000000 0.000000 0.000000 0.000000 0.018263 0.000000
# 6 0.000000 0.000000 0.000000 0.000000 0.000000 0.065143
#
#
# Mechanical properties :
#
#
# Convention : Reuss Voigt Hill
#
# Bulk Modulus (GPa) = 35.13613 55.74757 45.44185
# Shear Modulus (GPa) = 24.59931 32.41899 28.50915
#
# Velocity S-wave (km/s) = 3.49018 4.00669 3.75732
# Velocity P-wave (km/s) = 5.80007 7.00074 6.42850
#
# Compressibility (1/GPa) = 0.02846073
#
# Stress axis : x y z
#
# Youngs Moduli (GPa) = 32.10704 83.72673 105.93114
#
# Poissons Ratio (x) = 0.25030 0.52722
# Poissons Ratio (y) = 0.09598 0.43092
# Poissons Ratio (z) = 0.15980 0.34060
#
# Static dielectric constant tensor:
#      x y z
#    x 1.742230 0.000000 0.000000 
#    y 0.000000 1.628200 0.000000 
#    z 0.000000 0.000000 1.737740 
# 
# From -- ./inp_files/26483.got.cif
#   From: 2010.05.17/outbox.cif.g08.bks.cpg/sg50_14_cif.got.tgz:26483.got - 2010.06.03 11:33:33.
