data_PCOD9397616
_publ_section_title
;
Structure prediction by ZEFSAII (Michael W. Deem and Ramdas Pophale) SiO2 
 PCOD9397616
Probable space group: P B A N
;
_chemical_formula_sum "Si O2"
_cell_formula_units_Z 30
_cell_length_a 18.633079
_cell_length_b 9.669216
_cell_length_c 7.762238
_cell_angle_alpha 90.000000
_cell_angle_beta 90.000000
_cell_angle_gamma 90.000000
_cell_volume 1398.501195
_symmetry_space_group_name_H-M "P B A N"
_symmetry_group_IT_number 50
_space_group.IT_coordinate_system_code '2'
_symmetry_cell_setting 'orthorhombic'
loop_
_space_group_symop_operation_xyz
x,y,z
1/2-x,1/2-y,z
x,1/2-y,-z
1/2-x,y,-z
-x,-y,-z
1/2+x,1/2+y,-z
-x,1/2+y,z
1/2+x,-y,z
loop_
_atom_site_type_symbol
_atom_site_label
_atom_site_fract_x
_atom_site_fract_y
_atom_site_fract_z
Si Si1 0.150456 0.754081 0.796199
Si Si2 0.995446 0.630024 0.128055
Si Si3 0.250000 0.250000 0.000000
Si Si4 0.250000 0.250000 0.500000
Si Si5 0.250000 0.750000 0.500000
Si Si6 0.652653 0.926324 0.257891
O O1 0.198143 0.822668 0.643770
O O2 0.152181 0.591991 0.748425
O O3 0.072432 0.825789 0.797122
O O4 0.172042 0.750000 0.000000
O O5 0.931265 0.611372 0.260328
O O6 0.972267 0.750000 0.000000
O O7 0.000000 0.500000 0.000000
O O8 0.304071 0.354539 0.099318
O O9 0.303688 0.144733 0.592117
#
# Coordination Sequence:
#
# PCOD9397616 Si02
#       6
#     8   8   2   2   2   8
#     4  11  25  45  73 103 143 191 242 306 368 438
#     4  11  21  42  72 105 135 187 247 300 362 434
#     4  10  24  34  74  94 136 188 222 294 344 430
#     4  10  26  44  64 104 152 198 232 316 370 436
#     4  12  28  46  64 108 140 188 242 300 366 442
#     4  11  22  44  65 104 138 184 244 289 366 441
#
# _framework density 21.451537999999999
#
# number of rings (size 3 to 8) (size 9 to 14) (size 15 to 20)
#    0.000    1.067    6.667    1.200    3.733    1.067 
#    4.800    2.667    0.000    0.000    0.000    0.000 
#    0.000    0.000    0.000    0.000    0.000    0.000 
#
# Total GULP energy -167053.706214 kJ/mol
# GULP energy per Si atom -5568.456874 kJ/mol
# Density = 2.140271 g / cm^3
# Si number density = 21.451538 Si / 1000 Ang^3
#
#
#
# Elastic Constant Matrix: (Units=GPa)
#
#
# Indices 1 2 3 4 5 6 
#
# 1 228.9202 59.1827 80.2444 0.0000 0.0000 0.0000
# 2 59.1827 160.1944 33.8056 0.0000 0.0000 0.0000
# 3 80.2444 33.8056 116.7318 0.0000 0.0000 0.0000
# 4 0.0000 0.0000 0.0000 23.8292 0.0000 0.0000
# 5 0.0000 0.0000 0.0000 0.0000 50.2217 0.0000
# 6 0.0000 0.0000 0.0000 0.0000 0.0000 11.2104
#
#
#
# Elastic Compliance Matrix: (Units=1/GPa)
#
#
# Indices 1 2 3 4 5 6 
#
# 1 0.006054 -0.001447 -0.003743 0.000000 0.000000 0.000000
# 2 -0.001447 0.006995 -0.001031 0.000000 0.000000 0.000000
# 3 -0.003743 -0.001031 0.011438 0.000000 0.000000 0.000000
# 4 0.000000 0.000000 0.000000 0.041965 0.000000 0.000000
# 5 0.000000 0.000000 0.000000 0.000000 0.019912 0.000000
# 6 0.000000 0.000000 0.000000 0.000000 0.000000 0.089203
#
#
# Mechanical properties :
#
#
# Convention : Reuss Voigt Hill
#
# Bulk Modulus (GPa) = 83.01844 94.70131 88.85988
# Shear Modulus (GPa) = 26.03845 39.22653 32.63249
#
# Velocity S-wave (km/s) = 3.48778 4.28087 3.90451
# Velocity P-wave (km/s) = 7.41647 8.28715 7.86387
#
# Compressibility (1/GPa) = 0.01204552
#
# Stress axis : x y z
#
# Youngs Moduli (GPa) = 165.16827 142.96888 87.42623
#
# Poissons Ratio (x) = 0.20686 0.32723
# Poissons Ratio (y) = 0.23898 0.09013
# Poissons Ratio (z) = 0.61822 0.14740
#
# Static dielectric constant tensor:
#      x y z
#    x 1.838110 0.000000 0.000000 
#    y 0.000000 1.780240 0.000000 
#    z 0.000000 0.000000 1.875950 
# 
# From -- ./inp_files/14917.got.cif
#   From: 2010.05.17/outbox.cif.g08.bks.cpg/sg50_8_cif.got.tgz:14917.got - 2010.06.03 11:33:33.
