data_PCOD9397753
_publ_section_title
;
Structure prediction by ZEFSAII (Michael W. Deem and Ramdas Pophale) SiO2 
 PCOD9397753
Probable space group: P B A N
;
_chemical_formula_sum "Si O2"
_cell_formula_units_Z 24
_cell_length_a 8.837900
_cell_length_b 21.053682
_cell_length_c 6.165285
_cell_angle_alpha 90.000000
_cell_angle_beta 90.000000
_cell_angle_gamma 90.000000
_cell_volume 1147.176652
_symmetry_space_group_name_H-M "P B A N"
_symmetry_group_IT_number 50
_space_group.IT_coordinate_system_code '2'
_symmetry_cell_setting 'orthorhombic'
loop_
_space_group_symop_operation_xyz
x,y,z
1/2-x,1/2-y,z
x,1/2-y,-z
1/2-x,y,-z
-x,-y,-z
1/2+x,1/2+y,-z
-x,1/2+y,z
1/2+x,-y,z
loop_
_atom_site_type_symbol
_atom_site_label
_atom_site_fract_x
_atom_site_fract_y
_atom_site_fract_z
Si Si1 0.485910 0.448418 0.689595
Si Si2 0.750000 0.750000 0.000000
Si Si3 0.750000 0.483859 0.000000
Si Si4 0.250000 0.750000 0.500000
Si Si5 0.037778 0.193032 0.656829
O O1 0.500000 0.500000 0.500000
O O2 0.355198 0.472585 0.849371
O O3 0.447555 0.379796 0.590409
O O4 0.637951 0.445621 0.838276
O O5 0.864066 0.704901 0.868444
O O6 0.358609 0.708262 0.347051
O O7 0.090837 0.250000 0.500000
#
# Coordination Sequence:
#
# PCOD9397753 Si02
#       5
#     8   2   4   2   8
#     4  11  24  43  69  94 138 172 220 278 331 389
#     4  12  24  42  72  94 138 174 218 286 326 400
#     4  10  25  40  64 104 127 176 226 264 335 404
#     4   8  24  44  64  92 134 166 222 262 324 402
#     4  10  25  44  67  99 132 174 225 271 338 393
#
# _framework density 20.920926000000001
#
# number of rings (size 3 to 8) (size 9 to 14) (size 15 to 20)
#    1.000    0.667    0.000    2.500    4.667   14.000 
#    0.000    0.000    0.000    0.000    0.000    0.000 
#    0.000    0.000    0.000    0.000    0.000    0.000 
#
# Total GULP energy -133731.782197 kJ/mol
# GULP energy per Si atom -5572.157592 kJ/mol
# Density = 2.087331 g / cm^3
# Si number density = 20.920926 Si / 1000 Ang^3
#
#
#
# Elastic Constant Matrix: (Units=GPa)
#
#
# Indices 1 2 3 4 5 6 
#
# 1 134.2107 29.5242 47.6931 0.0000 0.0000 0.0000
# 2 29.5242 187.1319 59.7581 0.0000 0.0000 0.0000
# 3 47.6931 59.7581 91.9015 0.0000 0.0000 0.0000
# 4 0.0000 0.0000 0.0000 21.0356 0.0000 0.0000
# 5 0.0000 0.0000 0.0000 0.0000 -41.2374 0.0000
# 6 0.0000 0.0000 0.0000 0.0000 0.0000 -6.8654
#
#
#
# Elastic Compliance Matrix: (Units=1/GPa)
#
#
# Indices 1 2 3 4 5 6 
#
# 1 0.009137 0.000092 -0.004801 0.000000 0.000000 0.000000
# 2 0.000092 0.006745 -0.004434 0.000000 0.000000 0.000000
# 3 -0.004801 -0.004434 0.016256 0.000000 0.000000 0.000000
# 4 0.000000 0.000000 0.000000 0.047539 0.000000 0.000000
# 5 0.000000 0.000000 0.000000 0.000000 -0.024250 0.000000
# 6 0.000000 0.000000 0.000000 0.000000 0.000000 -0.145657
#
#
# Mechanical properties :
#
#
# Convention : Reuss Voigt Hill
#
# Bulk Modulus (GPa) = 72.19424 76.35499 74.27462
# Shear Modulus (GPa) = -74.26433 13.00448 -30.62993
#
# Velocity S-wave (km/s) = -5.96445 2.49590 -3.83048
# Velocity P-wave (km/s) = 3.58467 6.69942 4.00202
#
# Compressibility (1/GPa) = 0.01385152
#
# Stress axis : x y z
#
# Youngs Moduli (GPa) = 109.44503 148.25462 61.51652
#
# Poissons Ratio (x) = -0.01359 0.29536
# Poissons Ratio (y) = -0.01003 0.27274
# Poissons Ratio (z) = 0.52548 0.65729
#
# Static dielectric constant tensor:
#      x y z
#    x 1.767650 0.000000 0.000000 
#    y 0.000000 1.763480 0.000000 
#    z 0.000000 0.000000 1.761840 
# 
# From -- ./inp_files/882.got.cif
#   From: 2010.05.17/outbox.cif.g08.bks.cpg/sg50_1_cif.got.tgz:882.got - 2010.06.03 11:33:33.
