data_PCOD9397424
_publ_section_title
;
Structure prediction by ZEFSAII (Michael W. Deem and Ramdas Pophale) SiO2 
 PCOD9397424
Probable space group: P B A N
;
_chemical_formula_sum "Si O2"
_cell_formula_units_Z 64
_cell_length_a 14.644307
_cell_length_b 29.614716
_cell_length_c 8.468435
_cell_angle_alpha 90.000000
_cell_angle_beta 90.000000
_cell_angle_gamma 90.000000
_cell_volume 3672.650109
_symmetry_space_group_name_H-M "P B A N"
_symmetry_group_IT_number 50
_space_group.IT_coordinate_system_code '2'
_symmetry_cell_setting 'orthorhombic'
loop_
_space_group_symop_operation_xyz
x,y,z
1/2-x,1/2-y,z
x,1/2-y,-z
1/2-x,y,-z
-x,-y,-z
1/2+x,1/2+y,-z
-x,1/2+y,z
1/2+x,-y,z
loop_
_atom_site_type_symbol
_atom_site_label
_atom_site_fract_x
_atom_site_fract_y
_atom_site_fract_z
Si Si1 0.715268 0.501912 0.161805
Si Si2 0.861049 0.252301 0.682215
Si Si3 0.596359 0.505430 0.698236
Si Si4 0.956980 0.436512 0.898460
Si Si5 0.366215 0.847926 0.175025
Si Si6 0.657457 0.155635 0.202285
Si Si7 0.341630 0.426777 0.573833
Si Si8 0.014913 0.584966 0.729517
O O1 0.809397 0.483508 0.236641
O O2 0.637046 0.465581 0.120337
O O3 0.681432 0.539192 0.282914
O O4 0.750000 0.523824 0.000000
O O5 0.750000 0.250000 0.688414
O O6 0.888674 0.250000 0.500000
O O7 0.894750 0.298144 0.765546
O O8 0.882686 0.205115 0.763987
O O9 0.537785 0.533387 0.825944
O O10 0.623168 0.540860 0.565487
O O11 0.536784 0.462792 0.647505
O O12 0.934666 0.390092 0.802967
O O13 0.983838 0.425813 0.080946
O O14 0.263655 0.852357 0.245575
O O15 0.351202 0.849361 0.986233
O O16 0.595896 0.119915 0.292212
O O17 0.250000 0.405028 0.500000
O O18 0.422054 0.397395 0.650251
#
# Coordination Sequence:
#
# PCOD9397424 Si02
#       8
#     8   8   8   8   8   8   8   8
#     4  11  20  34  52  70  98 134 176 216 262 304
#     4   9  17  31  46  68 101 135 167 203 249 301
#     4  11  21  34  50  70 103 135 173 215 258 309
#     4  11  21  32  53  77  99 138 178 221 257 299
#     4   9  18  31  48  73 102 131 174 209 254 302
#     4   9  18  30  51  71  96 137 172 214 251 299
#     4  10  23  36  48  69  99 142 173 212 268 309
#     4  11  19  33  50  72  99 131 178 215 254 304
#
# _framework density 17.426109
#
# number of rings (size 3 to 8) (size 9 to 14) (size 15 to 20)
#    0.000    1.875    2.500    2.625    1.750    2.500 
#    0.000    0.000    0.000    0.000    0.000    0.000 
#    0.000   11.500    0.000   35.625    0.000    0.250 
#
# Total GULP energy -356432.692554 kJ/mol
# GULP energy per Si atom -5569.260821 kJ/mol
# Density = 1.738645 g / cm^3
# Si number density = 17.426109 Si / 1000 Ang^3
#
#
#
# Elastic Constant Matrix: (Units=GPa)
#
#
# Indices 1 2 3 4 5 6 
#
# 1 81.7859 21.6555 25.5941 0.0000 0.0000 0.0000
# 2 21.6555 67.7708 -0.7556 0.0000 0.0000 0.0000
# 3 25.5941 -0.7556 31.5647 0.0000 0.0000 0.0000
# 4 0.0000 0.0000 0.0000 6.8191 0.0000 0.0000
# 5 0.0000 0.0000 0.0000 0.0000 28.6733 0.0000
# 6 0.0000 0.0000 0.0000 0.0000 0.0000 16.8686
#
#
#
# Elastic Compliance Matrix: (Units=1/GPa)
#
#
# Indices 1 2 3 4 5 6 
#
# 1 0.018617 -0.006119 -0.015242 0.000000 0.000000 0.000000
# 2 -0.006119 0.016771 0.005363 0.000000 0.000000 0.000000
# 3 -0.015242 0.005363 0.044168 0.000000 0.000000 0.000000
# 4 0.000000 0.000000 0.000000 0.146647 0.000000 0.000000
# 5 0.000000 0.000000 0.000000 0.000000 0.034876 0.000000
# 6 0.000000 0.000000 0.000000 0.000000 0.000000 0.059282
#
#
# Mechanical properties :
#
#
# Convention : Reuss Voigt Hill
#
# Bulk Modulus (GPa) = 21.02611 30.45663 25.74137
# Shear Modulus (GPa) = 13.57924 19.44737 16.51330
#
# Velocity S-wave (km/s) = 2.79453 3.34427 3.08168
# Velocity P-wave (km/s) = 4.74390 5.69453 5.24081
#
# Compressibility (1/GPa) = 0.04755992
#
# Stress axis : x y z
#
# Youngs Moduli (GPa) = 53.71423 59.62808 22.64072
#
# Poissons Ratio (x) = 0.36485 0.34509
# Poissons Ratio (y) = 0.32867 -0.12142
# Poissons Ratio (z) = 0.81871 -0.31978
#
# Static dielectric constant tensor:
#      x y z
#    x 1.653480 0.000000 0.000000 
#    y 0.000000 1.590080 0.000000 
#    z 0.000000 0.000000 1.637280 
# 
# From -- ./inp_files/13559.got.cif
#   From: 2010.05.17/outbox.cif.g08.bks.cpg/sg50_7_cif.got.tgz:13559.got - 2010.06.03 11:33:33.
