data_PCOD9397132
_publ_section_title
;
Structure prediction by ZEFSAII (Michael W. Deem and Ramdas Pophale) SiO2 
 PCOD9397132
Probable space group: P B A N
;
_chemical_formula_sum "Si O2"
_cell_formula_units_Z 64
_cell_length_a 18.940691
_cell_length_b 11.082831
_cell_length_c 14.891099
_cell_angle_alpha 90.000000
_cell_angle_beta 90.000000
_cell_angle_gamma 90.000000
_cell_volume 3125.887046
_symmetry_space_group_name_H-M "P B A N"
_symmetry_group_IT_number 50
_space_group.IT_coordinate_system_code '2'
_symmetry_cell_setting 'orthorhombic'
loop_
_space_group_symop_operation_xyz
x,y,z
1/2-x,1/2-y,z
x,1/2-y,-z
1/2-x,y,-z
-x,-y,-z
1/2+x,1/2+y,-z
-x,1/2+y,z
1/2+x,-y,z
loop_
_atom_site_type_symbol
_atom_site_label
_atom_site_fract_x
_atom_site_fract_y
_atom_site_fract_z
Si Si1 0.594483 0.390180 0.793440
Si Si2 0.271801 0.885710 0.896842
Si Si3 0.548569 0.744362 0.394993
Si Si4 0.833655 0.386428 0.513264
Si Si5 0.721310 0.881295 0.783593
Si Si6 0.908712 0.153135 0.311201
Si Si7 0.939024 0.919103 0.238750
Si Si8 0.157327 0.066719 0.348476
O O1 0.644272 0.392728 0.879452
O O2 0.618025 0.277752 0.730422
O O3 0.510871 0.381316 0.810311
O O4 0.613432 0.506104 0.732783
O O5 0.250000 0.750000 0.865574
O O6 0.239102 0.999467 0.842882
O O7 0.250000 0.895548 0.000000
O O8 0.541261 0.750000 0.500000
O O9 0.483453 0.819976 0.356581
O O10 0.544972 0.617923 0.342794
O O11 0.622239 0.806768 0.371442
O O12 0.862545 0.250000 0.500000
O O13 0.750000 0.380669 0.500000
O O14 0.856894 0.407397 0.615851
O O15 0.854229 0.481854 0.436296
O O16 0.750000 0.750000 0.814010
O O17 0.636916 0.864855 0.782967
O O18 0.763638 0.911780 0.689993
O O19 0.925463 0.060542 0.232465
#
# Coordination Sequence:
#
# PCOD9397132 Si02
#       8
#     8   8   8   8   8   8   8   8
#     4  10  22  38  64  91 123 161 208 260 321 389
#     4  10  23  45  73 104 131 160 198 258 335 410
#     4  11  23  34  54  81 120 172 223 278 327 366
#     4  11  22  33  50  79 116 161 224 279 321 363
#     4  11  23  42  68  94 133 173 219 266 329 407
#     4  11  21  36  57  83 121 169 223 275 323 376
#     4  11  22  38  59  90 121 171 218 264 318 381
#     4  11  21  40  54  82 120 169 218 276 317 373
#
# _framework density 20.474188000000002
#
# number of rings (size 3 to 8) (size 9 to 14) (size 15 to 20)
#    0.000    1.250    3.750    2.625    1.750    2.250 
#    0.000    1.250    0.000    1.500    0.000    0.000 
#    0.000    0.000    0.000    0.000    0.000    0.000 
#
# Total GULP energy -356814.528128 kJ/mol
# GULP energy per Si atom -5575.227002 kJ/mol
# Density = 2.042759 g / cm^3
# Si number density = 20.474188 Si / 1000 Ang^3
#
#
#
# Elastic Constant Matrix: (Units=GPa)
#
#
# Indices 1 2 3 4 5 6 
#
# 1 143.1397 4.4033 35.1972 0.0000 0.0000 0.0000
# 2 4.4033 79.7598 8.3696 0.0000 0.0000 0.0000
# 3 35.1972 8.3696 56.7813 0.0000 0.0000 0.0000
# 4 0.0000 0.0000 0.0000 21.8767 0.0000 0.0000
# 5 0.0000 0.0000 0.0000 0.0000 9.2300 0.0000
# 6 0.0000 0.0000 0.0000 0.0000 0.0000 27.3154
#
#
#
# Elastic Compliance Matrix: (Units=1/GPa)
#
#
# Indices 1 2 3 4 5 6 
#
# 1 0.008243 0.000082 -0.005122 0.000000 0.000000 0.000000
# 2 0.000082 0.012735 -0.001928 0.000000 0.000000 0.000000
# 3 -0.005122 -0.001928 0.021071 0.000000 0.000000 0.000000
# 4 0.000000 0.000000 0.000000 0.045711 0.000000 0.000000
# 5 0.000000 0.000000 0.000000 0.000000 0.108343 0.000000
# 6 0.000000 0.000000 0.000000 0.000000 0.000000 0.036609
#
#
# Mechanical properties :
#
#
# Convention : Reuss Voigt Hill
#
# Bulk Modulus (GPa) = 35.56992 41.73567 38.65279
# Shear Modulus (GPa) = 19.52985 27.13180 23.33083
#
# Velocity S-wave (km/s) = 3.09184 3.64424 3.37935
# Velocity P-wave (km/s) = 5.49152 6.17544 5.84349
#
# Compressibility (1/GPa) = 0.02811364
#
# Stress axis : x y z
#
# Youngs Moduli (GPa) = 121.31396 78.52108 47.45965
#
# Poissons Ratio (x) = -0.00647 0.24308
# Poissons Ratio (y) = -0.00999 0.09152
# Poissons Ratio (z) = 0.62135 0.15141
#
# Static dielectric constant tensor:
#      x y z
#    x 1.781770 0.000000 0.000000 
#    y 0.000000 1.779840 0.000000 
#    z 0.000000 0.000000 1.734320 
# 
# From -- ./inp_files/27009.got.cif
#   From: 2010.05.17/outbox.cif.g08.bks.cpg/sg50_14_cif.got.tgz:27009.got - 2010.06.03 11:33:33.
