data_PCOD9397674
_publ_section_title
;
Structure prediction by ZEFSAII (Michael W. Deem and Ramdas Pophale) SiO2 
 PCOD9397674
Probable space group: P B A N
;
_chemical_formula_sum "Si O2"
_cell_formula_units_Z 40
_cell_length_a 13.652957
_cell_length_b 8.453980
_cell_length_c 15.501364
_cell_angle_alpha 90.000000
_cell_angle_beta 90.000000
_cell_angle_gamma 90.000000
_cell_volume 1789.195729
_symmetry_space_group_name_H-M "P B A N"
_symmetry_group_IT_number 50
_space_group.IT_coordinate_system_code '2'
_symmetry_cell_setting 'orthorhombic'
loop_
_space_group_symop_operation_xyz
x,y,z
1/2-x,1/2-y,z
x,1/2-y,-z
1/2-x,y,-z
-x,-y,-z
1/2+x,1/2+y,-z
-x,1/2+y,z
1/2+x,-y,z
loop_
_atom_site_type_symbol
_atom_site_label
_atom_site_fract_x
_atom_site_fract_y
_atom_site_fract_z
Si Si1 0.090437 0.844970 0.284197
Si Si2 0.413514 0.468482 0.112816
Si Si3 0.250000 0.250000 0.814800
Si Si4 0.937989 0.889213 0.438357
Si Si5 0.193936 0.975074 0.696965
Si Si6 0.942360 0.250000 0.000000
O O1 0.130917 0.669293 0.263534
O O2 0.191852 0.930674 0.311809
O O3 0.010051 0.836522 0.359692
O O4 0.054104 0.947452 0.202457
O O5 0.321003 0.359418 0.130911
O O6 0.385904 0.616933 0.052833
O O7 0.491537 0.355039 0.065772
O O8 0.311451 0.368570 0.754897
O O9 0.902500 0.750000 0.500000
O O10 0.850941 0.984940 0.394973
O O11 0.000000 0.000000 0.500000
#
# Coordination Sequence:
#
# PCOD9397674 Si02
#       6
#     8   8   4   8   8   4
#     4  10  24  46  70  98 138 193 229 284 353 426
#     4  10  24  44  70 102 143 182 231 283 357 421
#     4  10  24  45  71 100 138 190 230 278 347 433
#     4  12  26  43  66 105 134 181 237 291 349 410
#     4  10  24  45  67 100 137 183 237 281 346 410
#     4  10  24  43  72 113 136 180 228 302 348 410
#
# _framework density 22.356414999999998
#
# number of rings (size 3 to 8) (size 9 to 14) (size 15 to 20)
#    0.000    1.600    2.000    0.000   11.200    2.800 
#    0.000    6.000    0.000    0.000    0.000    0.000 
#    0.000    0.000    0.000    0.000    0.000    0.000 
#
# Total GULP energy -223701.880590 kJ/mol
# GULP energy per Si atom -5592.547015 kJ/mol
# Density = 2.230553 g / cm^3
# Si number density = 22.356415 Si / 1000 Ang^3
#
#
#
# Elastic Constant Matrix: (Units=GPa)
#
#
# Indices 1 2 3 4 5 6 
#
# 1 55.6718 35.2498 45.9842 0.0000 0.0000 0.0000
# 2 35.2498 157.3179 63.7180 0.0000 0.0000 0.0000
# 3 45.9842 63.7180 115.1695 0.0000 0.0000 0.0000
# 4 0.0000 0.0000 0.0000 60.1413 0.0000 0.0000
# 5 0.0000 0.0000 0.0000 0.0000 32.2559 0.0000
# 6 0.0000 0.0000 0.0000 0.0000 0.0000 22.0049
#
#
#
# Elastic Compliance Matrix: (Units=1/GPa)
#
#
# Indices 1 2 3 4 5 6 
#
# 1 0.027380 -0.002200 -0.009715 0.000000 0.000000 0.000000
# 2 -0.002200 0.008369 -0.003752 0.000000 0.000000 0.000000
# 3 -0.009715 -0.003752 0.014637 0.000000 0.000000 0.000000
# 4 0.000000 0.000000 0.000000 0.016628 0.000000 0.000000
# 5 0.000000 0.000000 0.000000 0.000000 0.031002 0.000000
# 6 0.000000 0.000000 0.000000 0.000000 0.000000 0.045444
#
#
# Mechanical properties :
#
#
# Convention : Reuss Voigt Hill
#
# Bulk Modulus (GPa) = 52.48560 68.67370 60.57965
# Shear Modulus (GPa) = 27.60221 35.09421 31.34821
#
# Velocity S-wave (km/s) = 3.51756 3.96632 3.74866
# Velocity P-wave (km/s) = 6.32656 7.19444 6.77441
#
# Compressibility (1/GPa) = 0.01905284
#
# Stress axis : x y z
#
# Youngs Moduli (GPa) = 36.52324 119.48698 68.31805
#
# Poissons Ratio (x) = 0.26289 0.66370
# Poissons Ratio (y) = 0.08036 0.25631
# Poissons Ratio (z) = 0.35482 0.44829
#
# Static dielectric constant tensor:
#      x y z
#    x 1.812110 0.000000 0.000000 
#    y 0.000000 1.886390 0.000000 
#    z 0.000000 0.000000 1.847740 
# 
# From -- ./inp_files/26326.got.cif
#   From: 2010.05.17/outbox.cif.g08.bks.cpg/sg50_14_cif.got.tgz:26326.got - 2010.06.03 11:33:33.
