data_PCOD9397173
_publ_section_title
;
Structure prediction by ZEFSAII (Michael W. Deem and Ramdas Pophale) SiO2 
 PCOD9397173
Probable space group: P B A N
;
_chemical_formula_sum "Si O2"
_cell_formula_units_Z 60
_cell_length_a 26.417487
_cell_length_b 5.224972
_cell_length_c 20.178812
_cell_angle_alpha 90.000000
_cell_angle_beta 90.000000
_cell_angle_gamma 90.000000
_cell_volume 2785.294131
_symmetry_space_group_name_H-M "P B A N"
_symmetry_group_IT_number 50
_space_group.IT_coordinate_system_code '2'
_symmetry_cell_setting 'orthorhombic'
loop_
_space_group_symop_operation_xyz
x,y,z
1/2-x,1/2-y,z
x,1/2-y,-z
1/2-x,y,-z
-x,-y,-z
1/2+x,1/2+y,-z
-x,1/2+y,z
1/2+x,-y,z
loop_
_atom_site_type_symbol
_atom_site_label
_atom_site_fract_x
_atom_site_fract_y
_atom_site_fract_z
Si Si1 0.190984 0.172029 0.790156
Si Si2 0.362388 0.250000 0.000000
Si Si3 0.191291 0.183500 0.632905
Si Si4 0.967038 0.271078 0.649419
Si Si5 0.139419 0.809625 0.422330
Si Si6 0.694389 0.350484 0.088549
Si Si7 0.385686 0.480162 0.119701
Si Si8 0.030318 0.708775 0.193828
O O1 0.250000 0.250000 0.801271
O O2 0.182070 0.171310 0.712033
O O3 0.147657 0.346189 0.823458
O O4 0.187948 0.913248 0.833065
O O5 0.321924 0.410033 0.954373
O O6 0.402917 0.206921 0.938473
O O7 0.250000 0.250000 0.622213
O O8 0.158817 0.407399 0.597686
O O9 0.177341 0.904620 0.606180
O O10 0.915240 0.235797 0.610374
O O11 0.956199 0.265596 0.728346
O O12 0.994716 0.538374 0.634597
O O13 0.136246 0.750000 0.500000
O O14 0.750000 0.250000 0.076659
O O15 0.654225 0.132589 0.074067
O O16 0.425233 0.675315 0.150056
O O17 0.015586 0.412904 0.182908
#
# Coordination Sequence:
#
# PCOD9397173 Si02
#       8
#     8   4   8   8   8   8   8   8
#     4  10  22  39  62  99 128 164 224 276 340 389
#     4  10  26  41  58  96 130 180 224 258 335 404
#     4  11  26  43  68  98 140 186 232 285 329 391
#     4  10  22  42  68 101 133 168 218 285 354 410
#     4  12  26  44  68 101 138 186 232 270 336 414
#     4  11  23  40  65  93 135 176 219 273 333 409
#     4  11  23  41  65  90 131 173 216 276 330 398
#     4  10  24  43  68  97 126 166 223 281 340 392
#
# _framework density 21.541709000000001
#
# number of rings (size 3 to 8) (size 9 to 14) (size 15 to 20)
#    0.000    1.333    1.333    2.800    7.467    4.800 
#    0.000    0.667    0.000    0.000    0.000    0.000 
#    0.000    0.000    0.000    0.000    0.000    0.000 
#
# Total GULP energy -334885.466584 kJ/mol
# GULP energy per Si atom -5581.424443 kJ/mol
# Density = 2.149268 g / cm^3
# Si number density = 21.541709 Si / 1000 Ang^3
#
#
#
# Elastic Constant Matrix: (Units=GPa)
#
#
# Indices 1 2 3 4 5 6 
#
# 1 39.8722 -22.5101 24.0479 0.0000 0.0000 0.0000
# 2 -22.5101 40.9663 -10.8854 0.0000 0.0000 0.0000
# 3 24.0479 -10.8854 82.7319 0.0000 0.0000 0.0000
# 4 0.0000 0.0000 0.0000 39.4176 0.0000 0.0000
# 5 0.0000 0.0000 0.0000 0.0000 21.5025 0.0000
# 6 0.0000 0.0000 0.0000 0.0000 0.0000 -1.9633
#
#
#
# Elastic Compliance Matrix: (Units=1/GPa)
#
#
# Indices 1 2 3 4 5 6 
#
# 1 0.042707 0.020899 -0.009664 0.000000 0.000000 0.000000
# 2 0.020899 0.035522 -0.001401 0.000000 0.000000 0.000000
# 3 -0.009664 -0.001401 0.014712 0.000000 0.000000 0.000000
# 4 0.000000 0.000000 0.000000 0.025369 0.000000 0.000000
# 5 0.000000 0.000000 0.000000 0.000000 0.046506 0.000000
# 6 0.000000 0.000000 0.000000 0.000000 0.000000 -0.509339
#
#
# Mechanical properties :
#
#
# Convention : Reuss Voigt Hill
#
# Bulk Modulus (GPa) = 8.88031 16.09723 12.48877
# Shear Modulus (GPa) = -15.30671 23.31923 4.00626
#
# Velocity S-wave (km/s) = -2.66853 3.29373 1.36521
# Velocity P-wave (km/s) = 2.31590 4.68548 2.88013
#
# Compressibility (1/GPa) = 0.11260872
#
# Stress axis : x y z
#
# Youngs Moduli (GPa) = 23.41510 28.15189 67.97177
#
# Poissons Ratio (x) = -0.58835 0.65689
# Poissons Ratio (y) = -0.48935 0.09523
# Poissons Ratio (z) = 0.22629 0.03944
#
# Static dielectric constant tensor:
#      x y z
#    x 1.798360 0.000000 0.000000 
#    y 0.000000 1.703910 0.000000 
#    z 0.000000 0.000000 1.893430 
# 
# From -- ./inp_files/31262.got.cif
#   From: 2010.05.17/outbox.cif.g08.bks.cpg/sg50_16_cif.got.tgz:31262.got - 2010.06.03 11:33:33.
