data_PCOD9397698
_publ_section_title
;
Structure prediction by ZEFSAII (Michael W. Deem and Ramdas Pophale) SiO2 
 PCOD9397698
Probable space group: P B A N
;
_chemical_formula_sum "Si O2"
_cell_formula_units_Z 38
_cell_length_a 17.088160
_cell_length_b 18.061692
_cell_length_c 4.881750
_cell_angle_alpha 90.000000
_cell_angle_beta 90.000000
_cell_angle_gamma 90.000000
_cell_volume 1506.708606
_symmetry_space_group_name_H-M "P B A N"
_symmetry_group_IT_number 50
_space_group.IT_coordinate_system_code '2'
_symmetry_cell_setting 'orthorhombic'
loop_
_space_group_symop_operation_xyz
x,y,z
1/2-x,1/2-y,z
x,1/2-y,-z
1/2-x,y,-z
-x,-y,-z
1/2+x,1/2+y,-z
-x,1/2+y,z
1/2+x,-y,z
loop_
_atom_site_type_symbol
_atom_site_label
_atom_site_fract_x
_atom_site_fract_y
_atom_site_fract_z
Si Si1 0.250000 0.096349 0.000000
Si Si2 0.141705 0.621224 0.811158
Si Si3 0.907505 0.664949 0.016937
Si Si4 0.975755 0.591272 0.529493
Si Si5 0.250000 0.750000 0.000000
Si Si6 0.153229 0.977777 0.662512
O O1 0.180412 0.146919 0.115384
O O2 0.294006 0.041666 0.209835
O O3 0.192205 0.696117 0.826604
O O4 0.179914 0.558784 0.619889
O O5 0.056206 0.621013 0.670323
O O6 0.142652 0.586695 0.113479
O O7 0.962531 0.615137 0.214794
O O8 0.929143 0.750000 0.000000
O O9 0.914996 0.641222 0.703123
O O10 0.934101 0.511647 0.601527
#
# Coordination Sequence:
#
# PCOD9397698 Si02
#       6
#     4   8   8   8   2   8
#     4  10  24  44  74 112 150 184 244 302 374 450
#     4  12  27  50  74 107 150 190 262 309 379 460
#     4  11  24  43  70 110 150 197 231 295 375 448
#     4  11  24  45  76 108 144 194 256 310 371 437
#     4  12  34  50  76 112 152 220 242 318 404 456
#     4  11  24  46  78 109 144 195 247 325 374 431
#
# _framework density 25.220535999999999
#
# number of rings (size 3 to 8) (size 9 to 14) (size 15 to 20)
#    0.000    0.842    0.000    6.632    1.474   13.474 
#    3.789    4.211    4.632    0.000    0.000    0.000 
#    0.000    0.000    0.000    0.000    0.000    0.000 
#
# Total GULP energy -212304.192075 kJ/mol
# GULP energy per Si atom -5586.952423 kJ/mol
# Density = 2.516313 g / cm^3
# Si number density = 25.220536 Si / 1000 Ang^3
#
#
#
# Elastic Constant Matrix: (Units=GPa)
#
#
# Indices 1 2 3 4 5 6 
#
# 1 114.0677 20.5587 0.3204 0.0000 0.0000 0.0000
# 2 20.5587 88.0286 7.8408 0.0000 0.0000 0.0000
# 3 0.3204 7.8408 99.9588 0.0000 0.0000 0.0000
# 4 0.0000 0.0000 0.0000 22.1471 0.0000 0.0000
# 5 0.0000 0.0000 0.0000 0.0000 51.6419 0.0000
# 6 0.0000 0.0000 0.0000 0.0000 0.0000 46.7277
#
#
#
# Elastic Compliance Matrix: (Units=1/GPa)
#
#
# Indices 1 2 3 4 5 6 
#
# 1 0.009154 -0.002150 0.000139 0.000000 0.000000 0.000000
# 2 -0.002150 0.011945 -0.000930 0.000000 0.000000 0.000000
# 3 0.000139 -0.000930 0.010077 0.000000 0.000000 0.000000
# 4 0.000000 0.000000 0.000000 0.045153 0.000000 0.000000
# 5 0.000000 0.000000 0.000000 0.000000 0.019364 0.000000
# 6 0.000000 0.000000 0.000000 0.000000 0.000000 0.021401
#
#
# Mechanical properties :
#
#
# Convention : Reuss Voigt Hill
#
# Bulk Modulus (GPa) = 39.53592 39.94389 39.73990
# Shear Modulus (GPa) = 38.05002 42.32570 40.18786
#
# Velocity S-wave (km/s) = 3.88840 4.10106 3.99614
# Velocity P-wave (km/s) = 5.98913 6.18847 6.08961
#
# Compressibility (1/GPa) = 0.02529346
#
# Stress axis : x y z
#
# Youngs Moduli (GPa) = 109.24329 83.71726 99.23950
#
# Poissons Ratio (x) = 0.18001 -0.01383
# Poissons Ratio (y) = 0.23490 0.09230
# Poissons Ratio (z) = -0.01522 0.07786
#
# Static dielectric constant tensor:
#      x y z
#    x 2.180050 0.000000 0.000000 
#    y 0.000000 2.090090 0.000000 
#    z 0.000000 0.000000 1.932950 
# 
# From -- ./inp_files/4226.got.cif
#   From: 2010.05.17/outbox.cif.g08.bks.cpg/sg50_3_cif.got.tgz:4226.got - 2010.06.03 11:33:33.
