data_PCOD9397439
_publ_section_title
;
Structure prediction by ZEFSAII (Michael W. Deem and Ramdas Pophale) SiO2 
 PCOD9397439
Probable space group: P B A N
;
_chemical_formula_sum "Si O2"
_cell_formula_units_Z 48
_cell_length_a 14.981995
_cell_length_b 6.885386
_cell_length_c 17.571261
_cell_angle_alpha 90.000000
_cell_angle_beta 90.000000
_cell_angle_gamma 90.000000
_cell_volume 1812.595384
_symmetry_space_group_name_H-M "P B A N"
_symmetry_group_IT_number 50
_space_group.IT_coordinate_system_code '2'
_symmetry_cell_setting 'orthorhombic'
loop_
_space_group_symop_operation_xyz
x,y,z
1/2-x,1/2-y,z
x,1/2-y,-z
1/2-x,y,-z
-x,-y,-z
1/2+x,1/2+y,-z
-x,1/2+y,z
1/2+x,-y,z
loop_
_atom_site_type_symbol
_atom_site_label
_atom_site_fract_x
_atom_site_fract_y
_atom_site_fract_z
Si Si1 0.247275 0.518558 0.881343
Si Si2 0.893780 0.021876 0.997208
Si Si3 0.346053 0.503595 0.735528
Si Si4 0.528981 0.010792 0.411083
Si Si5 0.237601 0.480897 0.586007
Si Si6 0.501978 0.757188 0.293973
O O1 0.250000 0.750000 0.885726
O O2 0.155066 0.455616 0.919966
O O3 0.266874 0.478369 0.794118
O O4 0.331573 0.449875 0.933172
O O5 0.881708 0.250000 0.000000
O O6 0.000000 0.000000 0.000000
O O7 0.307338 0.545642 0.650624
O O8 0.411223 0.688701 0.752937
O O9 0.401584 0.301577 0.739333
O O10 0.635038 0.026030 0.403555
O O11 0.512294 0.006467 0.313645
O O12 0.500000 0.000000 0.500000
O O13 0.495273 0.256154 0.393020
O O14 0.250000 0.250000 0.586883
O O15 0.250000 0.547075 0.500000
#
# Coordination Sequence:
#
# PCOD9397439 Si02
#       6
#     8   8   8   8   8   8
#     4   9  21  40  68  97 137 177 219 275 333 412
#     4   9  19  42  70 101 133 175 221 268 334 408
#     4  11  23  42  63  95 132 174 223 282 343 403
#     4  11  22  39  62  86 119 168 224 282 339 397
#     4  11  23  39  61  87 125 172 223 287 344 392
#     4  10  23  39  59  89 126 166 222 276 334 408
#
# _framework density 26.481366000000001
#
# number of rings (size 3 to 8) (size 9 to 14) (size 15 to 20)
#    0.000    1.833    1.667    3.500    4.667    2.667 
#    3.000    4.167    0.000    0.000    0.000    0.000 
#    0.000    0.000    0.000    0.000    0.000    0.000 
#
# Total GULP energy -267543.111199 kJ/mol
# GULP energy per Si atom -5573.814817 kJ/mol
# Density = 2.642109 g / cm^3
# Si number density = 26.481366 Si / 1000 Ang^3
#
#
#
# Elastic Constant Matrix: (Units=GPa)
#
#
# Indices 1 2 3 4 5 6 
#
# 1 174.1946 37.3957 51.1560 0.0000 0.0000 0.0000
# 2 37.3957 205.1273 25.4615 0.0000 0.0000 0.0000
# 3 51.1560 25.4615 106.7727 0.0000 0.0000 0.0000
# 4 0.0000 0.0000 0.0000 139.4727 0.0000 0.0000
# 5 0.0000 0.0000 0.0000 0.0000 36.5731 0.0000
# 6 0.0000 0.0000 0.0000 0.0000 0.0000 20.2432
#
#
#
# Elastic Compliance Matrix: (Units=1/GPa)
#
#
# Indices 1 2 3 4 5 6 
#
# 1 0.006826 -0.000864 -0.003064 0.000000 0.000000 0.000000
# 2 -0.000864 0.005133 -0.000810 0.000000 0.000000 0.000000
# 3 -0.003064 -0.000810 0.011027 0.000000 0.000000 0.000000
# 4 0.000000 0.000000 0.000000 0.007170 0.000000 0.000000
# 5 0.000000 0.000000 0.000000 0.000000 0.027342 0.000000
# 6 0.000000 0.000000 0.000000 0.000000 0.000000 0.049399
#
#
# Mechanical properties :
#
#
# Convention : Reuss Voigt Hill
#
# Bulk Modulus (GPa) = 74.02386 79.34678 76.68532
# Shear Modulus (GPa) = 41.36401 64.06325 52.71363
#
# Velocity S-wave (km/s) = 3.95651 4.92385 4.46645
# Velocity P-wave (km/s) = 6.99184 7.89646 7.45788
#
# Compressibility (1/GPa) = 0.01350916
#
# Stress axis : x y z
#
# Youngs Moduli (GPa) = 146.49577 194.81424 90.68593
#
# Poissons Ratio (x) = 0.16833 0.27790
# Poissons Ratio (y) = 0.12658 0.07346
# Poissons Ratio (z) = 0.44893 0.15781
#
# Static dielectric constant tensor:
#      x y z
#    x 2.035030 0.000000 0.000000 
#    y 0.000000 2.437780 0.000000 
#    z 0.000000 0.000000 2.235120 
# 
# From -- ./inp_files/29460.got.cif
#   From: 2010.05.17/outbox.cif.g08.bks.cpg/sg50_15_cif.got.tgz:29460.got - 2010.06.03 11:33:33.
