data_PCOD9397330
_publ_section_title
;
Structure prediction by ZEFSAII (Michael W. Deem and Ramdas Pophale) SiO2 
 PCOD9397330
Probable space group: P B A N
;
_chemical_formula_sum "Si O2"
_cell_formula_units_Z 52
_cell_length_a 7.951483
_cell_length_b 18.200543
_cell_length_c 16.820383
_cell_angle_alpha 90.000000
_cell_angle_beta 90.000000
_cell_angle_gamma 90.000000
_cell_volume 2434.267833
_symmetry_space_group_name_H-M "P B A N"
_symmetry_group_IT_number 50
_space_group.IT_coordinate_system_code '2'
_symmetry_cell_setting 'orthorhombic'
loop_
_space_group_symop_operation_xyz
x,y,z
1/2-x,1/2-y,z
x,1/2-y,-z
1/2-x,y,-z
-x,-y,-z
1/2+x,1/2+y,-z
-x,1/2+y,z
1/2+x,-y,z
loop_
_atom_site_type_symbol
_atom_site_label
_atom_site_fract_x
_atom_site_fract_y
_atom_site_fract_z
Si Si1 0.944575 0.244450 0.169315
Si Si2 0.375872 0.961011 0.438990
Si Si3 0.254575 0.477276 0.826966
Si Si4 0.250000 0.250000 0.705624
Si Si5 0.080790 0.375578 0.953792
Si Si6 0.677668 0.588257 0.657103
Si Si7 0.578394 0.405647 0.888854
O O1 0.750000 0.250000 0.197966
O O2 0.959744 0.321568 0.125421
O O3 0.084471 0.242676 0.238390
O O4 0.991699 0.184150 0.102459
O O5 0.250000 0.920039 0.500000
O O6 0.489159 0.913781 0.378965
O O7 0.500000 0.000000 0.500000
O O8 0.284345 0.027892 0.392668
O O9 0.155909 0.438763 0.898614
O O10 0.182900 0.445871 0.745281
O O11 0.442501 0.449313 0.836520
O O12 0.245633 0.563238 0.848115
O O13 0.249593 0.171538 0.659187
O O14 0.250000 0.346729 0.000000
O O15 0.954364 0.411435 0.017645
#
# Coordination Sequence:
#
# PCOD9397330 Si02
#       7
#     8   8   8   4   8   8   8
#     4  12  26  45  67  92 139 184 253 298 362 428
#     4   9  21  43  71 108 138 178 222 268 342 439
#     4  11  22  38  62  96 130 176 228 291 353 406
#     4  12  24  48  68 114 142 190 234 304 358 420
#     4  10  22  43  63  85 132 186 236 303 357 411
#     4  11  21  41  76 102 147 184 228 288 355 425
#     4  11  24  39  60  92 130 181 242 295 352 409
#
# _framework density 21.361659
#
# number of rings (size 3 to 8) (size 9 to 14) (size 15 to 20)
#    0.000    1.231    3.077    2.769    2.154    4.308 
#    2.769    3.462    0.000    2.769    0.000    0.000 
#    0.000    0.000    0.000    0.000    0.000    0.000 
#
# Total GULP energy -290163.686285 kJ/mol
# GULP energy per Si atom -5580.070890 kJ/mol
# Density = 2.131304 g / cm^3
# Si number density = 21.361659 Si / 1000 Ang^3
#
#
#
# Elastic Constant Matrix: (Units=GPa)
#
#
# Indices 1 2 3 4 5 6 
#
# 1 114.8911 21.2410 36.8002 0.0000 0.0000 0.0000
# 2 21.2410 115.8404 31.8466 0.0000 0.0000 0.0000
# 3 36.8002 31.8466 85.4178 0.0000 0.0000 0.0000
# 4 0.0000 0.0000 0.0000 12.1260 0.0000 0.0000
# 5 0.0000 0.0000 0.0000 0.0000 29.0876 0.0000
# 6 0.0000 0.0000 0.0000 0.0000 0.0000 33.3355
#
#
#
# Elastic Compliance Matrix: (Units=1/GPa)
#
#
# Indices 1 2 3 4 5 6 
#
# 1 0.010153 -0.000734 -0.004100 0.000000 0.000000 0.000000
# 2 -0.000734 0.009672 -0.003289 0.000000 0.000000 0.000000
# 3 -0.004100 -0.003289 0.014700 0.000000 0.000000 0.000000
# 4 0.000000 0.000000 0.000000 0.082467 0.000000 0.000000
# 5 0.000000 0.000000 0.000000 0.000000 0.034379 0.000000
# 6 0.000000 0.000000 0.000000 0.000000 0.000000 0.029998
#
#
# Mechanical properties :
#
#
# Convention : Reuss Voigt Hill
#
# Bulk Modulus (GPa) = 54.71601 55.10278 54.90940
# Shear Modulus (GPa) = 24.54475 29.99392 27.26933
#
# Velocity S-wave (km/s) = 3.39338 3.75120 3.57677
# Velocity P-wave (km/s) = 6.40493 6.67931 6.54356
#
# Compressibility (1/GPa) = 0.01827619
#
# Stress axis : x y z
#
# Youngs Moduli (GPa) = 98.49262 103.39583 68.02666
#
# Poissons Ratio (x) = 0.07594 0.27893
# Poissons Ratio (y) = 0.07234 0.22377
# Poissons Ratio (z) = 0.40386 0.34012
#
# Static dielectric constant tensor:
#      x y z
#    x 1.764670 0.000000 0.000000 
#    y 0.000000 1.832760 0.000000 
#    z 0.000000 0.000000 1.394110 
# 
# From -- ./inp_files/28848.got.cif
#   From: 2010.05.17/outbox.cif.g08.bks.cpg/sg50_15_cif.got.tgz:28848.got - 2010.06.03 11:33:33.
