data_PCOD9397506
_publ_section_title
;
Structure prediction by ZEFSAII (Michael W. Deem and Ramdas Pophale) SiO2 
 PCOD9397506
Probable space group: P B A N
;
_chemical_formula_sum "Si O2"
_cell_formula_units_Z 52
_cell_length_a 8.600184
_cell_length_b 18.076788
_cell_length_c 15.177885
_cell_angle_alpha 90.000000
_cell_angle_beta 90.000000
_cell_angle_gamma 90.000000
_cell_volume 2359.610205
_symmetry_space_group_name_H-M "P B A N"
_symmetry_group_IT_number 50
_space_group.IT_coordinate_system_code '2'
_symmetry_cell_setting 'orthorhombic'
loop_
_space_group_symop_operation_xyz
x,y,z
1/2-x,1/2-y,z
x,1/2-y,-z
1/2-x,y,-z
-x,-y,-z
1/2+x,1/2+y,-z
-x,1/2+y,z
1/2+x,-y,z
loop_
_atom_site_type_symbol
_atom_site_label
_atom_site_fract_x
_atom_site_fract_y
_atom_site_fract_z
Si Si1 0.915037 0.264382 0.226106
Si Si2 0.374409 0.961242 0.436770
Si Si3 0.231975 0.439164 0.859075
Si Si4 0.250000 0.250000 0.674648
Si Si5 0.011100 0.320912 0.946038
Si Si6 0.669863 0.590123 0.653850
Si Si7 0.586758 0.405010 0.890238
O O1 0.750000 0.250000 0.274872
O O2 0.895630 0.346747 0.188416
O O3 0.085130 0.256804 0.271646
O O4 0.925646 0.210641 0.140404
O O5 0.250000 0.919908 0.500000
O O6 0.487219 0.917412 0.370699
O O7 0.500000 0.000000 0.500000
O O8 0.273964 0.025298 0.389391
O O9 0.139251 0.378397 0.914483
O O10 0.193100 0.420172 0.757932
O O11 0.410939 0.431633 0.879447
O O12 0.188632 0.522757 0.881285
O O13 0.269338 0.171310 0.626390
O O14 0.072405 0.250000 0.000000
O O15 0.907260 0.363475 0.016887
#
# Coordination Sequence:
#
# PCOD9397506 Si02
#       7
#     8   8   8   4   8   8   8
#     4  11  24  45  68  90 139 189 251 304 374 430
#     4   9  21  45  74 108 141 186 224 269 364 459
#     4  12  23  40  62 100 135 179 243 304 362 421
#     4  12  24  46  68 116 146 186 238 304 360 424
#     4  10  23  42  62  85 133 197 246 302 369 427
#     4  11  22  41  76 106 148 185 232 302 355 430
#     4  11  25  39  62  92 134 185 251 306 364 426
#
# _framework density 22.037537
#
# number of rings (size 3 to 8) (size 9 to 14) (size 15 to 20)
#    0.000    1.231    3.077    1.846    2.154    8.923 
#    2.769    3.462    0.000    2.769    0.000    0.000 
#    0.000    0.000    0.000    0.000    0.000    0.000 
#
# Total GULP energy -290589.396761 kJ/mol
# GULP energy per Si atom -5588.257630 kJ/mol
# Density = 2.198738 g / cm^3
# Si number density = 22.037537 Si / 1000 Ang^3
#
#
#
# Elastic Constant Matrix: (Units=GPa)
#
#
# Indices 1 2 3 4 5 6 
#
# 1 177.5288 43.7039 26.1183 0.0000 0.0000 0.0000
# 2 43.7039 132.6637 2.3247 0.0000 0.0000 0.0000
# 3 26.1183 2.3247 53.2463 0.0000 0.0000 0.0000
# 4 0.0000 0.0000 0.0000 -28.8598 0.0000 0.0000
# 5 0.0000 0.0000 0.0000 0.0000 22.1269 0.0000
# 6 0.0000 0.0000 0.0000 0.0000 0.0000 -513.8845
#
#
#
# Elastic Compliance Matrix: (Units=1/GPa)
#
#
# Indices 1 2 3 4 5 6 
#
# 1 0.006620 -0.002126 -0.003155 0.000000 0.000000 0.000000
# 2 -0.002126 0.008226 0.000684 0.000000 0.000000 0.000000
# 3 -0.003155 0.000684 0.020298 0.000000 0.000000 0.000000
# 4 0.000000 0.000000 0.000000 -0.034650 0.000000 0.000000
# 5 0.000000 0.000000 0.000000 0.000000 0.045194 0.000000
# 6 0.000000 0.000000 0.000000 0.000000 0.000000 -0.001946
#
#
# Mechanical properties :
#
#
# Convention : Reuss Voigt Hill
#
# Bulk Modulus (GPa) = 38.53387 56.41475 47.47431
# Shear Modulus (GPa) = 81.18706 -84.70403 -1.75849
#
# Velocity S-wave (km/s) = 6.07621 -6.20642 -0.89425
# Velocity P-wave (km/s) = 8.17011 5.06997 4.53023
#
# Compressibility (1/GPa) = 0.02595119
#
# Stress axis : x y z
#
# Youngs Moduli (GPa) = 151.05079 121.56356 49.26550
#
# Poissons Ratio (x) = 0.25840 0.15541
# Poissons Ratio (y) = 0.32108 -0.03367
# Poissons Ratio (z) = 0.47650 -0.08309
#
# Static dielectric constant tensor:
#      x y z
#    x 1.832680 0.000000 0.000000 
#    y 0.000000 1.688250 0.000000 
#    z 0.000000 0.000000 1.839820 
# 
# From -- ./inp_files/28849.got.cif
#   From: 2010.05.17/outbox.cif.g08.bks.cpg/sg50_15_cif.got.tgz:28849.got - 2010.06.03 11:33:33.
