data_PCOD9397200
_publ_section_title
;
Structure prediction by ZEFSAII (Michael W. Deem and Ramdas Pophale) SiO2 
 PCOD9397200
Probable space group: P B A N
;
_chemical_formula_sum "Si O2"
_cell_formula_units_Z 48
_cell_length_a 14.456659
_cell_length_b 8.561107
_cell_length_c 17.019186
_cell_angle_alpha 90.000000
_cell_angle_beta 90.000000
_cell_angle_gamma 90.000000
_cell_volume 2106.379633
_symmetry_space_group_name_H-M "P B A N"
_symmetry_group_IT_number 50
_space_group.IT_coordinate_system_code '2'
_symmetry_cell_setting 'orthorhombic'
loop_
_space_group_symop_operation_xyz
x,y,z
1/2-x,1/2-y,z
x,1/2-y,-z
1/2-x,y,-z
-x,-y,-z
1/2+x,1/2+y,-z
-x,1/2+y,z
1/2+x,-y,z
loop_
_atom_site_type_symbol
_atom_site_label
_atom_site_fract_x
_atom_site_fract_y
_atom_site_fract_z
Si Si1 0.665854 0.849078 0.778418
Si Si2 0.927299 0.096173 0.449911
Si Si3 0.243663 0.937327 0.641869
Si Si4 0.573158 0.930947 0.319614
Si Si5 0.040694 0.129192 0.059070
Si Si6 0.471383 0.612529 0.167609
O O1 0.750000 0.750000 0.815419
O O2 0.612346 0.721109 0.724515
O O3 0.583491 0.912978 0.832338
O O4 0.708267 0.982788 0.722726
O O5 0.908352 0.250000 0.500000
O O6 0.830918 0.021454 0.424357
O O7 0.982501 0.117165 0.367505
O O8 0.000000 0.000000 0.500000
O O9 0.250000 0.750000 0.648239
O O10 0.344177 0.007990 0.625807
O O11 0.555175 0.071663 0.257229
O O12 0.970031 0.229574 0.115312
O O13 0.088225 0.250000 0.000000
O O14 0.088446 0.017528 0.121844
O O15 0.000000 0.000000 0.000000
#
# Coordination Sequence:
#
# PCOD9397200 Si02
#       6
#     8   8   8   8   8   8
#     4  10  22  40  61  98 127 168 220 284 342 395
#     4  12  26  43  66  93 134 181 224 281 354 417
#     4  11  25  42  65  96 134 164 231 293 337 411
#     4  11  24  41  67  97 131 175 231 288 340 409
#     4   9  20  35  59 103 135 172 222 279 339 425
#     4  11  19  37  70  94 131 175 231 280 343 405
#
# _framework density 22.787915000000002
#
# number of rings (size 3 to 8) (size 9 to 14) (size 15 to 20)
#    0.000    1.333    3.333    2.000    4.667    2.333 
#    0.000    0.833    0.000    4.500    8.667    0.000 
#    0.000    0.000    0.000    0.000    0.000    0.000 
#
# Total GULP energy -267407.196794 kJ/mol
# GULP energy per Si atom -5570.983267 kJ/mol
# Density = 2.273605 g / cm^3
# Si number density = 22.787915 Si / 1000 Ang^3
#
#
#
# Elastic Constant Matrix: (Units=GPa)
#
#
# Indices 1 2 3 4 5 6 
#
# 1 106.0227 10.3804 31.0194 0.0000 0.0000 0.0000
# 2 10.3804 90.4098 26.1198 0.0000 0.0000 0.0000
# 3 31.0194 26.1198 98.8087 0.0000 0.0000 0.0000
# 4 0.0000 0.0000 0.0000 42.8138 0.0000 0.0000
# 5 0.0000 0.0000 0.0000 0.0000 6.7806 0.0000
# 6 0.0000 0.0000 0.0000 0.0000 0.0000 33.9417
#
#
#
# Elastic Compliance Matrix: (Units=1/GPa)
#
#
# Indices 1 2 3 4 5 6 
#
# 1 0.010392 -0.000271 -0.003191 0.000000 0.000000 0.000000
# 2 -0.000271 0.011982 -0.003082 0.000000 0.000000 0.000000
# 3 -0.003191 -0.003082 0.011937 0.000000 0.000000 0.000000
# 4 0.000000 0.000000 0.000000 0.023357 0.000000 0.000000
# 5 0.000000 0.000000 0.000000 0.000000 0.147479 0.000000
# 6 0.000000 0.000000 0.000000 0.000000 0.000000 0.029462
#
#
# Mechanical properties :
#
#
# Convention : Reuss Voigt Hill
#
# Bulk Modulus (GPa) = 47.11931 47.80896 47.46414
# Shear Modulus (GPa) = 19.62535 31.88866 25.75701
#
# Velocity S-wave (km/s) = 2.93783 3.74487 3.36563
# Velocity P-wave (km/s) = 5.67715 6.30272 5.99810
#
# Compressibility (1/GPa) = 0.02122272
#
# Stress axis : x y z
#
# Youngs Moduli (GPa) = 96.22768 83.45573 83.77287
#
# Poissons Ratio (x) = 0.02265 0.26729
# Poissons Ratio (y) = 0.02611 0.25822
# Poissons Ratio (z) = 0.30703 0.25724
#
# Static dielectric constant tensor:
#      x y z
#    x 33.514500 0.000000 0.000000 
#    y 0.000000 1.932160 0.000000 
#    z 0.000000 0.000000 1.981610 
# 
# From -- ./inp_files/29442.got.cif
#   From: 2010.05.17/outbox.cif.g08.bks.cpg/sg50_15_cif.got.tgz:29442.got - 2010.06.03 11:33:33.
