data_PCOD9397863
_publ_section_title
;
Structure prediction by ZEFSAII (Michael W. Deem and Ramdas Pophale) SiO2 
 PCOD9397863
Probable space group: P B A N
;
_chemical_formula_sum "Si O2"
_cell_formula_units_Z 48
_cell_length_a 28.306067
_cell_length_b 9.333703
_cell_length_c 8.384736
_cell_angle_alpha 90.000000
_cell_angle_beta 90.000000
_cell_angle_gamma 90.000000
_cell_volume 2215.250794
_symmetry_space_group_name_H-M "P B A N"
_symmetry_group_IT_number 50
_space_group.IT_coordinate_system_code '2'
_symmetry_cell_setting 'orthorhombic'
loop_
_space_group_symop_operation_xyz
x,y,z
1/2-x,1/2-y,z
x,1/2-y,-z
1/2-x,y,-z
-x,-y,-z
1/2+x,1/2+y,-z
-x,1/2+y,z
1/2+x,-y,z
loop_
_atom_site_type_symbol
_atom_site_label
_atom_site_fract_x
_atom_site_fract_y
_atom_site_fract_z
Si Si1 0.459982 0.723830 0.190126
Si Si2 0.197548 0.492851 0.508077
Si Si3 0.300389 0.240986 0.754122
Si Si4 0.094845 0.566588 0.378066
Si Si5 0.599562 0.700860 0.165393
Si Si6 0.457314 0.077583 0.669105
O O1 0.415891 0.781591 0.295563
O O2 0.464559 0.554756 0.212944
O O3 0.501521 0.809107 0.285305
O O4 0.457814 0.750000 0.000000
O O5 0.250000 0.566309 0.500000
O O6 0.191955 0.416658 0.679695
O O7 0.202753 0.359072 0.386936
O O8 0.147685 0.562951 0.453282
O O9 0.250000 0.250000 0.833734
O O10 0.344663 0.294027 0.850652
O O11 0.088427 0.454375 0.232143
O O12 0.055946 0.502943 0.503690
O O13 0.587203 0.820481 0.296215
O O14 0.576258 0.750000 0.000000
#
# Coordination Sequence:
#
# PCOD9397863 Si02
#       6
#     8   8   8   8   8   8
#     4  12  26  44  64  92 128 161 206 260 323 382
#     4   8  14  29  55  88 119 155 201 257 303 356
#     4   8  14  27  50  84 123 157 195 249 303 357
#     4  11  22  39  63  93 121 164 216 257 308 378
#     4  11  21  35  58  90 127 164 201 253 315 364
#     4  12  24  42  63  89 122 165 208 256 307 376
#
# _framework density 21.667975999999999
#
# number of rings (size 3 to 8) (size 9 to 14) (size 15 to 20)
#    0.000    1.667    1.667    5.500    0.000    1.667 
#    0.000    0.000    0.000    2.000    0.000    1.167 
#    0.000    0.000    0.000    0.000    0.000    0.000 
#
# Total GULP energy -267372.678030 kJ/mol
# GULP energy per Si atom -5570.264126 kJ/mol
# Density = 2.161866 g / cm^3
# Si number density = 21.667976 Si / 1000 Ang^3
#
#
#
# Elastic Constant Matrix: (Units=GPa)
#
#
# Indices 1 2 3 4 5 6 
#
# 1 112.0323 7.1824 3.4627 0.0000 0.0000 0.0000
# 2 7.1824 79.4943 -14.1103 0.0000 0.0000 0.0000
# 3 3.4627 -14.1103 67.3168 0.0000 0.0000 0.0000
# 4 0.0000 0.0000 0.0000 19.7476 0.0000 0.0000
# 5 0.0000 0.0000 0.0000 0.0000 3.7714 0.0000
# 6 0.0000 0.0000 0.0000 0.0000 0.0000 9.5543
#
#
#
# Elastic Compliance Matrix: (Units=1/GPa)
#
#
# Indices 1 2 3 4 5 6 
#
# 1 0.009006 -0.000931 -0.000658 0.000000 0.000000 0.000000
# 2 -0.000931 0.013162 0.002807 0.000000 0.000000 0.000000
# 3 -0.000658 0.002807 0.015477 0.000000 0.000000 0.000000
# 4 0.000000 0.000000 0.000000 0.050639 0.000000 0.000000
# 5 0.000000 0.000000 0.000000 0.000000 0.265155 0.000000
# 6 0.000000 0.000000 0.000000 0.000000 0.000000 0.104665
#
#
# Mechanical properties :
#
#
# Convention : Reuss Voigt Hill
#
# Bulk Modulus (GPa) = 24.94959 27.99032 26.46996
# Shear Modulus (GPa) = 10.66033 24.10189 17.38111
#
# Velocity S-wave (km/s) = 2.22048 3.33878 2.83531
# Velocity P-wave (km/s) = 4.25600 5.27343 4.79180
#
# Compressibility (1/GPa) = 0.04008082
#
# Stress axis : x y z
#
# Youngs Moduli (GPa) = 111.03703 75.97750 64.61070
#
# Poissons Ratio (x) = 0.07070 0.04253
# Poissons Ratio (y) = 0.10333 -0.18134
# Poissons Ratio (z) = 0.07310 -0.21325
#
# Static dielectric constant tensor:
#      x y z
#    x 1.903830 0.000000 0.000000 
#    y 0.000000 1.769650 0.000000 
#    z 0.000000 0.000000 1.892270 
# 
# From -- ./inp_files/16946.got.cif
#   From: 2010.05.17/outbox.cif.g08.bks.cpg/sg50_9_cif.got.tgz:16946.got - 2010.06.03 11:33:33.
