data_PCOD9397669
_publ_section_title
;
Structure prediction by ZEFSAII (Michael W. Deem and Ramdas Pophale) SiO2 
 PCOD9397669
Probable space group: P B A N
;
_chemical_formula_sum "Si O2"
_cell_formula_units_Z 38
_cell_length_a 22.856112
_cell_length_b 7.851448
_cell_length_c 8.873174
_cell_angle_alpha 90.000000
_cell_angle_beta 90.000000
_cell_angle_gamma 90.000000
_cell_volume 1592.322795
_symmetry_space_group_name_H-M "P B A N"
_symmetry_group_IT_number 50
_space_group.IT_coordinate_system_code '2'
_symmetry_cell_setting 'orthorhombic'
loop_
_space_group_symop_operation_xyz
x,y,z
1/2-x,1/2-y,z
x,1/2-y,-z
1/2-x,y,-z
-x,-y,-z
1/2+x,1/2+y,-z
-x,1/2+y,z
1/2+x,-y,z
loop_
_atom_site_type_symbol
_atom_site_label
_atom_site_fract_x
_atom_site_fract_y
_atom_site_fract_z
Si Si1 0.665265 0.502555 0.168456
Si Si2 0.957618 0.952189 0.641907
Si Si3 0.250000 0.750000 0.000000
Si Si4 0.750000 0.250000 0.500000
Si Si5 0.460714 0.357920 0.850338
Si Si6 0.168961 0.042199 0.482142
Si Si7 0.750000 0.750000 0.000000
O O1 0.704430 0.356173 0.098327
O O2 0.597747 0.530953 0.121548
O O3 0.663394 0.485795 0.346072
O O4 0.704173 0.661518 0.113264
O O5 0.983541 0.040213 0.790891
O O6 0.950758 0.759480 0.701807
O O7 0.892153 0.993602 0.597412
O O8 0.000000 0.000000 0.500000
O O9 0.711887 0.396531 0.587439
O O10 0.471796 0.250000 0.000000
O O11 0.181632 0.250000 0.500000
#
# Coordination Sequence:
#
# PCOD9397669 Si02
#       7
#     8   8   2   2   8   8   2
#     4  11  23  48  76 113 155 216 272 334 424 493
#     4  12  25  49  81 112 157 214 275 343 417 500
#     4  10  26  50  80 118 172 220 278 362 416 530
#     4  12  32  44  76 124 152 206 270 350 426 504
#     4  12  26  49  75 119 158 212 273 347 426 513
#     4  12  26  51  80 116 165 211 276 352 419 500
#     4  10  24  42  82 104 160 214 262 320 428 498
#
# _framework density 23.864508000000001
#
# number of rings (size 3 to 8) (size 9 to 14) (size 15 to 20)
#    0.000    0.421    5.263    2.211    5.895    0.000 
#    9.474    0.000    0.000    0.000    0.000    0.000 
#    0.000    0.000    0.000    0.000    0.000    0.000 
#
# Total GULP energy -211866.310819 kJ/mol
# GULP energy per Si atom -5575.429232 kJ/mol
# Density = 2.381019 g / cm^3
# Si number density = 23.864508 Si / 1000 Ang^3
#
#
#
# Elastic Constant Matrix: (Units=GPa)
#
#
# Indices 1 2 3 4 5 6 
#
# 1 202.6781 92.4020 56.6520 0.0000 0.0000 0.0000
# 2 92.4020 114.1935 45.0660 0.0000 0.0000 0.0000
# 3 56.6520 45.0660 111.8047 0.0000 0.0000 0.0000
# 4 0.0000 0.0000 0.0000 41.8587 0.0000 0.0000
# 5 0.0000 0.0000 0.0000 0.0000 64.4354 0.0000
# 6 0.0000 0.0000 0.0000 0.0000 0.0000 49.6013
#
#
#
# Elastic Compliance Matrix: (Units=1/GPa)
#
#
# Indices 1 2 3 4 5 6 
#
# 1 0.008092 -0.005862 -0.001737 0.000000 0.000000 0.000000
# 2 -0.005862 0.014660 -0.002939 0.000000 0.000000 0.000000
# 3 -0.001737 -0.002939 0.011009 0.000000 0.000000 0.000000
# 4 0.000000 0.000000 0.000000 0.023890 0.000000 0.000000
# 5 0.000000 0.000000 0.000000 0.000000 0.015519 0.000000
# 6 0.000000 0.000000 0.000000 0.000000 0.000000 0.020161
#
#
# Mechanical properties :
#
#
# Convention : Reuss Voigt Hill
#
# Bulk Modulus (GPa) = 78.83530 90.76846 84.80188
# Shear Modulus (GPa) = 42.14527 46.81617 44.48072
#
# Velocity S-wave (km/s) = 4.20697 4.43397 4.32196
# Velocity P-wave (km/s) = 7.53023 8.02066 7.77931
#
# Compressibility (1/GPa) = 0.01268467
#
# Stress axis : x y z
#
# Youngs Moduli (GPa) = 123.57530 68.21054 90.83395
#
# Poissons Ratio (x) = 0.39987 0.15781
# Poissons Ratio (y) = 0.72444 0.26695
# Poissons Ratio (z) = 0.21470 0.20046
#
# Static dielectric constant tensor:
#      x y z
#    x 1.847460 0.000000 0.000000 
#    y 0.000000 2.252420 0.000000 
#    z 0.000000 0.000000 1.726650 
# 
# From -- ./inp_files/15874.got.cif
#   From: 2010.05.17/outbox.cif.g08.bks.cpg/sg50_8_cif.got.tgz:15874.got - 2010.06.03 11:33:33.
