data_PCOD9397050
_publ_section_title
;
Structure prediction by ZEFSAII (Michael W. Deem and Ramdas Pophale) SiO2 
 PCOD9397050
Probable space group: P B A N
;
_chemical_formula_sum "Si O2"
_cell_formula_units_Z 56
_cell_length_a 13.994682
_cell_length_b 8.844557
_cell_length_c 20.397634
_cell_angle_alpha 90.000000
_cell_angle_beta 90.000000
_cell_angle_gamma 90.000000
_cell_volume 2524.753102
_symmetry_space_group_name_H-M "P B A N"
_symmetry_group_IT_number 50
_space_group.IT_coordinate_system_code '2'
_symmetry_cell_setting 'orthorhombic'
loop_
_space_group_symop_operation_xyz
x,y,z
1/2-x,1/2-y,z
x,1/2-y,-z
1/2-x,y,-z
-x,-y,-z
1/2+x,1/2+y,-z
-x,1/2+y,z
1/2+x,-y,z
loop_
_atom_site_type_symbol
_atom_site_label
_atom_site_fract_x
_atom_site_fract_y
_atom_site_fract_z
Si Si1 0.001366 0.495392 0.642583
Si Si2 0.938756 0.743077 0.735767
Si Si3 0.835503 0.892721 0.151652
Si Si4 0.636823 0.241769 0.421373
Si Si5 0.465951 0.185428 0.937535
Si Si6 0.604853 0.208171 0.832976
Si Si7 0.687576 0.452138 0.936380
O O1 0.055498 0.401146 0.699111
O O2 0.080261 0.589637 0.601453
O O3 0.936590 0.617409 0.679974
O O4 0.930418 0.378778 0.605623
O O5 0.855612 0.720811 0.788346
O O6 0.039863 0.723294 0.775877
O O7 0.909575 0.820492 0.098598
O O8 0.838546 0.059290 0.187860
O O9 0.744632 0.923828 0.106610
O O10 0.750000 0.250000 0.400196
O O11 0.636847 0.250000 0.500000
O O12 0.531691 0.122641 0.881189
O O13 0.399755 0.051418 0.961507
O O14 0.520733 0.250000 0.000000
O O15 0.655071 0.324780 0.883355
O O16 0.750000 0.407709 0.000000
#
# Coordination Sequence:
#
# PCOD9397050 Si02
#       7
#     8   8   8   8   8   8   8
#     4  10  21  43  74 103 153 199 240 296 349 416
#     4  10  21  44  64  97 137 180 237 277 349 432
#     4  11  23  40  62  88 119 160 208 285 349 410
#     4  10  22  44  76 118 159 199 247 292 347 414
#     4  11  23  41  60  79 111 154 200 259 347 437
#     4  11  25  41  63  86 117 168 212 279 354 425
#     4  12  26  43  60  90 121 153 219 295 366 442
#
# _framework density 22.180387
#
# number of rings (size 3 to 8) (size 9 to 14) (size 15 to 20)
#    0.000    1.286    2.857    3.000    4.000    1.714 
#    5.143    4.286    0.000    7.714    0.000    0.000 
#    0.000    0.000    0.000    0.000    0.000    0.000 
#
# Total GULP energy -312040.165420 kJ/mol
# GULP energy per Si atom -5572.145811 kJ/mol
# Density = 2.212990 g / cm^3
# Si number density = 22.180387 Si / 1000 Ang^3
#
#
#
# Elastic Constant Matrix: (Units=GPa)
#
#
# Indices 1 2 3 4 5 6 
#
# 1 92.3187 42.5276 40.4004 0.0000 0.0000 0.0000
# 2 42.5276 130.0771 37.7877 0.0000 0.0000 0.0000
# 3 40.4004 37.7877 100.0314 0.0000 0.0000 0.0000
# 4 0.0000 0.0000 0.0000 37.0547 0.0000 0.0000
# 5 0.0000 0.0000 0.0000 0.0000 33.3026 0.0000
# 6 0.0000 0.0000 0.0000 0.0000 0.0000 18.7562
#
#
#
# Elastic Compliance Matrix: (Units=1/GPa)
#
#
# Indices 1 2 3 4 5 6 
#
# 1 0.014372 -0.003384 -0.004526 0.000000 0.000000 0.000000
# 2 -0.003384 0.009432 -0.002196 0.000000 0.000000 0.000000
# 3 -0.004526 -0.002196 0.012655 0.000000 0.000000 0.000000
# 4 0.000000 0.000000 0.000000 0.026987 0.000000 0.000000
# 5 0.000000 0.000000 0.000000 0.000000 0.030028 0.000000
# 6 0.000000 0.000000 0.000000 0.000000 0.000000 0.053316
#
#
# Mechanical properties :
#
#
# Convention : Reuss Voigt Hill
#
# Bulk Modulus (GPa) = 61.55512 62.65095 62.10304
# Shear Modulus (GPa) = 28.99955 31.27015 30.13485
#
# Velocity S-wave (km/s) = 3.61978 3.75882 3.68995
# Velocity P-wave (km/s) = 6.72924 6.86627 6.79810
#
# Compressibility (1/GPa) = 0.01624560
#
# Stress axis : x y z
#
# Youngs Moduli (GPa) = 69.58204 106.02065 79.02296
#
# Poissons Ratio (x) = 0.35875 0.35766
# Poissons Ratio (y) = 0.23545 0.17357
# Poissons Ratio (z) = 0.31493 0.23287
#
# Static dielectric constant tensor:
#      x y z
#    x 1.966840 0.000000 0.000000 
#    y 0.000000 1.956940 0.000000 
#    z 0.000000 0.000000 1.779850 
# 
# From -- ./inp_files/30984.got.cif
#   From: 2010.05.17/outbox.cif.g08.bks.cpg/sg50_16_cif.got.tgz:30984.got - 2010.06.03 11:33:33.
