data_PCOD9397171
_publ_section_title
;
Structure prediction by ZEFSAII (Michael W. Deem and Ramdas Pophale) SiO2 
 PCOD9397171
Probable space group: P B A N
;
_chemical_formula_sum "Si O2"
_cell_formula_units_Z 40
_cell_length_a 18.303634
_cell_length_b 5.523852
_cell_length_c 19.598188
_cell_angle_alpha 90.000000
_cell_angle_beta 90.000000
_cell_angle_gamma 90.000000
_cell_volume 1981.505474
_symmetry_space_group_name_H-M "P B A N"
_symmetry_group_IT_number 50
_space_group.IT_coordinate_system_code '2'
_symmetry_cell_setting 'orthorhombic'
loop_
_space_group_symop_operation_xyz
x,y,z
1/2-x,1/2-y,z
x,1/2-y,-z
1/2-x,y,-z
-x,-y,-z
1/2+x,1/2+y,-z
-x,1/2+y,z
1/2+x,-y,z
loop_
_atom_site_type_symbol
_atom_site_label
_atom_site_fract_x
_atom_site_fract_y
_atom_site_fract_z
Si Si1 0.250000 0.250000 0.000000
Si Si2 0.452017 0.250000 0.500000
Si Si3 0.172170 0.391424 0.400419
Si Si4 0.525762 0.226659 0.078341
Si Si5 0.202885 0.498876 0.253396
Si Si6 0.750000 0.250000 0.500000
Si Si7 0.323358 0.900825 0.105164
O O1 0.303480 0.397722 0.950004
O O2 0.500000 0.500000 0.500000
O O3 0.396044 0.243266 0.435163
O O4 0.250000 0.250000 0.397639
O O5 0.157629 0.476250 0.323333
O O6 0.195485 0.603772 0.451333
O O7 0.502061 0.480628 0.110608
O O8 0.612502 0.231109 0.079239
O O9 0.497858 0.250000 0.000000
O O10 0.250000 0.250000 0.248571
O O11 0.160580 0.509326 0.181619
O O12 0.250000 0.750000 0.259574
O O13 0.250000 0.750000 0.111064
#
# Coordination Sequence:
#
# PCOD9397171 Si02
#       7
#     2   4   8   8   8   2   8
#     4  12  22  36  64  94 128 154 220 272 342 368
#     4  12  26  40  61 101 142 170 208 270 334 384
#     4  11  22  39  67  96 124 173 222 264 305 382
#     4  10  23  39  60  87 119 159 206 258 310 375
#     4  10  22  39  62  94 128 162 213 270 319 373
#     4  12  16  36  72 100 116 156 230 266 294 358
#     4  11  24  40  62  95 125 166 210 271 330 384
#
# _framework density 20.186672999999999
#
# number of rings (size 3 to 8) (size 9 to 14) (size 15 to 20)
#    0.000    1.200    4.000    2.100    7.000    0.000 
#    0.000    2.000    0.000    0.000    0.000    0.000 
#    0.000    0.000    0.000    0.000    0.000    0.000 
#
# Total GULP energy -223003.237472 kJ/mol
# GULP energy per Si atom -5575.080937 kJ/mol
# Density = 2.014073 g / cm^3
# Si number density = 20.186673 Si / 1000 Ang^3
#
#
#
# Elastic Constant Matrix: (Units=GPa)
#
#
# Indices 1 2 3 4 5 6 
#
# 1 95.4285 37.2362 20.4337 0.0000 0.0000 0.0000
# 2 37.2362 118.0212 32.6269 0.0000 0.0000 0.0000
# 3 20.4337 32.6269 158.1093 0.0000 0.0000 0.0000
# 4 0.0000 0.0000 0.0000 34.6286 0.0000 0.0000
# 5 0.0000 0.0000 0.0000 0.0000 14.1703 0.0000
# 6 0.0000 0.0000 0.0000 0.0000 0.0000 36.6387
#
#
#
# Elastic Compliance Matrix: (Units=1/GPa)
#
#
# Indices 1 2 3 4 5 6 
#
# 1 0.012050 -0.003575 -0.000820 0.000000 0.000000 0.000000
# 2 -0.003575 0.010046 -0.001611 0.000000 0.000000 0.000000
# 3 -0.000820 -0.001611 0.006763 0.000000 0.000000 0.000000
# 4 0.000000 0.000000 0.000000 0.028878 0.000000 0.000000
# 5 0.000000 0.000000 0.000000 0.000000 0.070570 0.000000
# 6 0.000000 0.000000 0.000000 0.000000 0.000000 0.027294
#
#
# Mechanical properties :
#
#
# Convention : Reuss Voigt Hill
#
# Bulk Modulus (GPa) = 59.35565 61.35026 60.35295
# Shear Modulus (GPa) = 28.86375 35.83835 32.35105
#
# Velocity S-wave (km/s) = 3.78543 4.21806 4.00758
# Velocity P-wave (km/s) = 6.96944 7.36071 7.16775
#
# Compressibility (1/GPa) = 0.01684760
#
# Stress axis : x y z
#
# Youngs Moduli (GPa) = 82.99076 99.53803 147.86094
#
# Poissons Ratio (x) = 0.35586 0.12117
# Poissons Ratio (y) = 0.29670 0.23822
# Poissons Ratio (z) = 0.06801 0.16037
#
# Static dielectric constant tensor:
#      x y z
#    x 1.743750 0.000000 0.000000 
#    y 0.000000 1.873250 0.000000 
#    z 0.000000 0.000000 1.766500 
# 
# From -- ./inp_files/31070.got.cif
#   From: 2010.05.17/outbox.cif.g08.bks.cpg/sg50_16_cif.got.tgz:31070.got - 2010.06.03 11:33:33.
