data_PCOD9397313
_publ_section_title
;
Structure prediction by ZEFSAII (Michael W. Deem and Ramdas Pophale) SiO2 
 PCOD9397313
Probable space group: P B A N
;
_chemical_formula_sum "Si O2"
_cell_formula_units_Z 38
_cell_length_a 8.617150
_cell_length_b 16.714382
_cell_length_c 10.605398
_cell_angle_alpha 90.000000
_cell_angle_beta 90.000000
_cell_angle_gamma 90.000000
_cell_volume 1527.499046
_symmetry_space_group_name_H-M "P B A N"
_symmetry_group_IT_number 50
_space_group.IT_coordinate_system_code '2'
_symmetry_cell_setting 'orthorhombic'
loop_
_space_group_symop_operation_xyz
x,y,z
1/2-x,1/2-y,z
x,1/2-y,-z
1/2-x,y,-z
-x,-y,-z
1/2+x,1/2+y,-z
-x,1/2+y,z
1/2+x,-y,z
loop_
_atom_site_type_symbol
_atom_site_label
_atom_site_fract_x
_atom_site_fract_y
_atom_site_fract_z
Si Si1 0.789870 0.124504 0.299665
Si Si2 0.989373 0.119488 0.838075
Si Si3 0.600402 0.710459 0.779757
Si Si4 0.750000 0.603322 0.000000
Si Si5 0.250000 0.750000 0.500000
Si Si6 0.125336 0.458476 0.411510
O O1 0.696160 0.116429 0.169346
O O2 0.697271 0.183818 0.395532
O O3 0.963078 0.161950 0.289675
O O4 0.792276 0.035335 0.350772
O O5 0.023553 0.213826 0.849173
O O6 0.094352 0.069516 0.935306
O O7 0.051424 0.090671 0.701483
O O8 0.750000 0.750000 0.708502
O O9 0.676391 0.653239 0.884074
O O10 0.250000 0.414101 0.500000
O O11 0.000000 0.500000 0.500000
#
# Coordination Sequence:
#
# PCOD9397313 Si02
#       6
#     8   8   8   4   2   8
#     4  12  24  43  71 104 144 189 241 299 373 439
#     4  11  22  45  68 101 139 191 237 298 371 434
#     4  10  22  42  69 101 136 178 236 299 353 431
#     4  10  25  46  72 104 146 183 254 311 350 442
#     4  12  20  44  66 106 144 184 252 304 346 456
#     4  12  26  44  68 104 149 192 241 303 372 444
#
# _framework density 24.877267
#
# number of rings (size 3 to 8) (size 9 to 14) (size 15 to 20)
#    0.000    0.842    5.263    2.842    5.895    0.842 
#    0.000    8.947    0.000    0.000    0.000    0.000 
#    0.000    0.000    0.000    0.000    0.000    0.000 
#
# Total GULP energy -211675.969484 kJ/mol
# GULP energy per Si atom -5570.420250 kJ/mol
# Density = 2.482065 g / cm^3
# Si number density = 24.877267 Si / 1000 Ang^3
#
#
#
# Elastic Constant Matrix: (Units=GPa)
#
#
# Indices 1 2 3 4 5 6 
#
# 1 143.7425 14.5747 44.0570 0.0000 0.0000 0.0000
# 2 14.5747 62.8369 15.4081 0.0000 0.0000 0.0000
# 3 44.0570 15.4081 79.2365 0.0000 0.0000 0.0000
# 4 0.0000 0.0000 0.0000 28.5489 0.0000 0.0000
# 5 0.0000 0.0000 0.0000 0.0000 43.4755 0.0000
# 6 0.0000 0.0000 0.0000 0.0000 0.0000 34.8385
#
#
#
# Elastic Compliance Matrix: (Units=1/GPa)
#
#
# Indices 1 2 3 4 5 6 
#
# 1 0.008429 -0.000846 -0.004522 0.000000 0.000000 0.000000
# 2 -0.000846 0.016796 -0.002796 0.000000 0.000000 0.000000
# 3 -0.004522 -0.002796 0.015678 0.000000 0.000000 0.000000
# 4 0.000000 0.000000 0.000000 0.035028 0.000000 0.000000
# 5 0.000000 0.000000 0.000000 0.000000 0.023001 0.000000
# 6 0.000000 0.000000 0.000000 0.000000 0.000000 0.028704
#
#
# Mechanical properties :
#
#
# Convention : Reuss Voigt Hill
#
# Bulk Modulus (GPa) = 40.69086 48.21061 44.45074
# Shear Modulus (GPa) = 32.86116 35.49098 34.17607
#
# Velocity S-wave (km/s) = 3.63840 3.78119 3.71048
# Velocity P-wave (km/s) = 5.83462 6.20360 6.02194
#
# Compressibility (1/GPa) = 0.02457554
#
# Stress axis : x y z
#
# Youngs Moduli (GPa) = 118.64289 59.53808 63.78218
#
# Poissons Ratio (x) = 0.05038 0.28842
# Poissons Ratio (y) = 0.10039 0.17831
# Poissons Ratio (z) = 0.53650 0.16645
#
# Static dielectric constant tensor:
#      x y z
#    x 2.155800 0.000000 0.000000 
#    y 0.000000 1.924190 0.000000 
#    z 0.000000 0.000000 2.007900 
# 
# From -- ./inp_files/18807.got.cif
#   From: 2010.05.17/outbox.cif.g08.bks.cpg/sg50_10_cif.got.tgz:18807.got - 2010.06.03 11:33:33.
