data_PCOD9397729
_publ_section_title
;
Structure prediction by ZEFSAII (Michael W. Deem and Ramdas Pophale) SiO2 
 PCOD9397729
Probable space group: P B A N
;
_chemical_formula_sum "Si O2"
_cell_formula_units_Z 26
_cell_length_a 10.360023
_cell_length_b 8.623949
_cell_length_c 11.839700
_cell_angle_alpha 90.000000
_cell_angle_beta 90.000000
_cell_angle_gamma 90.000000
_cell_volume 1057.809827
_symmetry_space_group_name_H-M "P B A N"
_symmetry_group_IT_number 50
_space_group.IT_coordinate_system_code '2'
_symmetry_cell_setting 'orthorhombic'
loop_
_space_group_symop_operation_xyz
x,y,z
1/2-x,1/2-y,z
x,1/2-y,-z
1/2-x,y,-z
-x,-y,-z
1/2+x,1/2+y,-z
-x,1/2+y,z
1/2+x,-y,z
loop_
_atom_site_type_symbol
_atom_site_label
_atom_site_fract_x
_atom_site_fract_y
_atom_site_fract_z
Si Si1 0.923194 0.513556 0.118586
Si Si2 0.250000 0.250000 0.000000
Si Si3 0.623998 0.535230 0.424032
Si Si4 0.561811 0.258053 0.282757
O O1 0.882253 0.364504 0.191342
O O2 0.010343 0.607399 0.203308
O O3 0.811855 0.629510 0.086132
O O4 0.000000 0.500000 0.000000
O O5 0.750000 0.573464 0.500000
O O6 0.500000 0.500000 0.500000
O O7 0.646991 0.366570 0.365346
O O8 0.561230 0.672199 0.345018
#
# Coordination Sequence:
#
# PCOD9397729 Si02
#       4
#     8   2   8   8
#     4  11  22  48  71 114 153 186 254 307 379 471
#     4  12  24  40  82 102 150 212 230 312 384 438
#     4  11  26  49  73 111 152 199 261 323 377 453
#     4  10  24  46  78 108 151 200 246 321 391 460
#
# _framework density 24.579087000000001
#
# number of rings (size 3 to 8) (size 9 to 14) (size 15 to 20)
#    0.000    1.231    3.077    0.923    0.000    9.846 
#    5.538    6.154    0.000    0.000    0.000    0.000 
#    0.000    0.000    0.000    0.000    0.000    0.000 
#
# Total GULP energy -144887.670502 kJ/mol
# GULP energy per Si atom -5572.602712 kJ/mol
# Density = 2.452314 g / cm^3
# Si number density = 24.579087 Si / 1000 Ang^3
#
#
#
# Elastic Constant Matrix: (Units=GPa)
#
#
# Indices 1 2 3 4 5 6 
#
# 1 41.6234 7.1043 21.0546 0.0000 0.0000 0.0000
# 2 7.1043 160.7000 48.2302 0.0000 0.0000 0.0000
# 3 21.0546 48.2302 117.1329 0.0000 0.0000 0.0000
# 4 0.0000 0.0000 0.0000 103.9233 0.0000 0.0000
# 5 0.0000 0.0000 0.0000 0.0000 8.5512 0.0000
# 6 0.0000 0.0000 0.0000 0.0000 0.0000 36.4381
#
#
#
# Elastic Compliance Matrix: (Units=1/GPa)
#
#
# Indices 1 2 3 4 5 6 
#
# 1 0.026440 0.000294 -0.004874 0.000000 0.000000 0.000000
# 2 0.000294 0.007103 -0.002978 0.000000 0.000000 0.000000
# 3 -0.004874 -0.002978 0.010639 0.000000 0.000000 0.000000
# 4 0.000000 0.000000 0.000000 0.009622 0.000000 0.000000
# 5 0.000000 0.000000 0.000000 0.000000 0.116942 0.000000
# 6 0.000000 0.000000 0.000000 0.000000 0.000000 0.027444
#
#
# Mechanical properties :
#
#
# Convention : Reuss Voigt Hill
#
# Bulk Modulus (GPa) = 34.40211 52.47049 43.43630
# Shear Modulus (GPa) = 22.42194 45.98701 34.20447
#
# Velocity S-wave (km/s) = 3.02360 4.33018 3.73447
# Velocity P-wave (km/s) = 5.12020 6.81135 6.02540
#
# Compressibility (1/GPa) = 0.02906799
#
# Stress axis : x y z
#
# Youngs Moduli (GPa) = 37.82146 140.77612 93.98997
#
# Poissons Ratio (x) = -0.04136 0.45807
# Poissons Ratio (y) = -0.01111 0.27988
# Poissons Ratio (z) = 0.18433 0.41919
#
# Static dielectric constant tensor:
#      x y z
#    x 2.060220 0.000000 0.000000 
#    y 0.000000 1.838880 0.000000 
#    z 0.000000 0.000000 2.268560 
# 
# From -- ./inp_files/18164.got.cif
#   From: 2010.05.17/outbox.cif.g08.bks.cpg/sg50_10_cif.got.tgz:18164.got - 2010.06.03 11:33:33.
