data_PCOD9397544
_publ_section_title
;
Structure prediction by ZEFSAII (Michael W. Deem and Ramdas Pophale) SiO2 
 PCOD9397544
Probable space group: P B A N
;
_chemical_formula_sum "Si O2"
_cell_formula_units_Z 52
_cell_length_a 24.641198
_cell_length_b 9.719318
_cell_length_c 11.703664
_cell_angle_alpha 90.000000
_cell_angle_beta 90.000000
_cell_angle_gamma 90.000000
_cell_volume 2802.976491
_symmetry_space_group_name_H-M "P B A N"
_symmetry_group_IT_number 50
_space_group.IT_coordinate_system_code '2'
_symmetry_cell_setting 'orthorhombic'
loop_
_space_group_symop_operation_xyz
x,y,z
1/2-x,1/2-y,z
x,1/2-y,-z
1/2-x,y,-z
-x,-y,-z
1/2+x,1/2+y,-z
-x,1/2+y,z
1/2+x,-y,z
loop_
_atom_site_type_symbol
_atom_site_label
_atom_site_fract_x
_atom_site_fract_y
_atom_site_fract_z
Si Si1 0.451338 0.596616 0.636617
Si Si2 0.684671 0.585592 0.989850
Si Si3 0.156138 0.964764 0.774566
Si Si4 0.750000 0.250000 0.272237
Si Si5 0.163964 0.522847 0.739428
Si Si6 0.448048 0.911082 0.627269
Si Si7 0.814520 0.733980 0.627854
O O1 0.400733 0.581814 0.721222
O O2 0.467935 0.755035 0.631599
O O3 0.435005 0.555902 0.506147
O O4 0.503460 0.507480 0.668088
O O5 0.671075 0.500566 0.875004
O O6 0.673154 0.750000 0.000000
O O7 0.750000 0.573976 0.000000
O O8 0.654434 0.519944 0.097341
O O9 0.201418 0.844078 0.778170
O O10 0.173774 0.091779 0.692422
O O11 0.789212 0.377611 0.315670
O O12 0.105986 0.578791 0.701411
O O13 0.166211 0.367044 0.695234
O O14 0.750000 0.750000 0.622350
O O15 0.837081 0.750000 0.500000
#
# Coordination Sequence:
#
# PCOD9397544 Si02
#       7
#     8   8   8   4   8   8   8
#     4  10  23  43  65  92 126 168 216 266 319 378
#     4  11  22  38  65  90 127 168 213 264 313 391
#     4  12  23  42  62  94 129 168 212 262 326 385
#     4  12  24  39  63  96 134 168 209 269 324 390
#     4  12  23  42  62  94 129 168 212 262 326 385
#     4  10  23  43  65  92 126 168 216 266 319 378
#     4  11  22  37  58  87 123 165 206 246 307 389
#
# _framework density 18.551707
#
# number of rings (size 3 to 8) (size 9 to 14) (size 15 to 20)
#    0.000    0.923    6.154    0.923    2.154    1.231 
#    0.000    3.846    0.000    0.000    0.000    0.000 
#    0.000    0.000    0.000    0.000    0.000    0.000 
#
# Total GULP energy -289650.099960 kJ/mol
# GULP energy per Si atom -5570.194230 kJ/mol
# Density = 1.850948 g / cm^3
# Si number density = 18.551707 Si / 1000 Ang^3
#
#
#
# Elastic Constant Matrix: (Units=GPa)
#
#
# Indices 1 2 3 4 5 6 
#
# 1 113.3822 38.1048 31.7085 0.0000 0.0000 0.0000
# 2 38.1048 88.4384 16.2161 0.0000 0.0000 0.0000
# 3 31.7085 16.2161 83.8864 0.0000 0.0000 0.0000
# 4 0.0000 0.0000 0.0000 23.1789 0.0000 0.0000
# 5 0.0000 0.0000 0.0000 0.0000 20.3194 0.0000
# 6 0.0000 0.0000 0.0000 0.0000 0.0000 34.6783
#
#
#
# Elastic Compliance Matrix: (Units=1/GPa)
#
#
# Indices 1 2 3 4 5 6 
#
# 1 0.011184 -0.004192 -0.003417 0.000000 0.000000 0.000000
# 2 -0.004192 0.013294 -0.000985 0.000000 0.000000 0.000000
# 3 -0.003417 -0.000985 0.013403 0.000000 0.000000 0.000000
# 4 0.000000 0.000000 0.000000 0.043143 0.000000 0.000000
# 5 0.000000 0.000000 0.000000 0.000000 0.049214 0.000000
# 6 0.000000 0.000000 0.000000 0.000000 0.000000 0.028836
#
#
# Mechanical properties :
#
#
# Convention : Reuss Voigt Hill
#
# Bulk Modulus (GPa) = 48.32762 50.86286 49.59524
# Shear Modulus (GPa) = 27.29828 28.94716 28.12272
#
# Velocity S-wave (km/s) = 3.84014 3.95441 3.89769
# Velocity P-wave (km/s) = 6.76528 6.95170 6.85912
#
# Compressibility (1/GPa) = 0.02069210
#
# Stress axis : x y z
#
# Youngs Moduli (GPa) = 89.41101 75.22032 74.61011
#
# Poissons Ratio (x) = 0.31535 0.25496
# Poissons Ratio (y) = 0.37484 0.07351
# Poissons Ratio (z) = 0.30553 0.07411
#
# Static dielectric constant tensor:
#      x y z
#    x 1.589870 0.000000 0.000000 
#    y 0.000000 1.644950 0.000000 
#    z 0.000000 0.000000 1.675730 
# 
# From -- ./inp_files/23098.got.cif
#   From: 2010.05.17/outbox.cif.g08.bks.cpg/sg50_12_cif.got.tgz:23098.got - 2010.06.03 11:33:33.
