data_PCOD9397840
_publ_section_title
;
Structure prediction by ZEFSAII (Michael W. Deem and Ramdas Pophale) SiO2 
 PCOD9397840
Probable space group: P B A N
;
_chemical_formula_sum "Si O2"
_cell_formula_units_Z 46
_cell_length_a 18.633762
_cell_length_b 8.617987
_cell_length_c 15.986908
_cell_angle_alpha 90.000000
_cell_angle_beta 90.000000
_cell_angle_gamma 90.000000
_cell_volume 2567.265913
_symmetry_space_group_name_H-M "P B A N"
_symmetry_group_IT_number 50
_space_group.IT_coordinate_system_code '2'
_symmetry_cell_setting 'orthorhombic'
loop_
_space_group_symop_operation_xyz
x,y,z
1/2-x,1/2-y,z
x,1/2-y,-z
1/2-x,y,-z
-x,-y,-z
1/2+x,1/2+y,-z
-x,1/2+y,z
1/2+x,-y,z
loop_
_atom_site_type_symbol
_atom_site_label
_atom_site_fract_x
_atom_site_fract_y
_atom_site_fract_z
Si Si1 0.821178 0.831262 0.665717
Si Si2 0.808121 0.379041 0.228539
Si Si3 0.094168 0.283796 0.184752
Si Si4 0.750000 0.750000 0.500000
Si Si5 0.053631 0.568980 0.855434
Si Si6 0.788546 0.520201 0.915543
Si Si7 0.881090 0.250000 0.000000
O O1 0.750000 0.750000 0.701967
O O2 0.883207 0.744129 0.717968
O O3 0.805587 0.825851 0.566749
O O4 0.819728 0.006758 0.694878
O O5 0.750000 0.250000 0.248973
O O6 0.887915 0.335905 0.199841
O O7 0.772452 0.471352 0.150684
O O8 0.157894 0.360017 0.129759
O O9 0.025833 0.394340 0.174608
O O10 0.072794 0.112430 0.151690
O O11 0.068813 0.635747 0.946959
O O12 0.750000 0.576251 0.000000
O O13 0.831118 0.363394 0.943981
#
# Coordination Sequence:
#
# PCOD9397840 Si02
#       7
#     8   8   8   2   8   8   4
#     4   9  19  38  64  93 111 152 191 236 304 366
#     4  11  20  38  60  91 117 158 205 252 295 353
#     4  11  25  42  58  86 120 158 210 246 308 359
#     4   8  16  40  70  96 118 144 192 248 292 380
#     4  11  25  40  56  83 120 165 205 256 294 353
#     4  12  21  38  57  79 116 160 209 262 294 341
#     4  12  23  40  54  80 115 162 216 250 307 320
#
# _framework density 17.917895000000001
#
# number of rings (size 3 to 8) (size 9 to 14) (size 15 to 20)
#    0.522    0.696    5.217    1.304    0.000    3.478 
#    6.261    0.435    0.000    4.174    0.000    0.000 
#    0.000    0.000    0.000    0.000    0.000    0.000 
#
# Total GULP energy -256327.596735 kJ/mol
# GULP energy per Si atom -5572.339059 kJ/mol
# Density = 1.787711 g / cm^3
# Si number density = 17.917895 Si / 1000 Ang^3
#
#
#
# Elastic Constant Matrix: (Units=GPa)
#
#
# Indices 1 2 3 4 5 6 
#
# 1 101.3261 22.9398 39.1252 0.0000 0.0000 0.0000
# 2 22.9398 61.9801 32.5375 0.0000 0.0000 0.0000
# 3 39.1252 32.5375 130.9093 0.0000 0.0000 0.0000
# 4 0.0000 0.0000 0.0000 29.7138 0.0000 0.0000
# 5 0.0000 0.0000 0.0000 0.0000 11.8423 0.0000
# 6 0.0000 0.0000 0.0000 0.0000 0.0000 22.3267
#
#
#
# Elastic Compliance Matrix: (Units=1/GPa)
#
#
# Indices 1 2 3 4 5 6 
#
# 1 0.011575 -0.002838 -0.002754 0.000000 0.000000 0.000000
# 2 -0.002838 0.019251 -0.003937 0.000000 0.000000 0.000000
# 3 -0.002754 -0.003937 0.009440 0.000000 0.000000 0.000000
# 4 0.000000 0.000000 0.000000 0.033654 0.000000 0.000000
# 5 0.000000 0.000000 0.000000 0.000000 0.084443 0.000000
# 6 0.000000 0.000000 0.000000 0.000000 0.000000 0.044789
#
#
# Mechanical properties :
#
#
# Convention : Reuss Voigt Hill
#
# Bulk Modulus (GPa) = 47.15001 53.71338 50.43169
# Shear Modulus (GPa) = 21.80728 26.08410 23.94569
#
# Velocity S-wave (km/s) = 3.49243 3.81958 3.65966
# Velocity P-wave (km/s) = 6.52950 7.03525 6.78709
#
# Compressibility (1/GPa) = 0.02120890
#
# Stress axis : x y z
#
# Youngs Moduli (GPa) = 86.39210 51.94448 105.92757
#
# Poissons Ratio (x) = 0.14744 0.29173
# Poissons Ratio (y) = 0.24521 0.41699
# Poissons Ratio (z) = 0.23792 0.20448
#
# Static dielectric constant tensor:
#      x y z
#    x 1.640350 0.000000 0.000000 
#    y 0.000000 1.690450 0.000000 
#    z 0.000000 0.000000 1.620380 
# 
# From -- ./inp_files/29662.got.cif
#   From: 2010.05.17/outbox.cif.g08.bks.cpg/sg50_15_cif.got.tgz:29662.got - 2010.06.03 11:33:33.
