data_PCOD9397086
_publ_section_title
;
Structure prediction by ZEFSAII (Michael W. Deem and Ramdas Pophale) SiO2 
 PCOD9397086
Probable space group: P B A N
;
_chemical_formula_sum "Si O2"
_cell_formula_units_Z 44
_cell_length_a 8.005121
_cell_length_b 18.149161
_cell_length_c 13.187980
_cell_angle_alpha 90.000000
_cell_angle_beta 90.000000
_cell_angle_gamma 90.000000
_cell_volume 1916.031894
_symmetry_space_group_name_H-M "P B A N"
_symmetry_group_IT_number 50
_space_group.IT_coordinate_system_code '2'
_symmetry_cell_setting 'orthorhombic'
loop_
_space_group_symop_operation_xyz
x,y,z
1/2-x,1/2-y,z
x,1/2-y,-z
1/2-x,y,-z
-x,-y,-z
1/2+x,1/2+y,-z
-x,1/2+y,z
1/2+x,-y,z
loop_
_atom_site_type_symbol
_atom_site_label
_atom_site_fract_x
_atom_site_fract_y
_atom_site_fract_z
Si Si1 0.071927 0.166532 0.534495
Si Si2 0.250000 0.929447 0.500000
Si Si3 0.285692 0.867891 0.119511
Si Si4 0.167113 0.516826 0.725279
Si Si5 0.347514 0.120433 0.248726
Si Si6 0.969770 0.759733 0.118565
O O1 0.054686 0.250000 0.500000
O O2 0.250000 0.135010 0.500000
O O3 0.092102 0.166952 0.654763
O O4 0.917118 0.119789 0.494939
O O5 0.275178 0.969963 0.608173
O O6 0.274729 0.937711 0.192109
O O7 0.129844 0.813421 0.140510
O O8 0.450387 0.819938 0.144063
O O9 0.250000 0.886676 0.000000
O O10 0.183750 0.429750 0.742103
O O11 0.988773 0.555632 0.747120
O O12 0.332180 0.183646 0.163875
O O13 0.940891 0.750000 0.000000
#
# Coordination Sequence:
#
# PCOD9397086 Si02
#       6
#     8   4   8   8   8   8
#     4  10  23  40  61  91 129 169 219 274 324 374
#     4  10  23  38  64  90 129 178 218 262 318 399
#     4   8  15  32  59  87 117 154 206 262 312 372
#     4  10  22  36  57  91 124 166 208 259 319 383
#     4  10  22  37  60  91 124 165 212 256 323 386
#     4   8  15  32  58  87 116 154 208 264 310 369
#
# _framework density 22.964129
#
# number of rings (size 3 to 8) (size 9 to 14) (size 15 to 20)
#    0.000    2.727    0.000    1.364    6.364    1.455 
#    0.000    8.182    0.000    0.000    0.000   14.000 
#    0.000    0.000    0.000    0.000    0.000    0.000 
#
# Total GULP energy -245069.832064 kJ/mol
# GULP energy per Si atom -5569.768911 kJ/mol
# Density = 2.291186 g / cm^3
# Si number density = 22.964129 Si / 1000 Ang^3
#
#
#
# Elastic Constant Matrix: (Units=GPa)
#
#
# Indices 1 2 3 4 5 6 
#
# 1 82.1489 35.6538 13.6844 0.0000 0.0000 0.0000
# 2 35.6538 149.3011 89.8578 0.0000 0.0000 0.0000
# 3 13.6844 89.8578 105.5016 0.0000 0.0000 0.0000
# 4 0.0000 0.0000 0.0000 49.2421 0.0000 0.0000
# 5 0.0000 0.0000 0.0000 0.0000 7.9333 0.0000
# 6 0.0000 0.0000 0.0000 0.0000 0.0000 35.2593
#
#
#
# Elastic Compliance Matrix: (Units=1/GPa)
#
#
# Indices 1 2 3 4 5 6 
#
# 1 0.013801 -0.004552 0.002087 0.000000 0.000000 0.000000
# 2 -0.004552 0.015244 -0.012393 0.000000 0.000000 0.000000
# 3 0.002087 -0.012393 0.019763 0.000000 0.000000 0.000000
# 4 0.000000 0.000000 0.000000 0.020308 0.000000 0.000000
# 5 0.000000 0.000000 0.000000 0.000000 0.126050 0.000000
# 6 0.000000 0.000000 0.000000 0.000000 0.000000 0.028361
#
#
# Mechanical properties :
#
#
# Convention : Reuss Voigt Hill
#
# Bulk Modulus (GPa) = 52.37833 68.37151 60.37492
# Shear Modulus (GPa) = 19.25992 31.67065 25.46528
#
# Velocity S-wave (km/s) = 2.89917 3.71770 3.33365
# Velocity P-wave (km/s) = 5.83654 6.94739 6.41605
#
# Compressibility (1/GPa) = 0.01909187
#
# Stress axis : x y z
#
# Youngs Moduli (GPa) = 72.45927 65.60170 50.59929
#
# Poissons Ratio (x) = 0.29859 -0.10558
# Poissons Ratio (y) = 0.32980 0.62707
# Poissons Ratio (z) = -0.15119 0.81299
#
# Static dielectric constant tensor:
#      x y z
#    x 2.347460 0.000000 0.000000 
#    y 0.000000 1.895170 0.000000 
#    z 0.000000 0.000000 1.878070 
# 
# From -- ./inp_files/24898.got.cif
#   From: 2010.05.17/outbox.cif.g08.bks.cpg/sg50_13_cif.got.tgz:24898.got - 2010.06.03 11:33:33.
