data_PCOD9397632
_publ_section_title
;
Structure prediction by ZEFSAII (Michael W. Deem and Ramdas Pophale) SiO2 
 PCOD9397632
Probable space group: P B A N
;
_chemical_formula_sum "Si O2"
_cell_formula_units_Z 40
_cell_length_a 9.182600
_cell_length_b 21.233157
_cell_length_c 10.909899
_cell_angle_alpha 90.000000
_cell_angle_beta 90.000000
_cell_angle_gamma 90.000000
_cell_volume 2127.163967
_symmetry_space_group_name_H-M "P B A N"
_symmetry_group_IT_number 50
_space_group.IT_coordinate_system_code '2'
_symmetry_cell_setting 'orthorhombic'
loop_
_space_group_symop_operation_xyz
x,y,z
1/2-x,1/2-y,z
x,1/2-y,-z
1/2-x,y,-z
-x,-y,-z
1/2+x,1/2+y,-z
-x,1/2+y,z
1/2+x,-y,z
loop_
_atom_site_type_symbol
_atom_site_label
_atom_site_fract_x
_atom_site_fract_y
_atom_site_fract_z
Si Si1 0.760751 0.909264 0.132467
Si Si2 0.763170 0.064779 0.365152
Si Si3 0.487805 0.503548 0.212539
Si Si4 0.136303 0.705941 0.377101
Si Si5 0.699590 0.678277 0.638221
O O1 0.760884 0.865598 0.253486
O O2 0.905160 0.952456 0.134652
O O3 0.621195 0.955349 0.146172
O O4 0.750000 0.876230 0.000000
O O5 0.750000 0.035874 0.500000
O O6 0.618991 0.047433 0.291363
O O7 0.782091 0.139263 0.379571
O O8 0.902883 0.035976 0.298090
O O9 0.250000 0.750000 0.302162
O O10 0.112496 0.750000 0.500000
O O11 0.974078 0.684570 0.344491
O O12 0.750000 0.750000 0.650899
O O13 0.750000 0.657340 0.500000
#
# Coordination Sequence:
#
# PCOD9397632 Si02
#       5
#     8   8   8   8   8
#     4  11  24  43  66  91 128 171 213 258 316 378
#     4  11  21  36  59  94 128 161 208 259 319 373
#     4  10  24  39  60  90 125 167 209 262 312 379
#     4  11  21  36  60  88 125 167 205 247 316 383
#     4  11  24  40  65  95 127 162 210 264 316 368
#
# _framework density 18.804379999999998
#
# number of rings (size 3 to 8) (size 9 to 14) (size 15 to 20)
#    0.000    1.200    6.000    1.200    5.600    3.600 
#    0.000    0.000    0.000    0.000    0.000    0.000 
#    0.000    0.000    0.000    0.000    0.000    0.000 
#
# Total GULP energy -222686.658264 kJ/mol
# GULP energy per Si atom -5567.166457 kJ/mol
# Density = 1.876158 g / cm^3
# Si number density = 18.804380 Si / 1000 Ang^3
#
#
#
# Elastic Constant Matrix: (Units=GPa)
#
#
# Indices 1 2 3 4 5 6 
#
# 1 114.0365 23.9825 33.0723 0.0000 0.0000 0.0000
# 2 23.9825 91.0208 45.3985 0.0000 0.0000 0.0000
# 3 33.0723 45.3985 121.5429 0.0000 0.0000 0.0000
# 4 0.0000 0.0000 0.0000 -3.5150 0.0000 0.0000
# 5 0.0000 0.0000 0.0000 0.0000 -5.8731 0.0000
# 6 0.0000 0.0000 0.0000 0.0000 0.0000 4.1491
#
#
#
# Elastic Compliance Matrix: (Units=1/GPa)
#
#
# Indices 1 2 3 4 5 6 
#
# 1 0.009689 -0.001521 -0.002068 0.000000 0.000000 0.000000
# 2 -0.001521 0.013741 -0.004718 0.000000 0.000000 0.000000
# 3 -0.002068 -0.004718 0.010553 0.000000 0.000000 0.000000
# 4 0.000000 0.000000 0.000000 -0.284495 0.000000 0.000000
# 5 0.000000 0.000000 0.000000 0.000000 -0.170269 0.000000
# 6 0.000000 0.000000 0.000000 0.000000 0.000000 0.241018
#
#
# Mechanical properties :
#
#
# Convention : Reuss Voigt Hill
#
# Bulk Modulus (GPa) = 57.58214 59.05630 58.31922
# Shear Modulus (GPa) = -31.77448 13.89534 -8.93957
#
# Velocity S-wave (km/s) = -4.11510 2.72130 -2.18273
# Velocity P-wave (km/s) = 2.84770 6.43022 4.97278
#
# Compressibility (1/GPa) = 0.01736650
#
# Stress axis : x y z
#
# Youngs Moduli (GPa) = 103.21142 72.77612 94.76226
#
# Poissons Ratio (x) = 0.11072 0.19598
# Poissons Ratio (y) = 0.15702 0.44713
# Poissons Ratio (z) = 0.21345 0.34339
#
# Static dielectric constant tensor:
#      x y z
#    x 1.720510 0.000000 0.000000 
#    y 0.000000 1.642280 0.000000 
#    z 0.000000 0.000000 1.708770 
# 
# From -- ./inp_files/9532.got.cif
#   From: 2010.05.17/outbox.cif.g08.bks.cpg/sg50_5_cif.got.tgz:9532.got - 2010.06.03 11:33:33.
