data_PCOD9397326
_publ_section_title
;
Structure prediction by ZEFSAII (Michael W. Deem and Ramdas Pophale) SiO2 
 PCOD9397326
Probable space group: P B A N
;
_chemical_formula_sum "Si O2"
_cell_formula_units_Z 48
_cell_length_a 16.209918
_cell_length_b 8.853844
_cell_length_c 16.399727
_cell_angle_alpha 90.000000
_cell_angle_beta 90.000000
_cell_angle_gamma 90.000000
_cell_volume 2353.690217
_symmetry_space_group_name_H-M "P B A N"
_symmetry_group_IT_number 50
_space_group.IT_coordinate_system_code '2'
_symmetry_cell_setting 'orthorhombic'
loop_
_space_group_symop_operation_xyz
x,y,z
1/2-x,1/2-y,z
x,1/2-y,-z
1/2-x,y,-z
-x,-y,-z
1/2+x,1/2+y,-z
-x,1/2+y,z
1/2+x,-y,z
loop_
_atom_site_type_symbol
_atom_site_label
_atom_site_fract_x
_atom_site_fract_y
_atom_site_fract_z
Si Si1 0.750000 0.490225 0.500000
Si Si2 0.115739 0.748794 0.912519
Si Si3 0.582754 0.180380 0.265892
Si Si4 0.250000 0.750000 0.356113
Si Si5 0.123553 0.250000 0.500000
Si Si6 0.416014 0.333722 0.323181
Si Si7 0.758987 0.996035 0.089009
Si Si8 0.750000 0.750000 0.770112
O O1 0.736325 0.388142 0.580157
O O2 0.822276 0.604734 0.523741
O O3 0.072768 0.696649 0.831085
O O4 0.190012 0.627023 0.917619
O O5 0.155317 0.914174 0.901554
O O6 0.071143 0.750000 0.000000
O O7 0.668181 0.256153 0.299410
O O8 0.500800 0.259545 0.296299
O O9 0.586130 0.007724 0.295526
O O10 0.080068 0.190401 0.419943
O O11 0.332542 0.259012 0.285264
O O12 0.747541 0.891739 0.167534
O O13 0.750000 0.919305 0.000000
#
# Coordination Sequence:
#
# PCOD9397326 Si02
#       8
#     4   8   8   4   4   8   8   4
#     4  10  22  42  74 106 130 180 230 284 352 412
#     4   9  19  39  66  95 136 180 225 283 344 413
#     4  12  27  47  68 107 134 186 235 282 351 425
#     4  11  24  44  75  98 138 180 231 284 348 415
#     4  11  24  46  66 101 142 172 232 289 348 409
#     4  12  30  44  72  98 141 184 232 290 352 414
#     4   9  18  35  67 102 133 178 227 281 344 410
#     4  12  23  43  66 102 136 182 228 291 341 412
#
# _framework density 20.393508000000001
#
# number of rings (size 3 to 8) (size 9 to 14) (size 15 to 20)
#    0.000    1.333    3.333    3.250    4.667    2.000 
#    0.000    2.500    0.000    0.000    0.000    0.000 
#    0.000    0.000    0.000    0.000    0.000    0.000 
#
# Total GULP energy -267703.250584 kJ/mol
# GULP energy per Si atom -5577.151054 kJ/mol
# Density = 2.034709 g / cm^3
# Si number density = 20.393508 Si / 1000 Ang^3
#
#
#
# Elastic Constant Matrix: (Units=GPa)
#
#
# Indices 1 2 3 4 5 6 
#
# 1 97.8837 23.4397 40.4198 0.0000 0.0000 0.0000
# 2 23.4397 85.7561 43.3304 0.0000 0.0000 0.0000
# 3 40.4198 43.3304 175.4575 0.0000 0.0000 0.0000
# 4 0.0000 0.0000 0.0000 31.3821 0.0000 0.0000
# 5 0.0000 0.0000 0.0000 0.0000 -16.3292 0.0000
# 6 0.0000 0.0000 0.0000 0.0000 0.0000 13.6431
#
#
#
# Elastic Compliance Matrix: (Units=1/GPa)
#
#
# Indices 1 2 3 4 5 6 
#
# 1 0.011606 -0.002081 -0.002160 0.000000 0.000000 0.000000
# 2 -0.002081 0.013697 -0.002903 0.000000 0.000000 0.000000
# 3 -0.002160 -0.002903 0.006914 0.000000 0.000000 0.000000
# 4 0.000000 0.000000 0.000000 0.031865 0.000000 0.000000
# 5 0.000000 0.000000 0.000000 0.000000 -0.061240 0.000000
# 6 0.000000 0.000000 0.000000 0.000000 0.000000 0.073297
#
#
# Mechanical properties :
#
#
# Convention : Reuss Voigt Hill
#
# Bulk Modulus (GPa) = 55.77551 63.71969 59.74760
# Shear Modulus (GPa) = 51.86531 22.53303 37.19917
#
# Velocity S-wave (km/s) = 5.04851 3.32763 4.27555
# Velocity P-wave (km/s) = 7.83532 6.78801 7.33039
#
# Compressibility (1/GPa) = 0.01792902
#
# Stress axis : x y z
#
# Youngs Moduli (GPa) = 86.15927 73.01059 144.63678
#
# Poissons Ratio (x) = 0.15194 0.31239
# Poissons Ratio (y) = 0.17930 0.41989
# Poissons Ratio (z) = 0.18609 0.21195
#
# Static dielectric constant tensor:
#      x y z
#    x 1.753090 0.000000 0.000000 
#    y 0.000000 1.745420 0.000000 
#    z 0.000000 0.000000 1.641470 
# 
# From -- ./inp_files/29498.got.cif
#   From: 2010.05.17/outbox.cif.g08.bks.cpg/sg50_15_cif.got.tgz:29498.got - 2010.06.03 11:33:33.
