data_PCOD9397044
_publ_section_title
;
Structure prediction by ZEFSAII (Michael W. Deem and Ramdas Pophale) SiO2 
 PCOD9397044
Probable space group: P B A N
;
_chemical_formula_sum "Si O2"
_cell_formula_units_Z 48
_cell_length_a 23.701033
_cell_length_b 8.984414
_cell_length_c 11.047648
_cell_angle_alpha 90.000000
_cell_angle_beta 90.000000
_cell_angle_gamma 90.000000
_cell_volume 2352.484980
_symmetry_space_group_name_H-M "P B A N"
_symmetry_group_IT_number 50
_space_group.IT_coordinate_system_code '2'
_symmetry_cell_setting 'orthorhombic'
loop_
_space_group_symop_operation_xyz
x,y,z
1/2-x,1/2-y,z
x,1/2-y,-z
1/2-x,y,-z
-x,-y,-z
1/2+x,1/2+y,-z
-x,1/2+y,z
1/2+x,-y,z
loop_
_atom_site_type_symbol
_atom_site_label
_atom_site_fract_x
_atom_site_fract_y
_atom_site_fract_z
Si Si1 0.818109 0.928407 0.498241
Si Si2 0.534910 0.369035 0.892246
Si Si3 0.167436 0.571700 0.246528
Si Si4 0.138836 0.913288 0.260872
Si Si5 0.086609 0.393169 0.064406
Si Si6 0.268907 0.415044 0.138548
O O1 0.826055 0.750000 0.500000
O O2 0.750000 0.955090 0.500000
O O3 0.843582 0.997908 0.376259
O O4 0.847338 0.008370 0.612351
O O5 0.574593 0.375035 0.775325
O O6 0.469354 0.349044 0.858878
O O7 0.548213 0.250000 0.000000
O O8 0.554232 0.519763 0.958259
O O9 0.164329 0.748349 0.251812
O O10 0.127736 0.494381 0.144289
O O11 0.230434 0.527063 0.212499
O O12 0.168476 0.025854 0.164293
O O13 0.114420 0.250000 0.000000
O O14 0.250000 0.250000 0.181229
O O15 0.250000 0.424200 0.000000
#
# Coordination Sequence:
#
# PCOD9397044 Si02
#       6
#     8   8   8   8   8   8
#     4  11  25  45  64  87 124 175 224 268 324 392
#     4  10  21  43  65  99 132 169 210 261 331 385
#     4  12  24  41  65  94 126 169 219 267 326 383
#     4  12  24  41  66  92 129 167 217 272 322 388
#     4  10  23  39  69  97 133 172 211 260 321 398
#     4  11  25  38  58  93 131 168 208 261 326 393
#
# _framework density 20.403955
#
# number of rings (size 3 to 8) (size 9 to 14) (size 15 to 20)
#    0.000    1.000    3.333    3.000    7.000    1.333 
#    0.000    0.833    0.000    0.000    0.000    0.000 
#    0.000    0.000    0.000    0.000    0.000    0.000 
#
# Total GULP energy -267808.713431 kJ/mol
# GULP energy per Si atom -5579.348196 kJ/mol
# Density = 2.035751 g / cm^3
# Si number density = 20.403955 Si / 1000 Ang^3
#
#
#
# Elastic Constant Matrix: (Units=GPa)
#
#
# Indices 1 2 3 4 5 6 
#
# 1 83.9280 22.7341 22.7194 0.0000 0.0000 0.0000
# 2 22.7341 139.9280 36.3240 0.0000 0.0000 0.0000
# 3 22.7194 36.3240 75.5809 0.0000 0.0000 0.0000
# 4 0.0000 0.0000 0.0000 35.5627 0.0000 0.0000
# 5 0.0000 0.0000 0.0000 0.0000 19.6691 0.0000
# 6 0.0000 0.0000 0.0000 0.0000 0.0000 23.2930
#
#
#
# Elastic Compliance Matrix: (Units=1/GPa)
#
#
# Indices 1 2 3 4 5 6 
#
# 1 0.013165 -0.001270 -0.003347 0.000000 0.000000 0.000000
# 2 -0.001270 0.008288 -0.003601 0.000000 0.000000 0.000000
# 3 -0.003347 -0.003601 0.015968 0.000000 0.000000 0.000000
# 4 0.000000 0.000000 0.000000 0.028119 0.000000 0.000000
# 5 0.000000 0.000000 0.000000 0.000000 0.050841 0.000000
# 6 0.000000 0.000000 0.000000 0.000000 0.000000 0.042931
#
#
# Mechanical properties :
#
#
# Convention : Reuss Voigt Hill
#
# Bulk Modulus (GPa) = 47.65576 51.44353 49.54965
# Shear Modulus (GPa) = 27.36072 30.21558 28.78815
#
# Velocity S-wave (km/s) = 3.66587 3.85238 3.76028
# Velocity P-wave (km/s) = 6.42845 6.71231 6.57191
#
# Compressibility (1/GPa) = 0.02098382
#
# Stress axis : x y z
#
# Youngs Moduli (GPa) = 75.95875 120.66007 62.62631
#
# Poissons Ratio (x) = 0.15325 0.20961
# Poissons Ratio (y) = 0.09647 0.22554
# Poissons Ratio (z) = 0.25423 0.43453
#
# Static dielectric constant tensor:
#      x y z
#    x 1.827080 0.000000 0.000000 
#    y 0.000000 1.763270 0.000000 
#    z 0.000000 0.000000 1.755910 
# 
# From -- ./inp_files/22785.got.cif
#   From: 2010.05.17/outbox.cif.g08.bks.cpg/sg50_12_cif.got.tgz:22785.got - 2010.06.03 11:33:33.
