data_PCOD9397155
_publ_section_title
;
Structure prediction by ZEFSAII (Michael W. Deem and Ramdas Pophale) SiO2 
 PCOD9397155
Probable space group: P B A N
;
_chemical_formula_sum "Si O2"
_cell_formula_units_Z 38
_cell_length_a 12.777897
_cell_length_b 5.233329
_cell_length_c 23.100861
_cell_angle_alpha 90.000000
_cell_angle_beta 90.000000
_cell_angle_gamma 90.000000
_cell_volume 1544.776265
_symmetry_space_group_name_H-M "P B A N"
_symmetry_group_IT_number 50
_space_group.IT_coordinate_system_code '2'
_symmetry_cell_setting 'orthorhombic'
loop_
_space_group_symop_operation_xyz
x,y,z
1/2-x,1/2-y,z
x,1/2-y,-z
1/2-x,y,-z
-x,-y,-z
1/2+x,1/2+y,-z
-x,1/2+y,z
1/2+x,-y,z
loop_
_atom_site_type_symbol
_atom_site_label
_atom_site_fract_x
_atom_site_fract_y
_atom_site_fract_z
Si Si1 0.074254 0.851171 0.124939
Si Si2 0.250000 0.250000 0.421167
Si Si3 0.439540 0.960894 0.276476
Si Si4 0.527395 0.895026 0.403364
Si Si5 0.426668 0.750000 0.000000
Si Si6 0.750000 0.250000 0.500000
Si Si7 0.250000 0.750000 0.215456
O O1 0.164525 0.871482 0.172707
O O2 0.997889 0.603449 0.129191
O O3 0.127164 0.796483 0.061813
O O4 0.351859 0.349736 0.388526
O O5 0.214105 0.514257 0.455122
O O6 0.508552 0.720823 0.255436
O O7 0.458906 0.936920 0.345546
O O8 0.320956 0.929474 0.256301
O O9 0.482168 0.656635 0.436856
O O10 0.500000 0.500000 0.000000
#
# Coordination Sequence:
#
# PCOD9397155 Si02
#       7
#     8   4   8   8   4   2   4
#     4  10  22  39  60  88 121 162 207 258 319 378
#     4  11  22  44  66  94 136 164 198 259 304 358
#     4  10  24  41  60  91 123 164 213 255 307 366
#     4  10  22  40  65  94 124 166 212 247 301 367
#     4   8  16  35  58  81 116 156 204 257 306 377
#     4  10  24  42  70 102 128 164 206 250 312 360
#     4  12  24  39  63  88 130 163 203 268 314 366
#
# _framework density 24.599032000000001
#
# number of rings (size 3 to 8) (size 9 to 14) (size 15 to 20)
#    0.000    1.895    0.000    2.526    0.000   10.526 
#    0.000   10.526    0.000    7.579    0.000    0.000 
#    0.000    0.000    0.000    0.000    0.000    0.000 
#
# Total GULP energy -211585.965643 kJ/mol
# GULP energy per Si atom -5568.051727 kJ/mol
# Density = 2.454304 g / cm^3
# Si number density = 24.599032 Si / 1000 Ang^3
#
#
#
# Elastic Constant Matrix: (Units=GPa)
#
#
# Indices 1 2 3 4 5 6 
#
# 1 138.0989 44.0598 52.1419 0.0000 0.0000 0.0000
# 2 44.0598 206.1497 20.8658 0.0000 0.0000 0.0000
# 3 52.1419 20.8658 134.2143 0.0000 0.0000 0.0000
# 4 0.0000 0.0000 0.0000 21.8034 0.0000 0.0000
# 5 0.0000 0.0000 0.0000 0.0000 63.5693 0.0000
# 6 0.0000 0.0000 0.0000 0.0000 0.0000 37.3453
#
#
#
# Elastic Compliance Matrix: (Units=1/GPa)
#
#
# Indices 1 2 3 4 5 6 
#
# 1 0.008971 -0.001590 -0.003238 0.000000 0.000000 0.000000
# 2 -0.001590 0.005210 -0.000192 0.000000 0.000000 0.000000
# 3 -0.003238 -0.000192 0.008739 0.000000 0.000000 0.000000
# 4 0.000000 0.000000 0.000000 0.045864 0.000000 0.000000
# 5 0.000000 0.000000 0.000000 0.000000 0.015731 0.000000
# 6 0.000000 0.000000 0.000000 0.000000 0.000000 0.026777
#
#
# Mechanical properties :
#
#
# Convention : Reuss Voigt Hill
#
# Bulk Modulus (GPa) = 77.64279 79.17752 78.41016
# Shear Modulus (GPa) = 39.80089 48.63664 44.21877
#
# Velocity S-wave (km/s) = 4.02678 4.45137 4.24439
# Velocity P-wave (km/s) = 7.29739 7.66007 7.48093
#
# Compressibility (1/GPa) = 0.01287950
#
# Stress axis : x y z
#
# Youngs Moduli (GPa) = 111.47128 191.93637 114.43403
#
# Poissons Ratio (x) = 0.30510 0.37054
# Poissons Ratio (y) = 0.17719 0.02202
# Poissons Ratio (z) = 0.36095 0.03694
#
# Static dielectric constant tensor:
#      x y z
#    x 1.963060 0.000000 0.000000 
#    y 0.000000 2.150830 0.000000 
#    z 0.000000 0.000000 2.115570 
# 
# From -- ./inp_files/32166.got.cif
#   From: 2010.05.17/outbox.cif.g08.bks.cpg/sg50_17_cif.got.tgz:32166.got - 2010.06.03 11:33:33.
