data_PCOD9397619
_publ_section_title
;
Structure prediction by ZEFSAII (Michael W. Deem and Ramdas Pophale) SiO2 
 PCOD9397619
Probable space group: P B A N
;
_chemical_formula_sum "Si O2"
_cell_formula_units_Z 64
_cell_length_a 15.760105
_cell_length_b 17.312966
_cell_length_c 11.622648
_cell_angle_alpha 90.000000
_cell_angle_beta 90.000000
_cell_angle_gamma 90.000000
_cell_volume 3171.287881
_symmetry_space_group_name_H-M "P B A N"
_symmetry_group_IT_number 50
_space_group.IT_coordinate_system_code '2'
_symmetry_cell_setting 'orthorhombic'
loop_
_space_group_symop_operation_xyz
x,y,z
1/2-x,1/2-y,z
x,1/2-y,-z
1/2-x,y,-z
-x,-y,-z
1/2+x,1/2+y,-z
-x,1/2+y,z
1/2+x,-y,z
loop_
_atom_site_type_symbol
_atom_site_label
_atom_site_fract_x
_atom_site_fract_y
_atom_site_fract_z
Si Si1 0.846772 0.236589 0.635955
Si Si2 0.330097 0.567062 0.300500
Si Si3 0.655751 0.995542 0.678399
Si Si4 0.423780 0.447184 0.453192
Si Si5 0.025874 0.866109 0.715524
Si Si6 0.161003 0.892010 0.035130
Si Si7 0.021805 0.336693 0.973549
Si Si8 0.167602 0.057816 0.925323
O O1 0.750000 0.250000 0.677557
O O2 0.848946 0.250000 0.500000
O O3 0.867965 0.147118 0.654571
O O4 0.909138 0.295665 0.698306
O O5 0.234168 0.553520 0.342882
O O6 0.380392 0.494977 0.350464
O O7 0.331157 0.575702 0.163894
O O8 0.636592 0.945848 0.564535
O O9 0.678430 0.942506 0.787785
O O10 0.578008 0.052893 0.710640
O O11 0.500000 0.500000 0.500000
O O12 0.462367 0.371732 0.393366
O O13 0.981095 0.855788 0.837943
O O14 0.250000 0.852299 0.000000
O O15 0.074861 0.845363 0.019190
O O16 0.154362 0.967727 0.955850
O O17 0.050324 0.250000 0.000000
O O18 0.085165 0.395187 0.036586
O O19 0.250000 0.082617 0.000000
#
# Coordination Sequence:
#
# PCOD9397619 Si02
#       8
#     8   8   8   8   8   8   8   8
#     4  11  23  36  60  89 134 181 210 256 331 410
#     4  12  21  39  64  96 130 169 225 265 336 394
#     4  11  21  39  65  96 129 168 224 277 320 396
#     4  10  24  36  62  92 131 170 220 274 320 381
#     4  11  22  43  58  94 137 171 217 268 327 404
#     4  11  22  40  66 100 131 172 210 270 340 406
#     4  12  26  42  64  97 133 175 222 273 341 404
#     4  11  23  43  70  94 125 172 226 280 337 392
#
# _framework density 20.181076000000001
#
# number of rings (size 3 to 8) (size 9 to 14) (size 15 to 20)
#    0.000    0.875    5.000    3.750    5.250    0.500 
#    2.250    0.000    0.000    0.000    0.000    0.000 
#    0.000    0.000    0.000    0.000    0.000    0.000 
#
# Total GULP energy -357559.045094 kJ/mol
# GULP energy per Si atom -5586.860080 kJ/mol
# Density = 2.013514 g / cm^3
# Si number density = 20.181076 Si / 1000 Ang^3
#
#
#
# Elastic Constant Matrix: (Units=GPa)
#
#
# Indices 1 2 3 4 5 6 
#
# 1 63.5103 28.9628 31.6305 0.0000 0.0000 0.0000
# 2 28.9628 55.8243 16.1122 0.0000 0.0000 0.0000
# 3 31.6305 16.1122 129.0278 0.0000 0.0000 0.0000
# 4 0.0000 0.0000 0.0000 20.2515 0.0000 0.0000
# 5 0.0000 0.0000 0.0000 0.0000 27.9177 0.0000
# 6 0.0000 0.0000 0.0000 0.0000 0.0000 20.2226
#
#
#
# Elastic Compliance Matrix: (Units=1/GPa)
#
#
# Indices 1 2 3 4 5 6 
#
# 1 0.022660 -0.010533 -0.004240 0.000000 0.000000 0.000000
# 2 -0.010533 0.023479 -0.000350 0.000000 0.000000 0.000000
# 3 -0.004240 -0.000350 0.008833 0.000000 0.000000 0.000000
# 4 0.000000 0.000000 0.000000 0.049379 0.000000 0.000000
# 5 0.000000 0.000000 0.000000 0.000000 0.035820 0.000000
# 6 0.000000 0.000000 0.000000 0.000000 0.000000 0.049450
#
#
# Mechanical properties :
#
#
# Convention : Reuss Voigt Hill
#
# Bulk Modulus (GPa) = 40.44063 44.64148 42.54105
# Shear Modulus (GPa) = 21.91936 25.12216 23.52076
#
# Velocity S-wave (km/s) = 3.29923 3.53205 3.41763
# Velocity P-wave (km/s) = 5.88180 6.22915 6.05797
#
# Compressibility (1/GPa) = 0.02472760
#
# Stress axis : x y z
#
# Youngs Moduli (GPa) = 44.12972 42.59121 113.20774
#
# Poissons Ratio (x) = 0.44861 0.47998
# Poissons Ratio (y) = 0.46482 0.03960
# Poissons Ratio (z) = 0.18710 0.01490
#
# Static dielectric constant tensor:
#      x y z
#    x 1.773250 0.000000 0.000000 
#    y 0.000000 1.689980 0.000000 
#    z 0.000000 0.000000 1.788050 
# 
# From -- ./inp_files/21357.got.cif
#   From: 2010.05.17/outbox.cif.g08.bks.cpg/sg50_11_cif.got.tgz:21357.got - 2010.06.03 11:33:33.
