data_PCOD9397216
_publ_section_title
;
Structure prediction by ZEFSAII (Michael W. Deem and Ramdas Pophale) SiO2 
 PCOD9397216
Probable space group: P B A N
;
_chemical_formula_sum "Si O2"
_cell_formula_units_Z 26
_cell_length_a 4.978573
_cell_length_b 11.508927
_cell_length_c 18.581961
_cell_angle_alpha 90.000000
_cell_angle_beta 90.000000
_cell_angle_gamma 90.000000
_cell_volume 1064.709819
_symmetry_space_group_name_H-M "P B A N"
_symmetry_group_IT_number 50
_space_group.IT_coordinate_system_code '2'
_symmetry_cell_setting 'orthorhombic'
loop_
_space_group_symop_operation_xyz
x,y,z
1/2-x,1/2-y,z
x,1/2-y,-z
1/2-x,y,-z
-x,-y,-z
1/2+x,1/2+y,-z
-x,1/2+y,z
1/2+x,-y,z
loop_
_atom_site_type_symbol
_atom_site_label
_atom_site_fract_x
_atom_site_fract_y
_atom_site_fract_z
Si Si1 0.438014 0.421039 0.648868
Si Si2 0.544676 0.414111 0.120553
Si Si3 0.250000 0.250000 0.230346
Si Si4 0.250000 0.750000 0.000000
Si Si5 0.750000 0.914312 0.500000
O O1 0.743452 0.465540 0.650141
O O2 0.392207 0.342132 0.717631
O O3 0.330113 0.358696 0.576187
O O4 0.324269 0.516497 0.123986
O O5 0.458800 0.322805 0.182006
O O6 0.569014 0.334508 0.049402
O O7 0.500000 0.000000 0.500000
#
# Coordination Sequence:
#
# PCOD9397216 Si02
#       5
#     8   8   4   2   4
#     4  10  22  40  64  96 136 183 236 293 346 409
#     4  12  28  49  74 107 143 179 228 291 352 427
#     4  12  26  44  70 102 142 188 232 280 358 426
#     4  12  28  54  84 108 136 188 236 286 368 448
#     4   8  16  35  60  89 130 178 232 293 346 393
#
# _framework density 24.419798
#
# number of rings (size 3 to 8) (size 9 to 14) (size 15 to 20)
#    0.000    1.231    0.000    4.615    0.000   11.077 
#    0.000    0.000    0.000   11.077    0.000    0.000 
#    0.000    0.000    0.000    0.000    0.000    0.000 
#
# Total GULP energy -145249.372595 kJ/mol
# GULP energy per Si atom -5586.514331 kJ/mol
# Density = 2.436422 g / cm^3
# Si number density = 24.419798 Si / 1000 Ang^3
#
#
#
# Elastic Constant Matrix: (Units=GPa)
#
#
# Indices 1 2 3 4 5 6 
#
# 1 92.6367 1.7256 3.7702 0.0000 0.0000 0.0000
# 2 1.7256 99.5744 53.3384 0.0000 0.0000 0.0000
# 3 3.7702 53.3384 172.0817 0.0000 0.0000 0.0000
# 4 0.0000 0.0000 0.0000 91.1686 0.0000 0.0000
# 5 0.0000 0.0000 0.0000 0.0000 32.2939 0.0000
# 6 0.0000 0.0000 0.0000 0.0000 0.0000 6.0526
#
#
#
# Elastic Compliance Matrix: (Units=1/GPa)
#
#
# Indices 1 2 3 4 5 6 
#
# 1 0.010805 -0.000072 -0.000214 0.000000 0.000000 0.000000
# 2 -0.000072 0.012043 -0.003731 0.000000 0.000000 0.000000
# 3 -0.000214 -0.003731 0.006972 0.000000 0.000000 0.000000
# 4 0.000000 0.000000 0.000000 0.010969 0.000000 0.000000
# 5 0.000000 0.000000 0.000000 0.000000 0.030966 0.000000
# 6 0.000000 0.000000 0.000000 0.000000 0.000000 0.165218
#
#
# Mechanical properties :
#
#
# Convention : Reuss Voigt Hill
#
# Bulk Modulus (GPa) = 45.90484 53.55124 49.72804
# Shear Modulus (GPa) = 19.82011 46.26694 33.04352
#
# Velocity S-wave (km/s) = 2.85202 4.35748 3.68250
# Velocity P-wave (km/s) = 5.44834 6.87705 6.20396
#
# Compressibility (1/GPa) = 0.02178420
#
# Stress axis : x y z
#
# Youngs Moduli (GPa) = 92.55034 83.03836 143.42289
#
# Poissons Ratio (x) = 0.00602 0.03073
# Poissons Ratio (y) = 0.00671 0.53513
# Poissons Ratio (z) = 0.01983 0.30983
#
# Static dielectric constant tensor:
#      x y z
#    x 1.874830 0.000000 0.000000 
#    y 0.000000 2.108620 0.000000 
#    z 0.000000 0.000000 2.075710 
# 
# From -- ./inp_files/27852.got.cif
#   From: 2010.05.17/outbox.cif.g08.bks.cpg/sg50_14_cif.got.tgz:27852.got - 2010.06.03 11:33:33.
