data_PCOD9397066
_publ_section_title
;
Structure prediction by ZEFSAII (Michael W. Deem and Ramdas Pophale) SiO2 
 PCOD9397066
Probable space group: P B A N
;
_chemical_formula_sum "Si O2"
_cell_formula_units_Z 64
_cell_length_a 9.552270
_cell_length_b 14.027900
_cell_length_c 22.210954
_cell_angle_alpha 90.000000
_cell_angle_beta 90.000000
_cell_angle_gamma 90.000000
_cell_volume 2976.229818
_symmetry_space_group_name_H-M "P B A N"
_symmetry_group_IT_number 50
_space_group.IT_coordinate_system_code '2'
_symmetry_cell_setting 'orthorhombic'
loop_
_space_group_symop_operation_xyz
x,y,z
1/2-x,1/2-y,z
x,1/2-y,-z
1/2-x,y,-z
-x,-y,-z
1/2+x,1/2+y,-z
-x,1/2+y,z
1/2+x,-y,z
loop_
_atom_site_type_symbol
_atom_site_label
_atom_site_fract_x
_atom_site_fract_y
_atom_site_fract_z
Si Si1 0.637706 0.336938 0.380957
Si Si2 0.450048 0.675204 0.244337
Si Si3 0.101728 0.573291 0.963949
Si Si4 0.370043 0.478790 0.543065
Si Si5 0.332653 0.158547 0.060792
Si Si6 0.953841 0.959946 0.150810
Si Si7 0.900556 0.798865 0.372151
Si Si8 0.644017 0.386529 0.246068
O O1 0.750000 0.250000 0.371435
O O2 0.677954 0.421703 0.425742
O O3 0.501088 0.280138 0.402483
O O4 0.604271 0.388567 0.317007
O O5 0.541145 0.633557 0.191784
O O6 0.531153 0.679959 0.307092
O O7 0.399088 0.780135 0.228304
O O8 0.312547 0.608304 0.247455
O O9 0.333250 0.432177 0.896045
O O10 0.087963 0.537562 0.893885
O O11 0.250000 0.586407 0.000000
O O12 0.000000 0.500000 0.000000
O O13 0.250000 0.440778 0.500000
O O14 0.500000 0.500000 0.500000
O O15 0.399911 0.397326 0.591735
O O16 0.250000 0.250000 0.085769
O O17 0.498527 0.166562 0.043886
O O18 0.250000 0.137095 0.000000
O O19 0.924170 0.043362 0.197850
O O20 0.750000 0.750000 0.365729
#
# Coordination Sequence:
#
# PCOD9397066 Si02
#       8
#     8   8   8   8   8   8   8   8
#     4  11  22  46  73  96 143 199 236 297 374 455
#     4  10  22  46  66 105 136 180 245 297 364 448
#     4  10  23  43  68 102 140 192 244 290 376 456
#     4  12  27  42  67 108 142 188 255 301 360 448
#     4   9  21  45  67  98 146 190 237 302 365 446
#     4  10  24  41  74 103 140 183 244 306 371 428
#     4  11  24  45  70  99 148 187 236 312 380 435
#     4  10  21  46  74  97 139 188 241 299 365 450
#
# _framework density 21.503715
#
# number of rings (size 3 to 8) (size 9 to 14) (size 15 to 20)
#    0.750    0.875    2.500    2.625    1.750    3.500 
#   20.250    1.250    0.000    0.750    0.000    0.000 
#    0.000    0.000    0.000    0.000    0.000    0.000 
#
# Total GULP energy -356333.436396 kJ/mol
# GULP energy per Si atom -5567.709944 kJ/mol
# Density = 2.145477 g / cm^3
# Si number density = 21.503715 Si / 1000 Ang^3
#
#
#
# Elastic Constant Matrix: (Units=GPa)
#
#
# Indices 1 2 3 4 5 6 
#
# 1 133.2951 43.8250 32.2861 0.0000 0.0000 0.0000
# 2 43.8250 79.8134 62.4136 0.0000 0.0000 0.0000
# 3 32.2861 62.4136 107.6766 0.0000 0.0000 0.0000
# 4 0.0000 0.0000 0.0000 451.0168 0.0000 0.0000
# 5 0.0000 0.0000 0.0000 0.0000 22.4067 0.0000
# 6 0.0000 0.0000 0.0000 0.0000 0.0000 25.2476
#
#
#
# Elastic Compliance Matrix: (Units=1/GPa)
#
#
# Indices 1 2 3 4 5 6 
#
# 1 0.009161 -0.005272 0.000309 0.000000 0.000000 0.000000
# 2 -0.005272 0.025950 -0.013461 0.000000 0.000000 0.000000
# 3 0.000309 -0.013461 0.016997 0.000000 0.000000 0.000000
# 4 0.000000 0.000000 0.000000 0.002217 0.000000 0.000000
# 5 0.000000 0.000000 0.000000 0.000000 0.044629 0.000000
# 6 0.000000 0.000000 0.000000 0.000000 0.000000 0.039608
#
#
# Mechanical properties :
#
#
# Convention : Reuss Voigt Hill
#
# Bulk Modulus (GPa) = 65.52974 66.42606 65.97790
# Shear Modulus (GPa) = 27.70128 111.88491 69.79310
#
# Velocity S-wave (km/s) = 3.59306 7.22104 5.70322
# Velocity P-wave (km/s) = 6.91037 10.02408 8.60916
#
# Compressibility (1/GPa) = 0.01526025
#
# Stress axis : x y z
#
# Youngs Moduli (GPa) = 109.16415 38.53501 58.83341
#
# Poissons Ratio (x) = 0.20314 -0.01817
# Poissons Ratio (y) = 0.57546 0.79197
# Poissons Ratio (z) = -0.03372 0.51873
#
# Static dielectric constant tensor:
#      x y z
#    x 1.832210 0.000000 0.000000 
#    y 0.000000 1.827400 0.000000 
#    z 0.000000 0.000000 1.816670 
# 
# From -- ./inp_files/31614.got.cif
#   From: 2010.05.17/outbox.cif.g08.bks.cpg/sg50_16_cif.got.tgz:31614.got - 2010.06.03 11:33:33.
