data_PCOD9397016
_publ_section_title
;
Structure prediction by ZEFSAII (Michael W. Deem and Ramdas Pophale) SiO2 
 PCOD9397016
Probable space group: P B A N
;
_chemical_formula_sum "Si O2"
_cell_formula_units_Z 60
_cell_length_a 13.347910
_cell_length_b 18.960133
_cell_length_c 10.973983
_cell_angle_alpha 90.000000
_cell_angle_beta 90.000000
_cell_angle_gamma 90.000000
_cell_volume 2777.275303
_symmetry_space_group_name_H-M "P B A N"
_symmetry_group_IT_number 50
_space_group.IT_coordinate_system_code '2'
_symmetry_cell_setting 'orthorhombic'
loop_
_space_group_symop_operation_xyz
x,y,z
1/2-x,1/2-y,z
x,1/2-y,-z
1/2-x,y,-z
-x,-y,-z
1/2+x,1/2+y,-z
-x,1/2+y,z
1/2+x,-y,z
loop_
_atom_site_type_symbol
_atom_site_label
_atom_site_fract_x
_atom_site_fract_y
_atom_site_fract_z
Si Si1 0.911938 0.250000 0.500000
Si Si2 0.166713 0.692160 0.738488
Si Si3 0.742205 0.668844 0.666622
Si Si4 0.043407 0.120787 0.439075
Si Si5 0.509938 0.035760 0.802240
Si Si6 0.969169 0.880914 0.283303
Si Si7 0.766341 0.058734 0.144779
Si Si8 0.683143 0.589390 0.883042
O O1 0.844575 0.291475 0.404060
O O2 0.983813 0.195218 0.427644
O O3 0.250000 0.750000 0.785615
O O4 0.210893 0.617367 0.777345
O O5 0.046534 0.679110 0.765761
O O6 0.750000 0.750000 0.635884
O O7 0.663099 0.634185 0.571509
O O8 0.853739 0.642705 0.702521
O O9 0.683683 0.655119 0.793628
O O10 0.009771 0.098451 0.574610
O O11 0.017925 0.067559 0.330524
O O12 0.617266 0.065349 0.833176
O O13 0.429622 0.063123 0.900296
O O14 0.516069 0.951491 0.794147
O O15 0.731143 0.980108 0.181158
O O16 0.750000 0.066103 0.000000
O O17 0.750000 0.602708 0.000000
#
# Coordination Sequence:
#
# PCOD9397016 Si02
#       8
#     4   8   8   8   8   8   8   8
#     4  10  21  42  65  94 134 188 218 270 334 404
#     4  11  23  40  63  94 130 170 223 265 328 391
#     4  11  22  39  64  95 133 171 216 274 327 399
#     4  10  22  38  62  95 132 172 220 267 332 397
#     4  11  22  42  65  96 132 167 220 277 327 399
#     4  11  22  39  65  93 130 175 218 271 332 398
#     4  11  24  42  67  96 127 173 219 277 327 392
#     4  10  23  42  66  95 123 171 219 271 329 386
#
# _framework density 21.603907
#
# number of rings (size 3 to 8) (size 9 to 14) (size 15 to 20)
#    0.000    1.333    2.667    3.400    0.000    6.400 
#    0.000    0.000    0.000    4.800    0.000    0.000 
#    0.000    0.000    0.000    0.000    0.000    0.000 
#
# Total GULP energy -334409.404368 kJ/mol
# GULP energy per Si atom -5573.490073 kJ/mol
# Density = 2.155474 g / cm^3
# Si number density = 21.603907 Si / 1000 Ang^3
#
#
#
# Elastic Constant Matrix: (Units=GPa)
#
#
# Indices 1 2 3 4 5 6 
#
# 1 149.0657 19.6213 14.2238 0.0000 0.0000 0.0000
# 2 19.6213 67.0234 22.8202 0.0000 0.0000 0.0000
# 3 14.2238 22.8202 48.8818 0.0000 0.0000 0.0000
# 4 0.0000 0.0000 0.0000 4.5926 0.0000 0.0000
# 5 0.0000 0.0000 0.0000 0.0000 23.1103 0.0000
# 6 0.0000 0.0000 0.0000 0.0000 0.0000 22.4934
#
#
#
# Elastic Compliance Matrix: (Units=1/GPa)
#
#
# Indices 1 2 3 4 5 6 
#
# 1 0.007045 -0.001622 -0.001293 0.000000 0.000000 0.000000
# 2 -0.001622 0.018114 -0.007984 0.000000 0.000000 0.000000
# 3 -0.001293 -0.007984 0.024561 0.000000 0.000000 0.000000
# 4 0.000000 0.000000 0.000000 0.217742 0.000000 0.000000
# 5 0.000000 0.000000 0.000000 0.000000 0.043271 0.000000
# 6 0.000000 0.000000 0.000000 0.000000 0.000000 0.044457
#
#
# Mechanical properties :
#
#
# Convention : Reuss Voigt Hill
#
# Bulk Modulus (GPa) = 35.81467 42.03351 38.92409
# Shear Modulus (GPa) = 12.94344 23.92631 18.43488
#
# Velocity S-wave (km/s) = 2.45036 3.33152 2.92432
# Velocity P-wave (km/s) = 4.96181 5.85640 5.42756
#
# Compressibility (1/GPa) = 0.02792152
#
# Stress axis : x y z
#
# Youngs Moduli (GPa) = 141.93753 55.20729 40.71494
#
# Poissons Ratio (x) = 0.08957 0.05263
# Poissons Ratio (y) = 0.23028 0.32507
# Poissons Ratio (z) = 0.18348 0.44078
#
# Static dielectric constant tensor:
#      x y z
#    x 1.770630 0.000000 0.000000 
#    y 0.000000 1.774480 0.000000 
#    z 0.000000 0.000000 1.829070 
# 
# From -- ./inp_files/20430.got.cif
#   From: 2010.05.17/outbox.cif.g08.bks.cpg/sg50_11_cif.got.tgz:20430.got - 2010.06.03 11:33:33.
