data_PCOD9397278
_publ_section_title
;
Structure prediction by ZEFSAII (Michael W. Deem and Ramdas Pophale) SiO2 
 PCOD9397278
Probable space group: P B A N
;
_chemical_formula_sum "Si O2"
_cell_formula_units_Z 34
_cell_length_a 8.179855
_cell_length_b 21.188864
_cell_length_c 8.137175
_cell_angle_alpha 90.000000
_cell_angle_beta 90.000000
_cell_angle_gamma 90.000000
_cell_volume 1410.350104
_symmetry_space_group_name_H-M "P B A N"
_symmetry_group_IT_number 50
_space_group.IT_coordinate_system_code '2'
_symmetry_cell_setting 'orthorhombic'
loop_
_space_group_symop_operation_xyz
x,y,z
1/2-x,1/2-y,z
x,1/2-y,-z
1/2-x,y,-z
-x,-y,-z
1/2+x,1/2+y,-z
-x,1/2+y,z
1/2+x,-y,z
loop_
_atom_site_type_symbol
_atom_site_label
_atom_site_fract_x
_atom_site_fract_y
_atom_site_fract_z
Si Si1 0.250000 0.750000 0.500000
Si Si2 0.991351 0.353828 0.575876
Si Si3 0.851244 0.458281 0.766044
Si Si4 0.690852 0.820934 0.752721
Si Si5 0.494978 0.422348 0.891435
O O1 0.358775 0.798603 0.392884
O O2 0.068894 0.332603 0.402707
O O3 0.141664 0.353096 0.699274
O O4 0.913129 0.422717 0.603569
O O5 0.670473 0.432396 0.804464
O O6 0.869706 0.533524 0.786170
O O7 0.966442 0.440407 0.921596
O O8 0.750000 0.750000 0.777974
O O9 0.586985 0.853952 0.893398
#
# Coordination Sequence:
#
# PCOD9397278 Si02
#       5
#     2   8   8   8   8
#     4  12  20  38  64  90 128 178 218 290 328 406
#     4  11  22  38  65  90 127 172 227 268 344 390
#     4  10  22  41  68 101 130 182 216 287 336 411
#     4  11  22  42  63  94 131 180 221 280 331 411
#     4  10  22  42  67  98 141 169 229 273 350 403
#
# _framework density 24.107492000000001
#
# number of rings (size 3 to 8) (size 9 to 14) (size 15 to 20)
#    0.000    1.412    2.353    3.529    0.000    3.765 
#    0.000    5.882    0.000    0.000    0.000    0.000 
#    0.000    0.000    0.000    0.000    0.000    0.000 
#
# Total GULP energy -189798.758795 kJ/mol
# GULP energy per Si atom -5582.316435 kJ/mol
# Density = 2.405262 g / cm^3
# Si number density = 24.107492 Si / 1000 Ang^3
#
#
#
# Elastic Constant Matrix: (Units=GPa)
#
#
# Indices 1 2 3 4 5 6 
#
# 1 121.7954 57.9244 18.8983 0.0000 0.0000 0.0000
# 2 57.9244 130.6574 34.9956 0.0000 0.0000 0.0000
# 3 18.8983 34.9956 50.5774 0.0000 0.0000 0.0000
# 4 0.0000 0.0000 0.0000 19.7929 0.0000 0.0000
# 5 0.0000 0.0000 0.0000 0.0000 36.1888 0.0000
# 6 0.0000 0.0000 0.0000 0.0000 0.0000 56.7462
#
#
#
# Elastic Compliance Matrix: (Units=1/GPa)
#
#
# Indices 1 2 3 4 5 6 
#
# 1 0.010434 -0.004396 -0.000857 0.000000 0.000000 0.000000
# 2 -0.004396 0.011247 -0.006139 0.000000 0.000000 0.000000
# 3 -0.000857 -0.006139 0.024340 0.000000 0.000000 0.000000
# 4 0.000000 0.000000 0.000000 0.050523 0.000000 0.000000
# 5 0.000000 0.000000 0.000000 0.000000 0.027633 0.000000
# 6 0.000000 0.000000 0.000000 0.000000 0.000000 0.017622
#
#
# Mechanical properties :
#
#
# Convention : Reuss Voigt Hill
#
# Bulk Modulus (GPa) = 43.03668 58.51853 50.77761
# Shear Modulus (GPa) = 29.01411 35.29304 32.15358
#
# Velocity S-wave (km/s) = 3.47296 3.83036 3.65603
# Velocity P-wave (km/s) = 5.82861 6.62487 6.23945
#
# Compressibility (1/GPa) = 0.02323599
#
# Stress axis : x y z
#
# Youngs Moduli (GPa) = 95.83790 88.91254 41.08494
#
# Poissons Ratio (x) = 0.39089 0.03520
# Poissons Ratio (y) = 0.42133 0.25224
# Poissons Ratio (z) = 0.08212 0.54587
#
# Static dielectric constant tensor:
#      x y z
#    x 1.921030 0.000000 0.000000 
#    y 0.000000 2.011520 0.000000 
#    z 0.000000 0.000000 2.002430 
# 
# From -- ./inp_files/9257.got.cif
#   From: 2010.05.17/outbox.cif.g08.bks.cpg/sg50_5_cif.got.tgz:9257.got - 2010.06.03 11:33:33.
