data_PCOD9397756
_publ_section_title
;
Structure prediction by ZEFSAII (Michael W. Deem and Ramdas Pophale) SiO2 
 PCOD9397756
Probable space group: P B A N
;
_chemical_formula_sum "Si O2"
_cell_formula_units_Z 58
_cell_length_a 9.463700
_cell_length_b 25.950031
_cell_length_c 11.717519
_cell_angle_alpha 90.000000
_cell_angle_beta 90.000000
_cell_angle_gamma 90.000000
_cell_volume 2877.627082
_symmetry_space_group_name_H-M "P B A N"
_symmetry_group_IT_number 50
_space_group.IT_coordinate_system_code '2'
_symmetry_cell_setting 'orthorhombic'
loop_
_space_group_symop_operation_xyz
x,y,z
1/2-x,1/2-y,z
x,1/2-y,-z
1/2-x,y,-z
-x,-y,-z
1/2+x,1/2+y,-z
-x,1/2+y,z
1/2+x,-y,z
loop_
_atom_site_type_symbol
_atom_site_label
_atom_site_fract_x
_atom_site_fract_y
_atom_site_fract_z
Si Si1 0.515031 0.623752 0.153723
Si Si2 0.018628 0.325461 0.910819
Si Si3 0.622133 0.019379 0.084014
Si Si4 0.110659 0.675169 0.626533
Si Si5 0.330168 0.084800 0.783788
Si Si6 0.250000 0.250000 0.000000
Si Si7 0.395227 0.360156 0.436419
Si Si8 0.589978 0.206902 0.688232
O O1 0.430765 0.570410 0.145132
O O2 0.457335 0.655571 0.258066
O O3 0.678153 0.608335 0.178953
O O4 0.488299 0.657227 0.039976
O O5 0.058526 0.379785 0.851950
O O6 0.907425 0.297591 0.826008
O O7 0.150550 0.286538 0.923810
O O8 0.660870 0.973295 0.170442
O O9 0.750000 0.031576 0.000000
O O10 0.500000 0.000000 0.000000
O O11 0.281112 0.672586 0.637741
O O12 0.093618 0.737102 0.631667
O O13 0.021658 0.644880 0.529492
O O14 0.366161 0.091718 0.649187
O O15 0.250000 0.349712 0.500000
O O16 0.439698 0.316124 0.347634
#
# Coordination Sequence:
#
# PCOD9397756 Si02
#       8
#     8   8   8   8   8   2   8   8
#     4  12  23  41  68  98 140 173 230 281 351 414
#     4  11  22  36  61 100 136 180 218 280 339 411
#     4  12  24  41  70  99 133 179 225 279 355 422
#     4  11  24  44  63  97 137 187 218 285 337 406
#     4  11  22  44  64  98 136 164 224 303 331 402
#     4  12  20  32  60  94 142 180 220 266 356 404
#     4  11  23  42  72  95 126 177 234 281 338 399
#     4  10  25  41  63  95 144 175 230 275 337 405
#
# _framework density 20.155495999999999
#
# number of rings (size 3 to 8) (size 9 to 14) (size 15 to 20)
#    0.000    0.828    5.517    1.655    1.931    2.207 
#    0.000    2.069    0.000    0.000    0.000    0.000 
#    0.000    0.000    0.000    0.000    0.000    0.000 
#
# Total GULP energy -323385.752151 kJ/mol
# GULP energy per Si atom -5575.616416 kJ/mol
# Density = 2.010962 g / cm^3
# Si number density = 20.155496 Si / 1000 Ang^3
#
#
#
# Elastic Constant Matrix: (Units=GPa)
#
#
# Indices 1 2 3 4 5 6 
#
# 1 77.6538 9.4359 45.4786 0.0000 0.0000 0.0000
# 2 9.4359 58.5801 30.4865 0.0000 0.0000 0.0000
# 3 45.4786 30.4865 153.3617 0.0000 0.0000 0.0000
# 4 0.0000 0.0000 0.0000 32.5805 0.0000 0.0000
# 5 0.0000 0.0000 0.0000 0.0000 31.1733 0.0000
# 6 0.0000 0.0000 0.0000 0.0000 0.0000 28.2820
#
#
#
# Elastic Compliance Matrix: (Units=1/GPa)
#
#
# Indices 1 2 3 4 5 6 
#
# 1 0.015585 -0.000117 -0.004598 0.000000 0.000000 0.000000
# 2 -0.000117 0.019041 -0.003750 0.000000 0.000000 0.000000
# 3 -0.004598 -0.003750 0.008630 0.000000 0.000000 0.000000
# 4 0.000000 0.000000 0.000000 0.030693 0.000000 0.000000
# 5 0.000000 0.000000 0.000000 0.000000 0.032079 0.000000
# 6 0.000000 0.000000 0.000000 0.000000 0.000000 0.035358
#
#
# Mechanical properties :
#
#
# Convention : Reuss Voigt Hill
#
# Bulk Modulus (GPa) = 37.98826 51.15530 44.57178
# Shear Modulus (GPa) = 29.92346 32.02010 30.97178
#
# Velocity S-wave (km/s) = 3.85727 3.99012 3.92426
# Velocity P-wave (km/s) = 6.22307 6.83107 6.53414
#
# Compressibility (1/GPa) = 0.02632392
#
# Stress axis : x y z
#
# Youngs Moduli (GPa) = 64.16434 52.51729 115.87915
#
# Poissons Ratio (x) = 0.00616 0.53285
# Poissons Ratio (y) = 0.00753 0.43459
# Poissons Ratio (z) = 0.29505 0.19696
#
# Static dielectric constant tensor:
#      x y z
#    x 1.844040 0.000000 0.000000 
#    y 0.000000 1.652640 0.000000 
#    z 0.000000 0.000000 1.783990 
# 
# From -- ./inp_files/19427.got.cif
#   From: 2010.05.17/outbox.cif.g08.bks.cpg/sg50_10_cif.got.tgz:19427.got - 2010.06.03 11:33:33.
