data_PCOD9397771
_publ_section_title
;
Structure prediction by ZEFSAII (Michael W. Deem and Ramdas Pophale) SiO2 
 PCOD9397771
Probable space group: P B A N
;
_chemical_formula_sum "Si O2"
_cell_formula_units_Z 24
_cell_length_a 8.861361
_cell_length_b 21.341622
_cell_length_c 4.735830
_cell_angle_alpha 90.000000
_cell_angle_beta 90.000000
_cell_angle_gamma 90.000000
_cell_volume 895.620359
_symmetry_space_group_name_H-M "P B A N"
_symmetry_group_IT_number 50
_space_group.IT_coordinate_system_code '2'
_symmetry_cell_setting 'orthorhombic'
loop_
_space_group_symop_operation_xyz
x,y,z
1/2-x,1/2-y,z
x,1/2-y,-z
1/2-x,y,-z
-x,-y,-z
1/2+x,1/2+y,-z
-x,1/2+y,z
1/2+x,-y,z
loop_
_atom_site_type_symbol
_atom_site_label
_atom_site_fract_x
_atom_site_fract_y
_atom_site_fract_z
Si Si1 0.750000 0.750000 0.500000
Si Si2 0.750000 0.250000 0.000000
Si Si3 0.487727 0.919412 0.803842
Si Si4 0.250000 0.493697 0.500000
Si Si5 0.509452 0.334306 0.310003
O O1 0.643308 0.705665 0.687970
O O2 0.643396 0.293063 0.191346
O O3 0.638709 0.951814 0.689064
O O4 0.467524 0.855159 0.631003
O O5 0.350727 0.963361 0.707596
O O6 0.497422 0.898221 0.126713
#
# Coordination Sequence:
#
# PCOD9397771 Si02
#       5
#     2   2   8   4   8
#     4  12  30  52  80 114 156 204 258 318 384 458
#     4  12  28  48  76 110 152 200 256 314 380 454
#     4  11  26  46  73 107 147 194 248 308 375 448
#     4  10  25  46  74 108 148 194 249 310 376 448
#     4  12  28  49  75 109 150 197 252 311 378 450
#
# _framework density 26.797069
#
# number of rings (size 3 to 8) (size 9 to 14) (size 15 to 20)
#    0.000    0.667    0.000    5.000    0.000   25.333 
#    0.000    0.000    0.000    0.000    0.000    0.000 
#    0.000    0.000    0.000    0.000    0.000    0.000 
#
# Total GULP energy -135093.468214 kJ/mol
# GULP energy per Si atom -5628.894509 kJ/mol
# Density = 2.673608 g / cm^3
# Si number density = 26.797069 Si / 1000 Ang^3
#
#
#
# Elastic Constant Matrix: (Units=GPa)
#
#
# Indices 1 2 3 4 5 6 
#
# 1 208.6371 73.8333 37.1250 0.0000 0.0000 0.0000
# 2 73.8333 118.0978 22.2269 0.0000 0.0000 0.0000
# 3 37.1250 22.2269 99.6471 0.0000 0.0000 0.0000
# 4 0.0000 0.0000 0.0000 36.3701 0.0000 0.0000
# 5 0.0000 0.0000 0.0000 0.0000 13.0530 0.0000
# 6 0.0000 0.0000 0.0000 0.0000 0.0000 34.5448
#
#
#
# Elastic Compliance Matrix: (Units=1/GPa)
#
#
# Indices 1 2 3 4 5 6 
#
# 1 0.006377 -0.003695 -0.001552 0.000000 0.000000 0.000000
# 2 -0.003695 0.010979 -0.001073 0.000000 0.000000 0.000000
# 3 -0.001552 -0.001073 0.010853 0.000000 0.000000 0.000000
# 4 0.000000 0.000000 0.000000 0.027495 0.000000 0.000000
# 5 0.000000 0.000000 0.000000 0.000000 0.076611 0.000000
# 6 0.000000 0.000000 0.000000 0.000000 0.000000 0.028948
#
#
# Mechanical properties :
#
#
# Convention : Reuss Voigt Hill
#
# Bulk Modulus (GPa) = 64.22123 76.97249 70.59686
# Shear Modulus (GPa) = 27.91895 36.34004 32.12950
#
# Velocity S-wave (km/s) = 3.23130 3.68655 3.46640
# Velocity P-wave (km/s) = 6.15950 6.84890 6.51333
#
# Compressibility (1/GPa) = 0.01557117
#
# Stress axis : x y z
#
# Youngs Moduli (GPa) = 156.82518 91.08149 92.14288
#
# Poissons Ratio (x) = 0.33650 0.14297
# Poissons Ratio (y) = 0.57939 0.09883
# Poissons Ratio (z) = 0.24333 0.09769
#
# Static dielectric constant tensor:
#      x y z
#    x 2.023690 0.000000 0.000000 
#    y 0.000000 2.068360 0.000000 
#    z 0.000000 0.000000 1.996040 
# 
# From -- ./inp_files/891.got.cif
#   From: 2010.05.17/outbox.cif.g08.bks.cpg/sg50_1_cif.got.tgz:891.got - 2010.06.03 11:33:33.
