data_PCOD9397302
_publ_section_title
;
Structure prediction by ZEFSAII (Michael W. Deem and Ramdas Pophale) SiO2 
 PCOD9397302
Probable space group: P B A N
;
_chemical_formula_sum "Si O2"
_cell_formula_units_Z 48
_cell_length_a 7.913104
_cell_length_b 29.633997
_cell_length_c 8.267759
_cell_angle_alpha 90.000000
_cell_angle_beta 90.000000
_cell_angle_gamma 90.000000
_cell_volume 1938.763857
_symmetry_space_group_name_H-M "P B A N"
_symmetry_group_IT_number 50
_space_group.IT_coordinate_system_code '2'
_symmetry_cell_setting 'orthorhombic'
loop_
_space_group_symop_operation_xyz
x,y,z
1/2-x,1/2-y,z
x,1/2-y,-z
1/2-x,y,-z
-x,-y,-z
1/2+x,1/2+y,-z
-x,1/2+y,z
1/2+x,-y,z
loop_
_atom_site_type_symbol
_atom_site_label
_atom_site_fract_x
_atom_site_fract_y
_atom_site_fract_z
Si Si1 0.010467 0.236276 0.317472
Si Si2 0.697686 0.187536 0.179307
Si Si3 0.081486 0.066042 0.183546
Si Si4 0.575654 0.984766 0.674239
Si Si5 0.219946 0.156848 0.194441
Si Si6 0.975453 0.097901 0.824689
O O1 0.036618 0.250000 0.500000
O O2 0.843252 0.204833 0.298140
O O3 0.965100 0.281621 0.219237
O O4 0.159925 0.204523 0.256500
O O5 0.673625 0.133843 0.167283
O O6 0.750000 0.200826 0.000000
O O7 0.246611 0.040792 0.270839
O O8 0.082786 0.117932 0.241270
O O9 0.938050 0.030037 0.221579
O O10 0.057068 0.077092 0.990635
O O11 0.443319 0.945727 0.721002
O O12 0.500000 0.000000 0.500000
O O13 0.385598 0.131155 0.255348
O O14 0.250000 0.160352 0.000000
#
# Coordination Sequence:
#
# PCOD9397302 Si02
#       6
#     8   8   8   8   8   8
#     4  11  24  44  70 103 143 179 220 285 353 414
#     4  11  23  42  69 101 137 182 233 281 332 408
#     4  10  22  42  66  96 133 177 232 285 336 409
#     4  11  23  41  66  98 137 177 221 284 355 419
#     4   9  20  42  68  97 134 178 232 284 334 406
#     4  10  23  43  67  97 133 177 232 289 334 406
#
# _framework density 24.758044999999999
#
# number of rings (size 3 to 8) (size 9 to 14) (size 15 to 20)
#    0.000    1.667    0.000    6.500    0.000    4.667 
#    0.000   11.667    0.000    0.000    0.000    0.000 
#    0.000    0.000    0.000    0.000    0.000    0.000 
#
# Total GULP energy -267323.897123 kJ/mol
# GULP energy per Si atom -5569.247857 kJ/mol
# Density = 2.470169 g / cm^3
# Si number density = 24.758045 Si / 1000 Ang^3
#
#
#
# Elastic Constant Matrix: (Units=GPa)
#
#
# Indices 1 2 3 4 5 6 
#
# 1 105.4951 55.0181 35.7749 0.0000 0.0000 0.0000
# 2 55.0181 233.7014 104.5674 0.0000 0.0000 0.0000
# 3 35.7749 104.5674 123.7599 0.0000 0.0000 0.0000
# 4 0.0000 0.0000 0.0000 -153.2530 0.0000 0.0000
# 5 0.0000 0.0000 0.0000 0.0000 28.6208 0.0000
# 6 0.0000 0.0000 0.0000 0.0000 0.0000 53.3922
#
#
#
# Elastic Compliance Matrix: (Units=1/GPa)
#
#
# Indices 1 2 3 4 5 6 
#
# 1 0.010998 -0.001876 -0.001594 0.000000 0.000000 0.000000
# 2 -0.001876 0.007200 -0.005541 0.000000 0.000000 0.000000
# 3 -0.001594 -0.005541 0.013223 0.000000 0.000000 0.000000
# 4 0.000000 0.000000 0.000000 -0.006525 0.000000 0.000000
# 5 0.000000 0.000000 0.000000 0.000000 0.034940 0.000000
# 6 0.000000 0.000000 0.000000 0.000000 0.000000 0.018729
#
#
# Mechanical properties :
#
#
# Convention : Reuss Voigt Hill
#
# Bulk Modulus (GPa) = 74.63586 94.85301 84.74444
# Shear Modulus (GPa) = 49.47901 3.59173 26.53537
#
# Velocity S-wave (km/s) = 4.47531 1.20577 3.27737
# Velocity P-wave (km/s) = 7.54428 6.35088 6.97315
#
# Compressibility (1/GPa) = 0.01339839
#
# Stress axis : x y z
#
# Youngs Moduli (GPa) = 90.92531 138.89114 75.62699
#
# Poissons Ratio (x) = 0.26054 0.12057
# Poissons Ratio (y) = 0.17056 0.41906
# Poissons Ratio (z) = 0.14496 0.76961
#
# Static dielectric constant tensor:
#      x y z
#    x 2.211350 0.000000 0.000000 
#    y 0.000000 1.919970 0.000000 
#    z 0.000000 0.000000 1.958200 
# 
# From -- ./inp_files/10097.got.cif
#   From: 2010.05.17/outbox.cif.g08.bks.cpg/sg50_6_cif.got.tgz:10097.got - 2010.06.03 11:33:33.
