data_PCOD9397718
_publ_section_title
;
Structure prediction by ZEFSAII (Michael W. Deem and Ramdas Pophale) SiO2 
 PCOD9397718
Probable space group: P B A N
;
_chemical_formula_sum "Si O2"
_cell_formula_units_Z 32
_cell_length_a 11.667668
_cell_length_b 9.294287
_cell_length_c 13.011440
_cell_angle_alpha 90.000000
_cell_angle_beta 90.000000
_cell_angle_gamma 90.000000
_cell_volume 1410.995099
_symmetry_space_group_name_H-M "P B A N"
_symmetry_group_IT_number 50
_space_group.IT_coordinate_system_code '2'
_symmetry_cell_setting 'orthorhombic'
loop_
_space_group_symop_operation_xyz
x,y,z
1/2-x,1/2-y,z
x,1/2-y,-z
1/2-x,y,-z
-x,-y,-z
1/2+x,1/2+y,-z
-x,1/2+y,z
1/2+x,-y,z
loop_
_atom_site_type_symbol
_atom_site_label
_atom_site_fract_x
_atom_site_fract_y
_atom_site_fract_z
Si Si1 0.250000 0.250000 0.500000
Si Si2 0.750000 0.750000 0.000000
Si Si3 0.411900 0.361764 0.600730
Si Si4 0.964015 0.121736 0.283549
Si Si5 0.250000 0.750000 0.832029
Si Si6 0.405206 0.494534 0.090200
O O1 0.276075 0.374009 0.592577
O O2 0.673240 0.643319 0.932733
O O3 0.409892 0.250000 0.500000
O O4 0.469162 0.265463 0.686798
O O5 0.458980 0.519975 0.615672
O O6 0.839555 0.162396 0.238982
O O7 0.028928 0.035785 0.195321
O O8 0.173069 0.636850 0.897050
O O9 0.500000 0.500000 0.000000
#
# Coordination Sequence:
#
# PCOD9397718 Si02
#       6
#     2   2   8   8   4   8
#     4   8  24  38  76  96 150 192 236 312 356 446
#     4  12  28  44  80 102 146 202 240 310 376 440
#     4  10  24  46  71 106 146 192 250 307 369 447
#     4  12  25  47  74 109 149 197 248 310 374 449
#     4  12  28  47  77 110 156 198 251 312 381 448
#     4  12  28  50  72 112 148 195 249 309 372 459
#
# _framework density 22.679029
#
# number of rings (size 3 to 8) (size 9 to 14) (size 15 to 20)
#    0.750    0.000    2.500    3.750    7.000    3.500 
#    0.000    0.000    0.000    0.000    0.000    0.000 
#    0.000    0.000    0.000    0.000    0.000    0.000 
#
# Total GULP energy -178135.629628 kJ/mol
# GULP energy per Si atom -5566.738426 kJ/mol
# Density = 2.262741 g / cm^3
# Si number density = 22.679029 Si / 1000 Ang^3
#
#
#
# Elastic Constant Matrix: (Units=GPa)
#
#
# Indices 1 2 3 4 5 6 
#
# 1 129.2911 69.7382 55.9090 0.0000 0.0000 0.0000
# 2 69.7382 160.9442 48.5538 0.0000 0.0000 0.0000
# 3 55.9090 48.5538 79.1935 0.0000 0.0000 0.0000
# 4 0.0000 0.0000 0.0000 56.1195 0.0000 0.0000
# 5 0.0000 0.0000 0.0000 0.0000 28.6275 0.0000
# 6 0.0000 0.0000 0.0000 0.0000 0.0000 28.8197
#
#
#
# Elastic Compliance Matrix: (Units=1/GPa)
#
#
# Indices 1 2 3 4 5 6 
#
# 1 0.012463 -0.003369 -0.006733 0.000000 0.000000 0.000000
# 2 -0.003369 0.008534 -0.002854 0.000000 0.000000 0.000000
# 3 -0.006733 -0.002854 0.019130 0.000000 0.000000 0.000000
# 4 0.000000 0.000000 0.000000 0.017819 0.000000 0.000000
# 5 0.000000 0.000000 0.000000 0.000000 0.034931 0.000000
# 6 0.000000 0.000000 0.000000 0.000000 0.000000 0.034698
#
#
# Mechanical properties :
#
#
# Convention : Reuss Voigt Hill
#
# Bulk Modulus (GPa) = 70.34488 79.75898 75.05193
# Shear Modulus (GPa) = 31.59998 35.72854 33.66426
#
# Velocity S-wave (km/s) = 3.73682 3.97344 3.85694
# Velocity P-wave (km/s) = 7.05006 7.50306 7.28008
#
# Compressibility (1/GPa) = 0.01421567
#
# Stress axis : x y z
#
# Youngs Moduli (GPa) = 80.23468 117.17640 52.27266
#
# Poissons Ratio (x) = 0.39479 0.35197
# Poissons Ratio (y) = 0.27033 0.14917
# Poissons Ratio (z) = 0.54024 0.33439
#
# Static dielectric constant tensor:
#      x y z
#    x 1.936480 0.000000 0.000000 
#    y 0.000000 1.854600 0.000000 
#    z 0.000000 0.000000 1.967200 
# 
# From -- ./inp_files/25641.got.cif
#   From: 2010.05.17/outbox.cif.g08.bks.cpg/sg50_13_cif.got.tgz:25641.got - 2010.06.03 11:33:33.
