data_PCOD9397909
_publ_section_title
;
Structure prediction by ZEFSAII (Michael W. Deem and Ramdas Pophale) SiO2 
 PCOD9397909
Probable space group: P B A N
;
_chemical_formula_sum "Si O2"
_cell_formula_units_Z 48
_cell_length_a 15.836282
_cell_length_b 18.633428
_cell_length_c 7.629452
_cell_angle_alpha 90.000000
_cell_angle_beta 90.000000
_cell_angle_gamma 90.000000
_cell_volume 2251.330896
_symmetry_space_group_name_H-M "P B A N"
_symmetry_group_IT_number 50
_space_group.IT_coordinate_system_code '2'
_symmetry_cell_setting 'orthorhombic'
loop_
_space_group_symop_operation_xyz
x,y,z
1/2-x,1/2-y,z
x,1/2-y,-z
1/2-x,y,-z
-x,-y,-z
1/2+x,1/2+y,-z
-x,1/2+y,z
1/2+x,-y,z
loop_
_atom_site_type_symbol
_atom_site_label
_atom_site_fract_x
_atom_site_fract_y
_atom_site_fract_z
Si Si1 0.466096 0.104926 0.903731
Si Si2 0.750000 0.250000 0.000000
Si Si3 0.399191 0.844134 0.865412
Si Si4 0.250000 0.453048 0.500000
Si Si5 0.750000 0.750000 0.000000
Si Si6 0.976733 0.754436 0.681833
Si Si7 0.423867 0.982125 0.637031
Si Si8 0.852417 0.641574 0.768223
O O1 0.445634 0.171315 0.769242
O O2 0.446144 0.033079 0.800603
O O3 0.563466 0.116344 0.961668
O O4 0.412574 0.104450 0.085939
O O5 0.689512 0.195453 0.107855
O O6 0.464687 0.780764 0.827074
O O7 0.411738 0.901570 0.709106
O O8 0.167319 0.495861 0.561346
O O9 0.212351 0.406325 0.339568
O O10 0.804275 0.699212 0.881527
O O11 0.027379 0.750000 0.500000
O O12 0.906946 0.692773 0.641714
O O13 0.500000 0.000000 0.500000
#
# Coordination Sequence:
#
# PCOD9397909 Si02
#       8
#     8   2   8   4   2   8   8   8
#     4  11  21  46  72 101 136 191 245 296 372 462
#     4  12  24  46  72 112 144 186 260 320 372 454
#     4  11  24  45  72 100 140 189 249 304 370 454
#     4  12  28  45  64 107 154 184 256 310 382 459
#     4  12  20  32  58  96 136 176 224 270 378 422
#     4  11  21  41  67 100 135 182 237 293 368 450
#     4  12  27  48  72 103 146 198 245 319 384 451
#     4  11  23  38  63  99 138 183 229 297 356 447
#
# _framework density 21.320720999999999
#
# number of rings (size 3 to 8) (size 9 to 14) (size 15 to 20)
#    0.000    0.667    3.333    6.500    2.333    2.667 
#    3.000    0.000    0.000    0.000    0.000    0.000 
#    0.000    0.000    0.000    0.000    0.000    0.000 
#
# Total GULP energy -267735.119509 kJ/mol
# GULP energy per Si atom -5577.814990 kJ/mol
# Density = 2.127219 g / cm^3
# Si number density = 21.320721 Si / 1000 Ang^3
#
#
#
# Elastic Constant Matrix: (Units=GPa)
#
#
# Indices 1 2 3 4 5 6 
#
# 1 122.3391 48.1067 30.0823 0.0000 0.0000 0.0000
# 2 48.1067 124.7125 49.5241 0.0000 0.0000 0.0000
# 3 30.0823 49.5241 105.1449 0.0000 0.0000 0.0000
# 4 0.0000 0.0000 0.0000 38.6594 0.0000 0.0000
# 5 0.0000 0.0000 0.0000 0.0000 14.4711 0.0000
# 6 0.0000 0.0000 0.0000 0.0000 0.0000 20.8295
#
#
#
# Elastic Compliance Matrix: (Units=1/GPa)
#
#
# Indices 1 2 3 4 5 6 
#
# 1 0.009768 -0.003270 -0.001255 0.000000 0.000000 0.000000
# 2 -0.003270 0.010958 -0.004226 0.000000 0.000000 0.000000
# 3 -0.001255 -0.004226 0.011860 0.000000 0.000000 0.000000
# 4 0.000000 0.000000 0.000000 0.025867 0.000000 0.000000
# 5 0.000000 0.000000 0.000000 0.000000 0.069103 0.000000
# 6 0.000000 0.000000 0.000000 0.000000 0.000000 0.048009
#
#
# Mechanical properties :
#
#
# Convention : Reuss Voigt Hill
#
# Bulk Modulus (GPa) = 66.28766 67.51363 66.90064
# Shear Modulus (GPa) = 25.24057 29.75756 27.49906
#
# Velocity S-wave (km/s) = 3.44445 3.73997 3.59525
# Velocity P-wave (km/s) = 6.85399 7.09819 6.97716
#
# Compressibility (1/GPa) = 0.01508577
#
# Stress axis : x y z
#
# Youngs Moduli (GPa) = 102.37226 91.25931 84.31720
#
# Poissons Ratio (x) = 0.29840 0.10579
# Poissons Ratio (y) = 0.33474 0.35630
# Poissons Ratio (z) = 0.12844 0.38563
#
# Static dielectric constant tensor:
#      x y z
#    x 1.808110 0.000000 0.000000 
#    y 0.000000 1.811720 0.000000 
#    z 0.000000 0.000000 2.198830 
# 
# From -- ./inp_files/13056.got.cif
#   From: 2010.05.17/outbox.cif.g08.bks.cpg/sg50_7_cif.got.tgz:13056.got - 2010.06.03 11:33:33.
