data_PCOD9397273
_publ_section_title
;
Structure prediction by ZEFSAII (Michael W. Deem and Ramdas Pophale) SiO2 
 PCOD9397273
Probable space group: P B A N
;
_chemical_formula_sum "Si O2"
_cell_formula_units_Z 56
_cell_length_a 13.818980
_cell_length_b 15.430899
_cell_length_c 12.334024
_cell_angle_alpha 90.000000
_cell_angle_beta 90.000000
_cell_angle_gamma 90.000000
_cell_volume 2630.098455
_symmetry_space_group_name_H-M "P B A N"
_symmetry_group_IT_number 50
_space_group.IT_coordinate_system_code '2'
_symmetry_cell_setting 'orthorhombic'
loop_
_space_group_symop_operation_xyz
x,y,z
1/2-x,1/2-y,z
x,1/2-y,-z
1/2-x,y,-z
-x,-y,-z
1/2+x,1/2+y,-z
-x,1/2+y,z
1/2+x,-y,z
loop_
_atom_site_type_symbol
_atom_site_label
_atom_site_fract_x
_atom_site_fract_y
_atom_site_fract_z
Si Si1 0.028719 0.186017 0.232399
Si Si2 0.355969 0.578408 0.188463
Si Si3 0.087334 0.436448 0.962970
Si Si4 0.370086 0.048770 0.618142
Si Si5 0.310151 0.670530 0.703594
Si Si6 0.349066 0.481744 0.622734
Si Si7 0.070163 0.372354 0.184931
O O1 0.914861 0.198987 0.254411
O O2 0.046663 0.135035 0.120107
O O3 0.069384 0.123768 0.325875
O O4 0.085419 0.276563 0.230019
O O5 0.342369 0.498487 0.106149
O O6 0.378449 0.536508 0.306663
O O7 0.261502 0.636578 0.201234
O O8 0.455303 0.625364 0.157660
O O9 0.124438 0.393173 0.073056
O O10 0.000000 0.500000 0.000000
O O11 0.254968 0.065494 0.623860
O O12 0.396038 0.036478 0.493050
O O13 0.250000 0.750000 0.651927
O O14 0.329134 0.584491 0.632622
O O15 0.405394 0.445544 0.726593
#
# Coordination Sequence:
#
# PCOD9397273 Si02
#       7
#     8   8   8   8   8   8   8
#     4  11  22  38  64  94 132 168 211 270 319 393
#     4   9  19  38  61  87 124 164 213 261 318 392
#     4   9  19  38  62  86 123 169 213 259 324 387
#     4   9  21  42  63  90 119 168 219 260 322 383
#     4  11  21  39  64  94 132 168 218 272 324 383
#     4  10  22  41  67  88 125 170 217 271 320 387
#     4  11  21  37  62  91 127 167 211 264 328 385
#
# _framework density 21.291978
#
# number of rings (size 3 to 8) (size 9 to 14) (size 15 to 20)
#    0.000    2.000    1.429    3.000    0.000    3.429 
#    0.000   23.571    3.143    5.143    0.000    0.000 
#    0.000    0.000    0.000    0.000    0.000    0.000 
#
# Total GULP energy -312524.418019 kJ/mol
# GULP energy per Si atom -5580.793179 kJ/mol
# Density = 2.124352 g / cm^3
# Si number density = 21.291978 Si / 1000 Ang^3
#
#
#
# Elastic Constant Matrix: (Units=GPa)
#
#
# Indices 1 2 3 4 5 6 
#
# 1 76.7522 16.5718 20.4237 0.0000 0.0000 0.0000
# 2 16.5718 120.7696 44.5065 0.0000 0.0000 0.0000
# 3 20.4237 44.5065 131.3129 0.0000 0.0000 0.0000
# 4 0.0000 0.0000 0.0000 9.5745 0.0000 0.0000
# 5 0.0000 0.0000 0.0000 0.0000 14.4883 0.0000
# 6 0.0000 0.0000 0.0000 0.0000 0.0000 31.5606
#
#
#
# Elastic Compliance Matrix: (Units=1/GPa)
#
#
# Indices 1 2 3 4 5 6 
#
# 1 0.013756 -0.001256 -0.001714 0.000000 0.000000 0.000000
# 2 -0.001256 0.009577 -0.003051 0.000000 0.000000 0.000000
# 3 -0.001714 -0.003051 0.008916 0.000000 0.000000 0.000000
# 4 0.000000 0.000000 0.000000 0.104444 0.000000 0.000000
# 5 0.000000 0.000000 0.000000 0.000000 0.069021 0.000000
# 6 0.000000 0.000000 0.000000 0.000000 0.000000 0.031685
#
#
# Mechanical properties :
#
#
# Convention : Reuss Voigt Hill
#
# Bulk Modulus (GPa) = 49.48528 54.64875 52.06702
# Shear Modulus (GPa) = 19.51781 27.61352 23.56567
#
# Velocity S-wave (km/s) = 3.03095 3.60515 3.33045
# Velocity P-wave (km/s) = 5.96159 6.56137 6.26866
#
# Compressibility (1/GPa) = 0.02020803
#
# Stress axis : x y z
#
# Youngs Moduli (GPa) = 72.69460 104.41926 112.15918
#
# Poissons Ratio (x) = 0.13115 0.19223
# Poissons Ratio (y) = 0.09130 0.34215
# Poissons Ratio (z) = 0.12459 0.31854
#
# Static dielectric constant tensor:
#      x y z
#    x 1.861350 0.000000 0.000000 
#    y 0.000000 1.796360 0.000000 
#    z 0.000000 0.000000 1.775320 
# 
# From -- ./inp_files/21136.got.cif
#   From: 2010.05.17/outbox.cif.g08.bks.cpg/sg50_11_cif.got.tgz:21136.got - 2010.06.03 11:33:33.
