data_PCOD9397844
_publ_section_title
;
Structure prediction by ZEFSAII (Michael W. Deem and Ramdas Pophale) SiO2 
 PCOD9397844
Probable space group: P B A N
;
_chemical_formula_sum "Si O2"
_cell_formula_units_Z 58
_cell_length_a 19.479129
_cell_length_b 14.419504
_cell_length_c 10.845839
_cell_angle_alpha 90.000000
_cell_angle_beta 90.000000
_cell_angle_gamma 90.000000
_cell_volume 3046.372518
_symmetry_space_group_name_H-M "P B A N"
_symmetry_group_IT_number 50
_space_group.IT_coordinate_system_code '2'
_symmetry_cell_setting 'orthorhombic'
loop_
_space_group_symop_operation_xyz
x,y,z
1/2-x,1/2-y,z
x,1/2-y,-z
1/2-x,y,-z
-x,-y,-z
1/2+x,1/2+y,-z
-x,1/2+y,z
1/2+x,-y,z
loop_
_atom_site_type_symbol
_atom_site_label
_atom_site_fract_x
_atom_site_fract_y
_atom_site_fract_z
Si Si1 0.131941 0.363044 0.366556
Si Si2 0.443393 0.245713 0.142551
Si Si3 0.012340 0.859465 0.492215
Si Si4 0.104382 0.942617 0.713060
Si Si5 0.669485 0.269608 0.142535
Si Si6 0.022836 0.461099 0.869432
Si Si7 0.071774 0.873998 0.229630
Si Si8 0.750000 0.750000 0.500000
O O1 0.103364 0.300417 0.250358
O O2 0.148289 0.468959 0.328556
O O3 0.198323 0.312951 0.420224
O O4 0.069788 0.372422 0.468846
O O5 0.462468 0.354122 0.160318
O O6 0.513259 0.185010 0.155612
O O7 0.417602 0.250000 0.000000
O O8 0.020479 0.750000 0.500000
O O9 0.058716 0.899571 0.601988
O O10 0.045392 0.893082 0.365641
O O11 0.143754 0.866535 0.797242
O O12 0.044131 0.987718 0.792725
O O13 0.750000 0.250000 0.143203
O O14 0.636150 0.191725 0.227963
O O15 0.646211 0.250000 0.000000
O O16 0.085013 0.527246 0.831602
O O17 0.000000 0.500000 0.000000
#
# Coordination Sequence:
#
# PCOD9397844 Si02
#       8
#     8   8   8   8   8   8   8   2
#     4  11  25  43  66  94 129 179 218 266 327 391
#     4  11  20  38  64  95 130 162 213 277 329 378
#     4  11  20  39  67  97 124 161 206 275 332 374
#     4  12  22  41  67  96 130 163 223 272 326 387
#     4  11  24  43  63  87 132 178 209 260 326 401
#     4  12  21  33  64 101 127 156 201 274 335 379
#     4  11  21  36  61  94 127 161 208 261 329 374
#     4  12  28  48  62  80 142 188 226 266 324 396
#
# _framework density 19.039037
#
# number of rings (size 3 to 8) (size 9 to 14) (size 15 to 20)
#    0.000    0.690    7.586    2.483    0.000    0.000 
#    4.966    1.034    0.000    0.000    0.000    0.000 
#    0.000    0.000    0.000    0.000    0.000    0.000 
#
# Total GULP energy -322983.061545 kJ/mol
# GULP energy per Si atom -5568.673475 kJ/mol
# Density = 1.899570 g / cm^3
# Si number density = 19.039037 Si / 1000 Ang^3
#
#
#
# Elastic Constant Matrix: (Units=GPa)
#
#
# Indices 1 2 3 4 5 6 
#
# 1 83.1939 31.0082 44.2871 0.0000 0.0000 0.0000
# 2 31.0082 152.3230 46.5054 0.0000 0.0000 0.0000
# 3 44.2871 46.5054 110.6455 0.0000 0.0000 0.0000
# 4 0.0000 0.0000 0.0000 28.8865 0.0000 0.0000
# 5 0.0000 0.0000 0.0000 0.0000 43.1363 0.0000
# 6 0.0000 0.0000 0.0000 0.0000 0.0000 14.2577
#
#
#
# Elastic Compliance Matrix: (Units=1/GPa)
#
#
# Indices 1 2 3 4 5 6 
#
# 1 0.015550 -0.001451 -0.005614 0.000000 0.000000 0.000000
# 2 -0.001451 0.007667 -0.002642 0.000000 0.000000 0.000000
# 3 -0.005614 -0.002642 0.012395 0.000000 0.000000 0.000000
# 4 0.000000 0.000000 0.000000 0.034618 0.000000 0.000000
# 5 0.000000 0.000000 0.000000 0.000000 0.023182 0.000000
# 6 0.000000 0.000000 0.000000 0.000000 0.000000 0.070138
#
#
# Mechanical properties :
#
#
# Convention : Reuss Voigt Hill
#
# Bulk Modulus (GPa) = 61.73599 65.52930 63.63264
# Shear Modulus (GPa) = 26.54453 32.21355 29.37904
#
# Velocity S-wave (km/s) = 3.73797 4.11782 3.93249
# Velocity P-wave (km/s) = 7.15027 7.55657 7.35622
#
# Compressibility (1/GPa) = 0.01619801
#
# Stress axis : x y z
#
# Youngs Moduli (GPa) = 64.31059 130.42999 80.67692
#
# Poissons Ratio (x) = 0.18931 0.45290
# Poissons Ratio (y) = 0.09334 0.21311
# Poissons Ratio (z) = 0.36103 0.34453
#
# Static dielectric constant tensor:
#      x y z
#    x 1.652730 0.000000 0.000000 
#    y 0.000000 1.666860 0.000000 
#    z 0.000000 0.000000 1.628750 
# 
# From -- ./inp_files/21920.got.cif
#   From: 2010.05.17/outbox.cif.g08.bks.cpg/sg50_11_cif.got.tgz:21920.got - 2010.06.03 11:33:33.
