data_PCOD9397377
_publ_section_title
;
Structure prediction by ZEFSAII (Michael W. Deem and Ramdas Pophale) SiO2 
 PCOD9397377
Probable space group: P B A N
;
_chemical_formula_sum "Si O2"
_cell_formula_units_Z 48
_cell_length_a 9.106529
_cell_length_b 14.177472
_cell_length_c 17.665486
_cell_angle_alpha 90.000000
_cell_angle_beta 90.000000
_cell_angle_gamma 90.000000
_cell_volume 2280.747792
_symmetry_space_group_name_H-M "P B A N"
_symmetry_group_IT_number 50
_space_group.IT_coordinate_system_code '2'
_symmetry_cell_setting 'orthorhombic'
loop_
_space_group_symop_operation_xyz
x,y,z
1/2-x,1/2-y,z
x,1/2-y,-z
1/2-x,y,-z
-x,-y,-z
1/2+x,1/2+y,-z
-x,1/2+y,z
1/2+x,-y,z
loop_
_atom_site_type_symbol
_atom_site_label
_atom_site_fract_x
_atom_site_fract_y
_atom_site_fract_z
Si Si1 0.953318 0.892874 0.846522
Si Si2 0.652874 0.604073 0.677227
Si Si3 0.386855 0.944511 0.552561
Si Si4 0.028120 0.196060 0.662161
Si Si5 0.907354 0.200795 0.825859
Si Si6 0.264580 0.959769 0.911635
O O1 0.909841 0.918647 0.760266
O O2 0.973985 0.779660 0.849537
O O3 0.110140 0.937166 0.870902
O O4 0.824750 0.935468 0.897652
O O5 0.651467 0.516014 0.621174
O O6 0.817460 0.645001 0.680609
O O7 0.556532 0.693167 0.648982
O O8 0.250000 0.921559 0.500000
O O9 0.457558 0.853297 0.590381
O O10 0.500000 0.000000 0.500000
O O11 0.931846 0.182080 0.737363
O O12 0.750000 0.250000 0.835213
O O13 0.890136 0.107180 0.874863
O O14 0.250000 0.939016 0.000000
#
# Coordination Sequence:
#
# PCOD9397377 Si02
#       6
#     8   8   8   8   8   8
#     4  10  23  40  67  96 129 175 229 270 325 402
#     4  10  23  43  69  95 130 175 224 273 332 393
#     4  12  25  42  66  99 131 167 215 270 341 399
#     4  10  22  44  69  93 129 176 224 274 326 400
#     4   9  21  41  67  95 127 173 223 269 326 391
#     4  11  23  41  65  99 139 176 217 275 348 396
#
# _framework density 21.045729000000001
#
# number of rings (size 3 to 8) (size 9 to 14) (size 15 to 20)
#    0.000    1.667    1.667    1.500    4.667    7.667 
#    0.000    0.833    0.000    0.000    0.000    0.000 
#    0.000    0.000    0.000    0.000    0.000    0.000 
#
# Total GULP energy -268320.405096 kJ/mol
# GULP energy per Si atom -5590.008439 kJ/mol
# Density = 2.099783 g / cm^3
# Si number density = 21.045729 Si / 1000 Ang^3
#
#
#
# Elastic Constant Matrix: (Units=GPa)
#
#
# Indices 1 2 3 4 5 6 
#
# 1 56.0262 17.5152 32.3435 0.0000 0.0000 0.0000
# 2 17.5152 56.7388 40.5412 0.0000 0.0000 0.0000
# 3 32.3435 40.5412 86.5751 0.0000 0.0000 0.0000
# 4 0.0000 0.0000 0.0000 32.6244 0.0000 0.0000
# 5 0.0000 0.0000 0.0000 0.0000 28.1391 0.0000
# 6 0.0000 0.0000 0.0000 0.0000 0.0000 27.7274
#
#
#
# Elastic Compliance Matrix: (Units=1/GPa)
#
#
# Indices 1 2 3 4 5 6 
#
# 1 0.022834 -0.001433 -0.007859 0.000000 0.000000 0.000000
# 2 -0.001433 0.026577 -0.011910 0.000000 0.000000 0.000000
# 3 -0.007859 -0.011910 0.020064 0.000000 0.000000 0.000000
# 4 0.000000 0.000000 0.000000 0.030652 0.000000 0.000000
# 5 0.000000 0.000000 0.000000 0.000000 0.035538 0.000000
# 6 0.000000 0.000000 0.000000 0.000000 0.000000 0.036065
#
#
# Mechanical properties :
#
#
# Convention : Reuss Voigt Hill
#
# Bulk Modulus (GPa) = 36.94132 42.23778 39.58955
# Shear Modulus (GPa) = 22.40558 24.96085 23.68322
#
# Velocity S-wave (km/s) = 3.26638 3.44761 3.35822
# Velocity P-wave (km/s) = 5.64063 5.99676 5.82142
#
# Compressibility (1/GPa) = 0.02706996
#
# Stress axis : x y z
#
# Youngs Moduli (GPa) = 43.79426 37.62649 49.84034
#
# Poissons Ratio (x) = 0.05392 0.39172
# Poissons Ratio (y) = 0.06276 0.59360
# Poissons Ratio (z) = 0.34420 0.44813
#
# Static dielectric constant tensor:
#      x y z
#    x 1.796340 0.000000 0.000000 
#    y 0.000000 2.043900 0.000000 
#    z 0.000000 0.000000 1.728150 
# 
# From -- ./inp_files/28684.got.cif
#   From: 2010.05.17/outbox.cif.g08.bks.cpg/sg50_15_cif.got.tgz:28684.got - 2010.06.03 11:33:33.
