data_PCOD9397838
_publ_section_title
;
Structure prediction by ZEFSAII (Michael W. Deem and Ramdas Pophale) SiO2 
 PCOD9397838
Probable space group: P B A N
;
_chemical_formula_sum "Si O2"
_cell_formula_units_Z 42
_cell_length_a 23.176567
_cell_length_b 7.826714
_cell_length_c 11.309437
_cell_angle_alpha 90.000000
_cell_angle_beta 90.000000
_cell_angle_gamma 90.000000
_cell_volume 2051.490721
_symmetry_space_group_name_H-M "P B A N"
_symmetry_group_IT_number 50
_space_group.IT_coordinate_system_code '2'
_symmetry_cell_setting 'orthorhombic'
loop_
_space_group_symop_operation_xyz
x,y,z
1/2-x,1/2-y,z
x,1/2-y,-z
1/2-x,y,-z
-x,-y,-z
1/2+x,1/2+y,-z
-x,1/2+y,z
1/2+x,-y,z
loop_
_atom_site_type_symbol
_atom_site_label
_atom_site_fract_x
_atom_site_fract_y
_atom_site_fract_z
Si Si1 0.250000 0.250000 0.000000
Si Si2 0.381706 0.158654 0.373485
Si Si3 0.773652 0.057046 0.380759
Si Si4 0.547653 0.626288 0.152356
Si Si5 0.683113 0.929643 0.203070
Si Si6 0.077428 0.984315 0.083700
O O1 0.293468 0.350854 0.083185
O O2 0.393994 0.250000 0.500000
O O3 0.435094 0.106343 0.289221
O O4 0.345776 0.296278 0.294625
O O5 0.340588 0.992000 0.383205
O O6 0.750000 0.250000 0.384905
O O7 0.750000 0.969916 0.500000
O O8 0.740785 0.989278 0.267256
O O9 0.479853 0.611101 0.125914
O O10 0.566760 0.817309 0.118369
O O11 0.578477 0.494936 0.059674
O O12 0.634375 0.062855 0.157939
#
# Coordination Sequence:
#
# PCOD9397838 Si02
#       6
#     2   8   8   8   8   8
#     4  12  20  32  64  88 116 152 206 254 286 356
#     4  11  20  37  62  86 110 157 207 246 293 364
#     4  11  23  38  57  84 120 157 192 245 310 359
#     4   9  19  36  58  82 114 152 195 241 296 354
#     4  11  21  35  60  87 115 154 201 247 292 360
#     4   9  19  36  58  83 114 152 194 242 297 355
#
# _framework density 20.472916999999999
#
# number of rings (size 3 to 8) (size 9 to 14) (size 15 to 20)
#    0.000    1.714    3.810    2.286    0.000    1.524 
#    0.000    4.286    4.190    0.000    0.000    0.000 
#    0.000    0.000    0.000    0.000    0.000    0.000 
#
# Total GULP energy -233877.368499 kJ/mol
# GULP energy per Si atom -5568.508774 kJ/mol
# Density = 2.042632 g / cm^3
# Si number density = 20.472917 Si / 1000 Ang^3
#
#
#
# Elastic Constant Matrix: (Units=GPa)
#
#
# Indices 1 2 3 4 5 6 
#
# 1 60.5095 4.5957 46.1437 0.0000 0.0000 0.0000
# 2 4.5957 26.6670 25.3045 0.0000 0.0000 0.0000
# 3 46.1437 25.3045 163.2880 0.0000 0.0000 0.0000
# 4 0.0000 0.0000 0.0000 13.0674 0.0000 0.0000
# 5 0.0000 0.0000 0.0000 0.0000 37.1085 0.0000
# 6 0.0000 0.0000 0.0000 0.0000 0.0000 28.3934
#
#
#
# Elastic Compliance Matrix: (Units=1/GPa)
#
#
# Indices 1 2 3 4 5 6 
#
# 1 0.021194 0.002381 -0.006358 0.000000 0.000000 0.000000
# 2 0.002381 0.044232 -0.007527 0.000000 0.000000 0.000000
# 3 -0.006358 -0.007527 0.009087 0.000000 0.000000 0.000000
# 4 0.000000 0.000000 0.000000 0.076526 0.000000 0.000000
# 5 0.000000 0.000000 0.000000 0.000000 0.026948 0.000000
# 6 0.000000 0.000000 0.000000 0.000000 0.000000 0.035219
#
#
# Mechanical properties :
#
#
# Convention : Reuss Voigt Hill
#
# Bulk Modulus (GPa) = 19.41587 44.72802 32.07195
# Shear Modulus (GPa) = 19.73280 27.34190 23.53735
#
# Velocity S-wave (km/s) = 3.10796 3.65844 3.39437
# Velocity P-wave (km/s) = 4.73112 6.30400 5.57332
#
# Compressibility (1/GPa) = 0.05150425
#
# Stress axis : x y z
#
# Youngs Moduli (GPa) = 47.18268 22.60800 110.04193
#
# Poissons Ratio (x) = -0.05383 0.69967
# Poissons Ratio (y) = -0.11234 0.82833
# Poissons Ratio (z) = 0.30000 0.17018
#
# Static dielectric constant tensor:
#      x y z
#    x 1.840960 0.000000 0.000000 
#    y 0.000000 1.744940 0.000000 
#    z 0.000000 0.000000 1.603830 
# 
# From -- ./inp_files/22717.got.cif
#   From: 2010.05.17/outbox.cif.g08.bks.cpg/sg50_12_cif.got.tgz:22717.got - 2010.06.03 11:33:33.
