data_PCOD9397818
_publ_section_title
;
Structure prediction by ZEFSAII (Michael W. Deem and Ramdas Pophale) SiO2 
 PCOD9397818
Probable space group: P B A N
;
_chemical_formula_sum "Si O2"
_cell_formula_units_Z 26
_cell_length_a 11.116874
_cell_length_b 13.049300
_cell_length_c 7.781936
_cell_angle_alpha 90.000000
_cell_angle_beta 90.000000
_cell_angle_gamma 90.000000
_cell_volume 1128.905408
_symmetry_space_group_name_H-M "P B A N"
_symmetry_group_IT_number 50
_space_group.IT_coordinate_system_code '2'
_symmetry_cell_setting 'orthorhombic'
loop_
_space_group_symop_operation_xyz
x,y,z
1/2-x,1/2-y,z
x,1/2-y,-z
1/2-x,y,-z
-x,-y,-z
1/2+x,1/2+y,-z
-x,1/2+y,z
1/2+x,-y,z
loop_
_atom_site_type_symbol
_atom_site_label
_atom_site_fract_x
_atom_site_fract_y
_atom_site_fract_z
Si Si1 0.688385 0.355480 0.312148
Si Si2 0.079841 0.360572 0.561746
Si Si3 0.687124 0.572537 0.234959
Si Si4 0.250000 0.250000 0.000000
O O1 0.750000 0.250000 0.252689
O O2 0.750000 0.378825 0.500000
O O3 0.548073 0.342718 0.353689
O O4 0.695540 0.453381 0.187293
O O5 0.122455 0.250000 0.500000
O O6 0.181451 0.404441 0.685379
O O7 0.086016 0.424607 0.384734
O O8 0.669987 0.668158 0.107272
#
# Coordination Sequence:
#
# PCOD9397818 Si02
#       4
#     8   8   8   2
#     4  11  22  36  65  98 126 156 205 265 317 364
#     4  11  19  38  66  95 123 152 215 264 308 356
#     4  11  23  39  64  94 120 168 206 259 303 370
#     4  12  24  42  62  88 130 162 216 250 308 372
#
# _framework density 23.031157
#
# number of rings (size 3 to 8) (size 9 to 14) (size 15 to 20)
#    0.000    0.923    9.231    1.846    0.000    0.000 
#    0.000    2.308    0.000    0.000    0.000    0.000 
#    0.000    0.000    0.000    0.000    0.000    0.000 
#
# Total GULP energy -145054.167482 kJ/mol
# GULP energy per Si atom -5579.006442 kJ/mol
# Density = 2.297874 g / cm^3
# Si number density = 23.031157 Si / 1000 Ang^3
#
#
#
# Elastic Constant Matrix: (Units=GPa)
#
#
# Indices 1 2 3 4 5 6 
#
# 1 149.5822 40.9775 15.2052 0.0000 0.0000 0.0000
# 2 40.9775 231.7734 38.4708 0.0000 0.0000 0.0000
# 3 15.2052 38.4708 59.1180 0.0000 0.0000 0.0000
# 4 0.0000 0.0000 0.0000 22.9648 0.0000 0.0000
# 5 0.0000 0.0000 0.0000 0.0000 6.4378 0.0000
# 6 0.0000 0.0000 0.0000 0.0000 0.0000 18.6098
#
#
#
# Elastic Compliance Matrix: (Units=1/GPa)
#
#
# Indices 1 2 3 4 5 6 
#
# 1 0.007092 -0.001066 -0.001130 0.000000 0.000000 0.000000
# 2 -0.001066 0.004997 -0.002978 0.000000 0.000000 0.000000
# 3 -0.001130 -0.002978 0.019144 0.000000 0.000000 0.000000
# 4 0.000000 0.000000 0.000000 0.043545 0.000000 0.000000
# 5 0.000000 0.000000 0.000000 0.000000 0.155331 0.000000
# 6 0.000000 0.000000 0.000000 0.000000 0.000000 0.053735
#
#
# Mechanical properties :
#
#
# Convention : Reuss Voigt Hill
#
# Bulk Modulus (GPa) = 47.88170 69.97561 58.92866
# Shear Modulus (GPa) = 16.60274 32.65716 24.62995
#
# Velocity S-wave (km/s) = 2.68784 3.76966 3.27374
# Velocity P-wave (km/s) = 5.51976 7.02824 6.31917
#
# Compressibility (1/GPa) = 0.02088480
#
# Stress axis : x y z
#
# Youngs Moduli (GPa) = 140.99814 200.10645 52.23631
#
# Poissons Ratio (x) = 0.21338 0.05904
# Poissons Ratio (y) = 0.15035 0.15555
# Poissons Ratio (z) = 0.15936 0.59586
#
# Static dielectric constant tensor:
#      x y z
#    x 1.799310 0.000000 0.000000 
#    y 0.000000 1.973070 0.000000 
#    z 0.000000 0.000000 2.015700 
# 
# From -- ./inp_files/10479.got.cif
#   From: 2010.05.17/outbox.cif.g08.bks.cpg/sg50_6_cif.got.tgz:10479.got - 2010.06.03 11:33:33.
