data_PCOD9397140
_publ_section_title
;
Structure prediction by ZEFSAII (Michael W. Deem and Ramdas Pophale) SiO2 
 PCOD9397140
Probable space group: P B A N
;
_chemical_formula_sum "Si O2"
_cell_formula_units_Z 32
_cell_length_a 36.775360
_cell_length_b 5.035036
_cell_length_c 7.158464
_cell_angle_alpha 90.000000
_cell_angle_beta 90.000000
_cell_angle_gamma 90.000000
_cell_volume 1325.498859
_symmetry_space_group_name_H-M "P B A N"
_symmetry_group_IT_number 50
_space_group.IT_coordinate_system_code '2'
_symmetry_cell_setting 'orthorhombic'
loop_
_space_group_symop_operation_xyz
x,y,z
1/2-x,1/2-y,z
x,1/2-y,-z
1/2-x,y,-z
-x,-y,-z
1/2+x,1/2+y,-z
-x,1/2+y,z
1/2+x,-y,z
loop_
_atom_site_type_symbol
_atom_site_label
_atom_site_fract_x
_atom_site_fract_y
_atom_site_fract_z
Si Si1 0.404186 0.994760 0.624539
Si Si2 0.708251 0.234169 0.272719
Si Si3 0.978493 0.244671 0.775784
Si Si4 0.663720 0.741810 0.272221
O O1 0.387410 0.750000 0.500000
O O2 0.439739 0.859934 0.709583
O O3 0.414622 0.250000 0.500000
O O4 0.375463 0.125492 0.769890
O O5 0.750000 0.250000 0.212930
O O6 0.708836 0.250000 0.500000
O O7 0.678770 0.456577 0.214085
O O8 0.693781 0.950419 0.213184
O O9 0.990540 0.536277 0.714791
O O10 0.977713 0.250000 0.000000
O O11 0.662707 0.750000 0.500000
#
# Coordination Sequence:
#
# PCOD9397140 Si02
#       4
#     8   8   8   8
#     4  11  21  33  52  77 105 138 174 219 271 321
#     4   9  15  23  37  57  87 130 168 194 233 297
#     4  10  22  39  56  75 102 137 176 221 271 322
#     4   9  16  26  38  60  93 126 161 201 247 295
#
# _framework density 24.141857000000002
#
# number of rings (size 3 to 8) (size 9 to 14) (size 15 to 20)
#    0.000    2.250    0.000    6.000    0.000    6.000 
#    0.000    0.000    0.000    0.000    0.000    0.000 
#    0.000    1.000    0.000   54.750    0.000   12.500 
#
# Total GULP energy -178734.688122 kJ/mol
# GULP energy per Si atom -5585.459004 kJ/mol
# Density = 2.408691 g / cm^3
# Si number density = 24.141857 Si / 1000 Ang^3
#
#
#
# Elastic Constant Matrix: (Units=GPa)
#
#
# Indices 1 2 3 4 5 6 
#
# 1 162.8155 33.6538 4.2522 0.0000 0.0000 0.0000
# 2 33.6538 143.4903 3.0605 0.0000 0.0000 0.0000
# 3 4.2522 3.0605 75.1375 0.0000 0.0000 0.0000
# 4 0.0000 0.0000 0.0000 1.4177 0.0000 0.0000
# 5 0.0000 0.0000 0.0000 0.0000 -78.9594 0.0000
# 6 0.0000 0.0000 0.0000 0.0000 0.0000 43.6672
#
#
#
# Elastic Compliance Matrix: (Units=1/GPa)
#
#
# Indices 1 2 3 4 5 6 
#
# 1 0.006462 -0.001509 -0.000304 0.000000 0.000000 0.000000
# 2 -0.001509 0.007328 -0.000213 0.000000 0.000000 0.000000
# 3 -0.000304 -0.000213 0.013335 0.000000 0.000000 0.000000
# 4 0.000000 0.000000 0.000000 0.705377 0.000000 0.000000
# 5 0.000000 0.000000 0.000000 0.000000 -0.012665 0.000000
# 6 0.000000 0.000000 0.000000 0.000000 0.000000 0.022901
#
#
# Mechanical properties :
#
#
# Convention : Reuss Voigt Hill
#
# Bulk Modulus (GPa) = 43.34345 51.48625 47.41485
# Shear Modulus (GPa) = 6.62708 15.92354 11.27531
#
# Velocity S-wave (km/s) = 1.65862 2.57102 2.16346
# Velocity P-wave (km/s) = 4.65410 5.49421 5.09151
#
# Compressibility (1/GPa) = 0.02307154
#
# Stress axis : x y z
#
# Youngs Moduli (GPa) = 154.75599 136.47063 74.99160
#
# Poissons Ratio (x) = 0.20594 0.02281
# Poissons Ratio (y) = 0.23353 0.01598
# Poissons Ratio (z) = 0.04708 0.02908
#
# Static dielectric constant tensor:
#      x y z
#    x 1.942110 0.000000 0.000000 
#    y 0.000000 1.872260 0.000000 
#    z 0.000000 0.000000 2.013630 
# 
# From -- ./inp_files/16657.got.cif
#   From: 2010.05.17/outbox.cif.g08.bks.cpg/sg50_9_cif.got.tgz:16657.got - 2010.06.03 11:33:33.
