data_PCOD9397919
_publ_section_title
;
Structure prediction by ZEFSAII (Michael W. Deem and Ramdas Pophale) SiO2 
 PCOD9397919
Probable space group: P B A N
;
_chemical_formula_sum "Si O2"
_cell_formula_units_Z 34
_cell_length_a 16.395754
_cell_length_b 15.901490
_cell_length_c 6.647806
_cell_angle_alpha 90.000000
_cell_angle_beta 90.000000
_cell_angle_gamma 90.000000
_cell_volume 1733.195494
_symmetry_space_group_name_H-M "P B A N"
_symmetry_group_IT_number 50
_space_group.IT_coordinate_system_code '2'
_symmetry_cell_setting 'orthorhombic'
loop_
_space_group_symop_operation_xyz
x,y,z
1/2-x,1/2-y,z
x,1/2-y,-z
1/2-x,y,-z
-x,-y,-z
1/2+x,1/2+y,-z
-x,1/2+y,z
1/2+x,-y,z
loop_
_atom_site_type_symbol
_atom_site_label
_atom_site_fract_x
_atom_site_fract_y
_atom_site_fract_z
Si Si1 0.250000 0.250000 0.500000
Si Si2 0.503183 0.151690 0.460061
Si Si3 0.422669 0.454800 0.886163
Si Si4 0.643945 0.610046 0.722048
Si Si5 0.664348 0.446434 0.466415
O O1 0.305752 0.310301 0.360123
O O2 0.507464 0.250000 0.500000
O O3 0.457355 0.117088 0.262762
O O4 0.448792 0.117842 0.643554
O O5 0.591095 0.110490 0.456652
O O6 0.368804 0.518326 0.748159
O O7 0.500000 0.500000 0.000000
O O8 0.363152 0.409281 0.044130
O O9 0.675103 0.527159 0.610478
O O10 0.750000 0.400276 0.500000
#
# Coordination Sequence:
#
# PCOD9397919 Si02
#       5
#     2   8   8   8   8
#     4  12  24  44  62 104 138 164 212 298 348 380
#     4  11  23  42  65  97 136 174 223 279 336 398
#     4  11  21  43  71  95 123 186 228 265 345 425
#     4  11  22  44  66  95 135 170 225 271 340 410
#     4  11  23  42  65  97 136 174 223 279 336 398
#
# _framework density 19.616945999999999
#
# number of rings (size 3 to 8) (size 9 to 14) (size 15 to 20)
#    0.000    0.941    7.059    1.412    0.000    2.353 
#    0.000    7.059    0.000    0.000    0.000    0.000 
#    0.000    0.000    0.000    0.000    0.000    0.000 
#
# Total GULP energy -189716.328418 kJ/mol
# GULP energy per Si atom -5579.892012 kJ/mol
# Density = 1.957230 g / cm^3
# Si number density = 19.616946 Si / 1000 Ang^3
#
#
#
# Elastic Constant Matrix: (Units=GPa)
#
#
# Indices 1 2 3 4 5 6 
#
# 1 113.7819 2.8050 28.5033 0.0000 0.0000 0.0000
# 2 2.8050 51.1912 25.8581 0.0000 0.0000 0.0000
# 3 28.5033 25.8581 117.9520 0.0000 0.0000 0.0000
# 4 0.0000 0.0000 0.0000 -13.6730 0.0000 0.0000
# 5 0.0000 0.0000 0.0000 0.0000 2.5397 0.0000
# 6 0.0000 0.0000 0.0000 0.0000 0.0000 -42.1514
#
#
#
# Elastic Compliance Matrix: (Units=1/GPa)
#
#
# Indices 1 2 3 4 5 6 
#
# 1 0.009378 0.000709 -0.002422 0.000000 0.000000 0.000000
# 2 0.000709 0.022021 -0.004999 0.000000 0.000000 0.000000
# 3 -0.002422 -0.004999 0.010159 0.000000 0.000000 0.000000
# 4 0.000000 0.000000 0.000000 -0.073137 0.000000 0.000000
# 5 0.000000 0.000000 0.000000 0.000000 0.393747 0.000000
# 6 0.000000 0.000000 0.000000 0.000000 0.000000 -0.023724
#
#
# Mechanical properties :
#
#
# Convention : Reuss Voigt Hill
#
# Bulk Modulus (GPa) = 35.54241 44.13977 39.84109
# Shear Modulus (GPa) = 13.84104 4.39364 9.11734
#
# Velocity S-wave (km/s) = 2.65913 1.49819 2.15819
# Velocity P-wave (km/s) = 5.25219 5.05395 5.15403
#
# Compressibility (1/GPa) = 0.02813540
#
# Stress axis : x y z
#
# Youngs Moduli (GPa) = 106.63349 45.41144 98.43350
#
# Poissons Ratio (x) = -0.03222 0.23838
# Poissons Ratio (y) = -0.07565 0.49207
# Poissons Ratio (z) = 0.25824 0.22701
#
# Static dielectric constant tensor:
#      x y z
#    x 1.851180 0.000000 0.000000 
#    y 0.000000 1.484350 0.000000 
#    z 0.000000 0.000000 1.708370 
# 
# From -- ./inp_files/3050.got.cif
#   From: 2010.05.17/outbox.cif.g08.bks.cpg/sg50_2_cif.got.tgz:3050.got - 2010.06.03 11:33:33.
