data_PCOD9397467
_publ_section_title
;
Structure prediction by ZEFSAII (Michael W. Deem and Ramdas Pophale) SiO2 
 PCOD9397467
Probable space group: P B A N
;
_chemical_formula_sum "Si O2"
_cell_formula_units_Z 58
_cell_length_a 17.820883
_cell_length_b 18.996730
_cell_length_c 7.743359
_cell_angle_alpha 90.000000
_cell_angle_beta 90.000000
_cell_angle_gamma 90.000000
_cell_volume 2621.425162
_symmetry_space_group_name_H-M "P B A N"
_symmetry_group_IT_number 50
_space_group.IT_coordinate_system_code '2'
_symmetry_cell_setting 'orthorhombic'
loop_
_space_group_symop_operation_xyz
x,y,z
1/2-x,1/2-y,z
x,1/2-y,-z
1/2-x,y,-z
-x,-y,-z
1/2+x,1/2+y,-z
-x,1/2+y,z
1/2+x,-y,z
loop_
_atom_site_type_symbol
_atom_site_label
_atom_site_fract_x
_atom_site_fract_y
_atom_site_fract_z
Si Si1 0.970764 0.230507 0.198554
Si Si2 0.907500 0.411695 0.689802
Si Si3 0.037746 0.045543 0.854292
Si Si4 0.641829 0.756699 0.785040
Si Si5 0.402379 0.632143 0.294192
Si Si6 0.753676 0.451913 0.291040
Si Si7 0.696993 0.598383 0.149090
Si Si8 0.250000 0.250000 0.500000
O O1 0.953601 0.148519 0.216116
O O2 0.909542 0.283336 0.281750
O O3 0.055396 0.244458 0.259777
O O4 0.969136 0.250000 0.000000
O O5 0.940836 0.489879 0.704964
O O6 0.905762 0.388683 0.493089
O O7 0.823283 0.414046 0.765164
O O8 0.117257 0.072153 0.924359
O O9 0.977995 0.102825 0.794379
O O10 0.000000 0.000000 0.000000
O O11 0.667422 0.836406 0.740006
O O12 0.692794 0.714756 0.644731
O O13 0.649088 0.750000 0.000000
O O14 0.327586 0.590547 0.230349
O O15 0.750000 0.452339 0.500000
O O16 0.741933 0.532605 0.230206
O O17 0.750000 0.626733 0.000000
#
# Coordination Sequence:
#
# PCOD9397467 Si02
#       8
#     8   8   8   8   8   8   8   2
#     4  11  24  43  67  94 135 175 218 276 331 401
#     4  10  23  40  65  95 131 172 219 276 335 399
#     4  11  22  38  61  95 125 168 219 267 334 394
#     4  11  26  46  64  96 137 172 227 280 335 401
#     4  11  21  42  66  95 128 172 222 277 329 408
#     4   9  22  42  64  97 133 163 219 279 339 395
#     4  11  22  40  63  89 126 171 210 277 331 399
#     4  12  26  44  68  90 124 178 222 270 336 398
#
# _framework density 22.12537
#
# number of rings (size 3 to 8) (size 9 to 14) (size 15 to 20)
#    0.000    1.379    1.379    3.517    4.828    1.655 
#    2.483    2.759    0.000    0.000    0.000    0.000 
#    0.000    0.000    0.000    0.000    0.000    0.000 
#
# Total GULP energy -323380.865625 kJ/mol
# GULP energy per Si atom -5575.532166 kJ/mol
# Density = 2.207501 g / cm^3
# Si number density = 22.125370 Si / 1000 Ang^3
#
#
#
# Elastic Constant Matrix: (Units=GPa)
#
#
# Indices 1 2 3 4 5 6 
#
# 1 134.5313 43.8129 9.7686 0.0000 0.0000 0.0000
# 2 43.8129 67.1234 -16.8765 0.0000 0.0000 0.0000
# 3 9.7686 -16.8765 50.8675 0.0000 0.0000 0.0000
# 4 0.0000 0.0000 0.0000 29.7843 0.0000 0.0000
# 5 0.0000 0.0000 0.0000 0.0000 18.0284 0.0000
# 6 0.0000 0.0000 0.0000 0.0000 0.0000 18.3847
#
#
#
# Elastic Compliance Matrix: (Units=1/GPa)
#
#
# Indices 1 2 3 4 5 6 
#
# 1 0.010345 -0.007912 -0.004611 0.000000 0.000000 0.000000
# 2 -0.007912 0.022305 0.008919 0.000000 0.000000 0.000000
# 3 -0.004611 0.008919 0.023504 0.000000 0.000000 0.000000
# 4 0.000000 0.000000 0.000000 0.033575 0.000000 0.000000
# 5 0.000000 0.000000 0.000000 0.000000 0.055468 0.000000
# 6 0.000000 0.000000 0.000000 0.000000 0.000000 0.054393
#
#
# Mechanical properties :
#
#
# Convention : Reuss Voigt Hill
#
# Bulk Modulus (GPa) = 20.43081 36.21470 28.32276
# Shear Modulus (GPa) = 22.41035 27.62729 25.01882
#
# Velocity S-wave (km/s) = 3.18603 3.53749 3.36635
# Velocity P-wave (km/s) = 4.77373 5.75227 5.28569
#
# Compressibility (1/GPa) = 0.04894568
#
# Stress axis : x y z
#
# Youngs Moduli (GPa) = 96.66835 44.83384 42.54642
#
# Poissons Ratio (x) = 0.35471 0.19620
# Poissons Ratio (y) = 0.76480 -0.37949
# Poissons Ratio (z) = 0.44578 -0.39989
#
# Static dielectric constant tensor:
#      x y z
#    x 1.870240 0.000000 0.000000 
#    y 0.000000 1.941630 0.000000 
#    z 0.000000 0.000000 1.857440 
# 
# From -- ./inp_files/14498.got.cif
#   From: 2010.05.17/outbox.cif.g08.bks.cpg/sg50_8_cif.got.tgz:14498.got - 2010.06.03 11:33:33.
