data_PCOD9397604
_publ_section_title
;
Structure prediction by ZEFSAII (Michael W. Deem and Ramdas Pophale) SiO2 
 PCOD9397604
Probable space group: P B A N
;
_chemical_formula_sum "Si O2"
_cell_formula_units_Z 48
_cell_length_a 26.490294
_cell_length_b 9.698597
_cell_length_c 8.382757
_cell_angle_alpha 90.000000
_cell_angle_beta 90.000000
_cell_angle_gamma 90.000000
_cell_volume 2153.686913
_symmetry_space_group_name_H-M "P B A N"
_symmetry_group_IT_number 50
_space_group.IT_coordinate_system_code '2'
_symmetry_cell_setting 'orthorhombic'
loop_
_space_group_symop_operation_xyz
x,y,z
1/2-x,1/2-y,z
x,1/2-y,-z
1/2-x,y,-z
-x,-y,-z
1/2+x,1/2+y,-z
-x,1/2+y,z
1/2+x,-y,z
loop_
_atom_site_type_symbol
_atom_site_label
_atom_site_fract_x
_atom_site_fract_y
_atom_site_fract_z
Si Si1 0.803472 0.888737 0.585149
Si Si2 0.357812 0.127290 0.878539
Si Si3 0.048185 0.440737 0.667332
Si Si4 0.978427 0.233539 0.823255
Si Si5 0.880161 0.091256 0.453920
Si Si6 0.369076 0.867898 0.102891
O O1 0.825227 0.750000 0.500000
O O2 0.750000 0.907106 0.500000
O O3 0.806700 0.866706 0.774473
O O4 0.836874 0.024818 0.562311
O O5 0.403600 0.128102 0.753128
O O6 0.359767 0.250000 0.000000
O O7 0.367984 0.993030 0.982872
O O8 0.029730 0.576620 0.766203
O O9 0.070153 0.499855 0.499650
O O10 0.006710 0.322580 0.689142
O O11 0.924135 0.304749 0.852672
O O12 0.003847 0.250000 0.000000
O O13 0.889949 0.250000 0.500000
O O14 0.855460 0.082859 0.279004
O O15 0.341420 0.750000 0.000000
#
# Coordination Sequence:
#
# PCOD9397604 Si02
#       6
#     8   8   8   8   8   8
#     4  10  23  46  71  99 132 165 208 271 343 414
#     4  11  22  39  67 101 129 175 223 264 340 405
#     4  11  23  38  60  93 132 184 232 281 327 383
#     4  11  21  37  60  90 133 182 232 285 324 376
#     4  11  22  43  65  92 131 175 225 274 339 398
#     4  11  21  40  62  88 128 176 220 277 331 385
#
# _framework density 22.287362000000002
#
# number of rings (size 3 to 8) (size 9 to 14) (size 15 to 20)
#    0.000    1.167    5.000    3.000    2.333    1.000 
#    0.000    5.833    0.000    1.000    0.000    0.000 
#    0.000    0.000    0.000    0.000    0.000    0.000 
#
# Total GULP energy -267685.755035 kJ/mol
# GULP energy per Si atom -5576.786563 kJ/mol
# Density = 2.223664 g / cm^3
# Si number density = 22.287362 Si / 1000 Ang^3
#
#
#
# Elastic Constant Matrix: (Units=GPa)
#
#
# Indices 1 2 3 4 5 6 
#
# 1 47.4000 24.1245 12.3611 0.0000 0.0000 0.0000
# 2 24.1245 77.7647 6.2347 0.0000 0.0000 0.0000
# 3 12.3611 6.2347 104.8309 0.0000 0.0000 0.0000
# 4 0.0000 0.0000 0.0000 41.3335 0.0000 0.0000
# 5 0.0000 0.0000 0.0000 0.0000 30.1927 0.0000
# 6 0.0000 0.0000 0.0000 0.0000 0.0000 14.6347
#
#
#
# Elastic Compliance Matrix: (Units=1/GPa)
#
#
# Indices 1 2 3 4 5 6 
#
# 1 0.025724 -0.007774 -0.002571 0.000000 0.000000 0.000000
# 2 -0.007774 0.015270 0.000008 0.000000 0.000000 0.000000
# 3 -0.002571 0.000008 0.009842 0.000000 0.000000 0.000000
# 4 0.000000 0.000000 0.000000 0.024193 0.000000 0.000000
# 5 0.000000 0.000000 0.000000 0.000000 0.033121 0.000000
# 6 0.000000 0.000000 0.000000 0.000000 0.000000 0.068331
#
#
# Mechanical properties :
#
#
# Convention : Reuss Voigt Hill
#
# Bulk Modulus (GPa) = 33.15291 35.04846 34.10069
# Shear Modulus (GPa) = 24.13026 29.71720 26.92373
#
# Velocity S-wave (km/s) = 3.29399 3.65549 3.47944
# Velocity P-wave (km/s) = 5.41984 5.79454 5.61032
#
# Compressibility (1/GPa) = 0.03016327
#
# Stress axis : x y z
#
# Youngs Moduli (GPa) = 38.87392 65.48637 101.60733
#
# Poissons Ratio (x) = 0.50910 0.26122
# Poissons Ratio (y) = 0.30221 -0.00086
# Poissons Ratio (z) = 0.09994 -0.00056
#
# Static dielectric constant tensor:
#      x y z
#    x 1.870170 0.000000 0.000000 
#    y 0.000000 1.788430 0.000000 
#    z 0.000000 0.000000 2.030840 
# 
# From -- ./inp_files/10109.got.cif
#   From: 2010.05.17/outbox.cif.g08.bks.cpg/sg50_6_cif.got.tgz:10109.got - 2010.06.03 11:33:33.
