data_PCOD9397948
_publ_section_title
;
Structure prediction by ZEFSAII (Michael W. Deem and Ramdas Pophale) SiO2 
 PCOD9397948
Probable space group: P B A N
;
_chemical_formula_sum "Si O2"
_cell_formula_units_Z 48
_cell_length_a 28.379640
_cell_length_b 9.679995
_cell_length_c 8.002763
_cell_angle_alpha 90.000000
_cell_angle_beta 90.000000
_cell_angle_gamma 90.000000
_cell_volume 2198.477223
_symmetry_space_group_name_H-M "P B A N"
_symmetry_group_IT_number 50
_space_group.IT_coordinate_system_code '2'
_symmetry_cell_setting 'orthorhombic'
loop_
_space_group_symop_operation_xyz
x,y,z
1/2-x,1/2-y,z
x,1/2-y,-z
1/2-x,y,-z
-x,-y,-z
1/2+x,1/2+y,-z
-x,1/2+y,z
1/2+x,-y,z
loop_
_atom_site_type_symbol
_atom_site_label
_atom_site_fract_x
_atom_site_fract_y
_atom_site_fract_z
Si Si1 0.801295 0.709078 0.307072
Si Si2 0.646538 0.041722 0.192542
Si Si3 0.354983 0.457910 0.807584
Si Si4 0.801869 0.207461 0.306974
Si Si5 0.043978 0.905789 0.206123
Si Si6 0.045542 0.914387 0.797507
O O1 0.750000 0.750000 0.236122
O O2 0.801090 0.750000 0.500000
O O3 0.814999 0.549913 0.287502
O O4 0.842335 0.799453 0.222106
O O5 0.660685 0.201428 0.205590
O O6 0.593685 0.029492 0.261846
O O7 0.647570 0.992098 0.002744
O O8 0.314728 0.548833 0.718106
O O9 0.405855 0.510977 0.746827
O O10 0.750000 0.250000 0.248498
O O11 0.805905 0.250000 0.500000
O O12 0.042125 0.745070 0.257670
O O13 0.045109 0.909561 0.001805
O O14 0.999057 0.995070 0.258032
#
# Coordination Sequence:
#
# PCOD9397948 Si02
#       6
#     8   8   8   8   8   8
#     4  11  25  43  60  83 120 164 203 241 300 369
#     4  11  22  38  62  92 120 151 200 254 296 341
#     4  11  22  38  62  92 120 151 200 254 296 341
#     4  11  23  39  60  85 118 162 199 235 298 367
#     4   9  18  33  56  88 122 153 189 238 296 354
#     4   9  18  33  56  88 122 153 189 238 296 354
#
# _framework density 21.833293999999999
#
# number of rings (size 3 to 8) (size 9 to 14) (size 15 to 20)
#    0.000    1.667    1.667    3.000    2.333    6.667 
#    0.000    0.000    0.000    6.000    0.000    0.000 
#    0.000    0.000    0.000    0.000    0.000    0.000 
#
# Total GULP energy -268379.108883 kJ/mol
# GULP energy per Si atom -5591.231435 kJ/mol
# Density = 2.178360 g / cm^3
# Si number density = 21.833294 Si / 1000 Ang^3
#
#
#
# Elastic Constant Matrix: (Units=GPa)
#
#
# Indices 1 2 3 4 5 6 
#
# 1 138.5705 26.0674 3.7593 0.0000 0.0000 0.0000
# 2 26.0674 82.2074 -1.8692 0.0000 0.0000 0.0000
# 3 3.7593 -1.8692 29.2610 0.0000 0.0000 0.0000
# 4 0.0000 0.0000 0.0000 28.4161 0.0000 0.0000
# 5 0.0000 0.0000 0.0000 0.0000 25.5118 0.0000
# 6 0.0000 0.0000 0.0000 0.0000 0.0000 32.4148
#
#
#
# Elastic Compliance Matrix: (Units=1/GPa)
#
#
# Indices 1 2 3 4 5 6 
#
# 1 0.007713 -0.002472 -0.001149 0.000000 0.000000 0.000000
# 2 -0.002472 0.012974 0.001146 0.000000 0.000000 0.000000
# 3 -0.001149 0.001146 0.034396 0.000000 0.000000 0.000000
# 4 0.000000 0.000000 0.000000 0.035191 0.000000 0.000000
# 5 0.000000 0.000000 0.000000 0.000000 0.039198 0.000000
# 6 0.000000 0.000000 0.000000 0.000000 0.000000 0.030850
#
#
# Mechanical properties :
#
#
# Convention : Reuss Voigt Hill
#
# Bulk Modulus (GPa) = 19.94636 33.99489 26.97062
# Shear Modulus (GPa) = 27.47528 32.07395 29.77461
#
# Velocity S-wave (km/s) = 3.55126 3.83696 3.69687
# Velocity P-wave (km/s) = 5.09616 5.93580 5.53193
#
# Compressibility (1/GPa) = 0.05013447
#
# Stress axis : x y z
#
# Youngs Moduli (GPa) = 129.65643 77.07601 29.07316
#
# Poissons Ratio (x) = 0.19051 0.03340
# Poissons Ratio (y) = 0.32048 -0.03333
# Poissons Ratio (z) = 0.14895 -0.08836
#
# Static dielectric constant tensor:
#      x y z
#    x 1.798730 0.000000 0.000000 
#    y 0.000000 1.726970 0.000000 
#    z 0.000000 0.000000 1.802160 
# 
# From -- ./inp_files/16977.got.cif
#   From: 2010.05.17/outbox.cif.g08.bks.cpg/sg50_9_cif.got.tgz:16977.got - 2010.06.03 11:33:33.
