data_PCOD9397040
_publ_section_title
;
Structure prediction by ZEFSAII (Michael W. Deem and Ramdas Pophale) SiO2 
 PCOD9397040
Probable space group: P B A N
;
_chemical_formula_sum "Si O2"
_cell_formula_units_Z 50
_cell_length_a 26.597349
_cell_length_b 13.970525
_cell_length_c 6.325666
_cell_angle_alpha 90.000000
_cell_angle_beta 90.000000
_cell_angle_gamma 90.000000
_cell_volume 2350.484198
_symmetry_space_group_name_H-M "P B A N"
_symmetry_group_IT_number 50
_space_group.IT_coordinate_system_code '2'
_symmetry_cell_setting 'orthorhombic'
loop_
_space_group_symop_operation_xyz
x,y,z
1/2-x,1/2-y,z
x,1/2-y,-z
1/2-x,y,-z
-x,-y,-z
1/2+x,1/2+y,-z
-x,1/2+y,z
1/2+x,-y,z
loop_
_atom_site_type_symbol
_atom_site_label
_atom_site_fract_x
_atom_site_fract_y
_atom_site_fract_z
Si Si1 0.293410 0.111094 0.669603
Si Si2 0.124368 0.993653 0.779962
Si Si3 0.047548 0.985352 0.151078
Si Si4 0.388767 0.648618 0.387726
Si Si5 0.750000 0.750000 0.000000
Si Si6 0.199177 0.581714 0.908426
Si Si7 0.091846 0.140905 0.471418
O O1 0.250000 0.130908 0.500000
O O2 0.283579 0.181168 0.861472
O O3 0.350081 0.133929 0.601980
O O4 0.289609 0.001157 0.738777
O O5 0.098757 0.090991 0.698829
O O6 0.123523 0.925996 0.575905
O O7 0.090510 0.968936 0.978787
O O8 0.178032 0.979386 0.889853
O O9 0.059433 0.075447 0.307788
O O10 0.058000 0.891206 0.294822
O O11 0.000000 0.000000 0.000000
O O12 0.393074 0.750000 0.500000
O O13 0.343361 0.645829 0.212119
O O14 0.250000 0.628981 0.000000
O O15 0.075142 0.250000 0.500000
#
# Coordination Sequence:
#
# PCOD9397040 Si02
#       7
#     8   8   8   8   2   8   8
#     4  12  23  37  57  92 135 185 229 272 330 415
#     4  10  21  43  63  92 132 174 217 284 348 408
#     4  10  23  45  69  98 132 177 220 287 359 430
#     4  10  23  44  69  96 130 177 229 298 353 413
#     4  12  26  32  56  90 136 186 226 264 312 418
#     4  11  22  38  65  91 130 185 232 280 345 409
#     4  11  23  38  63  97 137 175 224 284 341 409
#
# _framework density 21.272214000000002
#
# number of rings (size 3 to 8) (size 9 to 14) (size 15 to 20)
#    0.000    1.280    5.600    2.160    2.240    5.760 
#    0.000    7.200    0.000    0.000    0.000    0.000 
#    0.000    0.000    0.000    0.000    0.000    0.000 
#
# Total GULP energy -278469.248068 kJ/mol
# GULP energy per Si atom -5569.384961 kJ/mol
# Density = 2.122380 g / cm^3
# Si number density = 21.272214 Si / 1000 Ang^3
#
#
#
# Elastic Constant Matrix: (Units=GPa)
#
#
# Indices 1 2 3 4 5 6 
#
# 1 72.7817 40.2391 22.8007 0.0000 0.0000 0.0000
# 2 40.2391 125.0782 44.3660 0.0000 0.0000 0.0000
# 3 22.8007 44.3660 93.4977 0.0000 0.0000 0.0000
# 4 0.0000 0.0000 0.0000 36.0174 0.0000 0.0000
# 5 0.0000 0.0000 0.0000 0.0000 32.6371 0.0000
# 6 0.0000 0.0000 0.0000 0.0000 0.0000 20.3319
#
#
#
# Elastic Compliance Matrix: (Units=1/GPa)
#
#
# Indices 1 2 3 4 5 6 
#
# 1 0.016978 -0.004801 -0.001862 0.000000 0.000000 0.000000
# 2 -0.004801 0.010971 -0.004035 0.000000 0.000000 0.000000
# 3 -0.001862 -0.004035 0.013064 0.000000 0.000000 0.000000
# 4 0.000000 0.000000 0.000000 0.027764 0.000000 0.000000
# 5 0.000000 0.000000 0.000000 0.000000 0.030640 0.000000
# 6 0.000000 0.000000 0.000000 0.000000 0.000000 0.049184
#
#
# Mechanical properties :
#
#
# Convention : Reuss Voigt Hill
#
# Bulk Modulus (GPa) = 50.97858 56.24104 53.60981
# Shear Modulus (GPa) = 28.32281 30.06072 29.19176
#
# Velocity S-wave (km/s) = 3.65286 3.76326 3.70847
# Velocity P-wave (km/s) = 6.46591 6.73639 6.60254
#
# Compressibility (1/GPa) = 0.01961608
#
# Stress axis : x y z
#
# Youngs Moduli (GPa) = 58.90113 91.15009 76.54543
#
# Poissons Ratio (x) = 0.43766 0.14252
# Poissons Ratio (y) = 0.28281 0.30886
# Poissons Ratio (z) = 0.10966 0.36779
#
# Static dielectric constant tensor:
#      x y z
#    x 1.814720 0.000000 0.000000 
#    y 0.000000 1.864740 0.000000 
#    z 0.000000 0.000000 1.756150 
# 
# From -- ./inp_files/6654.got.cif
#   From: 2010.05.17/outbox.cif.g08.bks.cpg/sg50_4_cif.got.tgz:6654.got - 2010.06.03 11:33:33.
