data_PCOD9397271
_publ_section_title
;
Structure prediction by ZEFSAII (Michael W. Deem and Ramdas Pophale) SiO2 
 PCOD9397271
Probable space group: P B A N
;
_chemical_formula_sum "Si O2"
_cell_formula_units_Z 56
_cell_length_a 19.951569
_cell_length_b 9.095804
_cell_length_c 13.675584
_cell_angle_alpha 90.000000
_cell_angle_beta 90.000000
_cell_angle_gamma 90.000000
_cell_volume 2481.784280
_symmetry_space_group_name_H-M "P B A N"
_symmetry_group_IT_number 50
_space_group.IT_coordinate_system_code '2'
_symmetry_cell_setting 'orthorhombic'
loop_
_space_group_symop_operation_xyz
x,y,z
1/2-x,1/2-y,z
x,1/2-y,-z
1/2-x,y,-z
-x,-y,-z
1/2+x,1/2+y,-z
-x,1/2+y,z
1/2+x,-y,z
loop_
_atom_site_type_symbol
_atom_site_label
_atom_site_fract_x
_atom_site_fract_y
_atom_site_fract_z
Si Si1 0.083102 0.588963 0.614026
Si Si2 0.622080 0.911499 0.201143
Si Si3 0.182897 0.325581 0.316661
Si Si4 0.317890 0.823165 0.315066
Si Si5 0.496256 0.140398 0.928436
Si Si6 0.857328 0.212263 0.894934
Si Si7 0.056077 0.379268 0.436393
O O1 0.121876 0.492200 0.694162
O O2 0.119458 0.746353 0.628422
O O3 0.081021 0.507545 0.508899
O O4 0.003411 0.583298 0.638302
O O5 0.664258 0.763128 0.217129
O O6 0.546429 0.880025 0.168301
O O7 0.644051 0.037085 0.124419
O O8 0.250000 0.250000 0.355105
O O9 0.188720 0.501363 0.314468
O O10 0.118755 0.306842 0.384977
O O11 0.250000 0.750000 0.354925
O O12 0.325502 0.781403 0.201134
O O13 0.567116 0.216802 0.901212
O O14 0.456848 0.250000 0.000000
O O15 0.500000 0.000000 0.000000
O O16 0.827417 0.250000 0.000000
O O17 0.022869 0.250000 0.500000
#
# Coordination Sequence:
#
# PCOD9397271 Si02
#       7
#     8   8   8   8   8   8   8
#     4  10  25  46  72 107 135 181 233 283 360 415
#     4  11  23  41  67  98 142 176 229 286 343 426
#     4  12  28  46  70 102 139 190 233 290 360 420
#     4  11  27  48  71  98 141 187 239 287 348 436
#     4  11  22  38  64 104 141 175 226 286 351 413
#     4  10  22  41  66  99 137 182 228 285 347 414
#     4  11  25  45  75 102 143 175 228 298 348 422
#
# _framework density 22.564412000000001
#
# number of rings (size 3 to 8) (size 9 to 14) (size 15 to 20)
#    0.000    1.143    4.286    1.714   12.000    0.571 
#    0.000    0.714    0.000    1.286    0.000    0.000 
#    0.000    0.000    0.000    0.000    0.000    0.000 
#
# Total GULP energy -312328.680329 kJ/mol
# GULP energy per Si atom -5577.297863 kJ/mol
# Density = 2.251305 g / cm^3
# Si number density = 22.564412 Si / 1000 Ang^3
#
#
#
# Elastic Constant Matrix: (Units=GPa)
#
#
# Indices 1 2 3 4 5 6 
#
# 1 106.8664 39.4182 29.6709 0.0000 0.0000 0.0000
# 2 39.4182 187.0301 44.0282 0.0000 0.0000 0.0000
# 3 29.6709 44.0282 59.7300 0.0000 0.0000 0.0000
# 4 0.0000 0.0000 0.0000 36.5803 0.0000 0.0000
# 5 0.0000 0.0000 0.0000 0.0000 -13.4103 0.0000
# 6 0.0000 0.0000 0.0000 0.0000 0.0000 39.6972
#
#
#
# Elastic Compliance Matrix: (Units=1/GPa)
#
#
# Indices 1 2 3 4 5 6 
#
# 1 0.011094 -0.001259 -0.004583 0.000000 0.000000 0.000000
# 2 -0.001259 0.006612 -0.004248 0.000000 0.000000 0.000000
# 3 -0.004583 -0.004248 0.022150 0.000000 0.000000 0.000000
# 4 0.000000 0.000000 0.000000 0.027337 0.000000 0.000000
# 5 0.000000 0.000000 0.000000 0.000000 -0.074569 0.000000
# 6 0.000000 0.000000 0.000000 0.000000 0.000000 0.025191
#
#
# Mechanical properties :
#
#
# Convention : Reuss Voigt Hill
#
# Bulk Modulus (GPa) = 50.82462 64.42898 57.62680
# Shear Modulus (GPa) = 112.22094 28.60738 70.41416
#
# Velocity S-wave (km/s) = 7.05986 3.56449 5.59228
# Velocity P-wave (km/s) = 9.43549 6.74953 8.20319
#
# Compressibility (1/GPa) = 0.01967551
#
# Stress axis : x y z
#
# Youngs Moduli (GPa) = 90.13546 151.23390 45.14650
#
# Poissons Ratio (x) = 0.19047 0.20690
# Poissons Ratio (y) = 0.11352 0.19180
# Poissons Ratio (z) = 0.41307 0.64251
#
# Static dielectric constant tensor:
#      x y z
#    x 1.860850 0.000000 0.000000 
#    y 0.000000 1.931150 0.000000 
#    z 0.000000 0.000000 2.049250 
# 
# From -- ./inp_files/27240.got.cif
#   From: 2010.05.17/outbox.cif.g08.bks.cpg/sg50_14_cif.got.tgz:27240.got - 2010.06.03 11:33:33.
