data_PCOD9397083
_publ_section_title
;
Structure prediction by ZEFSAII (Michael W. Deem and Ramdas Pophale) SiO2 
 PCOD9397083
Probable space group: P B A N
;
_chemical_formula_sum "Si O2"
_cell_formula_units_Z 30
_cell_length_a 15.654536
_cell_length_b 17.105656
_cell_length_c 5.415368
_cell_angle_alpha 90.000000
_cell_angle_beta 90.000000
_cell_angle_gamma 90.000000
_cell_volume 1450.133241
_symmetry_space_group_name_H-M "P B A N"
_symmetry_group_IT_number 50
_space_group.IT_coordinate_system_code '2'
_symmetry_cell_setting 'orthorhombic'
loop_
_space_group_symop_operation_xyz
x,y,z
1/2-x,1/2-y,z
x,1/2-y,-z
1/2-x,y,-z
-x,-y,-z
1/2+x,1/2+y,-z
-x,1/2+y,z
1/2+x,-y,z
loop_
_atom_site_type_symbol
_atom_site_label
_atom_site_fract_x
_atom_site_fract_y
_atom_site_fract_z
Si Si1 0.819091 0.373194 0.327491
Si Si2 0.437129 0.076667 0.006172
Si Si3 0.000361 0.343990 0.503304
Si Si4 0.750000 0.508096 0.000000
Si Si5 0.250000 0.750000 0.000000
O O1 0.750000 0.333829 0.500000
O O2 0.777042 0.451910 0.226355
O O3 0.819862 0.312261 0.105588
O O4 0.905460 0.380413 0.477233
O O5 0.455417 0.122798 0.750428
O O6 0.337746 0.054215 0.036695
O O7 0.458054 0.126971 0.248340
O O8 0.500000 0.000000 0.000000
O O9 0.995110 0.250000 0.500000
#
# Coordination Sequence:
#
# PCOD9397083 Si02
#       5
#     8   8   8   4   2
#     4  11  23  39  67 100 141 182 233 301 372 437
#     4  12  26  48  72 109 141 191 243 298 355 434
#     4  12  27  46  73 104 148 189 243 297 367 426
#     4  11  26  43  73 100 139 182 246 300 361 426
#     4  10  22  36  56 106 138 186 224 292 388 456
#
# _framework density 20.687754999999999
#
# number of rings (size 3 to 8) (size 9 to 14) (size 15 to 20)
#    0.000    0.533    2.667    5.200   11.200    0.000 
#    0.000    4.000    0.000    0.000    0.000    0.000 
#    0.000    0.000    0.000    0.000    0.000    0.000 
#
# Total GULP energy -167350.567090 kJ/mol
# GULP energy per Si atom -5578.352236 kJ/mol
# Density = 2.064067 g / cm^3
# Si number density = 20.687755 Si / 1000 Ang^3
#
#
#
# Elastic Constant Matrix: (Units=GPa)
#
#
# Indices 1 2 3 4 5 6 
#
# 1 186.2930 61.1895 57.6535 0.0000 0.0000 0.0000
# 2 61.1895 86.1419 65.8315 0.0000 0.0000 0.0000
# 3 57.6535 65.8315 135.6852 0.0000 0.0000 0.0000
# 4 0.0000 0.0000 0.0000 13.0623 0.0000 0.0000
# 5 0.0000 0.0000 0.0000 0.0000 26.2981 0.0000
# 6 0.0000 0.0000 0.0000 0.0000 0.0000 19.1539
#
#
#
# Elastic Compliance Matrix: (Units=1/GPa)
#
#
# Indices 1 2 3 4 5 6 
#
# 1 0.007070 -0.004333 -0.000902 0.000000 0.000000 0.000000
# 2 -0.004333 0.021105 -0.008399 0.000000 0.000000 0.000000
# 3 -0.000902 -0.008399 0.011828 0.000000 0.000000 0.000000
# 4 0.000000 0.000000 0.000000 0.076556 0.000000 0.000000
# 5 0.000000 0.000000 0.000000 0.000000 0.038026 0.000000
# 6 0.000000 0.000000 0.000000 0.000000 0.000000 0.052209
#
#
# Mechanical properties :
#
#
# Convention : Reuss Voigt Hill
#
# Bulk Modulus (GPa) = 78.51556 86.38545 82.45051
# Shear Modulus (GPa) = 20.98146 26.59926 23.79036
#
# Velocity S-wave (km/s) = 3.18810 3.58962 3.39480
# Velocity P-wave (km/s) = 7.18241 7.68297 7.43690
#
# Compressibility (1/GPa) = 0.01273633
#
# Stress axis : x y z
#
# Youngs Moduli (GPa) = 141.43869 47.38230 84.54495
#
# Poissons Ratio (x) = 0.20530 0.07625
# Poissons Ratio (y) = 0.61284 0.71006
# Poissons Ratio (z) = 0.12757 0.39794
#
# Static dielectric constant tensor:
#      x y z
#    x 1.780520 0.000000 0.000000 
#    y 0.000000 1.781340 0.000000 
#    z 0.000000 0.000000 1.840800 
# 
# From -- ./inp_files/2955.got.cif
#   From: 2010.05.17/outbox.cif.g08.bks.cpg/sg50_2_cif.got.tgz:2955.got - 2010.06.03 11:33:33.
