data_PCOD9397957
_publ_section_title
;
Structure prediction by ZEFSAII (Michael W. Deem and Ramdas Pophale) SiO2 
 PCOD9397957
Probable space group: P B A N
;
_chemical_formula_sum "Si O2"
_cell_formula_units_Z 38
_cell_length_a 9.120659
_cell_length_b 25.525986
_cell_length_c 8.773614
_cell_angle_alpha 90.000000
_cell_angle_beta 90.000000
_cell_angle_gamma 90.000000
_cell_volume 2042.618537
_symmetry_space_group_name_H-M "P B A N"
_symmetry_group_IT_number 50
_space_group.IT_coordinate_system_code '2'
_symmetry_cell_setting 'orthorhombic'
loop_
_space_group_symop_operation_xyz
x,y,z
1/2-x,1/2-y,z
x,1/2-y,-z
1/2-x,y,-z
-x,-y,-z
1/2+x,1/2+y,-z
-x,1/2+y,z
1/2+x,-y,z
loop_
_atom_site_type_symbol
_atom_site_label
_atom_site_fract_x
_atom_site_fract_y
_atom_site_fract_z
Si Si1 0.250000 0.250000 0.500000
Si Si2 0.489925 0.309262 0.959989
Si Si3 0.787777 0.671498 0.248044
Si Si4 0.075640 0.522766 0.152458
Si Si5 0.209585 0.051171 0.328943
Si Si6 0.750000 0.385294 0.000000
O O1 0.168217 0.289360 0.615759
O O2 0.366659 0.310049 0.827486
O O3 0.536233 0.250000 0.000000
O O4 0.404403 0.328678 0.111246
O O5 0.625612 0.347613 0.928860
O O6 0.771106 0.613160 0.309437
O O7 0.182998 0.478571 0.214432
O O8 0.952982 0.535676 0.277172
O O9 0.167055 0.575057 0.113724
O O10 0.000000 0.500000 0.000000
O O11 0.250000 0.035638 0.500000
#
# Coordination Sequence:
#
# PCOD9397957 Si02
#       6
#     2   8   8   8   8   4
#     4  12  20  42  64  94 124 162 212 258 318 370
#     4  11  22  40  63  95 122 162 216 264 311 378
#     4  11  22  38  68  93 122 163 212 263 312 382
#     4  12  24  43  64  93 128 174 218 262 319 389
#     4  12  25  41  64  97 132 166 214 272 328 385
#     4  12  23  38  68  92 126 163 216 266 318 370
#
# _framework density 18.603573000000001
#
# number of rings (size 3 to 8) (size 9 to 14) (size 15 to 20)
#    0.000    0.421    7.368    2.842    2.947    0.000 
#    0.000    0.000    0.000    1.263    0.000    0.000 
#    0.000    0.000    0.000    0.000    0.000    0.000 
#
# Total GULP energy -212260.197082 kJ/mol
# GULP energy per Si atom -5585.794660 kJ/mol
# Density = 1.856123 g / cm^3
# Si number density = 18.603573 Si / 1000 Ang^3
#
#
#
# Elastic Constant Matrix: (Units=GPa)
#
#
# Indices 1 2 3 4 5 6 
#
# 1 107.4208 47.2838 40.1150 0.0000 0.0000 0.0000
# 2 47.2838 114.4323 10.3379 0.0000 0.0000 0.0000
# 3 40.1150 10.3379 70.3564 0.0000 0.0000 0.0000
# 4 0.0000 0.0000 0.0000 34.2359 0.0000 0.0000
# 5 0.0000 0.0000 0.0000 0.0000 27.0279 0.0000
# 6 0.0000 0.0000 0.0000 0.0000 0.0000 37.8864
#
#
#
# Elastic Compliance Matrix: (Units=1/GPa)
#
#
# Indices 1 2 3 4 5 6 
#
# 1 0.014414 -0.005284 -0.007442 0.000000 0.000000 0.000000
# 2 -0.005284 0.010793 0.001427 0.000000 0.000000 0.000000
# 3 -0.007442 0.001427 0.018247 0.000000 0.000000 0.000000
# 4 0.000000 0.000000 0.000000 0.029209 0.000000 0.000000
# 5 0.000000 0.000000 0.000000 0.000000 0.036999 0.000000
# 6 0.000000 0.000000 0.000000 0.000000 0.000000 0.026395
#
#
# Mechanical properties :
#
#
# Convention : Reuss Voigt Hill
#
# Bulk Modulus (GPa) = 47.94775 54.18699 51.06737
# Shear Modulus (GPa) = 30.19199 32.79488 31.49344
#
# Velocity S-wave (km/s) = 4.03291 4.20316 4.11891
# Velocity P-wave (km/s) = 6.89313 7.26263 7.08029
#
# Compressibility (1/GPa) = 0.02085603
#
# Stress axis : x y z
#
# Youngs Moduli (GPa) = 69.37682 92.65175 54.80365
#
# Poissons Ratio (x) = 0.48953 0.40785
# Poissons Ratio (y) = 0.36656 -0.07819
# Poissons Ratio (z) = 0.51631 -0.13218
#
# Static dielectric constant tensor:
#      x y z
#    x 1.637560 0.000000 0.000000 
#    y 0.000000 1.651330 0.000000 
#    z 0.000000 0.000000 1.638770 
# 
# From -- ./inp_files/9572.got.cif
#   From: 2010.05.17/outbox.cif.g08.bks.cpg/sg50_5_cif.got.tgz:9572.got - 2010.06.03 11:33:33.
