data_PCOD9397008
_publ_section_title
;
Structure prediction by ZEFSAII (Michael W. Deem and Ramdas Pophale) SiO2 
 PCOD9397008
Probable space group: P B A N
;
_chemical_formula_sum "Si O2"
_cell_formula_units_Z 58
_cell_length_a 11.917638
_cell_length_b 24.989156
_cell_length_c 8.902537
_cell_angle_alpha 90.000000
_cell_angle_beta 90.000000
_cell_angle_gamma 90.000000
_cell_volume 2651.279813
_symmetry_space_group_name_H-M "P B A N"
_symmetry_group_IT_number 50
_space_group.IT_coordinate_system_code '2'
_symmetry_cell_setting 'orthorhombic'
loop_
_space_group_symop_operation_xyz
x,y,z
1/2-x,1/2-y,z
x,1/2-y,-z
1/2-x,y,-z
-x,-y,-z
1/2+x,1/2+y,-z
-x,1/2+y,z
1/2+x,-y,z
loop_
_atom_site_type_symbol
_atom_site_label
_atom_site_fract_x
_atom_site_fract_y
_atom_site_fract_z
Si Si1 0.617952 0.148506 0.382513
Si Si2 0.077030 0.311201 0.177729
Si Si3 0.750000 0.250000 0.500000
Si Si4 0.534604 0.429433 0.356965
Si Si5 0.311128 0.870721 0.159128
Si Si6 0.723635 0.861667 0.327412
Si Si7 0.350278 0.035996 0.418759
Si Si8 0.980387 0.688227 0.167803
O O1 0.503634 0.156134 0.289799
O O2 0.666803 0.207333 0.420093
O O3 0.597323 0.111150 0.526512
O O4 0.711208 0.122547 0.276170
O O5 0.204201 0.324512 0.216698
O O6 0.053843 0.248678 0.201208
O O7 0.047856 0.324014 0.005529
O O8 0.586056 0.410844 0.196266
O O9 0.416047 0.434503 0.445869
O O10 0.569355 0.492235 0.351313
O O11 0.384435 0.816693 0.181698
O O12 0.250000 0.873120 0.000000
O O13 0.750000 0.845080 0.500000
O O14 0.788519 0.919459 0.317258
O O15 0.595493 0.849976 0.274730
O O16 0.250000 0.004364 0.500000
#
# Coordination Sequence:
#
# PCOD9397008 Si02
#       8
#     8   8   2   8   8   8   8   8
#     4  12  23  41  62  96 131 171 222 272 333 392
#     4  11  24  42  61  94 133 181 215 266 341 406
#     4  12  24  36  66  96 130 172 226 284 314 410
#     4  11  23  43  70  95 132 173 223 286 338 405
#     4  12  23  42  63  93 135 173 221 271 335 404
#     4  11  23  42  68  97 127 167 228 282 326 397
#     4  10  21  41  70  97 126 171 226 279 350 392
#     4  11  25  42  63  91 136 182 216 266 341 409
#
# _framework density 21.876225999999999
#
# number of rings (size 3 to 8) (size 9 to 14) (size 15 to 20)
#    0.000    0.828    4.138    4.138    0.000    2.207 
#    0.000    1.379    0.000    5.793    0.000    0.000 
#    0.000    0.000    0.000    0.000    0.000    0.000 
#
# Total GULP energy -323149.534699 kJ/mol
# GULP energy per Si atom -5571.543702 kJ/mol
# Density = 2.182643 g / cm^3
# Si number density = 21.876226 Si / 1000 Ang^3
#
#
#
# Elastic Constant Matrix: (Units=GPa)
#
#
# Indices 1 2 3 4 5 6 
#
# 1 106.8209 -5.2809 20.1242 0.0000 0.0000 0.0000
# 2 -5.2809 69.1320 18.6111 0.0000 0.0000 0.0000
# 3 20.1242 18.6111 49.9417 0.0000 0.0000 0.0000
# 4 0.0000 0.0000 0.0000 -5.0115 0.0000 0.0000
# 5 0.0000 0.0000 0.0000 0.0000 37.5086 0.0000
# 6 0.0000 0.0000 0.0000 0.0000 0.0000 -8.2117
#
#
#
# Elastic Compliance Matrix: (Units=1/GPa)
#
#
# Indices 1 2 3 4 5 6 
#
# 1 0.010407 0.002139 -0.004991 0.000000 0.000000 0.000000
# 2 0.002139 0.016518 -0.007017 0.000000 0.000000 0.000000
# 3 -0.004991 -0.007017 0.024649 0.000000 0.000000 0.000000
# 4 0.000000 0.000000 0.000000 -0.199540 0.000000 0.000000
# 5 0.000000 0.000000 0.000000 0.000000 0.026661 0.000000
# 6 0.000000 0.000000 0.000000 0.000000 0.000000 -0.121778
#
#
# Mechanical properties :
#
#
# Convention : Reuss Voigt Hill
#
# Bulk Modulus (GPa) = 31.41116 32.53372 31.97244
# Shear Modulus (GPa) = -23.50372 17.68642 -2.90865
#
# Velocity S-wave (km/s) = -3.28135 2.84646 -1.15433
# Velocity P-wave (km/s) = 0.18269 5.07022 3.58751
#
# Compressibility (1/GPa) = 0.03183582
#
# Stress axis : x y z
#
# Youngs Moduli (GPa) = 96.08560 60.54181 40.56912
#
# Poissons Ratio (x) = -0.12947 0.20247
# Poissons Ratio (y) = -0.20548 0.28468
# Poissons Ratio (z) = 0.47953 0.42483
#
# Static dielectric constant tensor:
#      x y z
#    x 1.895150 0.000000 0.000000 
#    y 0.000000 1.882030 0.000000 
#    z 0.000000 0.000000 1.806830 
# 
# From -- ./inp_files/11740.got.cif
#   From: 2010.05.17/outbox.cif.g08.bks.cpg/sg50_6_cif.got.tgz:11740.got - 2010.06.03 11:33:33.
