data_PCOD9397365
_publ_section_title
;
Structure prediction by ZEFSAII (Michael W. Deem and Ramdas Pophale) SiO2 
 PCOD9397365
Probable space group: P B A N
;
_chemical_formula_sum "Si O2"
_cell_formula_units_Z 38
_cell_length_a 25.017236
_cell_length_b 11.113362
_cell_length_c 5.917704
_cell_angle_alpha 90.000000
_cell_angle_beta 90.000000
_cell_angle_gamma 90.000000
_cell_volume 1645.273205
_symmetry_space_group_name_H-M "P B A N"
_symmetry_group_IT_number 50
_space_group.IT_coordinate_system_code '2'
_symmetry_cell_setting 'orthorhombic'
loop_
_space_group_symop_operation_xyz
x,y,z
1/2-x,1/2-y,z
x,1/2-y,-z
1/2-x,y,-z
-x,-y,-z
1/2+x,1/2+y,-z
-x,1/2+y,z
1/2+x,-y,z
loop_
_atom_site_type_symbol
_atom_site_label
_atom_site_fract_x
_atom_site_fract_y
_atom_site_fract_z
Si Si1 0.825032 0.188602 0.748304
Si Si2 0.670902 0.863608 0.842104
Si Si3 0.750000 0.445259 0.000000
Si Si4 0.060427 0.621985 0.636074
Si Si5 0.750000 0.750000 0.500000
Si Si6 0.944723 0.626392 0.649274
O O1 0.826257 0.250000 0.500000
O O2 0.882225 0.119956 0.753917
O O3 0.825365 0.250000 0.000000
O O4 0.768444 0.121797 0.774522
O O5 0.708648 0.835404 0.630231
O O6 0.608430 0.874579 0.797317
O O7 0.679923 0.750000 0.000000
O O8 0.697586 0.978156 0.951643
O O9 0.059663 0.750000 0.500000
O O10 0.058291 0.498697 0.491138
O O11 0.003339 0.625547 0.765655
O O12 0.941576 0.750000 0.500000
#
# Coordination Sequence:
#
# PCOD9397365 Si02
#       6
#     8   8   4   8   2   8
#     4  11  28  52  76 109 150 200 258 317 383 459
#     4  12  26  44  67 111 145 195 250 311 387 457
#     4  12  28  46  72 108 150 202 258 320 388 468
#     4   9  22  46  73 110 147 192 253 314 388 456
#     4  12  22  44  64  94 162 192 246 312 380 470
#     4  10  22  43  76 107 148 196 250 316 385 457
#
# _framework density 23.096468000000002
#
# number of rings (size 3 to 8) (size 9 to 14) (size 15 to 20)
#    0.000    1.263    3.158    0.316   11.789    2.526 
#    0.000    1.053    0.000    0.000    0.000    0.000 
#    0.000    0.000    0.000    0.000    0.000    0.000 
#
# Total GULP energy -211705.235441 kJ/mol
# GULP energy per Si atom -5571.190406 kJ/mol
# Density = 2.304390 g / cm^3
# Si number density = 23.096468 Si / 1000 Ang^3
#
#
#
# Elastic Constant Matrix: (Units=GPa)
#
#
# Indices 1 2 3 4 5 6 
#
# 1 220.9210 40.8960 56.3014 0.0000 0.0000 0.0000
# 2 40.8960 117.9792 32.0734 0.0000 0.0000 0.0000
# 3 56.3014 32.0734 79.7992 0.0000 0.0000 0.0000
# 4 0.0000 0.0000 0.0000 -10.0926 0.0000 0.0000
# 5 0.0000 0.0000 0.0000 0.0000 41.6502 0.0000
# 6 0.0000 0.0000 0.0000 0.0000 0.0000 25.6655
#
#
#
# Elastic Compliance Matrix: (Units=1/GPa)
#
#
# Indices 1 2 3 4 5 6 
#
# 1 0.005617 -0.000976 -0.003571 0.000000 0.000000 0.000000
# 2 -0.000976 0.009686 -0.003204 0.000000 0.000000 0.000000
# 3 -0.003571 -0.003204 0.016339 0.000000 0.000000 0.000000
# 4 0.000000 0.000000 0.000000 -0.099082 0.000000 0.000000
# 5 0.000000 0.000000 0.000000 0.000000 0.024009 0.000000
# 6 0.000000 0.000000 0.000000 0.000000 0.000000 0.038963
#
#
# Mechanical properties :
#
#
# Convention : Reuss Voigt Hill
#
# Bulk Modulus (GPa) = 61.96155 75.24903 68.60529
# Shear Modulus (GPa) = 304.63460 30.73986 167.68723
#
# Velocity S-wave (km/s) = 11.49708 3.65215 8.52998
# Velocity P-wave (km/s) = 14.25235 7.10178 11.25977
#
# Compressibility (1/GPa) = 0.01613904
#
# Stress axis : x y z
#
# Youngs Moduli (GPa) = 178.02293 103.24647 61.20506
#
# Poissons Ratio (x) = 0.10081 0.21855
# Poissons Ratio (y) = 0.17383 0.19610
# Poissons Ratio (z) = 0.63567 0.33080
#
# Static dielectric constant tensor:
#      x y z
#    x 1.873970 0.000000 0.000000 
#    y 0.000000 2.093240 0.000000 
#    z 0.000000 0.000000 1.863020 
# 
# From -- ./inp_files/6456.got.cif
#   From: 2010.05.17/outbox.cif.g08.bks.cpg/sg50_4_cif.got.tgz:6456.got - 2010.06.03 11:33:33.
