data_PCOD9397975
_publ_section_title
;
Structure prediction by ZEFSAII (Michael W. Deem and Ramdas Pophale) SiO2 
 PCOD9397975
Probable space group: P B A N
;
_chemical_formula_sum "Si O2"
_cell_formula_units_Z 48
_cell_length_a 28.979000
_cell_length_b 9.046675
_cell_length_c 9.055991
_cell_angle_alpha 90.000000
_cell_angle_beta 90.000000
_cell_angle_gamma 90.000000
_cell_volume 2374.151155
_symmetry_space_group_name_H-M "P B A N"
_symmetry_group_IT_number 50
_space_group.IT_coordinate_system_code '2'
_symmetry_cell_setting 'orthorhombic'
loop_
_space_group_symop_operation_xyz
x,y,z
1/2-x,1/2-y,z
x,1/2-y,-z
1/2-x,y,-z
-x,-y,-z
1/2+x,1/2+y,-z
-x,1/2+y,z
1/2+x,-y,z
loop_
_atom_site_type_symbol
_atom_site_label
_atom_site_fract_x
_atom_site_fract_y
_atom_site_fract_z
Si Si1 0.374072 0.842683 0.644855
Si Si2 0.982463 0.071947 0.655145
Si Si3 0.297927 0.685260 0.836837
Si Si4 0.200830 0.328734 0.150186
Si Si5 0.960210 0.800027 0.831827
Si Si6 0.869717 0.682229 0.346979
O O1 0.364876 0.750000 0.500000
O O2 0.430089 0.863500 0.652098
O O3 0.344673 0.751391 0.764909
O O4 0.356375 0.011100 0.635416
O O5 0.017338 0.194120 0.710057
O O6 0.982487 0.955645 0.789673
O O7 0.000000 0.000000 0.500000
O O8 0.250000 0.750000 0.766119
O O9 0.296622 0.506763 0.851583
O O10 0.298218 0.750000 0.000000
O O11 0.250000 0.250000 0.164767
O O12 0.171556 0.282185 0.291237
O O13 0.181441 0.250000 0.000000
O O14 0.907315 0.811960 0.782962
O O15 0.966279 0.750000 0.000000
O O16 0.888207 0.750000 0.500000
#
# Coordination Sequence:
#
# PCOD9397975 Si02
#       6
#     8   8   8   8   8   8
#     4  11  23  40  62  92 125 165 216 267 322 393
#     4  11  23  42  65  92 129 173 216 269 337 406
#     4  11  23  41  64  93 129 170 211 266 330 392
#     4  11  22  40  65  92 125 167 214 269 330 404
#     4  11  23  39  62  91 125 163 211 267 323 389
#     4  11  23  40  61  88 122 166 213 264 327 394
#
# _framework density 20.217752000000001
#
# number of rings (size 3 to 8) (size 9 to 14) (size 15 to 20)
#    0.000    1.000    0.000    9.500    0.000    4.000 
#    0.000    3.333    0.000    0.000    0.000    0.000 
#    0.000    0.000    0.000    0.000    0.000    0.000 
#
# Total GULP energy -267685.099309 kJ/mol
# GULP energy per Si atom -5576.772902 kJ/mol
# Density = 2.017174 g / cm^3
# Si number density = 20.217752 Si / 1000 Ang^3
#
#
#
# Elastic Constant Matrix: (Units=GPa)
#
#
# Indices 1 2 3 4 5 6 
#
# 1 77.4630 48.6770 32.2838 0.0000 0.0000 0.0000
# 2 48.6770 182.0866 36.7676 0.0000 0.0000 0.0000
# 3 32.2838 36.7676 86.4735 0.0000 0.0000 0.0000
# 4 0.0000 0.0000 0.0000 38.8315 0.0000 0.0000
# 5 0.0000 0.0000 0.0000 0.0000 -2.8745 0.0000
# 6 0.0000 0.0000 0.0000 0.0000 0.0000 98.9081
#
#
#
# Elastic Compliance Matrix: (Units=1/GPa)
#
#
# Indices 1 2 3 4 5 6 
#
# 1 0.017220 -0.003616 -0.004892 0.000000 0.000000 0.000000
# 2 -0.003616 0.006767 -0.001527 0.000000 0.000000 0.000000
# 3 -0.004892 -0.001527 0.014040 0.000000 0.000000 0.000000
# 4 0.000000 0.000000 0.000000 0.025752 0.000000 0.000000
# 5 0.000000 0.000000 0.000000 0.000000 -0.347885 0.000000
# 6 0.000000 0.000000 0.000000 0.000000 0.000000 0.010110
#
#
# Mechanical properties :
#
#
# Convention : Reuss Voigt Hill
#
# Bulk Modulus (GPa) = 55.68661 64.60890 60.14775
# Shear Modulus (GPa) = -20.16611 42.19267 11.01328
#
# Velocity S-wave (km/s) = -3.16166 4.57323 2.33648
# Velocity P-wave (km/s) = 3.77824 7.74027 6.09044
#
# Compressibility (1/GPa) = 0.01795764
#
# Stress axis : x y z
#
# Youngs Moduli (GPa) = 58.07174 147.77862 71.22587
#
# Poissons Ratio (x) = 0.53432 0.34840
# Poissons Ratio (y) = 0.20997 0.10878
# Poissons Ratio (z) = 0.28406 0.22571
#
# Static dielectric constant tensor:
#      x y z
#    x 1.793030 0.000000 0.000000 
#    y 0.000000 1.787840 0.000000 
#    z 0.000000 0.000000 1.716960 
# 
# From -- ./inp_files/16979.got.cif
#   From: 2010.05.17/outbox.cif.g08.bks.cpg/sg50_9_cif.got.tgz:16979.got - 2010.06.03 11:33:33.
