data_PCOD9397535
_publ_section_title
;
Structure prediction by ZEFSAII (Michael W. Deem and Ramdas Pophale) SiO2 
 PCOD9397535
Probable space group: P B A N
;
_chemical_formula_sum "Si O2"
_cell_formula_units_Z 24
_cell_length_a 12.602805
_cell_length_b 11.285952
_cell_length_c 7.509214
_cell_angle_alpha 90.000000
_cell_angle_beta 90.000000
_cell_angle_gamma 90.000000
_cell_volume 1068.070442
_symmetry_space_group_name_H-M "P B A N"
_symmetry_group_IT_number 50
_space_group.IT_coordinate_system_code '2'
_symmetry_cell_setting 'orthorhombic'
loop_
_space_group_symop_operation_xyz
x,y,z
1/2-x,1/2-y,z
x,1/2-y,-z
1/2-x,y,-z
-x,-y,-z
1/2+x,1/2+y,-z
-x,1/2+y,z
1/2+x,-y,z
loop_
_atom_site_type_symbol
_atom_site_label
_atom_site_fract_x
_atom_site_fract_y
_atom_site_fract_z
Si Si1 0.851651 0.187949 0.193918
Si Si2 0.087953 0.277360 0.789524
Si Si3 0.726309 0.555730 0.301281
O O1 0.750000 0.250000 0.283120
O O2 0.968186 0.203823 0.275151
O O3 0.823350 0.049613 0.187327
O O4 0.858768 0.250000 0.000000
O O5 0.163158 0.391195 0.768491
O O6 0.145411 0.166663 0.695212
O O7 0.087382 0.250000 0.000000
O O8 0.750000 0.512279 0.500000
#
# Coordination Sequence:
#
# PCOD9397535 Si02
#       3
#     8   8   8
#     4  10  25  42  67  98 133 171 228 275 320 387
#     4  10  23  42  73  97 128 182 225 266 328 396
#     4  11  24  44  67  99 138 174 216 275 340 392
#
# _framework density 22.47043
#
# number of rings (size 3 to 8) (size 9 to 14) (size 15 to 20)
#    0.000    1.667    0.000    4.000   14.000    4.667 
#    6.000    0.000    0.000    0.000    0.000    0.000 
#    0.000    0.000    0.000    0.000    0.000    0.000 
#
# Total GULP energy -134151.621834 kJ/mol
# GULP energy per Si atom -5589.650910 kJ/mol
# Density = 2.241929 g / cm^3
# Si number density = 22.470430 Si / 1000 Ang^3
#
#
#
# Elastic Constant Matrix: (Units=GPa)
#
#
# Indices 1 2 3 4 5 6 
#
# 1 240.8194 69.5750 12.6427 0.0000 0.0000 0.0000
# 2 69.5750 136.6345 27.9669 0.0000 0.0000 0.0000
# 3 12.6427 27.9669 74.5801 0.0000 0.0000 0.0000
# 4 0.0000 0.0000 0.0000 26.0631 0.0000 0.0000
# 5 0.0000 0.0000 0.0000 0.0000 -44.4367 0.0000
# 6 0.0000 0.0000 0.0000 0.0000 0.0000 18.4279
#
#
#
# Elastic Compliance Matrix: (Units=1/GPa)
#
#
# Indices 1 2 3 4 5 6 
#
# 1 0.004870 -0.002503 0.000113 0.000000 0.000000 0.000000
# 2 -0.002503 0.009214 -0.003031 0.000000 0.000000 0.000000
# 3 0.000113 -0.003031 0.014526 0.000000 0.000000 0.000000
# 4 0.000000 0.000000 0.000000 0.038368 0.000000 0.000000
# 5 0.000000 0.000000 0.000000 0.000000 -0.022504 0.000000
# 6 0.000000 0.000000 0.000000 0.000000 0.000000 0.054265
#
#
# Mechanical properties :
#
#
# Convention : Reuss Voigt Hill
#
# Bulk Modulus (GPa) = 56.28106 74.71145 65.49625
# Shear Modulus (GPa) = 43.28908 22.80083 33.04495
#
# Velocity S-wave (km/s) = 4.39394 3.18890 3.83900
# Velocity P-wave (km/s) = 7.13046 6.84688 6.99010
#
# Compressibility (1/GPa) = 0.01776797
#
# Stress axis : x y z
#
# Youngs Moduli (GPa) = 205.35436 108.53562 68.84330
#
# Poissons Ratio (x) = 0.27164 -0.00778
# Poissons Ratio (y) = 0.51396 0.20865
# Poissons Ratio (z) = -0.02321 0.32894
#
# Static dielectric constant tensor:
#      x y z
#    x 1.841330 0.000000 0.000000 
#    y 0.000000 1.813300 0.000000 
#    z 0.000000 0.000000 1.846960 
# 
# From -- ./inp_files/10340.got.cif
#   From: 2010.05.17/outbox.cif.g08.bks.cpg/sg50_6_cif.got.tgz:10340.got - 2010.06.03 11:33:33.
