data_PCOD9397283
_publ_section_title
;
Structure prediction by ZEFSAII (Michael W. Deem and Ramdas Pophale) SiO2 
 PCOD9397283
Probable space group: P B A N
;
_chemical_formula_sum "Si O2"
_cell_formula_units_Z 58
_cell_length_a 5.885617
_cell_length_b 26.459457
_cell_length_c 16.986194
_cell_angle_alpha 90.000000
_cell_angle_beta 90.000000
_cell_angle_gamma 90.000000
_cell_volume 2645.263897
_symmetry_space_group_name_H-M "P B A N"
_symmetry_group_IT_number 50
_space_group.IT_coordinate_system_code '2'
_symmetry_cell_setting 'orthorhombic'
loop_
_space_group_symop_operation_xyz
x,y,z
1/2-x,1/2-y,z
x,1/2-y,-z
1/2-x,y,-z
-x,-y,-z
1/2+x,1/2+y,-z
-x,1/2+y,z
1/2+x,-y,z
loop_
_atom_site_type_symbol
_atom_site_label
_atom_site_fract_x
_atom_site_fract_y
_atom_site_fract_z
Si Si1 0.593793 0.884870 0.684344
Si Si2 0.240219 0.931783 0.086831
Si Si3 0.595273 0.871776 0.181205
Si Si4 0.776069 0.306703 0.709309
Si Si5 0.166356 0.305827 0.589816
Si Si6 0.856524 0.476057 0.256187
Si Si7 0.750000 0.250000 0.000000
Si Si8 0.431148 0.167834 0.069605
O O1 0.761750 0.901924 0.754127
O O2 0.463785 0.833164 0.703032
O O3 0.744589 0.862073 0.615017
O O4 0.402078 0.927557 0.686863
O O5 0.479358 0.908080 0.117205
O O6 0.146906 0.962207 0.162224
O O7 0.078546 0.883101 0.074245
O O8 0.250000 0.956946 0.000000
O O9 0.410207 0.840167 0.227806
O O10 0.771133 0.832329 0.144699
O O11 0.750000 0.250000 0.736802
O O12 0.910067 0.306764 0.625467
O O13 0.250000 0.250000 0.621894
O O14 0.250000 0.303196 0.500000
O O15 0.594197 0.493404 0.270634
O O16 0.595313 0.285737 0.946264
O O17 0.250000 0.165914 0.000000
#
# Coordination Sequence:
#
# PCOD9397283 Si02
#       8
#     8   8   8   8   8   8   2   8
#     4  11  23  44  69  98 141 191 231 286 352 423
#     4  12  24  45  68  95 130 175 231 306 390 443
#     4  11  22  42  63  92 135 184 233 294 350 434
#     4  11  22  41  65 102 140 185 235 275 341 432
#     4  10  22  41  69 112 155 186 222 272 342 432
#     4  12  28  48  75 105 138 188 254 321 381 439
#     4  12  26  44  52  98 116 188 242 282 376 454
#     4  12  23  43  60  84 131 177 231 294 362 438
#
# _framework density 21.925979000000002
#
# number of rings (size 3 to 8) (size 9 to 14) (size 15 to 20)
#    0.000    0.690    6.207    1.034    1.931    1.103 
#   18.621    0.000    0.000    0.828    0.000    0.000 
#    0.000    0.000    0.000    0.000    0.000    0.000 
#
# Total GULP energy -323220.527033 kJ/mol
# GULP energy per Si atom -5572.767707 kJ/mol
# Density = 2.187607 g / cm^3
# Si number density = 21.925979 Si / 1000 Ang^3
#
#
#
# Elastic Constant Matrix: (Units=GPa)
#
#
# Indices 1 2 3 4 5 6 
#
# 1 81.9120 27.6309 18.2790 0.0000 0.0000 0.0000
# 2 27.6309 64.0819 0.6140 0.0000 0.0000 0.0000
# 3 18.2790 0.6140 67.7418 0.0000 0.0000 0.0000
# 4 0.0000 0.0000 0.0000 27.4189 0.0000 0.0000
# 5 0.0000 0.0000 0.0000 0.0000 10.4103 0.0000
# 6 0.0000 0.0000 0.0000 0.0000 0.0000 108.7390
#
#
#
# Elastic Compliance Matrix: (Units=1/GPa)
#
#
# Indices 1 2 3 4 5 6 
#
# 1 0.015336 -0.006573 -0.004079 0.000000 0.000000 0.000000
# 2 -0.006573 0.018424 0.001607 0.000000 0.000000 0.000000
# 3 -0.004079 0.001607 0.015848 0.000000 0.000000 0.000000
# 4 0.000000 0.000000 0.000000 0.036471 0.000000 0.000000
# 5 0.000000 0.000000 0.000000 0.000000 0.096059 0.000000
# 6 0.000000 0.000000 0.000000 0.000000 0.000000 0.009196
#
#
# Mechanical properties :
#
#
# Convention : Reuss Voigt Hill
#
# Bulk Modulus (GPa) = 31.72869 34.08706 32.90788
# Shear Modulus (GPa) = 22.73449 40.46110 31.59780
#
# Velocity S-wave (km/s) = 3.22355 4.30041 3.80032
# Velocity P-wave (km/s) = 5.32515 6.34336 5.85643
#
# Compressibility (1/GPa) = 0.03151721
#
# Stress axis : x y z
#
# Youngs Moduli (GPa) = 65.20716 54.27714 63.09989
#
# Poissons Ratio (x) = 0.35679 0.25735
# Poissons Ratio (y) = 0.42863 -0.10138
# Poissons Ratio (z) = 0.26595 -0.08721
#
# Static dielectric constant tensor:
#      x y z
#    x 1.874000 0.000000 0.000000 
#    y 0.000000 1.857280 0.000000 
#    z 0.000000 0.000000 1.871680 
# 
# From -- ./inp_files/28372.got.cif
#   From: 2010.05.17/outbox.cif.g08.bks.cpg/sg50_15_cif.got.tgz:28372.got - 2010.06.03 11:33:33.
