data_PCOD9397332
_publ_section_title
;
Structure prediction by ZEFSAII (Michael W. Deem and Ramdas Pophale) SiO2 
 PCOD9397332
Probable space group: P B A N
;
_chemical_formula_sum "Si O2"
_cell_formula_units_Z 34
_cell_length_a 10.584775
_cell_length_b 9.012954
_cell_length_c 18.505875
_cell_angle_alpha 90.000000
_cell_angle_beta 90.000000
_cell_angle_gamma 90.000000
_cell_volume 1765.462144
_symmetry_space_group_name_H-M "P B A N"
_symmetry_group_IT_number 50
_space_group.IT_coordinate_system_code '2'
_symmetry_cell_setting 'orthorhombic'
loop_
_space_group_symop_operation_xyz
x,y,z
1/2-x,1/2-y,z
x,1/2-y,-z
1/2-x,y,-z
-x,-y,-z
1/2+x,1/2+y,-z
-x,1/2+y,z
1/2+x,-y,z
loop_
_atom_site_type_symbol
_atom_site_label
_atom_site_fract_x
_atom_site_fract_y
_atom_site_fract_z
Si Si1 0.622426 0.682454 0.419077
Si Si2 0.625991 0.832853 0.857516
Si Si3 0.750000 0.750000 0.000000
Si Si4 0.122679 0.663384 0.197986
Si Si5 0.872399 0.155506 0.370834
O O1 0.750000 0.750000 0.384613
O O2 0.620550 0.750000 0.500000
O O3 0.624279 0.504391 0.410473
O O4 0.496363 0.748117 0.385361
O O5 0.750000 0.750000 0.825573
O O6 0.656281 0.830036 0.943462
O O7 0.500498 0.751188 0.829765
O O8 0.620322 0.001414 0.835036
O O9 0.250000 0.750000 0.176976
O O10 0.129322 0.638626 0.284347
O O11 0.750000 0.250000 0.393775
#
# Coordination Sequence:
#
# PCOD9397332 Si02
#       5
#     8   8   2   8   8
#     4  11  24  42  63  93 128 171 216 262 316 379
#     4  10  22  43  63  91 130 164 214 257 314 382
#     4   8  24  44  64  92 128 172 210 252 320 376
#     4  11  23  40  66  98 127 168 212 267 317 372
#     4  11  24  41  65  96 129 167 215 265 322 376
#
# _framework density 19.258413000000001
#
# number of rings (size 3 to 8) (size 9 to 14) (size 15 to 20)
#    0.706    0.706    0.000    4.941    0.000   10.824 
#    0.000    0.000    0.000    0.000    0.000    0.000 
#    0.000    0.000    0.000    0.000    0.000    0.000 
#
# Total GULP energy -189655.224408 kJ/mol
# GULP energy per Si atom -5578.094836 kJ/mol
# Density = 1.921458 g / cm^3
# Si number density = 19.258413 Si / 1000 Ang^3
#
#
#
# Elastic Constant Matrix: (Units=GPa)
#
#
# Indices 1 2 3 4 5 6 
#
# 1 190.8716 105.9556 35.6416 0.0000 0.0000 0.0000
# 2 105.9556 227.7028 63.4898 0.0000 0.0000 0.0000
# 3 35.6416 63.4898 76.0742 0.0000 0.0000 0.0000
# 4 0.0000 0.0000 0.0000 42.0994 0.0000 0.0000
# 5 0.0000 0.0000 0.0000 0.0000 29.7130 0.0000
# 6 0.0000 0.0000 0.0000 0.0000 0.0000 45.6519
#
#
#
# Elastic Compliance Matrix: (Units=1/GPa)
#
#
# Indices 1 2 3 4 5 6 
#
# 1 0.007096 -0.003095 -0.000741 0.000000 0.000000 0.000000
# 2 -0.003095 0.007074 -0.004453 0.000000 0.000000 0.000000
# 3 -0.000741 -0.004453 0.017209 0.000000 0.000000 0.000000
# 4 0.000000 0.000000 0.000000 0.023753 0.000000 0.000000
# 5 0.000000 0.000000 0.000000 0.000000 0.033655 0.000000
# 6 0.000000 0.000000 0.000000 0.000000 0.000000 0.021905
#
#
# Mechanical properties :
#
#
# Convention : Reuss Voigt Hill
#
# Bulk Modulus (GPa) = 67.57313 100.53584 84.05449
# Shear Modulus (GPa) = 37.82017 42.79695 40.30856
#
# Velocity S-wave (km/s) = 4.43632 4.71919 4.57993
# Velocity P-wave (km/s) = 7.83613 9.05600 8.46806
#
# Compressibility (1/GPa) = 0.01479878
#
# Stress axis : x y z
#
# Youngs Moduli (GPa) = 140.93071 141.36972 58.10878
#
# Poissons Ratio (x) = 0.43755 0.04308
# Poissons Ratio (y) = 0.43619 0.25878
# Poissons Ratio (z) = 0.10447 0.62958
#
# Static dielectric constant tensor:
#      x y z
#    x 1.631070 0.000000 0.000000 
#    y 0.000000 1.623080 0.000000 
#    z 0.000000 0.000000 1.836530 
# 
# From -- ./inp_files/30526.got.cif
#   From: 2010.05.17/outbox.cif.g08.bks.cpg/sg50_16_cif.got.tgz:30526.got - 2010.06.03 11:33:33.
