data_PCOD9397296
_publ_section_title
;
Structure prediction by ZEFSAII (Michael W. Deem and Ramdas Pophale) SiO2 
 PCOD9397296
Probable space group: P B A N
;
_chemical_formula_sum "Si O2"
_cell_formula_units_Z 48
_cell_length_a 16.348977
_cell_length_b 23.247971
_cell_length_c 5.119729
_cell_angle_alpha 90.000000
_cell_angle_beta 90.000000
_cell_angle_gamma 90.000000
_cell_volume 1945.909379
_symmetry_space_group_name_H-M "P B A N"
_symmetry_group_IT_number 50
_space_group.IT_coordinate_system_code '2'
_symmetry_cell_setting 'orthorhombic'
loop_
_space_group_symop_operation_xyz
x,y,z
1/2-x,1/2-y,z
x,1/2-y,-z
1/2-x,y,-z
-x,-y,-z
1/2+x,1/2+y,-z
-x,1/2+y,z
1/2+x,-y,z
loop_
_atom_site_type_symbol
_atom_site_label
_atom_site_fract_x
_atom_site_fract_y
_atom_site_fract_z
Si Si1 0.788441 0.185798 0.241942
Si Si2 0.942806 0.852007 0.469829
Si Si3 0.088063 0.976525 0.096855
Si Si4 0.953787 0.149189 0.032201
Si Si5 0.842072 0.533173 0.606664
Si Si6 0.789194 0.686534 0.256062
O O1 0.750000 0.250000 0.247412
O O2 0.750000 0.158406 0.500000
O O3 0.883636 0.188787 0.165545
O O4 0.750000 0.153178 0.000000
O O5 0.890776 0.906236 0.369447
O O6 0.882564 0.811521 0.649429
O O7 0.000441 0.871792 0.705882
O O8 0.989380 0.827438 0.210367
O O9 0.108711 0.998595 0.383752
O O10 0.084676 0.907791 0.092190
O O11 0.150854 0.001572 0.883644
O O12 0.000000 0.000000 0.000000
O O13 0.750000 0.536356 0.500000
O O14 0.750000 0.750000 0.247368
O O15 0.750000 0.655923 0.500000
O O16 0.750000 0.658133 0.000000
#
# Coordination Sequence:
#
# PCOD9397296 Si02
#       6
#     8   8   8   8   8   8
#     4  10  23  47  72  97 135 176 231 309 366 417
#     4  12  23  42  68 104 141 182 239 287 349 439
#     4  12  23  44  65  98 149 187 235 289 345 420
#     4  12  25  41  74 103 136 191 233 289 369 418
#     4  12  25  41  67 102 142 192 232 286 348 417
#     4  10  22  42  65  93 133 181 223 292 352 411
#
# _framework density 24.667131000000001
#
# number of rings (size 3 to 8) (size 9 to 14) (size 15 to 20)
#    0.000    0.667    3.333    4.500    0.000    3.333 
#    0.000   13.333    0.000    0.000    0.000    0.000 
#    0.000    0.000    0.000    0.000    0.000    0.000 
#
# Total GULP energy -267594.843230 kJ/mol
# GULP energy per Si atom -5574.892567 kJ/mol
# Density = 2.461099 g / cm^3
# Si number density = 24.667131 Si / 1000 Ang^3
#
#
#
# Elastic Constant Matrix: (Units=GPa)
#
#
# Indices 1 2 3 4 5 6 
#
# 1 122.9042 31.9518 41.1104 0.0000 0.0000 0.0000
# 2 31.9518 63.4907 1.6218 0.0000 0.0000 0.0000
# 3 41.1104 1.6218 215.4602 0.0000 0.0000 0.0000
# 4 0.0000 0.0000 0.0000 5.1224 0.0000 0.0000
# 5 0.0000 0.0000 0.0000 0.0000 73.8880 0.0000
# 6 0.0000 0.0000 0.0000 0.0000 0.0000 -17.7448
#
#
#
# Elastic Compliance Matrix: (Units=1/GPa)
#
#
# Indices 1 2 3 4 5 6 
#
# 1 0.010072 -0.005021 -0.001884 0.000000 0.000000 0.000000
# 2 -0.005021 0.018256 0.000821 0.000000 0.000000 0.000000
# 3 -0.001884 0.000821 0.004995 0.000000 0.000000 0.000000
# 4 0.000000 0.000000 0.000000 0.195222 0.000000 0.000000
# 5 0.000000 0.000000 0.000000 0.000000 0.013534 0.000000
# 6 0.000000 0.000000 0.000000 0.000000 0.000000 -0.056355
#
#
# Mechanical properties :
#
#
# Convention : Reuss Voigt Hill
#
# Bulk Modulus (GPa) = 47.27155 61.24702 54.25929
# Shear Modulus (GPa) = 24.39702 34.06454 29.23078
#
# Velocity S-wave (km/s) = 3.14833 3.72017 3.44613
# Velocity P-wave (km/s) = 5.69397 6.58302 6.15457
#
# Compressibility (1/GPa) = 0.02115437
#
# Stress axis : x y z
#
# Youngs Moduli (GPa) = 99.28739 54.77668 200.21976
#
# Poissons Ratio (x) = 0.27501 0.37720
# Poissons Ratio (y) = 0.49847 -0.16428
# Poissons Ratio (z) = 0.18705 -0.04494
#
# Static dielectric constant tensor:
#      x y z
#    x 2.245340 0.000000 0.000000 
#    y 0.000000 1.743980 0.000000 
#    z 0.000000 0.000000 37.041340 
# 
# From -- ./inp_files/3560.got.cif
#   From: 2010.05.17/outbox.cif.g08.bks.cpg/sg50_2_cif.got.tgz:3560.got - 2010.06.03 11:33:33.
