data_PCOD9397484
_publ_section_title
;
Structure prediction by ZEFSAII (Michael W. Deem and Ramdas Pophale) SiO2 
 PCOD9397484
Probable space group: P B A N
;
_chemical_formula_sum "Si O2"
_cell_formula_units_Z 32
_cell_length_a 22.738894
_cell_length_b 8.261282
_cell_length_c 7.772296
_cell_angle_alpha 90.000000
_cell_angle_beta 90.000000
_cell_angle_gamma 90.000000
_cell_volume 1460.044579
_symmetry_space_group_name_H-M "P B A N"
_symmetry_group_IT_number 50
_space_group.IT_coordinate_system_code '2'
_symmetry_cell_setting 'orthorhombic'
loop_
_space_group_symop_operation_xyz
x,y,z
1/2-x,1/2-y,z
x,1/2-y,-z
1/2-x,y,-z
-x,-y,-z
1/2+x,1/2+y,-z
-x,1/2+y,z
1/2+x,-y,z
loop_
_atom_site_type_symbol
_atom_site_label
_atom_site_fract_x
_atom_site_fract_y
_atom_site_fract_z
Si Si1 0.315301 0.797774 0.296585
Si Si2 0.970912 0.790116 0.688708
Si Si3 0.129576 0.395327 0.127725
Si Si4 0.072451 0.608215 0.836665
O O1 0.250000 0.750000 0.238597
O O2 0.318459 0.750000 0.500000
O O3 0.366239 0.690151 0.212474
O O4 0.328019 0.981789 0.231522
O O5 0.992610 0.750000 0.500000
O O6 0.913114 0.688023 0.734893
O O7 0.021957 0.742732 0.821410
O O8 0.951424 0.974271 0.704800
O O9 0.153091 0.250000 0.000000
O O10 0.087789 0.503779 0.004860
#
# Coordination Sequence:
#
# PCOD9397484 Si02
#       4
#     8   8   8   8
#     4  11  24  44  68  93 125 170 221 270 323 391
#     4  11  21  37  62  94 132 169 211 265 326 392
#     4  10  23  41  64  94 130 167 211 267 328 392
#     4  11  22  37  61  94 128 167 212 265 327 390
#
# _framework density 21.917138999999999
#
# number of rings (size 3 to 8) (size 9 to 14) (size 15 to 20)
#    0.000    1.250    0.000    6.000    0.000    6.000 
#    0.000    8.750    0.000   13.500    0.000    0.000 
#    0.000    0.000    0.000    0.000    0.000    0.000 
#
# Total GULP energy -178705.388836 kJ/mol
# GULP energy per Si atom -5584.543401 kJ/mol
# Density = 2.186725 g / cm^3
# Si number density = 21.917139 Si / 1000 Ang^3
#
#
#
# Elastic Constant Matrix: (Units=GPa)
#
#
# Indices 1 2 3 4 5 6 
#
# 1 116.5764 81.4393 8.4311 0.0000 0.0000 0.0000
# 2 81.4393 165.6652 51.7967 0.0000 0.0000 0.0000
# 3 8.4311 51.7967 104.4905 0.0000 0.0000 0.0000
# 4 0.0000 0.0000 0.0000 40.0189 0.0000 0.0000
# 5 0.0000 0.0000 0.0000 0.0000 25.9265 0.0000
# 6 0.0000 0.0000 0.0000 0.0000 0.0000 36.9539
#
#
#
# Elastic Compliance Matrix: (Units=1/GPa)
#
#
# Indices 1 2 3 4 5 6 
#
# 1 0.013651 -0.007534 0.002633 0.000000 0.000000 0.000000
# 2 -0.007534 0.011301 -0.004994 0.000000 0.000000 0.000000
# 3 0.002633 -0.004994 0.011833 0.000000 0.000000 0.000000
# 4 0.000000 0.000000 0.000000 0.024988 0.000000 0.000000
# 5 0.000000 0.000000 0.000000 0.000000 0.038571 0.000000
# 6 0.000000 0.000000 0.000000 0.000000 0.000000 0.027061
#
#
# Mechanical properties :
#
#
# Convention : Reuss Voigt Hill
#
# Bulk Modulus (GPa) = 58.83879 74.45181 66.64530
# Shear Modulus (GPa) = 32.70966 36.91753 34.81359
#
# Velocity S-wave (km/s) = 3.86738 4.10861 3.98982
# Velocity P-wave (km/s) = 6.84445 7.52004 7.19018
#
# Compressibility (1/GPa) = 0.01699559
#
# Stress axis : x y z
#
# Youngs Moduli (GPa) = 73.25641 88.48535 84.50601
#
# Poissons Ratio (x) = 0.66663 -0.22251
# Poissons Ratio (y) = 0.55190 0.42204
# Poissons Ratio (z) = -0.19289 0.44192
#
# Static dielectric constant tensor:
#      x y z
#    x 1.738090 0.000000 0.000000 
#    y 0.000000 1.873630 0.000000 
#    z 0.000000 0.000000 1.825350 
# 
# From -- ./inp_files/14829.got.cif
#   From: 2010.05.17/outbox.cif.g08.bks.cpg/sg50_8_cif.got.tgz:14829.got - 2010.06.03 11:33:33.
