data_PCOD9397168
_publ_section_title
;
Structure prediction by ZEFSAII (Michael W. Deem and Ramdas Pophale) SiO2 
 PCOD9397168
Probable space group: P B A N
;
_chemical_formula_sum "Si O2"
_cell_formula_units_Z 32
_cell_length_a 18.604102
_cell_length_b 9.185217
_cell_length_c 7.737237
_cell_angle_alpha 90.000000
_cell_angle_beta 90.000000
_cell_angle_gamma 90.000000
_cell_volume 1322.160057
_symmetry_space_group_name_H-M "P B A N"
_symmetry_group_IT_number 50
_space_group.IT_coordinate_system_code '2'
_symmetry_cell_setting 'orthorhombic'
loop_
_space_group_symop_operation_xyz
x,y,z
1/2-x,1/2-y,z
x,1/2-y,-z
1/2-x,y,-z
-x,-y,-z
1/2+x,1/2+y,-z
-x,1/2+y,z
1/2+x,-y,z
loop_
_atom_site_type_symbol
_atom_site_label
_atom_site_fract_x
_atom_site_fract_y
_atom_site_fract_z
Si Si1 0.757278 0.584425 0.289532
Si Si2 0.582818 0.949582 0.325258
Si Si3 0.361741 0.628085 0.638692
Si Si4 0.493721 0.786308 0.806652
O O1 0.750000 0.750000 0.224965
O O2 0.750000 0.592230 0.500000
O O3 0.837845 0.537809 0.244360
O O4 0.697139 0.462695 0.254381
O O5 0.554554 0.785905 0.312628
O O6 0.594151 0.017589 0.514480
O O7 0.524348 0.046459 0.225927
O O8 0.333063 0.750000 0.500000
O O9 0.418298 0.710119 0.757842
O O10 0.515006 0.750000 0.000000
#
# Coordination Sequence:
#
# PCOD9397168 Si02
#       4
#     8   8   8   8
#     4   9  19  37  63  90 119 155 206 262 308 357
#     4  10  22  39  62  91 118 164 207 255 314 366
#     4   9  20  39  64  91 119 160 211 263 309 369
#     4  11  23  39  61  88 129 164 202 254 314 378
#
# _framework density 24.202818000000001
#
# number of rings (size 3 to 8) (size 9 to 14) (size 15 to 20)
#    0.000    2.250    0.000    1.500    3.500   11.500 
#    9.000    2.500    0.000    0.000    0.000    0.000 
#    0.000    0.000    0.000    0.000    0.000    0.000 
#
# Total GULP energy -178864.506335 kJ/mol
# GULP energy per Si atom -5589.515823 kJ/mol
# Density = 2.414773 g / cm^3
# Si number density = 24.202818 Si / 1000 Ang^3
#
#
#
# Elastic Constant Matrix: (Units=GPa)
#
#
# Indices 1 2 3 4 5 6 
#
# 1 79.8954 33.8146 14.0430 0.0000 0.0000 0.0000
# 2 33.8146 118.2830 21.6808 0.0000 0.0000 0.0000
# 3 14.0430 21.6808 56.9521 0.0000 0.0000 0.0000
# 4 0.0000 0.0000 0.0000 16.1943 0.0000 0.0000
# 5 0.0000 0.0000 0.0000 0.0000 -6.1630 0.0000
# 6 0.0000 0.0000 0.0000 0.0000 0.0000 41.8460
#
#
#
# Elastic Compliance Matrix: (Units=1/GPa)
#
#
# Indices 1 2 3 4 5 6 
#
# 1 0.014479 -0.003746 -0.002144 0.000000 0.000000 0.000000
# 2 -0.003746 0.010058 -0.002905 0.000000 0.000000 0.000000
# 3 -0.002144 -0.002905 0.019193 0.000000 0.000000 0.000000
# 4 0.000000 0.000000 0.000000 0.061750 0.000000 0.000000
# 5 0.000000 0.000000 0.000000 0.000000 -0.162258 0.000000
# 6 0.000000 0.000000 0.000000 0.000000 0.000000 0.023897
#
#
# Mechanical properties :
#
#
# Convention : Reuss Voigt Hill
#
# Bulk Modulus (GPa) = 38.25684 43.80082 41.02883
# Shear Modulus (GPa) = -760.13504 22.74826 -368.69339
#
# Velocity S-wave (km/s) = -17.74121 3.06911 -12.35579
# Velocity P-wave (km/s) = 20.09543 5.54039 13.65889
#
# Compressibility (1/GPa) = 0.02613912
#
# Stress axis : x y z
#
# Youngs Moduli (GPa) = 69.06686 99.42582 52.10177
#
# Poissons Ratio (x) = 0.37247 0.11171
# Poissons Ratio (y) = 0.25874 0.15136
# Poissons Ratio (z) = 0.14808 0.28884
#
# Static dielectric constant tensor:
#      x y z
#    x 1.938780 0.000000 0.000000 
#    y 0.000000 1.971710 0.000000 
#    z 0.000000 0.000000 1.927020 
# 
# From -- ./inp_files/14822.got.cif
#   From: 2010.05.17/outbox.cif.g08.bks.cpg/sg50_8_cif.got.tgz:14822.got - 2010.06.03 11:33:33.
