data_PCOD9397625
_publ_section_title
;
Structure prediction by ZEFSAII (Michael W. Deem and Ramdas Pophale) SiO2 
 PCOD9397625
Probable space group: P B A N
;
_chemical_formula_sum "Si O2"
_cell_formula_units_Z 52
_cell_length_a 14.262308
_cell_length_b 9.422172
_cell_length_c 19.297707
_cell_angle_alpha 90.000000
_cell_angle_beta 90.000000
_cell_angle_gamma 90.000000
_cell_volume 2593.262901
_symmetry_space_group_name_H-M "P B A N"
_symmetry_group_IT_number 50
_space_group.IT_coordinate_system_code '2'
_symmetry_cell_setting 'orthorhombic'
loop_
_space_group_symop_operation_xyz
x,y,z
1/2-x,1/2-y,z
x,1/2-y,-z
1/2-x,y,-z
-x,-y,-z
1/2+x,1/2+y,-z
-x,1/2+y,z
1/2+x,-y,z
loop_
_atom_site_type_symbol
_atom_site_label
_atom_site_fract_x
_atom_site_fract_y
_atom_site_fract_z
Si Si1 0.532686 0.005055 0.599929
Si Si2 0.140923 0.412256 0.130369
Si Si3 0.504414 0.750000 0.500000
Si Si4 0.135376 0.589491 0.997214
Si Si5 0.630335 0.911646 0.136319
Si Si6 0.153469 0.073345 0.716888
Si Si7 0.376378 0.092221 0.707274
O O1 0.545425 0.132382 0.546288
O O2 0.434541 0.022904 0.643660
O O3 0.549119 0.857527 0.557707
O O4 0.607457 0.021683 0.659573
O O5 0.109120 0.503889 0.065878
O O6 0.255266 0.407097 0.132817
O O7 0.103363 0.252152 0.124520
O O8 0.121680 0.471331 0.206634
O O9 0.101667 0.750000 0.000000
O O10 0.250000 0.591599 0.000000
O O11 0.104420 0.512637 0.926910
O O12 0.598603 0.955249 0.213749
O O13 0.264591 0.068302 0.705311
O O14 0.116861 0.235619 0.706895
#
# Coordination Sequence:
#
# PCOD9397625 Si02
#       7
#     8   8   4   8   8   8   8
#     4  11  20  42  60  87 112 148 176 231 274 338
#     4   8  14  26  46  71  98 137 189 227 255 309
#     4  10  24  38  62  84 118 142 180 220 284 338
#     4   9  15  23  37  66 109 146 172 218 278 316
#     4   8  14  26  46  71  98 137 189 227 255 309
#     4   9  18  35  60  85 110 148 192 227 269 331
#     4   9  18  35  60  85 110 148 192 227 269 331
#
# _framework density 20.051959
#
# number of rings (size 3 to 8) (size 9 to 14) (size 15 to 20)
#    0.000    2.923    1.538    2.308    0.000    1.846 
#    2.769    5.385    0.000    0.923    0.000    0.000 
#    0.000    0.000    0.000    0.000    0.000    0.000 
#
# Total GULP energy -289498.248869 kJ/mol
# GULP energy per Si atom -5567.274017 kJ/mol
# Density = 2.000632 g / cm^3
# Si number density = 20.051959 Si / 1000 Ang^3
#
#
#
# Elastic Constant Matrix: (Units=GPa)
#
#
# Indices 1 2 3 4 5 6 
#
# 1 46.0935 7.0448 19.6272 0.0000 0.0000 0.0000
# 2 7.0448 66.6815 55.4700 0.0000 0.0000 0.0000
# 3 19.6272 55.4700 168.3022 0.0000 0.0000 0.0000
# 4 0.0000 0.0000 0.0000 26.5959 0.0000 0.0000
# 5 0.0000 0.0000 0.0000 0.0000 24.7030 0.0000
# 6 0.0000 0.0000 0.0000 0.0000 0.0000 -1.7209
#
#
#
# Elastic Compliance Matrix: (Units=1/GPa)
#
#
# Indices 1 2 3 4 5 6 
#
# 1 0.022832 -0.000272 -0.002573 0.000000 0.000000 0.000000
# 2 -0.000272 0.020665 -0.006779 0.000000 0.000000 0.000000
# 3 -0.002573 -0.006779 0.008476 0.000000 0.000000 0.000000
# 4 0.000000 0.000000 0.000000 0.037600 0.000000 0.000000
# 5 0.000000 0.000000 0.000000 0.000000 0.040481 0.000000
# 6 0.000000 0.000000 0.000000 0.000000 0.000000 -0.581103
#
#
# Mechanical properties :
#
#
# Convention : Reuss Voigt Hill
#
# Bulk Modulus (GPa) = 30.55753 49.48458 40.02105
# Shear Modulus (GPa) = -11.87949 23.17795 5.64923
#
# Velocity S-wave (km/s) = -2.43664 3.40353 1.68030
# Velocity P-wave (km/s) = 2.71219 6.33854 4.87510
#
# Compressibility (1/GPa) = 0.03272516
#
# Stress axis : x y z
#
# Youngs Moduli (GPa) = 43.79771 48.39174 117.97929
#
# Poissons Ratio (x) = 0.01315 0.30358
# Poissons Ratio (y) = 0.01190 0.79979
# Poissons Ratio (z) = 0.11270 0.32805
#
# Static dielectric constant tensor:
#      x y z
#    x 1.794110 0.000000 0.000000 
#    y 0.000000 1.698440 0.000000 
#    z 0.000000 0.000000 1.731350 
# 
# From -- ./inp_files/29678.got.cif
#   From: 2010.05.17/outbox.cif.g08.bks.cpg/sg50_15_cif.got.tgz:29678.got - 2010.06.03 11:33:33.
