data_PCOD9397650
_publ_section_title
;
Structure prediction by ZEFSAII (Michael W. Deem and Ramdas Pophale) SiO2 
 PCOD9397650
Probable space group: P B A N
;
_chemical_formula_sum "Si O2"
_cell_formula_units_Z 46
_cell_length_a 27.670292
_cell_length_b 8.572059
_cell_length_c 9.901164
_cell_angle_alpha 90.000000
_cell_angle_beta 90.000000
_cell_angle_gamma 90.000000
_cell_volume 2348.470709
_symmetry_space_group_name_H-M "P B A N"
_symmetry_group_IT_number 50
_space_group.IT_coordinate_system_code '2'
_symmetry_cell_setting 'orthorhombic'
loop_
_space_group_symop_operation_xyz
x,y,z
1/2-x,1/2-y,z
x,1/2-y,-z
1/2-x,y,-z
-x,-y,-z
1/2+x,1/2+y,-z
-x,1/2+y,z
1/2+x,-y,z
loop_
_atom_site_type_symbol
_atom_site_label
_atom_site_fract_x
_atom_site_fract_y
_atom_site_fract_z
Si Si1 0.359688 0.750000 0.000000
Si Si2 0.250000 0.250000 0.000000
Si Si3 0.863148 0.250000 0.500000
Si Si4 0.513212 0.937407 0.850694
Si Si5 0.430083 0.784264 0.241588
Si Si6 0.408803 0.250000 0.000000
Si Si7 0.807236 0.569228 0.461476
Si Si8 0.672343 0.546084 0.855591
O O1 0.395058 0.680639 0.885483
O O2 0.328345 0.875211 0.919953
O O3 0.282917 0.357090 0.090967
O O4 0.897739 0.243597 0.630645
O O5 0.832461 0.411082 0.520282
O O6 0.465331 0.857644 0.794982
O O7 0.556362 0.819146 0.885135
O O8 0.534467 0.067655 0.751600
O O9 0.500000 0.000000 0.000000
O O10 0.374758 0.372283 0.078478
O O11 0.821705 0.750000 0.500000
O O12 0.750000 0.559586 0.500000
O O13 0.821868 0.550952 0.304452
#
# Coordination Sequence:
#
# PCOD9397650 Si02
#       8
#     4   2   4   8   8   4   8   8
#     4  12  21  41  71 102 136 178 237 295 353 424
#     4  10  24  42  64 108 132 166 230 314 350 418
#     4  12  29  48  68 106 154 186 244 293 366 444
#     4  12  21  39  68  98 137 180 233 291 351 415
#     4  12  25  42  67 103 137 187 237 290 357 428
#     4  11  21  37  68 102 130 178 221 304 342 414
#     4  11  26  49  75 100 142 198 240 295 370 446
#     4  11  24  43  70 103 138 177 241 293 367 426
#
# _framework density 19.587212999999998
#
# number of rings (size 3 to 8) (size 9 to 14) (size 15 to 20)
#    0.000    0.522    6.957    1.304    2.435    2.435 
#    3.130    0.000    0.000    0.000    0.000    0.000 
#    0.000    0.000    0.000    0.000    0.000    0.000 
#
# Total GULP energy -256657.098488 kJ/mol
# GULP energy per Si atom -5579.502141 kJ/mol
# Density = 1.954263 g / cm^3
# Si number density = 19.587213 Si / 1000 Ang^3
#
#
#
# Elastic Constant Matrix: (Units=GPa)
#
#
# Indices 1 2 3 4 5 6 
#
# 1 105.7654 66.6065 47.1730 0.0000 0.0000 0.0000
# 2 66.6065 145.0044 45.9051 0.0000 0.0000 0.0000
# 3 47.1730 45.9051 110.3791 0.0000 0.0000 0.0000
# 4 0.0000 0.0000 0.0000 51.1662 0.0000 0.0000
# 5 0.0000 0.0000 0.0000 0.0000 52.4399 0.0000
# 6 0.0000 0.0000 0.0000 0.0000 0.0000 52.5092
#
#
#
# Elastic Compliance Matrix: (Units=1/GPa)
#
#
# Indices 1 2 3 4 5 6 
#
# 1 0.014691 -0.005482 -0.003998 0.000000 0.000000 0.000000
# 2 -0.005482 0.009988 -0.001811 0.000000 0.000000 0.000000
# 3 -0.003998 -0.001811 0.011522 0.000000 0.000000 0.000000
# 4 0.000000 0.000000 0.000000 0.019544 0.000000 0.000000
# 5 0.000000 0.000000 0.000000 0.000000 0.019069 0.000000
# 6 0.000000 0.000000 0.000000 0.000000 0.000000 0.019044
#
#
# Mechanical properties :
#
#
# Convention : Reuss Voigt Hill
#
# Bulk Modulus (GPa) = 73.43681 75.61313 74.52497
# Shear Modulus (GPa) = 41.32910 44.65400 42.99155
#
# Velocity S-wave (km/s) = 4.59846 4.77986 4.69004
# Velocity P-wave (km/s) = 8.10975 8.31564 8.21334
#
# Compressibility (1/GPa) = 0.01361715
#
# Stress axis : x y z
#
# Youngs Moduli (GPa) = 68.07017 100.12179 86.79339
#
# Poissons Ratio (x) = 0.54889 0.34704
# Poissons Ratio (y) = 0.37318 0.15717
# Poissons Ratio (z) = 0.27217 0.18130
#
# Static dielectric constant tensor:
#      x y z
#    x 1.678640 0.000000 0.000000 
#    y 0.000000 1.785260 0.000000 
#    z 0.000000 0.000000 1.678090 
# 
# From -- ./inp_files/16888.got.cif
#   From: 2010.05.17/outbox.cif.g08.bks.cpg/sg50_9_cif.got.tgz:16888.got - 2010.06.03 11:33:33.
