data_PCOD9397172
_publ_section_title
;
Structure prediction by ZEFSAII (Michael W. Deem and Ramdas Pophale) SiO2 
 PCOD9397172
Probable space group: P B A N
;
_chemical_formula_sum "Si O2"
_cell_formula_units_Z 64
_cell_length_a 8.331037
_cell_length_b 24.235765
_cell_length_c 14.336000
_cell_angle_alpha 90.000000
_cell_angle_beta 90.000000
_cell_angle_gamma 90.000000
_cell_volume 2894.568212
_symmetry_space_group_name_H-M "P B A N"
_symmetry_group_IT_number 50
_space_group.IT_coordinate_system_code '2'
_symmetry_cell_setting 'orthorhombic'
loop_
_space_group_symop_operation_xyz
x,y,z
1/2-x,1/2-y,z
x,1/2-y,-z
1/2-x,y,-z
-x,-y,-z
1/2+x,1/2+y,-z
-x,1/2+y,z
1/2+x,-y,z
loop_
_atom_site_type_symbol
_atom_site_label
_atom_site_fract_x
_atom_site_fract_y
_atom_site_fract_z
Si Si1 0.913944 0.129818 0.442045
Si Si2 0.457747 0.629176 0.201041
Si Si3 0.939968 0.760660 0.108047
Si Si4 0.084803 0.413706 0.395246
Si Si5 0.183477 0.532877 0.903102
Si Si6 0.591242 0.169030 0.761185
Si Si7 0.980854 0.944257 0.828044
Si Si8 0.419455 0.474082 0.372002
O O1 0.750000 0.137530 0.500000
O O2 0.933390 0.168970 0.351456
O O3 0.049266 0.129399 0.522381
O O4 0.936643 0.068549 0.396970
O O5 0.533626 0.676871 0.139490
O O6 0.551275 0.614780 0.296128
O O7 0.445620 0.574175 0.139491
O O8 0.276572 0.650395 0.225118
O O9 0.750000 0.750000 0.115931
O O10 0.040963 0.722806 0.180796
O O11 0.988585 0.750000 0.000000
O O12 0.255354 0.444107 0.400201
O O13 0.958657 0.464796 0.406336
O O14 0.337503 0.536605 0.837697
O O15 0.115799 0.471220 0.912543
O O16 0.250000 0.555168 0.000000
O O17 0.483102 0.120134 0.806595
O O18 0.911096 0.975236 0.738848
#
# Coordination Sequence:
#
# PCOD9397172 Si02
#       8
#     8   8   8   8   8   8   8   8
#     4  11  22  41  68 101 141 185 236 287 344 423
#     4  11  25  42  73  98 137 181 239 289 352 427
#     4  11  28  52  78 107 132 178 241 304 366 427
#     4  12  23  40  65 104 143 196 241 281 355 414
#     4  11  23  39  61 103 140 185 232 281 364 434
#     4  10  24  46  71 102 139 183 237 296 350 417
#     4  10  22  39  62  95 143 185 221 288 349 419
#     4  11  23  38  62  97 148 189 236 283 334 426
#
# _framework density 22.110378000000001
#
# number of rings (size 3 to 8) (size 9 to 14) (size 15 to 20)
#    0.000    1.125    2.500    3.000    8.750    0.500 
#    2.250    0.625    0.000    0.750    0.000    0.000 
#    0.000    0.000    0.000    0.000    0.000    0.000 
#
# Total GULP energy -357478.385370 kJ/mol
# GULP energy per Si atom -5585.599771 kJ/mol
# Density = 2.206005 g / cm^3
# Si number density = 22.110378 Si / 1000 Ang^3
#
#
#
# Elastic Constant Matrix: (Units=GPa)
#
#
# Indices 1 2 3 4 5 6 
#
# 1 84.2754 28.6194 37.3210 0.0000 0.0000 0.0000
# 2 28.6194 70.2717 50.0013 0.0000 0.0000 0.0000
# 3 37.3210 50.0013 135.1163 0.0000 0.0000 0.0000
# 4 0.0000 0.0000 0.0000 24.0424 0.0000 0.0000
# 5 0.0000 0.0000 0.0000 0.0000 26.5063 0.0000
# 6 0.0000 0.0000 0.0000 0.0000 0.0000 23.5276
#
#
#
# Elastic Compliance Matrix: (Units=1/GPa)
#
#
# Indices 1 2 3 4 5 6 
#
# 1 0.014341 -0.004102 -0.002443 0.000000 0.000000 0.000000
# 2 -0.004102 0.020490 -0.006450 0.000000 0.000000 0.000000
# 3 -0.002443 -0.006450 0.010463 0.000000 0.000000 0.000000
# 4 0.000000 0.000000 0.000000 0.041593 0.000000 0.000000
# 5 0.000000 0.000000 0.000000 0.000000 0.037727 0.000000
# 6 0.000000 0.000000 0.000000 0.000000 0.000000 0.042503
#
#
# Mechanical properties :
#
#
# Convention : Reuss Voigt Hill
#
# Bulk Modulus (GPa) = 51.80270 57.94965 54.87617
# Shear Modulus (GPa) = 25.05743 26.39670 25.72707
#
# Velocity S-wave (km/s) = 3.37009 3.45898 3.41482
# Velocity P-wave (km/s) = 6.21477 6.49760 6.35776
#
# Compressibility (1/GPa) = 0.01930401
#
# Stress axis : x y z
#
# Youngs Moduli (GPa) = 69.73092 48.80347 95.57869
#
# Poissons Ratio (x) = 0.20020 0.23350
# Poissons Ratio (y) = 0.28605 0.61644
# Poissons Ratio (z) = 0.17036 0.31476
#
# Static dielectric constant tensor:
#      x y z
#    x 1.893830 0.000000 0.000000 
#    y 0.000000 1.787460 0.000000 
#    z 0.000000 0.000000 1.877710 
# 
# From -- ./inp_files/25403.got.cif
#   From: 2010.05.17/outbox.cif.g08.bks.cpg/sg50_13_cif.got.tgz:25403.got - 2010.06.03 11:33:33.
