data_PCOD9397494
_publ_section_title
;
Structure prediction by ZEFSAII (Michael W. Deem and Ramdas Pophale) SiO2 
 PCOD9397494
Probable space group: P B A N
;
_chemical_formula_sum "Si O2"
_cell_formula_units_Z 32
_cell_length_a 35.247952
_cell_length_b 5.232350
_cell_length_c 7.356197
_cell_angle_alpha 90.000000
_cell_angle_beta 90.000000
_cell_angle_gamma 90.000000
_cell_volume 1356.700629
_symmetry_space_group_name_H-M "P B A N"
_symmetry_group_IT_number 50
_space_group.IT_coordinate_system_code '2'
_symmetry_cell_setting 'orthorhombic'
loop_
_space_group_symop_operation_xyz
x,y,z
1/2-x,1/2-y,z
x,1/2-y,-z
1/2-x,y,-z
-x,-y,-z
1/2+x,1/2+y,-z
-x,1/2+y,z
1/2+x,-y,z
loop_
_atom_site_type_symbol
_atom_site_label
_atom_site_fract_x
_atom_site_fract_y
_atom_site_fract_z
Si Si1 0.767106 0.996845 0.703773
Si Si2 0.848991 0.854214 0.803565
Si Si3 0.479692 0.774425 0.279162
Si Si4 0.893515 0.158276 0.290687
O O1 0.750000 0.750000 0.796121
O O2 0.750000 0.999607 0.500000
O O3 0.812008 0.957679 0.698666
O O4 0.750000 0.250000 0.790159
O O5 0.871187 0.610208 0.721262
O O6 0.875333 0.103715 0.817160
O O7 0.836729 0.750000 0.000000
O O8 0.481460 0.750000 0.500000
O O9 0.491000 0.491620 0.216237
O O10 0.437343 0.864540 0.233980
O O11 0.892697 0.250000 0.500000
#
# Coordination Sequence:
#
# PCOD9397494 Si02
#       4
#     8   8   8   8
#     4  10  23  41  68  93 122 167 213 276 319 395
#     4  12  26  44  66  99 140 175 217 279 344 399
#     4   9  17  33  59  94 133 167 221 284 326 368
#     4  11  24  40  70 102 131 182 230 274 330 402
#
# _framework density 23.586632000000002
#
# number of rings (size 3 to 8) (size 9 to 14) (size 15 to 20)
#    0.000    1.500    0.000    4.500   10.500    4.500 
#    0.000    1.250    0.000   15.000    0.000    0.000 
#    0.000    0.000    0.000    0.000    0.000    0.000 
#
# Total GULP energy -178890.332668 kJ/mol
# GULP energy per Si atom -5590.322896 kJ/mol
# Density = 2.353295 g / cm^3
# Si number density = 23.586632 Si / 1000 Ang^3
#
#
#
# Elastic Constant Matrix: (Units=GPa)
#
#
# Indices 1 2 3 4 5 6 
#
# 1 170.3039 79.6905 15.9405 0.0000 0.0000 0.0000
# 2 79.6905 226.1094 6.9646 0.0000 0.0000 0.0000
# 3 15.9405 6.9646 83.7187 0.0000 0.0000 0.0000
# 4 0.0000 0.0000 0.0000 12.5158 0.0000 0.0000
# 5 0.0000 0.0000 0.0000 0.0000 -16.3545 0.0000
# 6 0.0000 0.0000 0.0000 0.0000 0.0000 49.3551
#
#
#
# Elastic Compliance Matrix: (Units=1/GPa)
#
#
# Indices 1 2 3 4 5 6 
#
# 1 0.007141 -0.002481 -0.001153 0.000000 0.000000 0.000000
# 2 -0.002481 0.005296 0.000032 0.000000 0.000000 0.000000
# 3 -0.001153 0.000032 0.012162 0.000000 0.000000 0.000000
# 4 0.000000 0.000000 0.000000 0.079899 0.000000 0.000000
# 5 0.000000 0.000000 0.000000 0.000000 -0.061145 0.000000
# 6 0.000000 0.000000 0.000000 0.000000 0.000000 0.020261
#
#
# Mechanical properties :
#
#
# Convention : Reuss Voigt Hill
#
# Bulk Modulus (GPa) = 57.49288 76.14702 66.81995
# Shear Modulus (GPa) = 65.25993 34.27238 49.76615
#
# Velocity S-wave (km/s) = 5.26576 3.81601 4.59838
# Velocity P-wave (km/s) = 7.83576 7.19514 7.52227
#
# Compressibility (1/GPa) = 0.01739346
#
# Stress axis : x y z
#
# Youngs Moduli (GPa) = 140.03959 188.81669 82.22542
#
# Poissons Ratio (x) = 0.46849 0.09483
# Poissons Ratio (y) = 0.34747 -0.00262
# Poissons Ratio (z) = 0.16150 -0.00601
#
# Static dielectric constant tensor:
#      x y z
#    x 1.901930 0.000000 0.000000 
#    y 0.000000 1.866760 0.000000 
#    z 0.000000 0.000000 1.937820 
# 
# From -- ./inp_files/16703.got.cif
#   From: 2010.05.17/outbox.cif.g08.bks.cpg/sg50_9_cif.got.tgz:16703.got - 2010.06.03 11:33:33.
