data_PCOD9397301
_publ_section_title
;
Structure prediction by ZEFSAII (Michael W. Deem and Ramdas Pophale) SiO2 
 PCOD9397301
Probable space group: P B A N
;
_chemical_formula_sum "Si O2"
_cell_formula_units_Z 34
_cell_length_a 18.205930
_cell_length_b 14.252253
_cell_length_c 5.483879
_cell_angle_alpha 90.000000
_cell_angle_beta 90.000000
_cell_angle_gamma 90.000000
_cell_volume 1422.932358
_symmetry_space_group_name_H-M "P B A N"
_symmetry_group_IT_number 50
_space_group.IT_coordinate_system_code '2'
_symmetry_cell_setting 'orthorhombic'
loop_
_space_group_symop_operation_xyz
x,y,z
1/2-x,1/2-y,z
x,1/2-y,-z
1/2-x,y,-z
-x,-y,-z
1/2+x,1/2+y,-z
-x,1/2+y,z
1/2+x,-y,z
loop_
_atom_site_type_symbol
_atom_site_label
_atom_site_fract_x
_atom_site_fract_y
_atom_site_fract_z
Si Si1 0.250000 0.250000 0.500000
Si Si2 0.957604 0.155552 0.268012
Si Si3 0.485314 0.134993 0.218657
Si Si4 0.293804 0.873379 0.256707
Si Si5 0.318307 0.408751 0.812808
O O1 0.301972 0.321817 0.638587
O O2 0.003187 0.252142 0.243925
O O3 0.986367 0.104850 0.512601
O O4 0.871553 0.178564 0.273056
O O5 0.965885 0.103116 0.010247
O O6 0.403766 0.107806 0.134225
O O7 0.250000 0.850075 0.500000
O O8 0.311805 0.984830 0.279115
O O9 0.250000 0.859363 0.000000
O O10 0.250000 0.400776 0.000000
#
# Coordination Sequence:
#
# PCOD9397301 Si02
#       5
#     2   8   8   8   8
#     4  12  22  40  64  94 124 174 216 264 314 396
#     4  10  22  42  66  94 134 171 219 266 327 388
#     4  10  23  41  63  98 130 171 221 264 322 394
#     4  11  24  45  67  98 132 170 217 274 330 387
#     4  11  26  40  67  97 133 171 219 270 330 387
#
# _framework density 23.894317000000001
#
# number of rings (size 3 to 8) (size 9 to 14) (size 15 to 20)
#    0.000    1.412    1.176    3.176    9.882    1.882 
#    0.000   14.118    0.000    0.000    0.000    0.000 
#    0.000    0.000    0.000    0.000    0.000    0.000 
#
# Total GULP energy -189720.341202 kJ/mol
# GULP energy per Si atom -5580.010035 kJ/mol
# Density = 2.383993 g / cm^3
# Si number density = 23.894317 Si / 1000 Ang^3
#
#
#
# Elastic Constant Matrix: (Units=GPa)
#
#
# Indices 1 2 3 4 5 6 
#
# 1 194.1094 17.3066 69.1214 0.0000 0.0000 0.0000
# 2 17.3066 133.5160 11.2149 0.0000 0.0000 0.0000
# 3 69.1214 11.2149 191.9948 0.0000 0.0000 0.0000
# 4 0.0000 0.0000 0.0000 125.3662 0.0000 0.0000
# 5 0.0000 0.0000 0.0000 0.0000 45.4383 0.0000
# 6 0.0000 0.0000 0.0000 0.0000 0.0000 10.9608
#
#
#
# Elastic Compliance Matrix: (Units=1/GPa)
#
#
# Indices 1 2 3 4 5 6 
#
# 1 0.005956 -0.000595 -0.002109 0.000000 0.000000 0.000000
# 2 -0.000595 0.007586 -0.000229 0.000000 0.000000 0.000000
# 3 -0.002109 -0.000229 0.005981 0.000000 0.000000 0.000000
# 4 0.000000 0.000000 0.000000 0.007977 0.000000 0.000000
# 5 0.000000 0.000000 0.000000 0.000000 0.022008 0.000000
# 6 0.000000 0.000000 0.000000 0.000000 0.000000 0.091234
#
#
# Mechanical properties :
#
#
# Convention : Reuss Voigt Hill
#
# Bulk Modulus (GPa) = 73.22398 79.43400 76.32899
# Shear Modulus (GPa) = 33.07733 64.48487 48.78110
#
# Velocity S-wave (km/s) = 3.72468 5.20059 4.52324
# Velocity P-wave (km/s) = 7.01492 8.32932 7.70022
#
# Compressibility (1/GPa) = 0.01365673
#
# Stress axis : x y z
#
# Youngs Moduli (GPa) = 167.89928 131.82046 167.18757
#
# Poissons Ratio (x) = 0.07841 0.35268
# Poissons Ratio (y) = 0.09987 0.03828
# Poissons Ratio (z) = 0.35418 0.03018
#
# Static dielectric constant tensor:
#      x y z
#    x 1.914120 0.000000 0.000000 
#    y 0.000000 2.111020 0.000000 
#    z 0.000000 0.000000 1.908860 
# 
# From -- ./inp_files/3069.got.cif
#   From: 2010.05.17/outbox.cif.g08.bks.cpg/sg50_2_cif.got.tgz:3069.got - 2010.06.03 11:33:33.
