data_PCOD9397324
_publ_section_title
;
Structure prediction by ZEFSAII (Michael W. Deem and Ramdas Pophale) SiO2 
 PCOD9397324
Probable space group: P B A N
;
_chemical_formula_sum "Si O2"
_cell_formula_units_Z 58
_cell_length_a 8.219508
_cell_length_b 16.098605
_cell_length_c 18.597085
_cell_angle_alpha 90.000000
_cell_angle_beta 90.000000
_cell_angle_gamma 90.000000
_cell_volume 2460.814874
_symmetry_space_group_name_H-M "P B A N"
_symmetry_group_IT_number 50
_space_group.IT_coordinate_system_code '2'
_symmetry_cell_setting 'orthorhombic'
loop_
_space_group_symop_operation_xyz
x,y,z
1/2-x,1/2-y,z
x,1/2-y,-z
1/2-x,y,-z
-x,-y,-z
1/2+x,1/2+y,-z
-x,1/2+y,z
1/2+x,-y,z
loop_
_atom_site_type_symbol
_atom_site_label
_atom_site_fract_x
_atom_site_fract_y
_atom_site_fract_z
Si Si1 0.934987 0.434218 0.151711
Si Si2 0.750000 0.750000 0.500000
Si Si3 0.063394 0.886182 0.851634
Si Si4 0.941508 0.219902 0.283086
Si Si5 0.061971 0.150112 0.994386
Si Si6 0.024221 0.118908 0.418034
Si Si7 0.736621 0.474250 0.612262
Si Si8 0.543537 0.605162 0.301143
O O1 0.749808 0.408199 0.164972
O O2 0.049413 0.402846 0.215767
O O3 0.951509 0.533190 0.158443
O O4 0.990237 0.393192 0.076666
O O5 0.873773 0.809746 0.543598
O O6 0.023558 0.809896 0.798387
O O7 0.044210 0.871114 0.936032
O O8 0.750000 0.250000 0.287679
O O9 0.048184 0.296664 0.312567
O O10 0.996617 0.144120 0.334186
O O11 0.065295 0.250000 0.000000
O O12 0.250000 0.121183 0.000000
O O13 0.839734 0.091702 0.432861
O O14 0.118774 0.033607 0.431819
O O15 0.631573 0.424822 0.670480
O O16 0.839350 0.543743 0.656191
#
# Coordination Sequence:
#
# PCOD9397324 Si02
#       8
#     8   2   8   8   8   8   8   8
#     4  12  23  40  63  93 131 182 228 296 362 435
#     4  12  28  48  74 112 156 198 240 296 360 444
#     4  12  25  42  67  95 132 177 240 293 366 434
#     4  12  23  42  71 107 138 178 236 305 360 432
#     4  11  26  44  62  90 133 179 238 301 367 434
#     4  11  24  46  72 106 148 189 245 289 361 433
#     4  10  22  42  73 104 144 192 238 304 353 437
#     4  11  21  39  67 103 137 179 237 293 367 421
#
# _framework density 23.569427000000001
#
# number of rings (size 3 to 8) (size 9 to 14) (size 15 to 20)
#    0.000    0.690    2.759    5.793    0.000    2.207 
#    0.000    1.724    0.000    0.000    0.000    0.000 
#    0.000    0.000    0.000    0.000    0.000    0.000 
#
# Total GULP energy -324009.896512 kJ/mol
# GULP energy per Si atom -5586.377526 kJ/mol
# Density = 2.351578 g / cm^3
# Si number density = 23.569427 Si / 1000 Ang^3
#
#
#
# Elastic Constant Matrix: (Units=GPa)
#
#
# Indices 1 2 3 4 5 6 
#
# 1 60.7386 15.3181 30.5683 0.0000 0.0000 0.0000
# 2 15.3181 97.0553 17.2334 0.0000 0.0000 0.0000
# 3 30.5683 17.2334 101.0554 0.0000 0.0000 0.0000
# 4 0.0000 0.0000 0.0000 30.8011 0.0000 0.0000
# 5 0.0000 0.0000 0.0000 0.0000 -22.9396 0.0000
# 6 0.0000 0.0000 0.0000 0.0000 0.0000 9.6117
#
#
#
# Elastic Compliance Matrix: (Units=1/GPa)
#
#
# Indices 1 2 3 4 5 6 
#
# 1 0.019839 -0.002130 -0.005638 0.000000 0.000000 0.000000
# 2 -0.002130 0.010854 -0.001207 0.000000 0.000000 0.000000
# 3 -0.005638 -0.001207 0.011807 0.000000 0.000000 0.000000
# 4 0.000000 0.000000 0.000000 0.032466 0.000000 0.000000
# 5 0.000000 0.000000 0.000000 0.000000 -0.043593 0.000000
# 6 0.000000 0.000000 0.000000 0.000000 0.000000 0.104040
#
#
# Mechanical properties :
#
#
# Convention : Reuss Voigt Hill
#
# Bulk Modulus (GPa) = 40.73276 42.78766 41.76021
# Shear Modulus (GPa) = 30.95108 16.54326 23.74717
#
# Velocity S-wave (km/s) = 3.62772 2.65220 3.17762
# Velocity P-wave (km/s) = 5.90481 5.25092 5.58744
#
# Compressibility (1/GPa) = 0.02455026
#
# Stress axis : x y z
#
# Youngs Moduli (GPa) = 50.40703 92.13326 84.69770
#
# Poissons Ratio (x) = 0.19625 0.47750
# Poissons Ratio (y) = 0.10737 0.10220
# Poissons Ratio (z) = 0.28418 0.11117
#
# Static dielectric constant tensor:
#      x y z
#    x 1.934440 0.000000 0.000000 
#    y 0.000000 2.015200 0.000000 
#    z 0.000000 0.000000 1.929130 
# 
# From -- ./inp_files/28896.got.cif
#   From: 2010.05.17/outbox.cif.g08.bks.cpg/sg50_15_cif.got.tgz:28896.got - 2010.06.03 11:33:33.
