data_PCOD9397491
_publ_section_title
;
Structure prediction by ZEFSAII (Michael W. Deem and Ramdas Pophale) SiO2 
 PCOD9397491
Probable space group: P B A N
;
_chemical_formula_sum "Si O2"
_cell_formula_units_Z 56
_cell_length_a 14.723848
_cell_length_b 20.641949
_cell_length_c 8.376808
_cell_angle_alpha 90.000000
_cell_angle_beta 90.000000
_cell_angle_gamma 90.000000
_cell_volume 2545.954204
_symmetry_space_group_name_H-M "P B A N"
_symmetry_group_IT_number 50
_space_group.IT_coordinate_system_code '2'
_symmetry_cell_setting 'orthorhombic'
loop_
_space_group_symop_operation_xyz
x,y,z
1/2-x,1/2-y,z
x,1/2-y,-z
1/2-x,y,-z
-x,-y,-z
1/2+x,1/2+y,-z
-x,1/2+y,z
1/2+x,-y,z
loop_
_atom_site_type_symbol
_atom_site_label
_atom_site_fract_x
_atom_site_fract_y
_atom_site_fract_z
Si Si1 0.919749 0.301420 0.617519
Si Si2 0.192646 0.462613 0.645111
Si Si3 0.352219 0.646822 0.959001
Si Si4 0.515984 0.708952 0.156156
Si Si5 0.894566 0.006413 0.952980
Si Si6 0.477748 0.424491 0.526113
Si Si7 0.358485 0.100423 0.183927
O O1 0.869279 0.250000 0.500000
O O2 0.874503 0.324919 0.783754
O O3 0.996510 0.252826 0.689933
O O4 0.954591 0.366885 0.527076
O O5 0.250000 0.495793 0.500000
O O6 0.142981 0.509432 0.772184
O O7 0.113644 0.417054 0.577429
O O8 0.268140 0.418787 0.727151
O O9 0.250000 0.666757 0.000000
O O10 0.425883 0.667289 0.096958
O O11 0.358102 0.568810 0.953708
O O12 0.611729 0.673219 0.169290
O O13 0.526222 0.750000 0.000000
O O14 0.857491 0.938891 0.020933
O O15 0.000000 0.000000 0.000000
O O16 0.500000 0.500000 0.500000
O O17 0.445012 0.421858 0.708063
#
# Coordination Sequence:
#
# PCOD9397491 Si02
#       7
#     8   8   8   8   8   8   8
#     4  11  23  44  71  99 138 189 242 298 370 449
#     4  10  24  40  65 104 145 183 234 308 355 427
#     4  11  24  43  67 101 140 187 241 304 363 434
#     4  10  23  41  66  93 135 185 239 286 366 441
#     4  12  22  41  71 102 144 189 240 293 374 438
#     4  11  23  41  70  98 137 181 235 289 366 441
#     4  11  21  41  65  97 138 178 231 299 354 437
#
# _framework density 21.995683
#
# number of rings (size 3 to 8) (size 9 to 14) (size 15 to 20)
#    0.000    1.143    2.857    3.857    2.000    3.714 
#    0.000    2.143    0.000    0.000    0.000    0.000 
#    0.000    0.000    0.000    0.000    0.000    0.000 
#
# Total GULP energy -311930.868748 kJ/mol
# GULP energy per Si atom -5570.194085 kJ/mol
# Density = 2.194562 g / cm^3
# Si number density = 21.995683 Si / 1000 Ang^3
#
#
#
# Elastic Constant Matrix: (Units=GPa)
#
#
# Indices 1 2 3 4 5 6 
#
# 1 114.8627 31.7558 39.9411 0.0000 0.0000 0.0000
# 2 31.7558 85.1681 27.1799 0.0000 0.0000 0.0000
# 3 39.9411 27.1799 105.3061 0.0000 0.0000 0.0000
# 4 0.0000 0.0000 0.0000 33.7894 0.0000 0.0000
# 5 0.0000 0.0000 0.0000 0.0000 18.0036 0.0000
# 6 0.0000 0.0000 0.0000 0.0000 0.0000 96.4367
#
#
#
# Elastic Compliance Matrix: (Units=1/GPa)
#
#
# Indices 1 2 3 4 5 6 
#
# 1 0.010658 -0.002925 -0.003287 0.000000 0.000000 0.000000
# 2 -0.002925 0.013598 -0.002400 0.000000 0.000000 0.000000
# 3 -0.003287 -0.002400 0.011363 0.000000 0.000000 0.000000
# 4 0.000000 0.000000 0.000000 0.029595 0.000000 0.000000
# 5 0.000000 0.000000 0.000000 0.000000 0.055544 0.000000
# 6 0.000000 0.000000 0.000000 0.000000 0.000000 0.010369
#
#
# Mechanical properties :
#
#
# Convention : Reuss Voigt Hill
#
# Bulk Modulus (GPa) = 54.36788 55.89895 55.13342
# Shear Modulus (GPa) = 32.36590 43.40995 37.88793
#
# Velocity S-wave (km/s) = 3.84013 4.44730 4.15482
# Velocity P-wave (km/s) = 6.66583 7.20001 6.93806
#
# Compressibility (1/GPa) = 0.01839321
#
# Stress axis : x y z
#
# Youngs Moduli (GPa) = 93.82805 73.53994 88.00830
#
# Poissons Ratio (x) = 0.21508 0.28932
# Poissons Ratio (y) = 0.27442 0.21125
# Poissons Ratio (z) = 0.30846 0.17653
#
# Static dielectric constant tensor:
#      x y z
#    x 1.841360 0.000000 0.000000 
#    y 0.000000 1.725960 0.000000 
#    z 0.000000 0.000000 1.895020 
# 
# From -- ./inp_files/13270.got.cif
#   From: 2010.05.17/outbox.cif.g08.bks.cpg/sg50_7_cif.got.tgz:13270.got - 2010.06.03 11:33:33.
