data_PCOD9397579
_publ_section_title
;
Structure prediction by ZEFSAII (Michael W. Deem and Ramdas Pophale) SiO2 
 PCOD9397579
Probable space group: P B A N
;
_chemical_formula_sum "Si O2"
_cell_formula_units_Z 58
_cell_length_a 11.158031
_cell_length_b 8.751111
_cell_length_c 26.294347
_cell_angle_alpha 90.000000
_cell_angle_beta 90.000000
_cell_angle_gamma 90.000000
_cell_volume 2567.515926
_symmetry_space_group_name_H-M "P B A N"
_symmetry_group_IT_number 50
_space_group.IT_coordinate_system_code '2'
_symmetry_cell_setting 'orthorhombic'
loop_
_space_group_symop_operation_xyz
x,y,z
1/2-x,1/2-y,z
x,1/2-y,-z
1/2-x,y,-z
-x,-y,-z
1/2+x,1/2+y,-z
-x,1/2+y,z
1/2+x,-y,z
loop_
_atom_site_type_symbol
_atom_site_label
_atom_site_fract_x
_atom_site_fract_y
_atom_site_fract_z
Si Si1 0.014995 0.612712 0.693400
Si Si2 0.851460 0.935460 0.091195
Si Si3 0.122211 0.423928 0.519778
Si Si4 0.997533 0.672797 0.141148
Si Si5 0.629231 0.846639 0.363163
Si Si6 0.250000 0.250000 0.000000
Si Si7 0.158328 0.862970 0.733454
Si Si8 0.828896 0.435209 0.172150
O O1 0.110555 0.485056 0.676335
O O2 0.053640 0.732434 0.737224
O O3 0.976931 0.724863 0.647550
O O4 0.901459 0.510067 0.709098
O O5 0.899692 0.793530 0.123811
O O6 0.822968 0.863803 0.036901
O O7 0.738967 0.004642 0.121701
O O8 0.953336 0.065334 0.095621
O O9 0.119979 0.250000 0.500000
O O10 0.250000 0.490998 0.500000
O O11 0.124000 0.415574 0.580701
O O12 0.000000 0.500000 0.500000
O O13 0.936406 0.556723 0.180936
O O14 0.108746 0.775470 0.158637
O O15 0.750000 0.750000 0.356879
O O16 0.250000 0.750000 0.703186
O O17 0.263715 0.579020 0.781422
#
# Coordination Sequence:
#
# PCOD9397579 Si02
#       8
#     8   8   8   8   8   2   8   8
#     4  10  25  44  68 102 136 192 237 281 380 415
#     4  11  23  45  68 104 138 179 228 281 356 419
#     4  11  23  42  68 112 142 186 252 301 369 441
#     4  10  23  44  71 101 137 183 228 276 372 407
#     4  11  21  43  71  96 147 188 231 308 356 439
#     4  12  24  44  74 100 146 176 234 288 344 460
#     4  11  24  44  66  98 137 175 243 287 337 435
#     4  11  23  45  70 102 139 180 232 297 345 416
#
# _framework density 22.589928
#
# number of rings (size 3 to 8) (size 9 to 14) (size 15 to 20)
#    0.000    1.241    2.759    2.897    0.000    5.241 
#    0.000   11.724    0.000    0.000    0.000    0.000 
#    0.000    0.000    0.000    0.000    0.000    0.000 
#
# Total GULP energy -323814.164963 kJ/mol
# GULP energy per Si atom -5583.002844 kJ/mol
# Density = 2.253851 g / cm^3
# Si number density = 22.589928 Si / 1000 Ang^3
#
#
#
# Elastic Constant Matrix: (Units=GPa)
#
#
# Indices 1 2 3 4 5 6 
#
# 1 133.1053 67.6112 54.0852 0.0000 0.0000 0.0000
# 2 67.6112 149.5190 54.6462 0.0000 0.0000 0.0000
# 3 54.0852 54.6462 116.6242 0.0000 0.0000 0.0000
# 4 0.0000 0.0000 0.0000 33.8776 0.0000 0.0000
# 5 0.0000 0.0000 0.0000 0.0000 18.6692 0.0000
# 6 0.0000 0.0000 0.0000 0.0000 0.0000 64.2737
#
#
#
# Elastic Compliance Matrix: (Units=1/GPa)
#
#
# Indices 1 2 3 4 5 6 
#
# 1 0.010683 -0.003644 -0.003247 0.000000 0.000000 0.000000
# 2 -0.003644 0.009313 -0.002674 0.000000 0.000000 0.000000
# 3 -0.003247 -0.002674 0.011333 0.000000 0.000000 0.000000
# 4 0.000000 0.000000 0.000000 0.029518 0.000000 0.000000
# 5 0.000000 0.000000 0.000000 0.000000 0.053564 0.000000
# 6 0.000000 0.000000 0.000000 0.000000 0.000000 0.015558
#
#
# Mechanical properties :
#
#
# Convention : Reuss Voigt Hill
#
# Bulk Modulus (GPa) = 81.96845 83.54818 82.75832
# Shear Modulus (GPa) = 32.64415 38.22450 35.43432
#
# Velocity S-wave (km/s) = 3.80554 4.11798 3.96484
# Velocity P-wave (km/s) = 7.46148 7.72498 7.59437
#
# Compressibility (1/GPa) = 0.01219982
#
# Stress axis : x y z
#
# Youngs Moduli (GPa) = 93.60452 107.37416 88.23645
#
# Poissons Ratio (x) = 0.39129 0.28649
# Poissons Ratio (y) = 0.34111 0.23593
# Poissons Ratio (z) = 0.30392 0.28710
#
# Static dielectric constant tensor:
#      x y z
#    x 1.986640 0.000000 0.000000 
#    y 0.000000 1.824280 0.000000 
#    z 0.000000 0.000000 1.875270 
# 
# From -- ./inp_files/32186.got.cif
#   From: 2010.05.17/outbox.cif.g08.bks.cpg/sg50_17_cif.got.tgz:32186.got - 2010.06.03 11:33:33.
