data_PCOD9397850
_publ_section_title
;
Structure prediction by ZEFSAII (Michael W. Deem and Ramdas Pophale) SiO2 
 PCOD9397850
Probable space group: P B A N
;
_chemical_formula_sum "Si O2"
_cell_formula_units_Z 58
_cell_length_a 9.481241
_cell_length_b 22.390444
_cell_length_c 13.053800
_cell_angle_alpha 90.000000
_cell_angle_beta 90.000000
_cell_angle_gamma 90.000000
_cell_volume 2771.180702
_symmetry_space_group_name_H-M "P B A N"
_symmetry_group_IT_number 50
_space_group.IT_coordinate_system_code '2'
_symmetry_cell_setting 'orthorhombic'
loop_
_space_group_symop_operation_xyz
x,y,z
1/2-x,1/2-y,z
x,1/2-y,-z
1/2-x,y,-z
-x,-y,-z
1/2+x,1/2+y,-z
-x,1/2+y,z
1/2+x,-y,z
loop_
_atom_site_type_symbol
_atom_site_label
_atom_site_fract_x
_atom_site_fract_y
_atom_site_fract_z
Si Si1 0.880112 0.344841 0.061660
Si Si2 0.063567 0.447801 0.749834
Si Si3 0.763830 0.431593 0.230561
Si Si4 0.750000 0.750000 0.000000
Si Si5 0.926569 0.843026 0.874198
Si Si6 0.132863 0.845994 0.411424
Si Si7 0.418940 0.436777 0.482758
Si Si8 0.416777 0.742992 0.237532
O O1 0.816865 0.397640 0.129675
O O2 0.955157 0.300895 0.142679
O O3 0.750000 0.315454 0.000000
O O4 0.980708 0.364343 0.970377
O O5 0.898836 0.450227 0.779372
O O6 0.139665 0.510965 0.750864
O O7 0.140386 0.400704 0.823251
O O8 0.066377 0.422473 0.636050
O O9 0.787610 0.386427 0.325744
O O10 0.829878 0.794041 0.924380
O O11 0.014150 0.806769 0.787028
O O12 0.250000 0.832105 0.500000
O O13 0.069032 0.789592 0.347645
O O14 0.004439 0.886482 0.454437
O O15 0.250000 0.442337 0.500000
O O16 0.500000 0.500000 0.500000
O O17 0.250000 0.750000 0.226970
#
# Coordination Sequence:
#
# PCOD9397850 Si02
#       8
#     8   8   8   2   8   8   8   8
#     4  11  20  41  70  92 127 173 223 272 336 397
#     4  12  25  43  68 101 137 176 230 286 347 410
#     4  11  24  40  67 103 133 176 225 286 343 408
#     4  12  28  44  66  96 134 196 224 282 342 420
#     4  12  25  45  66  97 140 177 232 280 343 417
#     4  11  23  42  68 103 135 165 228 281 337 413
#     4  12  24  43  69  93 132 179 218 274 346 410
#     4  11  22  39  72 100 124 174 226 277 328 399
#
# _framework density 20.929707000000001
#
# number of rings (size 3 to 8) (size 9 to 14) (size 15 to 20)
#    0.000    0.552    6.897    2.069    0.000    3.034 
#    1.241    0.000    0.000    0.828    0.000    0.000 
#    0.000    0.000    0.000    0.000    0.000    0.000 
#
# Total GULP energy -323974.752912 kJ/mol
# GULP energy per Si atom -5585.771602 kJ/mol
# Density = 2.088207 g / cm^3
# Si number density = 20.929707 Si / 1000 Ang^3
#
#
#
# Elastic Constant Matrix: (Units=GPa)
#
#
# Indices 1 2 3 4 5 6 
#
# 1 79.0799 18.1322 27.1467 0.0000 0.0000 0.0000
# 2 18.1322 55.5775 51.8502 0.0000 0.0000 0.0000
# 3 27.1467 51.8502 137.5217 0.0000 0.0000 0.0000
# 4 0.0000 0.0000 0.0000 23.1073 0.0000 0.0000
# 5 0.0000 0.0000 0.0000 0.0000 41.1791 0.0000
# 6 0.0000 0.0000 0.0000 0.0000 0.0000 -9.7943
#
#
#
# Elastic Compliance Matrix: (Units=1/GPa)
#
#
# Indices 1 2 3 4 5 6 
#
# 1 0.013891 -0.003045 -0.001594 0.000000 0.000000 0.000000
# 2 -0.003045 0.028423 -0.010116 0.000000 0.000000 0.000000
# 3 -0.001594 -0.010116 0.011400 0.000000 0.000000 0.000000
# 4 0.000000 0.000000 0.000000 0.043276 0.000000 0.000000
# 5 0.000000 0.000000 0.000000 0.000000 0.024284 0.000000
# 6 0.000000 0.000000 0.000000 0.000000 0.000000 -0.102100
#
#
# Mechanical properties :
#
#
# Convention : Reuss Voigt Hill
#
# Bulk Modulus (GPa) = 41.31264 51.82636 46.56950
# Shear Modulus (GPa) = 88.10340 22.56843 55.33592
#
# Velocity S-wave (km/s) = 6.49510 3.28730 5.14746
# Velocity P-wave (km/s) = 8.71952 6.26294 7.59126
#
# Compressibility (1/GPa) = 0.02420567
#
# Stress axis : x y z
#
# Youngs Moduli (GPa) = 71.99024 35.18231 87.71826
#
# Poissons Ratio (x) = 0.10712 0.13983
# Poissons Ratio (y) = 0.21919 0.88732
# Poissons Ratio (z) = 0.11476 0.35589
#
# Static dielectric constant tensor:
#      x y z
#    x 1.829550 0.000000 0.000000 
#    y 0.000000 1.730290 0.000000 
#    z 0.000000 0.000000 1.420040 
# 
# From -- ./inp_files/19428.got.cif
#   From: 2010.05.17/outbox.cif.g08.bks.cpg/sg50_10_cif.got.tgz:19428.got - 2010.06.03 11:33:33.
