data_PCOD9397255
_publ_section_title
;
Structure prediction by ZEFSAII (Michael W. Deem and Ramdas Pophale) SiO2 
 PCOD9397255
Probable space group: P B A N
;
_chemical_formula_sum "Si O2"
_cell_formula_units_Z 32
_cell_length_a 12.197104
_cell_length_b 11.951461
_cell_length_c 8.180251
_cell_angle_alpha 90.000000
_cell_angle_beta 90.000000
_cell_angle_gamma 90.000000
_cell_volume 1192.461470
_symmetry_space_group_name_H-M "P B A N"
_symmetry_group_IT_number 50
_space_group.IT_coordinate_system_code '2'
_symmetry_cell_setting 'orthorhombic'
loop_
_space_group_symop_operation_xyz
x,y,z
1/2-x,1/2-y,z
x,1/2-y,-z
1/2-x,y,-z
-x,-y,-z
1/2+x,1/2+y,-z
-x,1/2+y,z
1/2+x,-y,z
loop_
_atom_site_type_symbol
_atom_site_label
_atom_site_fract_x
_atom_site_fract_y
_atom_site_fract_z
Si Si1 0.353116 0.030728 0.151901
Si Si2 0.832053 0.909024 0.651282
Si Si3 0.408769 0.886073 0.839508
Si Si4 0.578103 0.323093 0.342842
O O1 0.370245 0.943525 0.303759
O O2 0.248356 0.105437 0.193120
O O3 0.460789 0.105182 0.143345
O O4 0.360951 0.949746 0.995481
O O5 0.750000 0.888841 0.500000
O O6 0.945724 0.841219 0.650113
O O7 0.874043 0.036438 0.684923
O O8 0.384926 0.758375 0.804199
O O9 0.609041 0.250000 0.500000
#
# Coordination Sequence:
#
# PCOD9397255 Si02
#       4
#     8   8   8   8
#     4  10  22  41  64  93 132 174 218 270 324 384
#     4  11  23  40  65  96 130 170 217 269 327 389
#     4  10  22  41  64  93 132 174 218 270 324 384
#     4  11  23  40  65  96 130 170 217 269 327 389
#
# _framework density 26.835249000000001
#
# number of rings (size 3 to 8) (size 9 to 14) (size 15 to 20)
#    0.000    1.500    0.000    4.500    0.000    8.500 
#    0.000    7.500    0.000   18.000    0.000    0.000 
#    0.000    0.000    0.000    0.000    0.000    0.000 
#
# Total GULP energy -178977.535237 kJ/mol
# GULP energy per Si atom -5593.047976 kJ/mol
# Density = 2.677417 g / cm^3
# Si number density = 26.835249 Si / 1000 Ang^3
#
#
#
# Elastic Constant Matrix: (Units=GPa)
#
#
# Indices 1 2 3 4 5 6 
#
# 1 102.3557 11.7845 -6.6549 0.0000 0.0000 0.0000
# 2 11.7845 70.4963 14.0607 0.0000 0.0000 0.0000
# 3 -6.6549 14.0607 128.6444 0.0000 0.0000 0.0000
# 4 0.0000 0.0000 0.0000 6.1980 0.0000 0.0000
# 5 0.0000 0.0000 0.0000 0.0000 34.7996 0.0000
# 6 0.0000 0.0000 0.0000 0.0000 0.0000 -4.8103
#
#
#
# Elastic Compliance Matrix: (Units=1/GPa)
#
#
# Indices 1 2 3 4 5 6 
#
# 1 0.010026 -0.001819 0.000717 0.000000 0.000000 0.000000
# 2 -0.001819 0.014831 -0.001715 0.000000 0.000000 0.000000
# 3 0.000717 -0.001715 0.007998 0.000000 0.000000 0.000000
# 4 0.000000 0.000000 0.000000 0.161342 0.000000 0.000000
# 5 0.000000 0.000000 0.000000 0.000000 0.028736 0.000000
# 6 0.000000 0.000000 0.000000 0.000000 0.000000 -0.207886
#
#
# Mechanical properties :
#
#
# Convention : Reuss Voigt Hill
#
# Bulk Modulus (GPa) = 36.73544 37.76413 37.24979
# Shear Modulus (GPa) = 168.04237 26.05786 97.05011
#
# Velocity S-wave (km/s) = 7.92187 3.11952 6.02027
# Velocity P-wave (km/s) = 9.86882 5.20368 7.88898
#
# Compressibility (1/GPa) = 0.02722167
#
# Stress axis : x y z
#
# Youngs Moduli (GPa) = 99.74130 67.42485 125.03209
#
# Poissons Ratio (x) = 0.12265 -0.08971
# Poissons Ratio (y) = 0.18144 0.21445
# Poissons Ratio (z) = -0.07156 0.11564
#
# Static dielectric constant tensor:
#      x y z
#    x 2.110240 0.000000 0.000000 
#    y 0.000000 2.014760 0.000000 
#    z 0.000000 0.000000 2.316830 
# 
# From -- ./inp_files/10557.got.cif
#   From: 2010.05.17/outbox.cif.g08.bks.cpg/sg50_6_cif.got.tgz:10557.got - 2010.06.03 11:33:33.
