data_PCOD9397692
_publ_section_title
;
Structure prediction by ZEFSAII (Michael W. Deem and Ramdas Pophale) SiO2 
 PCOD9397692
Probable space group: P B A N
;
_chemical_formula_sum "Si O2"
_cell_formula_units_Z 38
_cell_length_a 12.742724
_cell_length_b 13.269395
_cell_length_c 9.117649
_cell_angle_alpha 90.000000
_cell_angle_beta 90.000000
_cell_angle_gamma 90.000000
_cell_volume 1541.687205
_symmetry_space_group_name_H-M "P B A N"
_symmetry_group_IT_number 50
_space_group.IT_coordinate_system_code '2'
_symmetry_cell_setting 'orthorhombic'
loop_
_space_group_symop_operation_xyz
x,y,z
1/2-x,1/2-y,z
x,1/2-y,-z
1/2-x,y,-z
-x,-y,-z
1/2+x,1/2+y,-z
-x,1/2+y,z
1/2+x,-y,z
loop_
_atom_site_type_symbol
_atom_site_label
_atom_site_fract_x
_atom_site_fract_y
_atom_site_fract_z
Si Si1 0.573387 0.872011 0.175485
Si Si2 0.989198 0.141038 0.499122
Si Si3 0.598431 0.250000 0.000000
Si Si4 0.162200 0.471600 0.396622
Si Si5 0.308225 0.936631 0.852919
Si Si6 0.750000 0.750000 0.000000
O O1 0.554667 0.856708 0.347596
O O2 0.674408 0.816410 0.105059
O O3 0.591317 0.991324 0.159825
O O4 0.473818 0.827430 0.090403
O O5 0.938630 0.250000 0.500000
O O6 0.901051 0.056641 0.486691
O O7 0.071487 0.111747 0.627970
O O8 0.659781 0.179221 0.117235
O O9 0.250000 0.424245 0.500000
O O10 0.224664 0.530240 0.270668
O O11 0.250000 0.967060 0.000000
#
# Coordination Sequence:
#
# PCOD9397692 Si02
#       6
#     8   8   4   8   8   2
#     4  11  24  45  71 109 146 194 250 311 362 453
#     4  11  27  45  74 108 149 200 250 308 373 447
#     4  11  27  43  75 110 148 190 257 311 382 436
#     4  11  26  49  71 108 151 194 248 309 372 442
#     4  12  25  48  74 106 147 197 245 310 382 443
#     4  10  24  44  72 110 142 200 244 304 378 426
#
# _framework density 24.648319999999998
#
# number of rings (size 3 to 8) (size 9 to 14) (size 15 to 20)
#    0.000    0.842    3.158    2.211    5.895    0.842 
#    0.000    0.000    0.000    0.000    0.000    0.000 
#    0.000    0.000    0.000    0.000    0.000    0.000 
#
# Total GULP energy -212448.536358 kJ/mol
# GULP energy per Si atom -5590.750957 kJ/mol
# Density = 2.459222 g / cm^3
# Si number density = 24.648320 Si / 1000 Ang^3
#
#
#
# Elastic Constant Matrix: (Units=GPa)
#
#
# Indices 1 2 3 4 5 6 
#
# 1 60.1963 14.9472 43.5664 0.0000 0.0000 0.0000
# 2 14.9472 115.0450 -2.1772 0.0000 0.0000 0.0000
# 3 43.5664 -2.1772 83.8321 0.0000 0.0000 0.0000
# 4 0.0000 0.0000 0.0000 -6.8486 0.0000 0.0000
# 5 0.0000 0.0000 0.0000 0.0000 37.3135 0.0000
# 6 0.0000 0.0000 0.0000 0.0000 0.0000 41.5254
#
#
#
# Elastic Compliance Matrix: (Units=1/GPa)
#
#
# Indices 1 2 3 4 5 6 
#
# 1 0.028323 -0.003960 -0.014822 0.000000 0.000000 0.000000
# 2 -0.003960 0.009250 0.002298 0.000000 0.000000 0.000000
# 3 -0.014822 0.002298 0.019691 0.000000 0.000000 0.000000
# 4 0.000000 0.000000 0.000000 -0.146016 0.000000 0.000000
# 5 0.000000 0.000000 0.000000 0.000000 0.026800 0.000000
# 6 0.000000 0.000000 0.000000 0.000000 0.000000 0.024082
#
#
# Mechanical properties :
#
#
# Convention : Reuss Voigt Hill
#
# Bulk Modulus (GPa) = 41.15819 41.30516 41.23168
# Shear Modulus (GPa) = 1564.11622 27.91387 796.01504
#
# Velocity S-wave (km/s) = 25.21806 3.36889 17.99028
# Velocity P-wave (km/s) = 29.40525 5.65038 21.17304
#
# Compressibility (1/GPa) = 0.02429650
#
# Stress axis : x y z
#
# Youngs Moduli (GPa) = 35.30716 108.10469 50.78459
#
# Poissons Ratio (x) = 0.42813 0.75272
# Poissons Ratio (y) = 0.13983 -0.11672
# Poissons Ratio (z) = 0.52332 -0.24847
#
# Static dielectric constant tensor:
#      x y z
#    x 1.958970 0.000000 0.000000 
#    y 0.000000 1.983970 0.000000 
#    z 0.000000 0.000000 1.954290 
# 
# From -- ./inp_files/12476.got.cif
#   From: 2010.05.17/outbox.cif.g08.bks.cpg/sg50_7_cif.got.tgz:12476.got - 2010.06.03 11:33:33.
