data_PCOD9397892
_publ_section_title
;
Structure prediction by ZEFSAII (Michael W. Deem and Ramdas Pophale) SiO2 
 PCOD9397892
Probable space group: P B A N
;
_chemical_formula_sum "Si O2"
_cell_formula_units_Z 40
_cell_length_a 16.719450
_cell_length_b 11.892380
_cell_length_c 8.289799
_cell_angle_alpha 90.000000
_cell_angle_beta 90.000000
_cell_angle_gamma 90.000000
_cell_volume 1648.294332
_symmetry_space_group_name_H-M "P B A N"
_symmetry_group_IT_number 50
_space_group.IT_coordinate_system_code '2'
_symmetry_cell_setting 'orthorhombic'
loop_
_space_group_symop_operation_xyz
x,y,z
1/2-x,1/2-y,z
x,1/2-y,-z
1/2-x,y,-z
-x,-y,-z
1/2+x,1/2+y,-z
-x,1/2+y,z
1/2+x,-y,z
loop_
_atom_site_type_symbol
_atom_site_label
_atom_site_fract_x
_atom_site_fract_y
_atom_site_fract_z
Si Si1 0.646563 0.705440 0.175246
Si Si2 0.398516 0.788394 0.324285
Si Si3 0.684114 0.508521 0.361654
Si Si4 0.474169 0.910154 0.858331
Si Si5 0.927547 0.605470 0.377992
O O1 0.704149 0.606706 0.236458
O O2 0.558494 0.651608 0.158370
O O3 0.633623 0.805003 0.303117
O O4 0.666517 0.750000 0.000000
O O5 0.365255 0.750000 0.500000
O O6 0.413860 0.696901 0.182635
O O7 0.485966 0.836616 0.373972
O O8 0.343661 0.894218 0.275979
O O9 0.750000 0.490552 0.500000
O O10 0.607341 0.561122 0.455090
O O11 0.438981 0.995881 0.728886
O O12 0.500000 0.000000 0.000000
#
# Coordination Sequence:
#
# PCOD9397892 Si02
#       5
#     8   8   8   8   8
#     4  11  23  40  69 104 141 184 242 305 377 438
#     4  11  22  39  70 103 142 185 242 311 369 438
#     4  12  26  45  67 101 147 195 249 299 368 459
#     4  11  21  39  69 110 145 178 237 318 385 436
#     4  11  21  41  70 102 144 184 242 312 370 435
#
# _framework density 24.267510000000001
#
# number of rings (size 3 to 8) (size 9 to 14) (size 15 to 20)
#    0.000    0.800    6.000    3.600    0.000    2.000 
#    0.000    2.000    0.000    0.000    0.000    0.000 
#    0.000    0.000    0.000    0.000    0.000    0.000 
#
# Total GULP energy -223209.172874 kJ/mol
# GULP energy per Si atom -5580.229322 kJ/mol
# Density = 2.421228 g / cm^3
# Si number density = 24.267510 Si / 1000 Ang^3
#
#
#
# Elastic Constant Matrix: (Units=GPa)
#
#
# Indices 1 2 3 4 5 6 
#
# 1 57.9727 51.5779 9.4547 0.0000 0.0000 0.0000
# 2 51.5779 194.8877 76.1291 0.0000 0.0000 0.0000
# 3 9.4547 76.1291 117.3476 0.0000 0.0000 0.0000
# 4 0.0000 0.0000 0.0000 58.4781 0.0000 0.0000
# 5 0.0000 0.0000 0.0000 0.0000 14.2089 0.0000
# 6 0.0000 0.0000 0.0000 0.0000 0.0000 -3.0179
#
#
#
# Elastic Compliance Matrix: (Units=1/GPa)
#
#
# Indices 1 2 3 4 5 6 
#
# 1 0.023246 -0.007261 0.002837 0.000000 0.000000 0.000000
# 2 -0.007261 0.009141 -0.005345 0.000000 0.000000 0.000000
# 3 0.002837 -0.005345 0.011761 0.000000 0.000000 0.000000
# 4 0.000000 0.000000 0.000000 0.017100 0.000000 0.000000
# 5 0.000000 0.000000 0.000000 0.000000 0.070378 0.000000
# 6 0.000000 0.000000 0.000000 0.000000 0.000000 -0.331353
#
#
# Mechanical properties :
#
#
# Convention : Reuss Voigt Hill
#
# Bulk Modulus (GPa) = 40.63188 71.61462 56.12325
# Shear Modulus (GPa) = -29.07210 29.47023 0.19907
#
# Velocity S-wave (km/s) = -3.46495 3.48859 0.28672
# Velocity P-wave (km/s) = 0.87856 6.76769 4.82563
#
# Compressibility (1/GPa) = 0.02461122
#
# Stress axis : x y z
#
# Youngs Moduli (GPa) = 43.01723 109.40153 85.02945
#
# Poissons Ratio (x) = 0.79433 -0.24126
# Poissons Ratio (y) = 0.31233 0.45448
# Poissons Ratio (z) = -0.12206 0.58475
#
# Static dielectric constant tensor:
#      x y z
#    x 2.022760 0.000000 0.000000 
#    y 0.000000 2.050100 0.000000 
#    z 0.000000 0.000000 1.909990 
# 
# From -- ./inp_files/13899.got.cif
#   From: 2010.05.17/outbox.cif.g08.bks.cpg/sg50_7_cif.got.tgz:13899.got - 2010.06.03 11:33:33.
