data_PCOD9397131
_publ_section_title
;
Structure prediction by ZEFSAII (Michael W. Deem and Ramdas Pophale) SiO2 
 PCOD9397131
Probable space group: P B A N
;
_chemical_formula_sum "Si O2"
_cell_formula_units_Z 32
_cell_length_a 30.817042
_cell_length_b 4.761650
_cell_length_c 8.945312
_cell_angle_alpha 90.000000
_cell_angle_beta 90.000000
_cell_angle_gamma 90.000000
_cell_volume 1312.634797
_symmetry_space_group_name_H-M "P B A N"
_symmetry_group_IT_number 50
_space_group.IT_coordinate_system_code '2'
_symmetry_cell_setting 'orthorhombic'
loop_
_space_group_symop_operation_xyz
x,y,z
1/2-x,1/2-y,z
x,1/2-y,-z
1/2-x,y,-z
-x,-y,-z
1/2+x,1/2+y,-z
-x,1/2+y,z
1/2+x,-y,z
loop_
_atom_site_type_symbol
_atom_site_label
_atom_site_fract_x
_atom_site_fract_y
_atom_site_fract_z
Si Si1 0.297076 0.872929 0.169294
Si Si2 0.084448 0.250000 0.500000
Si Si3 0.971304 0.445120 0.740822
Si Si4 0.852275 0.912541 0.765200
Si Si5 0.918769 0.750000 0.000000
O O1 0.250000 0.750000 0.213217
O O2 0.331379 0.709094 0.267882
O O3 0.313008 0.194235 0.189620
O O4 0.302123 0.750000 0.000000
O O5 0.053791 0.465638 0.408852
O O6 0.117353 0.156585 0.371999
O O7 0.983338 0.119040 0.743884
O O8 0.946230 0.557152 0.887103
O O9 0.885662 0.932222 0.901882
#
# Coordination Sequence:
#
# PCOD9397131 Si02
#       5
#     8   4   8   8   4
#     4  11  22  40  67  95 125 161 206 259 309 362
#     4  10  26  42  65  90 130 170 202 254 309 378
#     4  11  24  41  63  89 123 162 210 253 312 364
#     4  11  23  41  63  95 127 164 209 250 311 366
#     4  10  22  38  63  92 122 160 206 266 301 358
#
# _framework density 24.378447999999999
#
# number of rings (size 3 to 8) (size 9 to 14) (size 15 to 20)
#    0.000    1.250    2.500    2.250    0.000   15.000 
#    0.000    3.750    0.000    0.000    0.000    0.000 
#    0.000    0.000    0.000    0.000    0.000    0.000 
#
# Total GULP energy -178974.591486 kJ/mol
# GULP energy per Si atom -5592.955984 kJ/mol
# Density = 2.432296 g / cm^3
# Si number density = 24.378448 Si / 1000 Ang^3
#
#
#
# Elastic Constant Matrix: (Units=GPa)
#
#
# Indices 1 2 3 4 5 6 
#
# 1 104.0967 9.2489 41.6615 0.0000 0.0000 0.0000
# 2 9.2489 89.7075 9.8561 0.0000 0.0000 0.0000
# 3 41.6615 9.8561 117.0866 0.0000 0.0000 0.0000
# 4 0.0000 0.0000 0.0000 14.0767 0.0000 0.0000
# 5 0.0000 0.0000 0.0000 0.0000 49.9430 0.0000
# 6 0.0000 0.0000 0.0000 0.0000 0.0000 14.8137
#
#
#
# Elastic Compliance Matrix: (Units=1/GPa)
#
#
# Indices 1 2 3 4 5 6 
#
# 1 0.011248 -0.000727 -0.003941 0.000000 0.000000 0.000000
# 2 -0.000727 0.011298 -0.000693 0.000000 0.000000 0.000000
# 3 -0.003941 -0.000693 0.010001 0.000000 0.000000 0.000000
# 4 0.000000 0.000000 0.000000 0.071040 0.000000 0.000000
# 5 0.000000 0.000000 0.000000 0.000000 0.020023 0.000000
# 6 0.000000 0.000000 0.000000 0.000000 0.000000 0.067505
#
#
# Mechanical properties :
#
#
# Convention : Reuss Voigt Hill
#
# Bulk Modulus (GPa) = 45.81428 48.04709 46.93068
# Shear Modulus (GPa) = 23.91062 32.44162 28.17612
#
# Velocity S-wave (km/s) = 3.13519 3.65190 3.40336
# Velocity P-wave (km/s) = 5.65151 6.12646 5.89377
#
# Compressibility (1/GPa) = 0.02182726
#
# Stress axis : x y z
#
# Youngs Moduli (GPa) = 88.90187 88.50851 99.98671
#
# Poissons Ratio (x) = 0.06432 0.39407
# Poissons Ratio (y) = 0.06460 0.06924
# Poissons Ratio (z) = 0.35038 0.06129
#
# Static dielectric constant tensor:
#      x y z
#    x 1.945350 0.000000 0.000000 
#    y 0.000000 2.450770 0.000000 
#    z 0.000000 0.000000 1.992090 
# 
# From -- ./inp_files/16728.got.cif
#   From: 2010.05.17/outbox.cif.g08.bks.cpg/sg50_9_cif.got.tgz:16728.got - 2010.06.03 11:33:33.
