data_PCOD9397145
_publ_section_title
;
Structure prediction by ZEFSAII (Michael W. Deem and Ramdas Pophale) SiO2 
 PCOD9397145
Probable space group: P B A N
;
_chemical_formula_sum "Si O2"
_cell_formula_units_Z 48
_cell_length_a 18.838034
_cell_length_b 24.788137
_cell_length_c 5.313616
_cell_angle_alpha 90.000000
_cell_angle_beta 90.000000
_cell_angle_gamma 90.000000
_cell_volume 2481.244892
_symmetry_space_group_name_H-M "P B A N"
_symmetry_group_IT_number 50
_space_group.IT_coordinate_system_code '2'
_symmetry_cell_setting 'orthorhombic'
loop_
_space_group_symop_operation_xyz
x,y,z
1/2-x,1/2-y,z
x,1/2-y,-z
1/2-x,y,-z
-x,-y,-z
1/2+x,1/2+y,-z
-x,1/2+y,z
1/2+x,-y,z
loop_
_atom_site_type_symbol
_atom_site_label
_atom_site_fract_x
_atom_site_fract_y
_atom_site_fract_z
Si Si1 0.575226 0.074310 0.563405
Si Si2 0.943005 0.519554 0.205685
Si Si3 0.068895 0.311065 0.999921
Si Si4 0.025176 0.811539 0.494101
Si Si5 0.795763 0.483402 0.742275
Si Si6 0.330107 0.090402 0.077870
O O1 0.493729 0.057604 0.625470
O O2 0.577579 0.137884 0.522052
O O3 0.634615 0.054033 0.758277
O O4 0.587611 0.034002 0.331909
O O5 0.878649 0.555054 0.108765
O O6 0.000000 0.500000 0.000000
O O7 0.010709 0.316355 0.220411
O O8 0.127603 0.354072 0.083809
O O9 0.097285 0.250000 0.000000
O O10 0.031427 0.317832 0.726105
O O11 0.053558 0.750000 0.500000
O O12 0.750000 0.467143 0.500000
O O13 0.821904 0.545748 0.701215
O O14 0.750000 0.482062 0.000000
O O15 0.250000 0.102162 0.000000
#
# Coordination Sequence:
#
# PCOD9397145 Si02
#       6
#     8   8   8   8   8   8
#     4  11  22  35  64  85 124 156 201 252 311 366
#     4  11  21  36  58  93 119 158 201 252 302 359
#     4  10  22  39  57  83 120 159 202 247 287 342
#     4  10  22  39  62  89 116 153 203 251 294 351
#     4  11  25  40  57  91 126 158 197 248 315 375
#     4  11  22  38  59  85 126 160 201 242 299 358
#
# _framework density 19.345127000000002
#
# number of rings (size 3 to 8) (size 9 to 14) (size 15 to 20)
#    0.000    1.333    3.333    3.000    2.333    3.000 
#    0.000    0.000    0.000    3.500    0.000    4.667 
#    0.000    0.000    0.000    0.000    0.000    0.000 
#
# Total GULP energy -267477.708151 kJ/mol
# GULP energy per Si atom -5572.452253 kJ/mol
# Density = 1.930110 g / cm^3
# Si number density = 19.345127 Si / 1000 Ang^3
#
#
#
# Elastic Constant Matrix: (Units=GPa)
#
#
# Indices 1 2 3 4 5 6 
#
# 1 82.3406 46.2304 20.7217 0.0000 0.0000 0.0000
# 2 46.2304 166.8588 5.7917 0.0000 0.0000 0.0000
# 3 20.7217 5.7917 68.4991 0.0000 0.0000 0.0000
# 4 0.0000 0.0000 0.0000 19.7619 0.0000 0.0000
# 5 0.0000 0.0000 0.0000 0.0000 23.5249 0.0000
# 6 0.0000 0.0000 0.0000 0.0000 0.0000 26.3534
#
#
#
# Elastic Compliance Matrix: (Units=1/GPa)
#
#
# Indices 1 2 3 4 5 6 
#
# 1 0.015581 -0.004166 -0.004361 0.000000 0.000000 0.000000
# 2 -0.004166 0.007124 0.000658 0.000000 0.000000 0.000000
# 3 -0.004361 0.000658 0.015862 0.000000 0.000000 0.000000
# 4 0.000000 0.000000 0.000000 0.050602 0.000000 0.000000
# 5 0.000000 0.000000 0.000000 0.000000 0.042508 0.000000
# 6 0.000000 0.000000 0.000000 0.000000 0.000000 0.037946
#
#
# Mechanical properties :
#
#
# Convention : Reuss Voigt Hill
#
# Bulk Modulus (GPa) = 43.80244 51.46512 47.63378
# Shear Modulus (GPa) = 25.91049 30.25835 28.08442
#
# Velocity S-wave (km/s) = 3.66373 3.95920 3.81433
# Velocity P-wave (km/s) = 6.37095 6.89651 6.63893
#
# Compressibility (1/GPa) = 0.02282978
#
# Stress axis : x y z
#
# Youngs Moduli (GPa) = 64.18088 140.36322 63.04205
#
# Poissons Ratio (x) = 0.58469 0.27494
# Poissons Ratio (y) = 0.26735 -0.04147
# Poissons Ratio (z) = 0.27991 -0.09232
#
# Static dielectric constant tensor:
#      x y z
#    x 1.928710 0.000000 0.000000 
#    y 0.000000 1.701220 0.000000 
#    z 0.000000 0.000000 1.767250 
# 
# From -- ./inp_files/4529.got.cif
#   From: 2010.05.17/outbox.cif.g08.bks.cpg/sg50_3_cif.got.tgz:4529.got - 2010.06.03 11:33:33.
