data_PCOD9397057
_publ_section_title
;
Structure prediction by ZEFSAII (Michael W. Deem and Ramdas Pophale) SiO2 
 PCOD9397057
Probable space group: P B A N
;
_chemical_formula_sum "Si O2"
_cell_formula_units_Z 48
_cell_length_a 24.040728
_cell_length_b 14.138599
_cell_length_c 6.609858
_cell_angle_alpha 90.000000
_cell_angle_beta 90.000000
_cell_angle_gamma 90.000000
_cell_volume 2246.705361
_symmetry_space_group_name_H-M "P B A N"
_symmetry_group_IT_number 50
_space_group.IT_coordinate_system_code '2'
_symmetry_cell_setting 'orthorhombic'
loop_
_space_group_symop_operation_xyz
x,y,z
1/2-x,1/2-y,z
x,1/2-y,-z
1/2-x,y,-z
-x,-y,-z
1/2+x,1/2+y,-z
-x,1/2+y,z
1/2+x,-y,z
loop_
_atom_site_type_symbol
_atom_site_label
_atom_site_fract_x
_atom_site_fract_y
_atom_site_fract_z
Si Si1 0.842343 0.849365 0.588377
Si Si2 0.130723 0.463538 0.963150
Si Si3 0.439979 0.415849 0.658994
Si Si4 0.933749 0.413318 0.367353
Si Si5 0.648459 0.250000 0.500000
Si Si6 0.250000 0.008974 0.500000
Si Si7 0.788723 0.119188 0.174132
O O1 0.821589 0.750000 0.500000
O O2 0.839951 0.882492 0.823083
O O3 0.905114 0.858847 0.507913
O O4 0.804466 0.928160 0.480851
O O5 0.091401 0.520788 0.807948
O O6 0.093632 0.413581 0.133293
O O7 0.168726 0.542651 0.074920
O O8 0.503305 0.383967 0.682116
O O9 0.438611 0.523200 0.571101
O O10 0.891400 0.328270 0.400241
O O11 0.683090 0.305177 0.325518
O O12 0.253585 0.942046 0.690541
O O13 0.750000 0.157860 0.000000
#
# Coordination Sequence:
#
# PCOD9397057 Si02
#       7
#     8   8   8   8   4   4   8
#     4  11  24  40  70 105 136 178 241 297 348 430
#     4  11  21  46  69  96 139 187 233 276 369 438
#     4  10  21  44  70  98 144 188 226 283 372 420
#     4  10  23  42  70 101 142 185 228 297 350 423
#     4  12  26  49  68 112 142 175 260 300 342 444
#     4  12  23  49  68  96 144 192 230 301 373 420
#     4  12  26  48  72  97 141 198 234 300 373 435
#
# _framework density 21.364618
#
# number of rings (size 3 to 8) (size 9 to 14) (size 15 to 20)
#    0.000    1.000    5.000    1.750    1.167    1.667 
#    3.000    1.667    0.000    0.000    0.000    0.000 
#    0.000    0.000    0.000    0.000    0.000    0.000 
#
# Total GULP energy -268070.908164 kJ/mol
# GULP energy per Si atom -5584.810587 kJ/mol
# Density = 2.131599 g / cm^3
# Si number density = 21.364618 Si / 1000 Ang^3
#
#
#
# Elastic Constant Matrix: (Units=GPa)
#
#
# Indices 1 2 3 4 5 6 
#
# 1 96.1315 47.3230 38.1669 0.0000 0.0000 0.0000
# 2 47.3230 114.7666 56.1325 0.0000 0.0000 0.0000
# 3 38.1669 56.1325 127.4993 0.0000 0.0000 0.0000
# 4 0.0000 0.0000 0.0000 23.5073 0.0000 0.0000
# 5 0.0000 0.0000 0.0000 0.0000 37.7177 0.0000
# 6 0.0000 0.0000 0.0000 0.0000 0.0000 10.6300
#
#
#
# Elastic Compliance Matrix: (Units=1/GPa)
#
#
# Indices 1 2 3 4 5 6 
#
# 1 0.013448 -0.004557 -0.002019 0.000000 0.000000 0.000000
# 2 -0.004557 0.012649 -0.004205 0.000000 0.000000 0.000000
# 3 -0.002019 -0.004205 0.010299 0.000000 0.000000 0.000000
# 4 0.000000 0.000000 0.000000 0.042540 0.000000 0.000000
# 5 0.000000 0.000000 0.000000 0.000000 0.026513 0.000000
# 6 0.000000 0.000000 0.000000 0.000000 0.000000 0.094073
#
#
# Mechanical properties :
#
#
# Convention : Reuss Voigt Hill
#
# Bulk Modulus (GPa) = 67.41680 69.07136 68.24408
# Shear Modulus (GPa) = 22.12117 27.48934 24.80526
#
# Velocity S-wave (km/s) = 3.22127 3.59092 3.41111
# Velocity P-wave (km/s) = 6.74235 7.04222 6.89392
#
# Compressibility (1/GPa) = 0.01483310
#
# Stress axis : x y z
#
# Youngs Moduli (GPa) = 74.36301 79.05763 97.09993
#
# Poissons Ratio (x) = 0.36030 0.19605
# Poissons Ratio (y) = 0.33891 0.40826
# Poissons Ratio (z) = 0.15014 0.33240
#
# Static dielectric constant tensor:
#      x y z
#    x 1.774630 0.000000 0.000000 
#    y 0.000000 1.803020 0.000000 
#    z 0.000000 0.000000 1.718540 
# 
# From -- ./inp_files/6629.got.cif
#   From: 2010.05.17/outbox.cif.g08.bks.cpg/sg50_4_cif.got.tgz:6629.got - 2010.06.03 11:33:33.
