data_PCOD9397039
_publ_section_title
;
Structure prediction by ZEFSAII (Michael W. Deem and Ramdas Pophale) SiO2 
 PCOD9397039
Probable space group: P B A N
;
_chemical_formula_sum "Si O2"
_cell_formula_units_Z 58
_cell_length_a 16.966545
_cell_length_b 17.826668
_cell_length_c 8.544270
_cell_angle_alpha 90.000000
_cell_angle_beta 90.000000
_cell_angle_gamma 90.000000
_cell_volume 2584.273971
_symmetry_space_group_name_H-M "P B A N"
_symmetry_group_IT_number 50
_space_group.IT_coordinate_system_code '2'
_symmetry_cell_setting 'orthorhombic'
loop_
_space_group_symop_operation_xyz
x,y,z
1/2-x,1/2-y,z
x,1/2-y,-z
1/2-x,y,-z
-x,-y,-z
1/2+x,1/2+y,-z
-x,1/2+y,z
1/2+x,-y,z
loop_
_atom_site_type_symbol
_atom_site_label
_atom_site_fract_x
_atom_site_fract_y
_atom_site_fract_z
Si Si1 0.916554 0.834387 0.561113
Si Si2 0.431694 0.893408 0.297095
Si Si3 0.850649 0.080293 0.628844
Si Si4 0.293981 0.075320 0.734474
Si Si5 0.153414 0.387785 0.083010
Si Si6 0.225590 0.837116 0.833275
Si Si7 0.521560 0.932187 0.732962
Si Si8 0.250000 0.250000 0.000000
O O1 0.915320 0.750000 0.500000
O O2 0.833510 0.856341 0.640518
O O3 0.942025 0.891931 0.421941
O O4 0.988094 0.846242 0.683886
O O5 0.384678 0.895880 0.462311
O O6 0.366426 0.855717 0.187290
O O7 0.457881 0.979312 0.264506
O O8 0.779742 0.128169 0.697638
O O9 0.928733 0.080814 0.735601
O O10 0.820128 0.995751 0.636316
O O11 0.201829 0.071273 0.777597
O O12 0.329352 0.079678 0.911313
O O13 0.063115 0.393075 0.121391
O O14 0.192345 0.305654 0.091115
O O15 0.250000 0.750000 0.834779
O O16 0.250000 0.871550 0.000000
#
# Coordination Sequence:
#
# PCOD9397039 Si02
#       8
#     8   8   8   8   8   8   8   2
#     4  11  24  41  70  99 136 172 224 276 335 400
#     4  11  23  45  69  95 140 173 221 277 336 401
#     4  11  22  42  67  95 134 169 219 281 326 403
#     4  10  21  43  61  95 135 173 224 270 331 395
#     4  10  24  37  66  89 131 182 220 267 338 397
#     4  11  28  46  66  99 134 174 227 280 337 406
#     4  11  23  42  65 104 130 176 225 274 334 397
#     4   8  20  44  52  82 132 168 224 266 324 400
#
# _framework density 22.443441
#
# number of rings (size 3 to 8) (size 9 to 14) (size 15 to 20)
#    0.000    1.517    2.759    2.069   11.586    2.759 
#    0.000    2.069    0.000    0.000    0.000    0.000 
#    0.000    0.000    0.000    0.000    0.000    0.000 
#
# Total GULP energy -324069.640377 kJ/mol
# GULP energy per Si atom -5587.407593 kJ/mol
# Density = 2.239236 g / cm^3
# Si number density = 22.443441 Si / 1000 Ang^3
#
#
#
# Elastic Constant Matrix: (Units=GPa)
#
#
# Indices 1 2 3 4 5 6 
#
# 1 79.8118 19.0834 4.5435 0.0000 0.0000 0.0000
# 2 19.0834 80.1260 5.8092 0.0000 0.0000 0.0000
# 3 4.5435 5.8092 28.9534 0.0000 0.0000 0.0000
# 4 0.0000 0.0000 0.0000 99.3733 0.0000 0.0000
# 5 0.0000 0.0000 0.0000 0.0000 -632.6841 0.0000
# 6 0.0000 0.0000 0.0000 0.0000 0.0000 -1.0839
#
#
#
# Elastic Compliance Matrix: (Units=1/GPa)
#
#
# Indices 1 2 3 4 5 6 
#
# 1 0.013348 -0.003072 -0.001478 0.000000 0.000000 0.000000
# 2 -0.003072 0.013372 -0.002201 0.000000 0.000000 0.000000
# 3 -0.001478 -0.002201 0.035212 0.000000 0.000000 0.000000
# 4 0.000000 0.000000 0.000000 0.010063 0.000000 0.000000
# 5 0.000000 0.000000 0.000000 0.000000 -0.001581 0.000000
# 6 0.000000 0.000000 0.000000 0.000000 0.000000 -0.922561
#
#
# Mechanical properties :
#
#
# Convention : Reuss Voigt Hill
#
# Bulk Modulus (GPa) = 20.64859 27.52926 24.08893
# Shear Modulus (GPa) = -6.07902 -96.24861 -51.16381
#
# Velocity S-wave (km/s) = -1.64757 -6.55577 -4.77978
# Velocity P-wave (km/s) = 2.36663 6.70905 4.43906
#
# Compressibility (1/GPa) = 0.04842945
#
# Stress axis : x y z
#
# Youngs Moduli (GPa) = 74.91681 74.78573 28.39957
#
# Poissons Ratio (x) = 0.22974 0.04198
# Poissons Ratio (y) = 0.23014 0.06250
# Poissons Ratio (z) = 0.11075 0.16459
#
# Static dielectric constant tensor:
#      x y z
#    x 1.745450 0.000000 0.000000 
#    y 0.000000 1.856230 0.000000 
#    z 0.000000 0.000000 1.867430 
# 
# From -- ./inp_files/14507.got.cif
#   From: 2010.05.17/outbox.cif.g08.bks.cpg/sg50_8_cif.got.tgz:14507.got - 2010.06.03 11:33:33.
