data_PCOD9397842
_publ_section_title
;
Structure prediction by ZEFSAII (Michael W. Deem and Ramdas Pophale) SiO2 
 PCOD9397842
Probable space group: P B A N
;
_chemical_formula_sum "Si O2"
_cell_formula_units_Z 48
_cell_length_a 17.429647
_cell_length_b 8.831856
_cell_length_c 16.202155
_cell_angle_alpha 90.000000
_cell_angle_beta 90.000000
_cell_angle_gamma 90.000000
_cell_volume 2494.097078
_symmetry_space_group_name_H-M "P B A N"
_symmetry_group_IT_number 50
_space_group.IT_coordinate_system_code '2'
_symmetry_cell_setting 'orthorhombic'
loop_
_space_group_symop_operation_xyz
x,y,z
1/2-x,1/2-y,z
x,1/2-y,-z
1/2-x,y,-z
-x,-y,-z
1/2+x,1/2+y,-z
-x,1/2+y,z
1/2+x,-y,z
loop_
_atom_site_type_symbol
_atom_site_label
_atom_site_fract_x
_atom_site_fract_y
_atom_site_fract_z
Si Si1 0.957926 0.699452 0.269908
Si Si2 0.602671 0.129321 0.217011
Si Si3 0.307262 0.388159 0.768060
Si Si4 0.188020 0.851607 0.652884
Si Si5 0.538343 0.119935 0.561095
Si Si6 0.236849 0.928280 0.092823
O O1 0.930366 0.528334 0.252478
O O2 0.889401 0.818079 0.254265
O O3 0.028501 0.758655 0.212629
O O4 0.985968 0.688992 0.365336
O O5 0.655318 0.230950 0.278960
O O6 0.653801 0.071760 0.139168
O O7 0.250000 0.250000 0.777346
O O8 0.277323 0.503781 0.698869
O O9 0.299262 0.487084 0.850631
O O10 0.250000 0.750000 0.605562
O O11 0.116988 0.923927 0.605013
O O12 0.562853 0.250000 0.500000
O O13 0.500000 0.000000 0.500000
O O14 0.250000 0.750000 0.090321
O O15 0.250000 0.986981 0.000000
#
# Coordination Sequence:
#
# PCOD9397842 Si02
#       6
#     8   8   8   8   8   8
#     4  11  23  37  67  92 126 173 219 266 308 397
#     4  11  20  41  63  97 126 168 222 255 320 388
#     4  12  21  39  64  97 127 170 227 259 317 387
#     4  11  20  38  64  90 123 171 224 268 316 396
#     4  11  23  40  60  91 129 166 213 271 343 381
#     4  11  23  42  69  95 130 165 208 268 330 378
#
# _framework density 19.245442000000001
#
# number of rings (size 3 to 8) (size 9 to 14) (size 15 to 20)
#    0.000    0.833    5.000    5.000    0.000    0.667 
#    0.000    0.833    0.000    3.500    0.000    0.000 
#    0.000    0.000    0.000    0.000    0.000    0.000 
#
# Total GULP energy -267227.526094 kJ/mol
# GULP energy per Si atom -5567.240127 kJ/mol
# Density = 1.920164 g / cm^3
# Si number density = 19.245442 Si / 1000 Ang^3
#
#
#
# Elastic Constant Matrix: (Units=GPa)
#
#
# Indices 1 2 3 4 5 6 
#
# 1 67.7992 -2.5038 22.5106 0.0000 0.0000 0.0000
# 2 -2.5038 73.0250 10.0589 0.0000 0.0000 0.0000
# 3 22.5106 10.0589 100.6145 0.0000 0.0000 0.0000
# 4 0.0000 0.0000 0.0000 25.9385 0.0000 0.0000
# 5 0.0000 0.0000 0.0000 0.0000 21.7889 0.0000
# 6 0.0000 0.0000 0.0000 0.0000 0.0000 31.7677
#
#
#
# Elastic Compliance Matrix: (Units=1/GPa)
#
#
# Indices 1 2 3 4 5 6 
#
# 1 0.016013 0.001057 -0.003688 0.000000 0.000000 0.000000
# 2 0.001057 0.013955 -0.001632 0.000000 0.000000 0.000000
# 3 -0.003688 -0.001632 0.010927 0.000000 0.000000 0.000000
# 4 0.000000 0.000000 0.000000 0.038553 0.000000 0.000000
# 5 0.000000 0.000000 0.000000 0.000000 0.045895 0.000000
# 6 0.000000 0.000000 0.000000 0.000000 0.000000 0.031478
#
#
# Mechanical properties :
#
#
# Convention : Reuss Voigt Hill
#
# Bulk Modulus (GPa) = 30.89327 33.50780 32.20053
# Shear Modulus (GPa) = 28.38699 29.99055 29.18877
#
# Velocity S-wave (km/s) = 3.84474 3.95184 3.89866
# Velocity P-wave (km/s) = 5.98301 6.18638 6.08554
#
# Compressibility (1/GPa) = 0.03236951
#
# Stress axis : x y z
#
# Youngs Moduli (GPa) = 62.44903 71.65919 91.51443
#
# Poissons Ratio (x) = -0.07575 0.33753
# Poissons Ratio (y) = -0.06601 0.14932
# Poissons Ratio (z) = 0.23033 0.11692
#
# Static dielectric constant tensor:
#      x y z
#    x 0.737550 0.000000 0.000000 
#    y 0.000000 1.655180 0.000000 
#    z 0.000000 0.000000 1.683060 
# 
# From -- ./inp_files/26840.got.cif
#   From: 2010.05.17/outbox.cif.g08.bks.cpg/sg50_14_cif.got.tgz:26840.got - 2010.06.03 11:33:33.
