data_PCOD9397126
_publ_section_title
;
Structure prediction by ZEFSAII (Michael W. Deem and Ramdas Pophale) SiO2 
 PCOD9397126
Probable space group: P B A N
;
_chemical_formula_sum "Si O2"
_cell_formula_units_Z 28
_cell_length_a 10.423098
_cell_length_b 8.838588
_cell_length_c 12.748292
_cell_angle_alpha 90.000000
_cell_angle_beta 90.000000
_cell_angle_gamma 90.000000
_cell_volume 1174.442378
_symmetry_space_group_name_H-M "P B A N"
_symmetry_group_IT_number 50
_space_group.IT_coordinate_system_code '2'
_symmetry_cell_setting 'orthorhombic'
loop_
_space_group_symop_operation_xyz
x,y,z
1/2-x,1/2-y,z
x,1/2-y,-z
1/2-x,y,-z
-x,-y,-z
1/2+x,1/2+y,-z
-x,1/2+y,z
1/2+x,-y,z
loop_
_atom_site_type_symbol
_atom_site_label
_atom_site_fract_x
_atom_site_fract_y
_atom_site_fract_z
Si Si1 0.935545 0.250000 0.500000
Si Si2 0.611111 0.308802 0.881476
Si Si3 0.860734 0.646034 0.177652
Si Si4 0.847639 0.544638 0.407871
O O1 0.864292 0.364685 0.421931
O O2 0.022227 0.365053 0.567172
O O3 0.750000 0.250000 0.843655
O O4 0.611640 0.489957 0.881251
O O5 0.491525 0.242099 0.817144
O O6 0.595251 0.250000 0.000000
O O7 0.750000 0.750000 0.129451
O O8 0.809945 0.592729 0.291906
O O9 0.750000 0.587219 0.500000
#
# Coordination Sequence:
#
# PCOD9397126 Si02
#       4
#     4   8   8   8
#     4  10  22  38  62  88 132 184 232 284 342 408
#     4  11  26  48  72 105 145 190 245 306 369 435
#     4  12  25  44  75 109 146 190 242 302 370 439
#     4  11  23  41  63  97 137 182 234 289 347 418
#
# _framework density 23.841103
#
# number of rings (size 3 to 8) (size 9 to 14) (size 15 to 20)
#    0.000    0.857    0.000    6.857    0.000   12.000 
#    0.000    0.000    0.000    0.000    0.000    0.000 
#    0.000    0.000    0.000    0.000    0.000    0.000 
#
# Total GULP energy -156771.727892 kJ/mol
# GULP energy per Si atom -5598.990282 kJ/mol
# Density = 2.378684 g / cm^3
# Si number density = 23.841103 Si / 1000 Ang^3
#
#
#
# Elastic Constant Matrix: (Units=GPa)
#
#
# Indices 1 2 3 4 5 6 
#
# 1 131.3491 67.7432 17.1628 0.0000 0.0000 0.0000
# 2 67.7432 236.2857 38.8440 0.0000 0.0000 0.0000
# 3 17.1628 38.8440 111.5715 0.0000 0.0000 0.0000
# 4 0.0000 0.0000 0.0000-1116.6785 0.0000 0.0000
# 5 0.0000 0.0000 0.0000 0.0000 21.3187 0.0000
# 6 0.0000 0.0000 0.0000 0.0000 0.0000 51.2118
#
#
#
# Elastic Compliance Matrix: (Units=1/GPa)
#
#
# Indices 1 2 3 4 5 6 
#
# 1 0.008962 -0.002485 -0.000513 0.000000 0.000000 0.000000
# 2 -0.002485 0.005178 -0.001421 0.000000 0.000000 0.000000
# 3 -0.000513 -0.001421 0.009536 0.000000 0.000000 0.000000
# 4 0.000000 0.000000 0.000000 -0.000896 0.000000 0.000000
# 5 0.000000 0.000000 0.000000 0.000000 0.046907 0.000000
# 6 0.000000 0.000000 0.000000 0.000000 0.000000 0.019527
#
#
# Mechanical properties :
#
#
# Convention : Reuss Voigt Hill
#
# Bulk Modulus (GPa) = 67.39172 80.74516 74.06844
# Shear Modulus (GPa) = 48.54404 -185.13252 -68.29424
#
# Velocity S-wave (km/s) = 4.51727 -8.82163 -5.35796
# Velocity P-wave (km/s) = 7.45225 8.35584 2.67246
#
# Compressibility (1/GPa) = 0.01483862
#
# Stress axis : x y z
#
# Youngs Moduli (GPa) = 111.58184 193.11938 104.86134
#
# Poissons Ratio (x) = 0.47990 0.05384
# Poissons Ratio (y) = 0.27728 0.14896
# Poissons Ratio (z) = 0.05729 0.27433
#
# Static dielectric constant tensor:
#      x y z
#    x 1.936780 0.000000 0.000000 
#    y 0.000000 1.885400 0.000000 
#    z 0.000000 0.000000 1.945120 
# 
# From -- ./inp_files/25573.got.cif
#   From: 2010.05.17/outbox.cif.g08.bks.cpg/sg50_13_cif.got.tgz:25573.got - 2010.06.03 11:33:33.
