data_PCOD9397705
_publ_section_title
;
Structure prediction by ZEFSAII (Michael W. Deem and Ramdas Pophale) SiO2 
 PCOD9397705
Probable space group: P B A N
;
_chemical_formula_sum "Si O2"
_cell_formula_units_Z 56
_cell_length_a 14.967574
_cell_length_b 20.820583
_cell_length_c 8.816772
_cell_angle_alpha 90.000000
_cell_angle_beta 90.000000
_cell_angle_gamma 90.000000
_cell_volume 2747.602547
_symmetry_space_group_name_H-M "P B A N"
_symmetry_group_IT_number 50
_space_group.IT_coordinate_system_code '2'
_symmetry_cell_setting 'orthorhombic'
loop_
_space_group_symop_operation_xyz
x,y,z
1/2-x,1/2-y,z
x,1/2-y,-z
1/2-x,y,-z
-x,-y,-z
1/2+x,1/2+y,-z
-x,1/2+y,z
1/2+x,-y,z
loop_
_atom_site_type_symbol
_atom_site_label
_atom_site_fract_x
_atom_site_fract_y
_atom_site_fract_z
Si Si1 0.136622 0.446026 0.371612
Si Si2 0.288517 0.618751 0.166965
Si Si3 0.059051 0.777428 0.157539
Si Si4 0.108624 0.854676 0.687463
Si Si5 0.009672 0.528932 0.167103
Si Si6 0.169687 0.484953 0.697570
Si Si7 0.535328 0.822774 0.561213
O O1 0.147415 0.490437 0.519907
O O2 0.232455 0.452919 0.288892
O O3 0.056630 0.474240 0.270920
O O4 0.113534 0.375698 0.437403
O O5 0.356893 0.676198 0.139611
O O6 0.214604 0.635041 0.296010
O O7 0.332549 0.554021 0.225476
O O8 0.250000 0.605423 0.000000
O O9 0.091748 0.715647 0.248330
O O10 0.989787 0.813830 0.263360
O O11 0.023563 0.750000 0.000000
O O12 0.049668 0.852698 0.532633
O O13 0.070372 0.908809 0.801777
O O14 0.912585 0.550830 0.225271
O O15 0.000000 0.500000 0.000000
O O16 0.554311 0.750000 0.500000
#
# Coordination Sequence:
#
# PCOD9397705 Si02
#       7
#     8   8   8   8   8   8   8
#     4  11  24  45  69 103 132 183 233 293 354 418
#     4  12  23  39  63  99 140 178 226 282 350 426
#     4  11  24  40  66  95 135 184 229 286 348 418
#     4  11  23  41  63  96 136 180 234 276 350 423
#     4  12  25  41  68 100 144 182 226 295 352 424
#     4  11  25  41  70 100 136 179 230 286 353 421
#     4  10  24  45  68  94 133 176 237 291 350 426
#
# _framework density 20.381405000000001
#
# number of rings (size 3 to 8) (size 9 to 14) (size 15 to 20)
#    0.000    0.857    4.286    2.571    4.000    0.571 
#    0.000    3.571    0.000    0.000    0.000    1.000 
#    0.000    0.000    0.000    0.000    0.000    0.000 
#
# Total GULP energy -312598.697375 kJ/mol
# GULP energy per Si atom -5582.119596 kJ/mol
# Density = 2.033502 g / cm^3
# Si number density = 20.381405 Si / 1000 Ang^3
#
#
#
# Elastic Constant Matrix: (Units=GPa)
#
#
# Indices 1 2 3 4 5 6 
#
# 1 48.3416 4.6393 38.8056 0.0000 0.0000 0.0000
# 2 4.6393 85.9825 29.5236 0.0000 0.0000 0.0000
# 3 38.8056 29.5236 104.9802 0.0000 0.0000 0.0000
# 4 0.0000 0.0000 0.0000 27.8474 0.0000 0.0000
# 5 0.0000 0.0000 0.0000 0.0000 32.8721 0.0000
# 6 0.0000 0.0000 0.0000 0.0000 0.0000 25.6019
#
#
#
# Elastic Compliance Matrix: (Units=1/GPa)
#
#
# Indices 1 2 3 4 5 6 
#
# 1 0.029859 0.002412 -0.011716 0.000000 0.000000 0.000000
# 2 0.002412 0.013068 -0.004567 0.000000 0.000000 0.000000
# 3 -0.011716 -0.004567 0.015141 0.000000 0.000000 0.000000
# 4 0.000000 0.000000 0.000000 0.035910 0.000000 0.000000
# 5 0.000000 0.000000 0.000000 0.000000 0.030421 0.000000
# 6 0.000000 0.000000 0.000000 0.000000 0.000000 0.039060
#
#
# Mechanical properties :
#
#
# Convention : Reuss Voigt Hill
#
# Bulk Modulus (GPa) = 32.97414 42.80460 37.88937
# Shear Modulus (GPa) = 24.83749 28.35333 26.59541
#
# Velocity S-wave (km/s) = 3.49468 3.73384 3.61624
# Velocity P-wave (km/s) = 5.70065 6.29572 6.00556
#
# Compressibility (1/GPa) = 0.03032679
#
# Stress axis : x y z
#
# Youngs Moduli (GPa) = 33.49048 76.52168 66.04786
#
# Poissons Ratio (x) = -0.18455 0.77379
# Poissons Ratio (y) = -0.08077 0.30162
# Poissons Ratio (z) = 0.39236 0.34945
#
# Static dielectric constant tensor:
#      x y z
#    x 1.800590 0.000000 0.000000 
#    y 0.000000 1.721260 0.000000 
#    z 0.000000 0.000000 1.741250 
# 
# From -- ./inp_files/13281.got.cif
#   From: 2010.05.17/outbox.cif.g08.bks.cpg/sg50_7_cif.got.tgz:13281.got - 2010.06.03 11:33:33.
