data_PCOD9397125
_publ_section_title
;
Structure prediction by ZEFSAII (Michael W. Deem and Ramdas Pophale) SiO2 
 PCOD9397125
Probable space group: P B A N
;
_chemical_formula_sum "Si O2"
_cell_formula_units_Z 54
_cell_length_a 14.342894
_cell_length_b 12.331388
_cell_length_c 14.442579
_cell_angle_alpha 90.000000
_cell_angle_beta 90.000000
_cell_angle_gamma 90.000000
_cell_volume 2554.427043
_symmetry_space_group_name_H-M "P B A N"
_symmetry_group_IT_number 50
_space_group.IT_coordinate_system_code '2'
_symmetry_cell_setting 'orthorhombic'
loop_
_space_group_symop_operation_xyz
x,y,z
1/2-x,1/2-y,z
x,1/2-y,-z
1/2-x,y,-z
-x,-y,-z
1/2+x,1/2+y,-z
-x,1/2+y,z
1/2+x,-y,z
loop_
_atom_site_type_symbol
_atom_site_label
_atom_site_fract_x
_atom_site_fract_y
_atom_site_fract_z
Si Si1 0.609499 0.853491 0.320589
Si Si2 0.357181 0.440783 0.921218
Si Si3 0.820061 0.057027 0.891432
Si Si4 0.646752 0.469482 0.529633
Si Si5 0.750000 0.250000 0.000000
Si Si6 0.537640 0.637890 0.402188
Si Si7 0.250000 0.250000 0.827184
Si Si8 0.010083 0.520739 0.779916
O O1 0.651622 0.951420 0.381059
O O2 0.577983 0.758906 0.391612
O O3 0.681907 0.814205 0.242914
O O4 0.519983 0.902743 0.266499
O O5 0.285867 0.524715 0.872610
O O6 0.314932 0.325545 0.891453
O O7 0.455186 0.464544 0.874963
O O8 0.352298 0.469773 0.029759
O O9 0.885057 0.053545 0.804523
O O10 0.815230 0.173006 0.939302
O O11 0.750000 0.431403 0.500000
O O12 0.604365 0.551290 0.452605
O O13 0.565455 0.381333 0.552977
O O14 0.532074 0.599539 0.295819
#
# Coordination Sequence:
#
# PCOD9397125 Si02
#       8
#     8   8   8   8   2   8   4   8
#     4  11  22  37  64  94 127 163 214 266 328 391
#     4  10  22  39  61  87 130 156 217 266 319 376
#     4  10  22  41  58  86 122 172 208 268 320 385
#     4  10  22  40  65  92 126 171 211 265 330 388
#     4   8  20  40  60  78 120 170 226 252 316 394
#     4  10  22  38  61  96 129 162 214 269 320 391
#     4  12  20  39  63  98 120 168 214 276 325 387
#     4  11  22  39  62  89 126 164 208 264 328 381
#
# _framework density 21.139769000000001
#
# number of rings (size 3 to 8) (size 9 to 14) (size 15 to 20)
#    0.000    1.778    2.963    1.778    0.000    4.148 
#    0.000    0.000    0.000   24.889    0.000    0.000 
#    0.000    0.000    0.000    0.000    0.000    0.000 
#
# Total GULP energy -301309.788936 kJ/mol
# GULP energy per Si atom -5579.810906 kJ/mol
# Density = 2.109165 g / cm^3
# Si number density = 21.139769 Si / 1000 Ang^3
#
#
#
# Elastic Constant Matrix: (Units=GPa)
#
#
# Indices 1 2 3 4 5 6 
#
# 1 66.2599 -1.8645 1.5208 0.0000 0.0000 0.0000
# 2 -1.8645 57.8487 13.7399 0.0000 0.0000 0.0000
# 3 1.5208 13.7399 75.1402 0.0000 0.0000 0.0000
# 4 0.0000 0.0000 0.0000 23.2618 0.0000 0.0000
# 5 0.0000 0.0000 0.0000 0.0000 31.8933 0.0000
# 6 0.0000 0.0000 0.0000 0.0000 0.0000 20.5373
#
#
#
# Elastic Compliance Matrix: (Units=1/GPa)
#
#
# Indices 1 2 3 4 5 6 
#
# 1 0.015118 0.000585 -0.000413 0.000000 0.000000 0.000000
# 2 0.000585 0.018094 -0.003320 0.000000 0.000000 0.000000
# 3 -0.000413 -0.003320 0.013924 0.000000 0.000000 0.000000
# 4 0.000000 0.000000 0.000000 0.042989 0.000000 0.000000
# 5 0.000000 0.000000 0.000000 0.000000 0.031355 0.000000
# 6 0.000000 0.000000 0.000000 0.000000 0.000000 0.048692
#
#
# Mechanical properties :
#
#
# Convention : Reuss Voigt Hill
#
# Bulk Modulus (GPa) = 24.48593 25.11569 24.80081
# Shear Modulus (GPa) = 26.30459 27.52865 26.91662
#
# Velocity S-wave (km/s) = 3.53132 3.61254 3.57216
# Velocity P-wave (km/s) = 5.31366 5.41361 5.36387
#
# Compressibility (1/GPa) = 0.04083978
#
# Stress axis : x y z
#
# Youngs Moduli (GPa) = 66.14613 55.26699 71.81856
#
# Poissons Ratio (x) = -0.03235 0.02966
# Poissons Ratio (y) = -0.03872 0.23847
# Poissons Ratio (z) = 0.02732 0.18351
#
# Static dielectric constant tensor:
#      x y z
#    x 1.750080 0.000000 0.000000 
#    y 0.000000 1.816120 0.000000 
#    z 0.000000 0.000000 1.787170 
# 
# From -- ./inp_files/26526.got.cif
#   From: 2010.05.17/outbox.cif.g08.bks.cpg/sg50_14_cif.got.tgz:26526.got - 2010.06.03 11:33:33.
