data_PCOD9397953
_publ_section_title
;
Structure prediction by ZEFSAII (Michael W. Deem and Ramdas Pophale) SiO2 
 PCOD9397953
Probable space group: P B A N
;
_chemical_formula_sum "Si O2"
_cell_formula_units_Z 64
_cell_length_a 8.466147
_cell_length_b 18.010161
_cell_length_c 17.612225
_cell_angle_alpha 90.000000
_cell_angle_beta 90.000000
_cell_angle_gamma 90.000000
_cell_volume 2685.453428
_symmetry_space_group_name_H-M "P B A N"
_symmetry_group_IT_number 50
_space_group.IT_coordinate_system_code '2'
_symmetry_cell_setting 'orthorhombic'
loop_
_space_group_symop_operation_xyz
x,y,z
1/2-x,1/2-y,z
x,1/2-y,-z
1/2-x,y,-z
-x,-y,-z
1/2+x,1/2+y,-z
-x,1/2+y,z
1/2+x,-y,z
loop_
_atom_site_type_symbol
_atom_site_label
_atom_site_fract_x
_atom_site_fract_y
_atom_site_fract_z
Si Si1 0.925252 0.179638 0.667504
Si Si2 0.706576 0.606420 0.079993
Si Si3 0.265267 0.669720 0.820927
Si Si4 0.833664 0.090553 0.423439
Si Si5 0.864658 0.456314 0.071055
Si Si6 0.670046 0.908178 0.755852
Si Si7 0.527428 0.440207 0.262671
Si Si8 0.923685 0.790387 0.573121
O O1 0.839817 0.181261 0.746924
O O2 0.805307 0.146916 0.605259
O O3 0.078556 0.130285 0.686355
O O4 0.984334 0.260672 0.645552
O O5 0.834658 0.541252 0.095024
O O6 0.545267 0.564138 0.057568
O O7 0.682001 0.639116 0.164959
O O8 0.750000 0.647123 0.000000
O O9 0.250000 0.750000 0.861181
O O10 0.192853 0.603641 0.868776
O O11 0.421453 0.631597 0.786448
O O12 0.750000 0.057163 0.500000
O O13 0.878163 0.051941 0.343038
O O14 0.007831 0.127184 0.440315
O O15 0.750000 0.443567 0.000000
O O16 0.841981 0.931394 0.727251
O O17 0.573416 0.982645 0.777493
O O18 0.750000 0.750000 0.578846
O O19 0.992892 0.750000 0.500000
#
# Coordination Sequence:
#
# PCOD9397953 Si02
#       8
#     8   8   8   8   8   8   8   8
#     4  11  22  39  63  94 128 165 220 273 327 394
#     4  11  22  38  67 101 127 168 216 281 337 400
#     4  11  23  40  62  93 128 177 222 266 331 400
#     4  11  22  41  64  93 128 177 222 272 327 393
#     4  11  22  38  64  98 130 166 221 276 335 405
#     4  12  23  43  69 100 134 169 222 282 348 405
#     4  11  24  41  66  95 131 174 217 280 340 404
#     4  11  22  38  65  96 129 168 222 278 324 381
#
# _framework density 23.832101999999999
#
# number of rings (size 3 to 8) (size 9 to 14) (size 15 to 20)
#    0.000    0.875    3.750    6.375    1.750    0.250 
#    0.000    2.500    0.000    0.000    0.000    0.000 
#    0.000    0.000    0.000    0.000    0.000    0.000 
#
# Total GULP energy -356560.806926 kJ/mol
# GULP energy per Si atom -5571.262608 kJ/mol
# Density = 2.377786 g / cm^3
# Si number density = 23.832102 Si / 1000 Ang^3
#
#
#
# Elastic Constant Matrix: (Units=GPa)
#
#
# Indices 1 2 3 4 5 6 
#
# 1 139.9990 8.9978 14.5773 0.0000 0.0000 0.0000
# 2 8.9978 50.9973 5.4985 0.0000 0.0000 0.0000
# 3 14.5773 5.4985 83.5239 0.0000 0.0000 0.0000
# 4 0.0000 0.0000 0.0000 -76.4671 0.0000 0.0000
# 5 0.0000 0.0000 0.0000 0.0000 37.5666 0.0000
# 6 0.0000 0.0000 0.0000 0.0000 0.0000 23.9336
#
#
#
# Elastic Compliance Matrix: (Units=1/GPa)
#
#
# Indices 1 2 3 4 5 6 
#
# 1 0.007343 -0.001166 -0.001205 0.000000 0.000000 0.000000
# 2 -0.001166 0.019934 -0.001109 0.000000 0.000000 0.000000
# 3 -0.001205 -0.001109 0.012256 0.000000 0.000000 0.000000
# 4 0.000000 0.000000 0.000000 -0.013078 0.000000 0.000000
# 5 0.000000 0.000000 0.000000 0.000000 0.026619 0.000000
# 6 0.000000 0.000000 0.000000 0.000000 0.000000 0.041782
#
#
# Mechanical properties :
#
#
# Convention : Reuss Voigt Hill
#
# Bulk Modulus (GPa) = 30.69893 36.96305 33.83099
# Shear Modulus (GPa) = 44.37564 13.36974 28.87269
#
# Velocity S-wave (km/s) = 4.31978 2.37111 3.48444
# Velocity P-wave (km/s) = 6.14736 4.79996 5.51496
#
# Compressibility (1/GPa) = 0.03257442
#
# Stress axis : x y z
#
# Youngs Moduli (GPa) = 136.17886 50.16531 81.59338
#
# Poissons Ratio (x) = 0.05848 0.09831
# Poissons Ratio (y) = 0.15875 0.09047
# Poissons Ratio (z) = 0.16408 0.05563
#
# Static dielectric constant tensor:
#      x y z
#    x 2.035950 0.000000 0.000000 
#    y 0.000000 2.026380 0.000000 
#    z 0.000000 0.000000 1.998800 
# 
# From -- ./inp_files/28954.got.cif
#   From: 2010.05.17/outbox.cif.g08.bks.cpg/sg50_15_cif.got.tgz:28954.got - 2010.06.03 11:33:33.
