data_PCOD9397279
_publ_section_title
;
Structure prediction by ZEFSAII (Michael W. Deem and Ramdas Pophale) SiO2 
 PCOD9397279
Probable space group: P B A N
;
_chemical_formula_sum "Si O2"
_cell_formula_units_Z 58
_cell_length_a 16.037838
_cell_length_b 8.605328
_cell_length_c 18.992425
_cell_angle_alpha 90.000000
_cell_angle_beta 90.000000
_cell_angle_gamma 90.000000
_cell_volume 2621.160839
_symmetry_space_group_name_H-M "P B A N"
_symmetry_group_IT_number 50
_space_group.IT_coordinate_system_code '2'
_symmetry_cell_setting 'orthorhombic'
loop_
_space_group_symop_operation_xyz
x,y,z
1/2-x,1/2-y,z
x,1/2-y,-z
1/2-x,y,-z
-x,-y,-z
1/2+x,1/2+y,-z
-x,1/2+y,z
1/2+x,-y,z
loop_
_atom_site_type_symbol
_atom_site_label
_atom_site_fract_x
_atom_site_fract_y
_atom_site_fract_z
Si Si1 0.350073 0.429732 0.505099
Si Si2 0.426523 0.927086 0.352424
Si Si3 0.885301 0.417369 0.090968
Si Si4 0.750000 0.250000 0.000000
Si Si5 0.217075 0.574122 0.772841
Si Si6 0.111722 0.446470 0.204931
Si Si7 0.017265 0.183107 0.128146
Si Si8 0.107369 0.939400 0.355740
O O1 0.380104 0.250000 0.500000
O O2 0.250000 0.425924 0.500000
O O3 0.388657 0.507900 0.574718
O O4 0.373988 0.528483 0.436891
O O5 0.409367 0.743936 0.345171
O O6 0.387367 0.021398 0.287937
O O7 0.524186 0.961875 0.343530
O O8 0.808035 0.358169 0.047292
O O9 0.859675 0.417415 0.173341
O O10 0.922157 0.585729 0.078227
O O11 0.960353 0.297966 0.083980
O O12 0.250000 0.750000 0.762832
O O13 0.291061 0.478738 0.811200
O O14 0.181167 0.515501 0.698297
O O15 0.074129 0.282291 0.181831
O O16 0.048424 0.570646 0.168817
#
# Coordination Sequence:
#
# PCOD9397279 Si02
#       8
#     8   8   8   2   8   8   8   8
#     4  11  26  44  61  87 126 169 224 287 349 414
#     4  12  23  40  63  92 126 171 224 276 348 416
#     4  11  23  43  70 102 141 185 232 282 351 416
#     4  12  24  44  76 102 148 198 228 292 356 416
#     4  12  22  41  67 102 133 172 226 287 349 421
#     4  11  21  39  67  99 135 175 223 283 348 407
#     4  10  22  41  68 103 140 181 231 287 341 424
#     4  12  25  41  67  92 128 172 224 283 343 417
#
# _framework density 22.127600999999999
#
# number of rings (size 3 to 8) (size 9 to 14) (size 15 to 20)
#    0.000    0.690    3.448    4.966    0.000    2.759 
#    0.000    0.000    0.000    7.448    0.000    0.000 
#    0.000    0.000    0.000    0.000    0.000    0.000 
#
# Total GULP energy -324455.198679 kJ/mol
# GULP energy per Si atom -5594.055150 kJ/mol
# Density = 2.207724 g / cm^3
# Si number density = 22.127601 Si / 1000 Ang^3
#
#
#
# Elastic Constant Matrix: (Units=GPa)
#
#
# Indices 1 2 3 4 5 6 
#
# 1 109.6316 59.1910 14.3997 0.0000 0.0000 0.0000
# 2 59.1910 110.3028 33.5577 0.0000 0.0000 0.0000
# 3 14.3997 33.5577 67.3233 0.0000 0.0000 0.0000
# 4 0.0000 0.0000 0.0000 -18.4018 0.0000 0.0000
# 5 0.0000 0.0000 0.0000 0.0000 -210.7094 0.0000
# 6 0.0000 0.0000 0.0000 0.0000 0.0000 -13.5614
#
#
#
# Elastic Compliance Matrix: (Units=1/GPa)
#
#
# Indices 1 2 3 4 5 6 
#
# 1 0.012880 -0.007159 0.000814 0.000000 0.000000 0.000000
# 2 -0.007159 0.014666 -0.005779 0.000000 0.000000 0.000000
# 3 0.000814 -0.005779 0.017560 0.000000 0.000000 0.000000
# 4 0.000000 0.000000 0.000000 -0.054342 0.000000 0.000000
# 5 0.000000 0.000000 0.000000 0.000000 -0.004746 0.000000
# 6 0.000000 0.000000 0.000000 0.000000 0.000000 -0.073739
#
#
# Mechanical properties :
#
#
# Convention : Reuss Voigt Hill
#
# Bulk Modulus (GPa) = 47.94564 55.72828 51.83696
# Shear Modulus (GPa) = -88.46505 -36.52725 -62.49615
#
# Velocity S-wave (km/s) = -6.32979 -4.06736 -5.32023
# Velocity P-wave (km/s) = 5.63089 1.78376 3.77658
#
# Compressibility (1/GPa) = 0.02085695
#
# Stress axis : x y z
#
# Youngs Moduli (GPa) = 77.64035 68.18530 56.94674
#
# Poissons Ratio (x) = 0.48815 -0.04634
# Poissons Ratio (y) = 0.55584 0.32910
# Poissons Ratio (z) = -0.06317 0.39405
#
# Static dielectric constant tensor:
#      x y z
#    x 2.121080 0.000000 0.000000 
#    y 0.000000 1.824170 0.000000 
#    z 0.000000 0.000000 1.819120 
# 
# From -- ./inp_files/29711.got.cif
#   From: 2010.05.17/outbox.cif.g08.bks.cpg/sg50_15_cif.got.tgz:29711.got - 2010.06.03 11:33:33.
