data_PCOD9397345
_publ_section_title
;
Structure prediction by ZEFSAII (Michael W. Deem and Ramdas Pophale) SiO2 
 PCOD9397345
Probable space group: P B A N
;
_chemical_formula_sum "Si O2"
_cell_formula_units_Z 48
_cell_length_a 29.864866
_cell_length_b 8.491381
_cell_length_c 9.446470
_cell_angle_alpha 90.000000
_cell_angle_beta 90.000000
_cell_angle_gamma 90.000000
_cell_volume 2395.567695
_symmetry_space_group_name_H-M "P B A N"
_symmetry_group_IT_number 50
_space_group.IT_coordinate_system_code '2'
_symmetry_cell_setting 'orthorhombic'
loop_
_space_group_symop_operation_xyz
x,y,z
1/2-x,1/2-y,z
x,1/2-y,-z
1/2-x,y,-z
-x,-y,-z
1/2+x,1/2+y,-z
-x,1/2+y,z
1/2+x,-y,z
loop_
_atom_site_type_symbol
_atom_site_label
_atom_site_fract_x
_atom_site_fract_y
_atom_site_fract_z
Si Si1 0.698541 0.805125 0.652103
Si Si2 0.567280 0.633431 0.375797
Si Si3 0.993591 0.866254 0.114840
Si Si4 0.857305 0.110654 0.391670
Si Si5 0.403302 0.684339 0.152082
Si Si6 0.128026 0.325001 0.844969
O O1 0.750000 0.750000 0.651472
O O2 0.679584 0.750000 0.500000
O O3 0.676591 0.708809 0.779628
O O4 0.682400 0.988844 0.652883
O O5 0.550705 0.750000 0.500000
O O6 0.530001 0.581204 0.260715
O O7 0.599852 0.498161 0.439282
O O8 0.597776 0.732884 0.268110
O O9 0.042653 0.806218 0.161523
O O10 0.969672 0.750000 0.000000
O O11 0.000000 0.000000 0.000000
O O12 0.843888 0.250000 0.500000
O O13 0.878102 0.205699 0.261645
O O14 0.387318 0.504732 0.159394
O O15 0.391369 0.750000 0.000000
O O16 0.126369 0.250000 0.000000
#
# Coordination Sequence:
#
# PCOD9397345 Si02
#       6
#     8   8   8   8   8   8
#     4  10  22  43  67  91 120 159 202 248 315 401
#     4  11  22  38  60  87 122 170 218 260 313 380
#     4  11  22  38  58  84 122 170 224 268 315 372
#     4  11  22  39  62  91 124 158 204 264 317 371
#     4  11  22  37  58  88 122 162 212 268 315 359
#     4  11  21  39  64  88 121 165 205 248 311 388
#
# _framework density 20.037005000000001
#
# number of rings (size 3 to 8) (size 9 to 14) (size 15 to 20)
#    0.000    1.167    0.000   10.500    0.000    1.000 
#    0.000   10.833    0.000    2.000    0.000    0.000 
#    0.000    0.000    0.000    0.000    0.000    0.000 
#
# Total GULP energy -267440.577367 kJ/mol
# GULP energy per Si atom -5571.678695 kJ/mol
# Density = 1.999140 g / cm^3
# Si number density = 20.037005 Si / 1000 Ang^3
#
#
#
# Elastic Constant Matrix: (Units=GPa)
#
#
# Indices 1 2 3 4 5 6 
#
# 1 94.9733 40.5537 48.2987 0.0000 0.0000 0.0000
# 2 40.5537 98.7489 13.4011 0.0000 0.0000 0.0000
# 3 48.2987 13.4011 88.4058 0.0000 0.0000 0.0000
# 4 0.0000 0.0000 0.0000 46.6465 0.0000 0.0000
# 5 0.0000 0.0000 0.0000 0.0000 16.9228 0.0000
# 6 0.0000 0.0000 0.0000 0.0000 0.0000 15.5191
#
#
#
# Elastic Compliance Matrix: (Units=1/GPa)
#
#
# Indices 1 2 3 4 5 6 
#
# 1 0.017492 -0.006010 -0.008646 0.000000 0.000000 0.000000
# 2 -0.006010 0.012405 0.001403 0.000000 0.000000 0.000000
# 3 -0.008646 0.001403 0.015822 0.000000 0.000000 0.000000
# 4 0.000000 0.000000 0.000000 0.021438 0.000000 0.000000
# 5 0.000000 0.000000 0.000000 0.000000 0.059092 0.000000
# 6 0.000000 0.000000 0.000000 0.000000 0.000000 0.064437
#
#
# Mechanical properties :
#
#
# Convention : Reuss Voigt Hill
#
# Bulk Modulus (GPa) = 52.04597 54.07055 53.05826
# Shear Modulus (GPa) = 22.36185 27.80933 25.08559
#
# Velocity S-wave (km/s) = 3.34432 3.72949 3.54215
# Velocity P-wave (km/s) = 6.39875 6.75199 6.57774
#
# Compressibility (1/GPa) = 0.01921378
#
# Stress axis : x y z
#
# Youngs Moduli (GPa) = 57.16763 80.61534 63.20286
#
# Poissons Ratio (x) = 0.48453 0.54642
# Poissons Ratio (y) = 0.34360 -0.08869
# Poissons Ratio (z) = 0.49424 -0.11313
#
# Static dielectric constant tensor:
#      x y z
#    x 1.818050 0.000000 0.000000 
#    y 0.000000 1.976000 0.000000 
#    z 0.000000 0.000000 1.711670 
# 
# From -- ./inp_files/10063.got.cif
#   From: 2010.05.17/outbox.cif.g08.bks.cpg/sg50_6_cif.got.tgz:10063.got - 2010.06.03 11:33:33.
