data_PCOD9397565
_publ_section_title
;
Structure prediction by ZEFSAII (Michael W. Deem and Ramdas Pophale) SiO2 
 PCOD9397565
Probable space group: P B A N
;
_chemical_formula_sum "Si O2"
_cell_formula_units_Z 26
_cell_length_a 11.148651
_cell_length_b 9.896680
_cell_length_c 10.654252
_cell_angle_alpha 90.000000
_cell_angle_beta 90.000000
_cell_angle_gamma 90.000000
_cell_volume 1175.532967
_symmetry_space_group_name_H-M "P B A N"
_symmetry_group_IT_number 50
_space_group.IT_coordinate_system_code '2'
_symmetry_cell_setting 'orthorhombic'
loop_
_space_group_symop_operation_xyz
x,y,z
1/2-x,1/2-y,z
x,1/2-y,-z
1/2-x,y,-z
-x,-y,-z
1/2+x,1/2+y,-z
-x,1/2+y,z
1/2+x,-y,z
loop_
_atom_site_type_symbol
_atom_site_label
_atom_site_fract_x
_atom_site_fract_y
_atom_site_fract_z
Si Si1 0.377819 0.045621 0.570723
Si Si2 0.250000 0.750000 0.000000
Si Si3 0.915679 0.062517 0.831900
Si Si4 0.387915 0.228707 0.792505
O O1 0.250000 0.049207 0.500000
O O2 0.400597 0.186788 0.645401
O O3 0.500000 0.000000 0.500000
O O4 0.362079 0.946514 0.690827
O O5 0.169310 0.848811 0.083194
O O6 0.040703 0.138157 0.822022
O O7 0.931400 0.904968 0.866358
O O8 0.250000 0.250000 0.819948
#
# Coordination Sequence:
#
# PCOD9397565 Si02
#       4
#     8   2   8   8
#     4  10  23  43  73 110 154 193 243 316 385 463
#     4  12  28  52  70 104 156 192 270 304 364 464
#     4  10  27  45  76 101 148 199 250 305 379 442
#     4  10  24  48  71 109 148 190 250 300 390 447
#
# _framework density 22.117626999999999
#
# number of rings (size 3 to 8) (size 9 to 14) (size 15 to 20)
#    1.846    0.000    0.000    1.846    8.615    5.538 
#    0.000    0.000    0.000    0.000    0.000    0.000 
#    0.000    0.000    0.000    0.000    0.000    0.000 
#
# Total GULP energy -145150.326832 kJ/mol
# GULP energy per Si atom -5582.704878 kJ/mol
# Density = 2.206729 g / cm^3
# Si number density = 22.117627 Si / 1000 Ang^3
#
#
#
# Elastic Constant Matrix: (Units=GPa)
#
#
# Indices 1 2 3 4 5 6 
#
# 1 127.5064 47.9434 27.9880 0.0000 0.0000 0.0000
# 2 47.9434 124.7869 9.1116 0.0000 0.0000 0.0000
# 3 27.9880 9.1116 89.3516 0.0000 0.0000 0.0000
# 4 0.0000 0.0000 0.0000 28.3610 0.0000 0.0000
# 5 0.0000 0.0000 0.0000 0.0000 -3.1652 0.0000
# 6 0.0000 0.0000 0.0000 0.0000 0.0000 34.6748
#
#
#
# Elastic Compliance Matrix: (Units=1/GPa)
#
#
# Indices 1 2 3 4 5 6 
#
# 1 0.009773 -0.003558 -0.002698 0.000000 0.000000 0.000000
# 2 -0.003558 0.009369 0.000159 0.000000 0.000000 0.000000
# 3 -0.002698 0.000159 0.012021 0.000000 0.000000 0.000000
# 4 0.000000 0.000000 0.000000 0.035260 0.000000 0.000000
# 5 0.000000 0.000000 0.000000 0.000000 -0.315939 0.000000
# 6 0.000000 0.000000 0.000000 0.000000 0.000000 0.028839
#
#
# Mechanical properties :
#
#
# Convention : Reuss Voigt Hill
#
# Bulk Modulus (GPa) = 52.71949 56.85898 54.78924
# Shear Modulus (GPa) = -24.73277 29.08093 2.17408
#
# Velocity S-wave (km/s) = -3.34763 3.62999 0.99252
# Velocity P-wave (km/s) = 2.99090 6.58274 5.11263
#
# Compressibility (1/GPa) = 0.01896832
#
# Stress axis : x y z
#
# Youngs Moduli (GPa) = 102.32521 106.73581 83.18949
#
# Poissons Ratio (x) = 0.37973 0.22448
# Poissons Ratio (y) = 0.36404 -0.01323
# Poissons Ratio (z) = 0.27611 -0.01697
#
# Static dielectric constant tensor:
#      x y z
#    x 1.787500 0.000000 0.000000 
#    y 0.000000 1.810270 0.000000 
#    z 0.000000 0.000000 1.910820 
# 
# From -- ./inp_files/19640.got.cif
#   From: 2010.05.17/outbox.cif.g08.bks.cpg/sg50_10_cif.got.tgz:19640.got - 2010.06.03 11:33:33.
