data_PCOD9397477
_publ_section_title
;
Structure prediction by ZEFSAII (Michael W. Deem and Ramdas Pophale) SiO2 
 PCOD9397477
Probable space group: P B A N
;
_chemical_formula_sum "Si O2"
_cell_formula_units_Z 32
_cell_length_a 29.132449
_cell_length_b 5.551567
_cell_length_c 9.031845
_cell_angle_alpha 90.000000
_cell_angle_beta 90.000000
_cell_angle_gamma 90.000000
_cell_volume 1460.726998
_symmetry_space_group_name_H-M "P B A N"
_symmetry_group_IT_number 50
_space_group.IT_coordinate_system_code '2'
_symmetry_cell_setting 'orthorhombic'
loop_
_space_group_symop_operation_xyz
x,y,z
1/2-x,1/2-y,z
x,1/2-y,-z
1/2-x,y,-z
-x,-y,-z
1/2+x,1/2+y,-z
-x,1/2+y,z
1/2+x,-y,z
loop_
_atom_site_type_symbol
_atom_site_label
_atom_site_fract_x
_atom_site_fract_y
_atom_site_fract_z
Si Si1 0.670591 0.250000 0.000000
Si Si2 0.624523 0.937325 0.248546
Si Si3 0.707112 0.928198 0.749047
Si Si4 0.670103 0.250000 0.500000
Si Si5 0.524558 0.741471 0.679395
O O1 0.637886 0.408390 0.895096
O O2 0.702711 0.092692 0.893334
O O3 0.660744 0.723790 0.250951
O O4 0.573967 0.830588 0.256757
O O5 0.637215 0.097635 0.391906
O O6 0.750000 0.750000 0.749831
O O7 0.702464 0.088857 0.603292
O O8 0.527658 0.750000 0.500000
O O9 0.492205 0.511546 0.721273
#
# Coordination Sequence:
#
# PCOD9397477 Si02
#       5
#     4   8   8   4   8
#     4  10  26  45  70  94 138 188 238 280 353 426
#     4  11  24  43  69 101 140 181 234 291 351 422
#     4  11  25  45  70 100 137 183 232 286 353 422
#     4  10  24  41  70 102 136 174 228 292 355 408
#     4  10  23  40  70 105 142 186 237 299 371 431
#
# _framework density 21.906901000000001
#
# number of rings (size 3 to 8) (size 9 to 14) (size 15 to 20)
#    0.000    1.500    0.000    3.000   12.250   10.000 
#    0.000    5.000    0.000    0.000    0.000    0.000 
#    0.000    0.000    0.000    0.000    0.000    0.000 
#
# Total GULP energy -179177.258596 kJ/mol
# GULP energy per Si atom -5599.289331 kJ/mol
# Density = 2.185704 g / cm^3
# Si number density = 21.906901 Si / 1000 Ang^3
#
#
#
# Elastic Constant Matrix: (Units=GPa)
#
#
# Indices 1 2 3 4 5 6 
#
# 1 173.5680 84.9331 60.7026 0.0000 0.0000 0.0000
# 2 84.9331 156.8527 82.4127 0.0000 0.0000 0.0000
# 3 60.7026 82.4127 137.7580 0.0000 0.0000 0.0000
# 4 0.0000 0.0000 0.0000 -216.6755 0.0000 0.0000
# 5 0.0000 0.0000 0.0000 0.0000 34.0395 0.0000
# 6 0.0000 0.0000 0.0000 0.0000 0.0000 42.7054
#
#
#
# Elastic Compliance Matrix: (Units=1/GPa)
#
#
# Indices 1 2 3 4 5 6 
#
# 1 0.008010 -0.003621 -0.001363 0.000000 0.000000 0.000000
# 2 -0.003621 0.010935 -0.004946 0.000000 0.000000 0.000000
# 3 -0.001363 -0.004946 0.010819 0.000000 0.000000 0.000000
# 4 0.000000 0.000000 0.000000 -0.004615 0.000000 0.000000
# 5 0.000000 0.000000 0.000000 0.000000 0.029378 0.000000
# 6 0.000000 0.000000 0.000000 0.000000 0.000000 0.023416
#
#
# Mechanical properties :
#
#
# Convention : Reuss Voigt Hill
#
# Bulk Modulus (GPa) = 100.98130 102.69729 101.83929
# Shear Modulus (GPa) = 49.45371 -11.97743 18.73814
#
# Velocity S-wave (km/s) = 4.75642 -2.34079 2.92782
# Velocity P-wave (km/s) = 8.73844 6.29881 7.61694
#
# Compressibility (1/GPa) = 0.00990282
#
# Stress axis : x y z
#
# Youngs Moduli (GPa) = 124.84163 91.45026 92.43103
#
# Poissons Ratio (x) = 0.33114 0.12602
# Poissons Ratio (y) = 0.45205 0.45718
# Poissons Ratio (z) = 0.17021 0.45233
#
# Static dielectric constant tensor:
#      x y z
#    x 1.747510 0.000000 0.000000 
#    y 0.000000 2.429520 0.000000 
#    z 0.000000 0.000000 1.711790 
# 
# From -- ./inp_files/8014.got.cif
#   From: 2010.05.17/outbox.cif.g08.bks.cpg/sg50_5_cif.got.tgz:8014.got - 2010.06.03 11:33:33.
