data_PCOD9397193
_publ_section_title
;
Structure prediction by ZEFSAII (Michael W. Deem and Ramdas Pophale) SiO2 
 PCOD9397193
Probable space group: P B A N
;
_chemical_formula_sum "Si O2"
_cell_formula_units_Z 48
_cell_length_a 20.276911
_cell_length_b 22.229305
_cell_length_c 5.336905
_cell_angle_alpha 90.000000
_cell_angle_beta 90.000000
_cell_angle_gamma 90.000000
_cell_volume 2405.565307
_symmetry_space_group_name_H-M "P B A N"
_symmetry_group_IT_number 50
_space_group.IT_coordinate_system_code '2'
_symmetry_cell_setting 'orthorhombic'
loop_
_space_group_symop_operation_xyz
x,y,z
1/2-x,1/2-y,z
x,1/2-y,-z
1/2-x,y,-z
-x,-y,-z
1/2+x,1/2+y,-z
-x,1/2+y,z
1/2+x,-y,z
loop_
_atom_site_type_symbol
_atom_site_label
_atom_site_fract_x
_atom_site_fract_y
_atom_site_fract_z
Si Si1 0.522626 0.633070 0.750636
Si Si2 0.396502 0.029541 0.520750
Si Si3 0.073086 0.543055 0.034443
Si Si4 0.750000 0.010873 0.500000
Si Si5 0.808002 0.391308 0.128108
Si Si6 0.912307 0.311634 0.395905
Si Si7 0.010063 0.250000 0.000000
O O1 0.574549 0.594706 0.590575
O O2 0.489618 0.587215 0.951483
O O3 0.460189 0.653483 0.584627
O O4 0.548709 0.696259 0.861538
O O5 0.429327 0.000934 0.273204
O O6 0.317587 0.027059 0.470304
O O7 0.414982 0.988931 0.766141
O O8 0.139308 0.582167 0.066940
O O9 0.729679 0.055124 0.272673
O O10 0.854133 0.353994 0.309798
O O11 0.750000 0.354108 0.000000
O O12 0.883077 0.250000 0.500000
O O13 0.961595 0.287136 0.181788
#
# Coordination Sequence:
#
# PCOD9397193 Si02
#       7
#     8   8   8   4   8   8   4
#     4  11  22  39  62  91 124 164 210 277 317 384
#     4  11  24  37  65  95 132 161 209 256 333 393
#     4  11  22  38  62  94 123 166 209 262 322 384
#     4  10  22  40  57  96 125 170 200 258 332 402
#     4  11  21  38  63  79 127 171 213 264 320 385
#     4  10  23  40  61  85 120 168 224 267 308 365
#     4  10  22  40  61  86 121 162 216 270 318 362
#
# _framework density 19.953731000000001
#
# number of rings (size 3 to 8) (size 9 to 14) (size 15 to 20)
#    0.000    1.333    3.333    3.000    2.333    0.000 
#    0.000    2.500    0.000    0.000    0.000    6.417 
#    0.000    0.000    0.000    0.000    0.000    0.000 
#
# Total GULP energy -267886.637648 kJ/mol
# GULP energy per Si atom -5580.971618 kJ/mol
# Density = 1.990832 g / cm^3
# Si number density = 19.953731 Si / 1000 Ang^3
#
#
#
# Elastic Constant Matrix: (Units=GPa)
#
#
# Indices 1 2 3 4 5 6 
#
# 1 100.1342 71.2531 16.5517 0.0000 0.0000 0.0000
# 2 71.2531 132.5873 50.3731 0.0000 0.0000 0.0000
# 3 16.5517 50.3731 89.1910 0.0000 0.0000 0.0000
# 4 0.0000 0.0000 0.0000 41.6157 0.0000 0.0000
# 5 0.0000 0.0000 0.0000 0.0000 27.7341 0.0000
# 6 0.0000 0.0000 0.0000 0.0000 0.0000 -4.2636
#
#
#
# Elastic Compliance Matrix: (Units=1/GPa)
#
#
# Indices 1 2 3 4 5 6 
#
# 1 0.016594 -0.009864 0.002492 0.000000 0.000000 0.000000
# 2 -0.009864 0.015467 -0.006905 0.000000 0.000000 0.000000
# 3 0.002492 -0.006905 0.014649 0.000000 0.000000 0.000000
# 4 0.000000 0.000000 0.000000 0.024029 0.000000 0.000000
# 5 0.000000 0.000000 0.000000 0.000000 0.036057 0.000000
# 6 0.000000 0.000000 0.000000 0.000000 0.000000 -0.234544
#
#
# Mechanical properties :
#
#
# Convention : Reuss Voigt Hill
#
# Bulk Modulus (GPa) = 55.08076 66.47427 60.77751
# Shear Modulus (GPa) = -53.68148 25.26622 -14.20763
#
# Velocity S-wave (km/s) = -5.19244 3.56229 -2.67128
# Velocity P-wave (km/s) = 2.87825 7.09270 4.58378
#
# Compressibility (1/GPa) = 0.01815516
#
# Stress axis : x y z
#
# Youngs Moduli (GPa) = 60.26284 64.65555 68.26382
#
# Poissons Ratio (x) = 0.63779 -0.17010
# Poissons Ratio (y) = 0.59445 0.47133
# Poissons Ratio (z) = -0.15016 0.44642
#
# Static dielectric constant tensor:
#      x y z
#    x 1.719440 0.000000 0.000000 
#    y 0.000000 1.773440 0.000000 
#    z 0.000000 0.000000 1.811720 
# 
# From -- ./inp_files/5312.got.cif
#   From: 2010.05.17/outbox.cif.g08.bks.cpg/sg50_3_cif.got.tgz:5312.got - 2010.06.03 11:33:33.
