data_PCOD9397885
_publ_section_title
;
Structure prediction by ZEFSAII (Michael W. Deem and Ramdas Pophale) SiO2 
 PCOD9397885
Probable space group: P B A N
;
_chemical_formula_sum "Si O2"
_cell_formula_units_Z 26
_cell_length_a 15.794141
_cell_length_b 8.765750
_cell_length_c 7.794700
_cell_angle_alpha 90.000000
_cell_angle_beta 90.000000
_cell_angle_gamma 90.000000
_cell_volume 1079.156662
_symmetry_space_group_name_H-M "P B A N"
_symmetry_group_IT_number 50
_space_group.IT_coordinate_system_code '2'
_symmetry_cell_setting 'orthorhombic'
loop_
_space_group_symop_operation_xyz
x,y,z
1/2-x,1/2-y,z
x,1/2-y,-z
1/2-x,y,-z
-x,-y,-z
1/2+x,1/2+y,-z
-x,1/2+y,z
1/2+x,-y,z
loop_
_atom_site_type_symbol
_atom_site_label
_atom_site_fract_x
_atom_site_fract_y
_atom_site_fract_z
Si Si1 0.123076 0.175266 0.737536
Si Si2 0.049085 0.872223 0.118785
Si Si3 0.659177 0.504786 0.573978
Si Si4 0.750000 0.750000 0.000000
O O1 0.110250 0.039124 0.603215
O O2 0.165402 0.325273 0.654998
O O3 0.186227 0.142429 0.893537
O O4 0.030614 0.216912 0.799975
O O5 0.109217 0.919391 0.276601
O O6 0.095880 0.750000 0.000000
O O7 0.000000 0.000000 0.000000
O O8 0.750000 0.450995 0.500000
#
# Coordination Sequence:
#
# PCOD9397885 Si02
#       4
#     8   8   8   2
#     4  11  21  38  69 110 150 200 275 331 383 480
#     4  12  24  43  71 115 157 206 267 333 401 489
#     4  11  22  42  69 112 154 206 270 334 401 470
#     4  12  16  34  64 108 154 194 274 332 380 456
#
# _framework density 24.092887999999999
#
# number of rings (size 3 to 8) (size 9 to 14) (size 15 to 20)
#    0.000    0.615    7.692    1.846    0.000    0.000 
#    0.000    0.000    0.000    7.385    0.000    0.000 
#    0.000    0.000    0.000    0.000    0.000    0.000 
#
# Total GULP energy -144945.980136 kJ/mol
# GULP energy per Si atom -5574.845390 kJ/mol
# Density = 2.403805 g / cm^3
# Si number density = 24.092888 Si / 1000 Ang^3
#
#
#
# Elastic Constant Matrix: (Units=GPa)
#
#
# Indices 1 2 3 4 5 6 
#
# 1 135.7838 42.0261 84.8552 0.0000 0.0000 0.0000
# 2 42.0261 68.6104 64.1589 0.0000 0.0000 0.0000
# 3 84.8552 64.1589 180.1204 0.0000 0.0000 0.0000
# 4 0.0000 0.0000 0.0000 45.3767 0.0000 0.0000
# 5 0.0000 0.0000 0.0000 0.0000 58.3688 0.0000
# 6 0.0000 0.0000 0.0000 0.0000 0.0000 11.3466
#
#
#
# Elastic Compliance Matrix: (Units=1/GPa)
#
#
# Indices 1 2 3 4 5 6 
#
# 1 0.010780 -0.002780 -0.004088 0.000000 0.000000 0.000000
# 2 -0.002780 0.022572 -0.006730 0.000000 0.000000 0.000000
# 3 -0.004088 -0.006730 0.009875 0.000000 0.000000 0.000000
# 4 0.000000 0.000000 0.000000 0.022038 0.000000 0.000000
# 5 0.000000 0.000000 0.000000 0.000000 0.017132 0.000000
# 6 0.000000 0.000000 0.000000 0.000000 0.000000 0.088132
#
#
# Mechanical properties :
#
#
# Convention : Reuss Voigt Hill
#
# Bulk Modulus (GPa) = 62.38505 85.17721 73.78113
# Shear Modulus (GPa) = 24.62215 35.91672 30.26943
#
# Velocity S-wave (km/s) = 3.20029 3.86523 3.54837
# Velocity P-wave (km/s) = 6.29330 7.43978 6.89043
#
# Compressibility (1/GPa) = 0.01602948
#
# Stress axis : x y z
#
# Youngs Moduli (GPa) = 92.76493 44.30349 101.26460
#
# Poissons Ratio (x) = 0.12317 0.41399
# Poissons Ratio (y) = 0.25790 0.68154
# Poissons Ratio (z) = 0.37924 0.29818
#
# Static dielectric constant tensor:
#      x y z
#    x 1.955410 0.000000 0.000000 
#    y 0.000000 1.986160 0.000000 
#    z 0.000000 0.000000 2.385760 
# 
# From -- ./inp_files/13693.got.cif
#   From: 2010.05.17/outbox.cif.g08.bks.cpg/sg50_7_cif.got.tgz:13693.got - 2010.06.03 11:33:33.
