data_PCOD9397080
_publ_section_title
;
Structure prediction by ZEFSAII (Michael W. Deem and Ramdas Pophale) SiO2 
 PCOD9397080
Probable space group: P B A N
;
_chemical_formula_sum "Si O2"
_cell_formula_units_Z 48
_cell_length_a 14.055946
_cell_length_b 14.444910
_cell_length_c 12.196216
_cell_angle_alpha 90.000000
_cell_angle_beta 90.000000
_cell_angle_gamma 90.000000
_cell_volume 2476.281583
_symmetry_space_group_name_H-M "P B A N"
_symmetry_group_IT_number 50
_space_group.IT_coordinate_system_code '2'
_symmetry_cell_setting 'orthorhombic'
loop_
_space_group_symop_operation_xyz
x,y,z
1/2-x,1/2-y,z
x,1/2-y,-z
1/2-x,y,-z
-x,-y,-z
1/2+x,1/2+y,-z
-x,1/2+y,z
1/2+x,-y,z
loop_
_atom_site_type_symbol
_atom_site_label
_atom_site_fract_x
_atom_site_fract_y
_atom_site_fract_z
Si Si1 0.004643 0.149445 0.512318
Si Si2 0.542529 0.508621 0.664544
Si Si3 0.707357 0.648243 0.389155
Si Si4 0.290988 0.045560 0.818981
Si Si5 0.559148 0.641017 0.973951
Si Si6 0.593642 0.482843 0.145027
O O1 0.959153 0.250000 0.500000
O O2 0.042483 0.106820 0.398182
O O3 0.096236 0.160413 0.589674
O O4 0.945624 0.069383 0.572033
O O5 0.623234 0.495825 0.755341
O O6 0.443507 0.508705 0.730682
O O7 0.750000 0.750000 0.385475
O O8 0.750000 0.600984 0.500000
O O9 0.737428 0.601250 0.276890
O O10 0.346251 0.111904 0.904460
O O11 0.207894 0.980016 0.865574
O O12 0.466807 0.601412 0.908361
O O13 0.556010 0.750000 0.000000
O O14 0.564336 0.577009 0.081878
#
# Coordination Sequence:
#
# PCOD9397080 Si02
#       6
#     8   8   8   8   8   8
#     4  11  20  36  55  87 128 160 202 252 306 372
#     4  10  22  35  59  88 117 171 200 245 315 371
#     4  11  19  31  55  92 123 151 193 256 310 366
#     4  11  21  36  61  90 121 161 207 252 319 372
#     4  10  24  42  63  93 121 160 211 266 324 379
#     4  10  22  40  61  88 126 157 206 267 317 378
#
# _framework density 19.383903
#
# number of rings (size 3 to 8) (size 9 to 14) (size 15 to 20)
#    0.000    1.500    5.000    0.500    2.333    3.333 
#    0.000    0.000    0.000   28.000    0.000    0.000 
#    0.000    0.000    0.000    0.000    0.000    0.000 
#
# Total GULP energy -267537.693338 kJ/mol
# GULP energy per Si atom -5573.701945 kJ/mol
# Density = 1.933978 g / cm^3
# Si number density = 19.383903 Si / 1000 Ang^3
#
#
#
# Elastic Constant Matrix: (Units=GPa)
#
#
# Indices 1 2 3 4 5 6 
#
# 1 100.6945 37.5679 16.2722 0.0000 0.0000 0.0000
# 2 37.5679 99.1013 31.5507 0.0000 0.0000 0.0000
# 3 16.2722 31.5507 67.1245 0.0000 0.0000 0.0000
# 4 0.0000 0.0000 0.0000 18.4199 0.0000 0.0000
# 5 0.0000 0.0000 0.0000 0.0000 33.5033 0.0000
# 6 0.0000 0.0000 0.0000 0.0000 0.0000 17.9975
#
#
#
# Elastic Compliance Matrix: (Units=1/GPa)
#
#
# Indices 1 2 3 4 5 6 
#
# 1 0.011611 -0.004122 -0.000877 0.000000 0.000000 0.000000
# 2 -0.004122 0.013330 -0.005266 0.000000 0.000000 0.000000
# 3 -0.000877 -0.005266 0.017586 0.000000 0.000000 0.000000
# 4 0.000000 0.000000 0.000000 0.054289 0.000000 0.000000
# 5 0.000000 0.000000 0.000000 0.000000 0.029848 0.000000
# 6 0.000000 0.000000 0.000000 0.000000 0.000000 0.055563
#
#
# Mechanical properties :
#
#
# Convention : Reuss Voigt Hill
#
# Bulk Modulus (GPa) = 45.46431 48.63351 47.04891
# Shear Modulus (GPa) = 23.79942 26.08612 24.94277
#
# Velocity S-wave (km/s) = 3.50779 3.67244 3.59106
# Velocity P-wave (km/s) = 6.31757 6.56708 6.44353
#
# Compressibility (1/GPa) = 0.02199528
#
# Stress axis : x y z
#
# Youngs Moduli (GPa) = 86.12733 75.01901 56.86469
#
# Poissons Ratio (x) = 0.30925 0.04987
# Poissons Ratio (y) = 0.35504 0.29946
# Poissons Ratio (z) = 0.07554 0.39507
#
# Static dielectric constant tensor:
#      x y z
#    x 1.747460 0.000000 0.000000 
#    y 0.000000 1.666990 0.000000 
#    z 0.000000 0.000000 1.736910 
# 
# From -- ./inp_files/21054.got.cif
#   From: 2010.05.17/outbox.cif.g08.bks.cpg/sg50_11_cif.got.tgz:21054.got - 2010.06.03 11:33:33.
