data_PCOD9397266
_publ_section_title
;
Structure prediction by ZEFSAII (Michael W. Deem and Ramdas Pophale) SiO2 
 PCOD9397266
Probable space group: P B A N
;
_chemical_formula_sum "Si O2"
_cell_formula_units_Z 40
_cell_length_a 15.578073
_cell_length_b 15.165891
_cell_length_c 8.957027
_cell_angle_alpha 90.000000
_cell_angle_beta 90.000000
_cell_angle_gamma 90.000000
_cell_volume 2116.145613
_symmetry_space_group_name_H-M "P B A N"
_symmetry_group_IT_number 50
_space_group.IT_coordinate_system_code '2'
_symmetry_cell_setting 'orthorhombic'
loop_
_space_group_symop_operation_xyz
x,y,z
1/2-x,1/2-y,z
x,1/2-y,-z
1/2-x,y,-z
-x,-y,-z
1/2+x,1/2+y,-z
-x,1/2+y,z
1/2+x,-y,z
loop_
_atom_site_type_symbol
_atom_site_label
_atom_site_fract_x
_atom_site_fract_y
_atom_site_fract_z
Si Si1 0.007102 0.738241 0.321302
Si Si2 0.263210 0.500270 0.166727
Si Si3 0.431723 0.931675 0.683672
Si Si4 0.329244 0.299327 0.160887
Si Si5 0.911075 0.057231 0.325234
O O1 0.997727 0.750000 0.500000
O O2 0.036635 0.834631 0.271885
O O3 0.073613 0.659745 0.284836
O O4 0.916792 0.710701 0.250331
O O5 0.341316 0.550003 0.242539
O O6 0.297015 0.399573 0.150611
O O7 0.175610 0.514760 0.259930
O O8 0.250000 0.534300 0.000000
O O9 0.415609 0.942672 0.505735
O O10 0.506559 0.000447 0.726755
O O11 0.250000 0.250000 0.239428
O O12 0.340162 0.250000 0.000000
#
# Coordination Sequence:
#
# PCOD9397266 Si02
#       5
#     8   8   8   8   8
#     4  10  22  42  66  94 124 164 209 265 318 370
#     4  12  24  40  63  92 128 170 210 257 315 377
#     4  10  22  41  66  94 126 168 212 263 316 373
#     4  11  22  40  59  91 128 162 209 259 317 376
#     4  10  22  42  65  93 130 164 215 261 315 378
#
# _framework density 18.902290000000001
#
# number of rings (size 3 to 8) (size 9 to 14) (size 15 to 20)
#    0.000    1.400    4.000    1.800    0.000    3.600 
#    3.600    4.000    0.000    0.000    0.000    0.000 
#    0.000    0.000    0.000    0.000    0.000    0.000 
#
# Total GULP energy -223181.741094 kJ/mol
# GULP energy per Si atom -5579.543527 kJ/mol
# Density = 1.885927 g / cm^3
# Si number density = 18.902290 Si / 1000 Ang^3
#
#
#
# Elastic Constant Matrix: (Units=GPa)
#
#
# Indices 1 2 3 4 5 6 
#
# 1 140.4345 38.0577 36.0485 0.0000 0.0000 0.0000
# 2 38.0577 100.3522 26.1409 0.0000 0.0000 0.0000
# 3 36.0485 26.1409 22.7655 0.0000 0.0000 0.0000
# 4 0.0000 0.0000 0.0000 13.1032 0.0000 0.0000
# 5 0.0000 0.0000 0.0000 0.0000 -48.3214 0.0000
# 6 0.0000 0.0000 0.0000 0.0000 0.0000 35.7644
#
#
#
# Elastic Compliance Matrix: (Units=1/GPa)
#
#
# Indices 1 2 3 4 5 6 
#
# 1 0.012020 0.000570 -0.019688 0.000000 0.000000 0.000000
# 2 0.000570 0.014245 -0.017259 0.000000 0.000000 0.000000
# 3 -0.019688 -0.017259 0.094920 0.000000 0.000000 0.000000
# 4 0.000000 0.000000 0.000000 0.076318 0.000000 0.000000
# 5 0.000000 0.000000 0.000000 0.000000 -0.020695 0.000000
# 6 0.000000 0.000000 0.000000 0.000000 0.000000 0.027961
#
#
# Mechanical properties :
#
#
# Convention : Reuss Voigt Hill
#
# Bulk Modulus (GPa) = 20.64841 51.56073 36.10457
# Shear Modulus (GPa) = 17.02619 10.99623 14.01121
#
# Velocity S-wave (km/s) = 3.00450 2.41455 2.72553
# Velocity P-wave (km/s) = 4.79411 5.92538 5.38951
#
# Compressibility (1/GPa) = 0.04842987
#
# Stress axis : x y z
#
# Youngs Moduli (GPa) = 83.19460 70.20196 10.53524
#
# Poissons Ratio (x) = -0.04002 0.20742
# Poissons Ratio (y) = -0.04743 0.18183
# Poissons Ratio (z) = 1.63793 1.21164
#
# Static dielectric constant tensor:
#      x y z
#    x 1.614980 0.000000 0.000000 
#    y 0.000000 1.707930 0.000000 
#    z 0.000000 0.000000 1.665920 
# 
# From -- ./inp_files/12549.got.cif
#   From: 2010.05.17/outbox.cif.g08.bks.cpg/sg50_7_cif.got.tgz:12549.got - 2010.06.03 11:33:33.
