data_PCOD9397952
_publ_section_title
;
Structure prediction by ZEFSAII (Michael W. Deem and Ramdas Pophale) SiO2 
 PCOD9397952
Probable space group: P B A N
;
_chemical_formula_sum "Si O2"
_cell_formula_units_Z 48
_cell_length_a 5.884044
_cell_length_b 25.487976
_cell_length_c 14.699373
_cell_angle_alpha 90.000000
_cell_angle_beta 90.000000
_cell_angle_gamma 90.000000
_cell_volume 2204.499839
_symmetry_space_group_name_H-M "P B A N"
_symmetry_group_IT_number 50
_space_group.IT_coordinate_system_code '2'
_symmetry_cell_setting 'orthorhombic'
loop_
_space_group_symop_operation_xyz
x,y,z
1/2-x,1/2-y,z
x,1/2-y,-z
1/2-x,y,-z
-x,-y,-z
1/2+x,1/2+y,-z
-x,1/2+y,z
1/2+x,-y,z
loop_
_atom_site_type_symbol
_atom_site_label
_atom_site_fract_x
_atom_site_fract_y
_atom_site_fract_z
Si Si1 0.966822 0.528027 0.862816
Si Si2 0.740218 0.808797 0.316504
Si Si3 0.607248 0.142693 0.584368
Si Si4 0.750000 0.250000 0.500000
Si Si5 0.750000 0.250000 0.000000
Si Si6 0.250000 0.096060 0.000000
Si Si7 0.380417 0.879672 0.754843
Si Si8 0.483357 0.669634 0.868183
O O1 0.717471 0.499294 0.857315
O O2 0.944771 0.559361 0.958071
O O3 0.972071 0.570338 0.780711
O O4 0.750000 0.750000 0.352658
O O5 0.659147 0.851174 0.392066
O O6 0.576218 0.809458 0.228182
O O7 0.974438 0.829863 0.276815
O O8 0.750000 0.120240 0.500000
O O9 0.652568 0.205811 0.569904
O O10 0.708541 0.113487 0.671592
O O11 0.592023 0.284952 0.064367
O O12 0.161513 0.132662 0.080989
O O13 0.236417 0.864503 0.843193
#
# Coordination Sequence:
#
# PCOD9397952 Si02
#       8
#     8   8   8   2   2   4   8   8
#     4  12  27  46  75 103 135 181 243 307 371 422
#     4  11  22  38  64  92 134 184 225 269 343 416
#     4   9  21  39  64  95 138 166 217 275 334 412
#     4   8  16  38  58 108 132 172 220 264 332 412
#     4  12  24  36  58  84 136 192 246 274 314 414
#     4  12  24  47  67  98 134 180 238 308 364 406
#     4  11  23  45  64  95 135 177 224 286 352 420
#     4  11  25  40  60  90 139 186 238 287 338 418
#
# _framework density 21.773645999999999
#
# number of rings (size 3 to 8) (size 9 to 14) (size 15 to 20)
#    0.500    0.667    1.667    4.500    4.667    4.667 
#    0.000    0.000    0.000    1.000    0.000    0.000 
#    0.000    0.000    0.000    0.000    0.000    0.000 
#
# Total GULP energy -267334.319589 kJ/mol
# GULP energy per Si atom -5569.464991 kJ/mol
# Density = 2.172409 g / cm^3
# Si number density = 21.773646 Si / 1000 Ang^3
#
#
#
# Elastic Constant Matrix: (Units=GPa)
#
#
# Indices 1 2 3 4 5 6 
#
# 1 97.1815 32.8579 27.5282 0.0000 0.0000 0.0000
# 2 32.8579 59.5819 24.0059 0.0000 0.0000 0.0000
# 3 27.5282 24.0059 91.4297 0.0000 0.0000 0.0000
# 4 0.0000 0.0000 0.0000 4.8046 0.0000 0.0000
# 5 0.0000 0.0000 0.0000 0.0000 8.6915 0.0000
# 6 0.0000 0.0000 0.0000 0.0000 0.0000 34.4733
#
#
#
# Elastic Compliance Matrix: (Units=1/GPa)
#
#
# Indices 1 2 3 4 5 6 
#
# 1 0.013061 -0.006283 -0.002283 0.000000 0.000000 0.000000
# 2 -0.006283 0.021792 -0.003830 0.000000 0.000000 0.000000
# 3 -0.002283 -0.003830 0.012630 0.000000 0.000000 0.000000
# 4 0.000000 0.000000 0.000000 0.208134 0.000000 0.000000
# 5 0.000000 0.000000 0.000000 0.000000 0.115055 0.000000
# 6 0.000000 0.000000 0.000000 0.000000 0.000000 0.029008
#
#
# Mechanical properties :
#
#
# Convention : Reuss Voigt Hill
#
# Bulk Modulus (GPa) = 44.06951 46.33076 45.20014
# Shear Modulus (GPa) = 11.57314 20.51395 16.04354
#
# Velocity S-wave (km/s) = 2.30797 3.07277 2.71741
# Velocity P-wave (km/s) = 5.23317 5.82355 5.53624
#
# Compressibility (1/GPa) = 0.02269142
#
# Stress axis : x y z
#
# Youngs Moduli (GPa) = 76.56367 45.88911 79.17494
#
# Poissons Ratio (x) = 0.28832 0.18074
# Poissons Ratio (y) = 0.48105 0.30323
# Poissons Ratio (z) = 0.17478 0.17575
#
# Static dielectric constant tensor:
#      x y z
#    x 3.196080 0.000000 0.000000 
#    y 0.000000 1.807060 0.000000 
#    z 0.000000 0.000000 2.022780 
# 
# From -- ./inp_files/24116.got.cif
#   From: 2010.05.17/outbox.cif.g08.bks.cpg/sg50_13_cif.got.tgz:24116.got - 2010.06.03 11:33:33.
