data_PCOD9397526
_publ_section_title
;
Structure prediction by ZEFSAII (Michael W. Deem and Ramdas Pophale) SiO2 
 PCOD9397526
Probable space group: P B A N
;
_chemical_formula_sum "Si O2"
_cell_formula_units_Z 38
_cell_length_a 8.678280
_cell_length_b 11.628863
_cell_length_c 17.430161
_cell_angle_alpha 90.000000
_cell_angle_beta 90.000000
_cell_angle_gamma 90.000000
_cell_volume 1759.026212
_symmetry_space_group_name_H-M "P B A N"
_symmetry_group_IT_number 50
_space_group.IT_coordinate_system_code '2'
_symmetry_cell_setting 'orthorhombic'
loop_
_space_group_symop_operation_xyz
x,y,z
1/2-x,1/2-y,z
x,1/2-y,-z
1/2-x,y,-z
-x,-y,-z
1/2+x,1/2+y,-z
-x,1/2+y,z
1/2+x,-y,z
loop_
_atom_site_type_symbol
_atom_site_label
_atom_site_fract_x
_atom_site_fract_y
_atom_site_fract_z
Si Si1 0.939458 0.348682 0.862124
Si Si2 0.222622 0.457049 0.792771
Si Si3 0.537164 0.158077 0.434346
Si Si4 0.015731 0.656369 0.734955
Si Si5 0.750000 0.250000 0.000000
Si Si6 0.250000 0.466661 0.500000
O O1 0.836004 0.453826 0.833425
O O2 0.931951 0.241416 0.802855
O O3 0.866638 0.316239 0.943300
O O4 0.115575 0.390832 0.853858
O O5 0.109651 0.536608 0.742091
O O6 0.335791 0.373477 0.746447
O O7 0.572175 0.250000 0.500000
O O8 0.546607 0.207190 0.348886
O O9 0.650027 0.050092 0.445952
O O10 0.366658 0.110204 0.451287
#
# Coordination Sequence:
#
# PCOD9397526 Si02
#       6
#     8   8   8   8   2   4
#     4  11  24  44  68  98 134 168 216 269 331 401
#     4  10  23  42  69  98 128 179 215 269 337 391
#     4  11  24  40  64  92 134 177 224 276 333 376
#     4  11  22  43  66  98 132 175 227 277 327 402
#     4  12  24  48  70 100 136 164 214 284 324 412
#     4  10  24  42  56  94 128 176 226 276 322 390
#
# _framework density 21.60286
#
# number of rings (size 3 to 8) (size 9 to 14) (size 15 to 20)
#    0.000    1.263    2.105    2.526    0.000   14.316 
#    0.000    1.053    0.000    0.000    0.000    0.000 
#    0.000    0.000    0.000    0.000    0.000    0.000 
#
# Total GULP energy -212405.877060 kJ/mol
# GULP energy per Si atom -5589.628344 kJ/mol
# Density = 2.155369 g / cm^3
# Si number density = 21.602860 Si / 1000 Ang^3
#
#
#
# Elastic Constant Matrix: (Units=GPa)
#
#
# Indices 1 2 3 4 5 6 
#
# 1 124.9081 20.8660 38.1392 0.0000 0.0000 0.0000
# 2 20.8660 65.0498 42.2314 0.0000 0.0000 0.0000
# 3 38.1392 42.2314 146.6127 0.0000 0.0000 0.0000
# 4 0.0000 0.0000 0.0000 17.8157 0.0000 0.0000
# 5 0.0000 0.0000 0.0000 0.0000 -13.4521 0.0000
# 6 0.0000 0.0000 0.0000 0.0000 0.0000 -7.7738
#
#
#
# Elastic Compliance Matrix: (Units=1/GPa)
#
#
# Indices 1 2 3 4 5 6 
#
# 1 0.008839 -0.001651 -0.001824 0.000000 0.000000 0.000000
# 2 -0.001651 0.019217 -0.005106 0.000000 0.000000 0.000000
# 3 -0.001824 -0.005106 0.008766 0.000000 0.000000 0.000000
# 4 0.000000 0.000000 0.000000 0.056130 0.000000 0.000000
# 5 0.000000 0.000000 0.000000 0.000000 -0.074338 0.000000
# 6 0.000000 0.000000 0.000000 0.000000 0.000000 -0.128637
#
#
# Mechanical properties :
#
#
# Convention : Reuss Voigt Hill
#
# Bulk Modulus (GPa) = 50.86426 59.89375 55.37900
# Shear Modulus (GPa) = -57.93252 15.00687 -21.46282
#
# Velocity S-wave (km/s) = -5.18414 2.63852 -3.15543
# Velocity P-wave (km/s) = 3.49821 6.08831 3.52350
#
# Compressibility (1/GPa) = 0.01966017
#
# Stress axis : x y z
#
# Youngs Moduli (GPa) = 113.14087 52.03624 114.07930
#
# Poissons Ratio (x) = 0.08592 0.20803
# Poissons Ratio (y) = 0.18682 0.58249
# Poissons Ratio (z) = 0.20632 0.26570
#
# Static dielectric constant tensor:
#      x y z
#    x 1.811540 0.000000 0.000000 
#    y 0.000000 1.786030 0.000000 
#    z 0.000000 0.000000 1.755190 
# 
# From -- ./inp_files/28519.got.cif
#   From: 2010.05.17/outbox.cif.g08.bks.cpg/sg50_15_cif.got.tgz:28519.got - 2010.06.03 11:33:33.
