data_PCOD9397951
_publ_section_title
;
Structure prediction by ZEFSAII (Michael W. Deem and Ramdas Pophale) SiO2 
 PCOD9397951
Probable space group: P B A N
;
_chemical_formula_sum "Si O2"
_cell_formula_units_Z 64
_cell_length_a 12.055432
_cell_length_b 30.922291
_cell_length_c 8.931386
_cell_angle_alpha 90.000000
_cell_angle_beta 90.000000
_cell_angle_gamma 90.000000
_cell_volume 3329.456153
_symmetry_space_group_name_H-M "P B A N"
_symmetry_group_IT_number 50
_space_group.IT_coordinate_system_code '2'
_symmetry_cell_setting 'orthorhombic'
loop_
_space_group_symop_operation_xyz
x,y,z
1/2-x,1/2-y,z
x,1/2-y,-z
1/2-x,y,-z
-x,-y,-z
1/2+x,1/2+y,-z
-x,1/2+y,z
1/2+x,-y,z
loop_
_atom_site_type_symbol
_atom_site_label
_atom_site_fract_x
_atom_site_fract_y
_atom_site_fract_z
Si Si1 0.023742 0.703881 0.683466
Si Si2 0.983244 0.051238 0.324048
Si Si3 0.745824 0.421206 0.174173
Si Si4 0.967751 0.048812 0.679682
Si Si5 0.895615 0.875091 0.164133
Si Si6 0.247707 0.681805 0.174517
Si Si7 0.988963 0.198456 0.328263
Si Si8 0.366260 0.377337 0.190455
O O1 0.150522 0.703780 0.740081
O O2 0.956650 0.667452 0.773012
O O3 0.976480 0.752116 0.704311
O O4 0.023012 0.693687 0.506941
O O5 0.873079 0.068772 0.244370
O O6 0.974607 0.057345 0.502409
O O7 0.085548 0.079085 0.262813
O O8 0.995955 0.000415 0.292726
O O9 0.842487 0.444718 0.264672
O O10 0.767042 0.369834 0.182156
O O11 0.750000 0.433943 0.000000
O O12 0.043449 0.083249 0.766857
O O13 0.765911 0.874914 0.205591
O O14 0.899986 0.876520 0.984286
O O15 0.129578 0.690912 0.249393
O O16 0.250000 0.694418 0.000000
O O17 0.074747 0.163302 0.268272
#
# Coordination Sequence:
#
# PCOD9397951 Si02
#       8
#     8   8   8   8   8   8   8   8
#     4  11  24  41  64  94 126 164 209 257 312 372
#     4  11  25  43  66  96 128 165 210 258 312 371
#     4  11  23  40  66  97 129 166 208 256 313 369
#     4  11  25  43  66  96 128 165 210 258 312 371
#     4  11  25  44  65  92 125 165 211 258 312 371
#     4  11  22  38  63  96 129 164 206 255 313 371
#     4  11  24  41  64  94 126 164 209 257 312 372
#     4  11  25  44  65  92 125 165 211 258 312 371
#
# _framework density 19.222358
#
# number of rings (size 3 to 8) (size 9 to 14) (size 15 to 20)
#    0.000    1.000    2.500    3.375    1.750    9.000 
#    0.000    2.500    0.000    0.000    0.000    0.000 
#    0.000    0.000    0.000    0.000    0.000    0.000 
#
# Total GULP energy -358096.965816 kJ/mol
# GULP energy per Si atom -5595.265091 kJ/mol
# Density = 1.917861 g / cm^3
# Si number density = 19.222358 Si / 1000 Ang^3
#
#
#
# Elastic Constant Matrix: (Units=GPa)
#
#
# Indices 1 2 3 4 5 6 
#
# 1 60.0020 9.2562 18.8907 0.0000 0.0000 0.0000
# 2 9.2562 62.6149 25.3594 0.0000 0.0000 0.0000
# 3 18.8907 25.3594 59.2605 0.0000 0.0000 0.0000
# 4 0.0000 0.0000 0.0000 -861.2471 0.0000 0.0000
# 5 0.0000 0.0000 0.0000 0.0000 18.3057 0.0000
# 6 0.0000 0.0000 0.0000 0.0000 0.0000 9.8135
#
#
#
# Elastic Compliance Matrix: (Units=1/GPa)
#
#
# Indices 1 2 3 4 5 6 
#
# 1 0.018534 -0.000420 -0.005729 0.000000 0.000000 0.000000
# 2 -0.000420 0.019328 -0.008137 0.000000 0.000000 0.000000
# 3 -0.005729 -0.008137 0.022183 0.000000 0.000000 0.000000
# 4 0.000000 0.000000 0.000000 -0.001161 0.000000 0.000000
# 5 0.000000 0.000000 0.000000 0.000000 0.054628 0.000000
# 6 0.000000 0.000000 0.000000 0.000000 0.000000 0.101901
#
#
# Mechanical properties :
#
#
# Convention : Reuss Voigt Hill
#
# Bulk Modulus (GPa) = 31.77204 32.09889 31.93547
# Shear Modulus (GPa) = 19.64820 -158.06751 -69.20965
#
# Velocity S-wave (km/s) = 3.20058 -9.07797 -6.00691
# Velocity P-wave (km/s) = 5.49753 9.65114 5.60899
#
# Compressibility (1/GPa) = 0.03147421
#
# Stress axis : x y z
#
# Youngs Moduli (GPa) = 53.95360 51.73737 45.07949
#
# Poissons Ratio (x) = 0.02172 0.25825
# Poissons Ratio (y) = 0.02265 0.36683
# Poissons Ratio (z) = 0.30908 0.42101
#
# Static dielectric constant tensor:
#      x y z
#    x 1.625220 0.000000 0.000000 
#    y 0.000000 1.660690 0.000000 
#    z 0.000000 0.000000 1.646870 
# 
# From -- ./inp_files/11869.got.cif
#   From: 2010.05.17/outbox.cif.g08.bks.cpg/sg50_6_cif.got.tgz:11869.got - 2010.06.03 11:33:33.
