data_PCOD9397605
_publ_section_title
;
Structure prediction by ZEFSAII (Michael W. Deem and Ramdas Pophale) SiO2 
 PCOD9397605
Probable space group: P B A N
;
_chemical_formula_sum "Si O2"
_cell_formula_units_Z 40
_cell_length_a 18.503834
_cell_length_b 8.650179
_cell_length_c 11.731494
_cell_angle_alpha 90.000000
_cell_angle_beta 90.000000
_cell_angle_gamma 90.000000
_cell_volume 1877.760249
_symmetry_space_group_name_H-M "P B A N"
_symmetry_group_IT_number 50
_space_group.IT_coordinate_system_code '2'
_symmetry_cell_setting 'orthorhombic'
loop_
_space_group_symop_operation_xyz
x,y,z
1/2-x,1/2-y,z
x,1/2-y,-z
1/2-x,y,-z
-x,-y,-z
1/2+x,1/2+y,-z
-x,1/2+y,z
1/2+x,-y,z
loop_
_atom_site_type_symbol
_atom_site_label
_atom_site_fract_x
_atom_site_fract_y
_atom_site_fract_z
Si Si1 0.324483 0.012144 0.553435
Si Si2 0.827420 0.824727 0.876370
Si Si3 0.585802 0.115592 0.651534
Si Si4 0.928822 0.748800 0.673827
Si Si5 0.181234 0.840934 0.208237
O O1 0.250000 0.067234 0.500000
O O2 0.365081 0.903466 0.461845
O O3 0.305022 0.919584 0.668090
O O4 0.375673 0.150863 0.593867
O O5 0.750000 0.750000 0.831750
O O6 0.895814 0.786127 0.797640
O O7 0.828493 0.011640 0.873746
O O8 0.835374 0.750000 0.000000
O O9 0.508282 0.195432 0.639587
O O10 0.622607 0.211448 0.754970
O O11 0.572734 0.935034 0.672905
O O12 0.250000 0.750000 0.165996
#
# Coordination Sequence:
#
# PCOD9397605 Si02
#       5
#     8   8   8   8   8
#     4  11  23  39  64 100 145 191 231 279 337 422
#     4  10  23  46  72  98 130 174 232 305 364 418
#     4  12  24  42  62  99 140 190 227 288 342 417
#     4  11  25  42  65  95 140 185 241 286 350 415
#     4  11  22  41  68 100 140 179 229 290 351 417
#
# _framework density 21.301973
#
# number of rings (size 3 to 8) (size 9 to 14) (size 15 to 20)
#    0.000    1.000    2.000    5.400    2.800    2.400 
#    0.000   11.000    0.000    0.000    0.000    0.000 
#    0.000    0.000    0.000    0.000    0.000    0.000 
#
# Total GULP energy -223214.155041 kJ/mol
# GULP energy per Si atom -5580.353876 kJ/mol
# Density = 2.125349 g / cm^3
# Si number density = 21.301973 Si / 1000 Ang^3
#
#
#
# Elastic Constant Matrix: (Units=GPa)
#
#
# Indices 1 2 3 4 5 6 
#
# 1 121.1964 60.2373 44.5191 0.0000 0.0000 0.0000
# 2 60.2373 219.8653 47.6834 0.0000 0.0000 0.0000
# 3 44.5191 47.6834 83.3405 0.0000 0.0000 0.0000
# 4 0.0000 0.0000 0.0000 44.9987 0.0000 0.0000
# 5 0.0000 0.0000 0.0000 0.0000 17.6498 0.0000
# 6 0.0000 0.0000 0.0000 0.0000 0.0000 27.6063
#
#
#
# Elastic Compliance Matrix: (Units=1/GPa)
#
#
# Indices 1 2 3 4 5 6 
#
# 1 0.010972 -0.001981 -0.004728 0.000000 0.000000 0.000000
# 2 -0.001981 0.005550 -0.002117 0.000000 0.000000 0.000000
# 3 -0.004728 -0.002117 0.015736 0.000000 0.000000 0.000000
# 4 0.000000 0.000000 0.000000 0.022223 0.000000 0.000000
# 5 0.000000 0.000000 0.000000 0.000000 0.056658 0.000000
# 6 0.000000 0.000000 0.000000 0.000000 0.000000 0.036224
#
#
# Mechanical properties :
#
#
# Convention : Reuss Voigt Hill
#
# Bulk Modulus (GPa) = 68.46389 81.03130 74.74760
# Shear Modulus (GPa) = 29.43193 36.18179 32.80686
#
# Velocity S-wave (km/s) = 3.72109 4.12578 3.92865
# Velocity P-wave (km/s) = 7.11839 7.79859 7.46624
#
# Compressibility (1/GPa) = 0.01460624
#
# Stress axis : x y z
#
# Youngs Moduli (GPa) = 91.13908 180.17589 63.54845
#
# Poissons Ratio (x) = 0.35688 0.30045
# Poissons Ratio (y) = 0.18052 0.13456
# Poissons Ratio (z) = 0.43090 0.38151
#
# Static dielectric constant tensor:
#      x y z
#    x 1.772080 0.000000 0.000000 
#    y 0.000000 1.814790 0.000000 
#    z 0.000000 0.000000 1.802390 
# 
# From -- ./inp_files/21598.got.cif
#   From: 2010.05.17/outbox.cif.g08.bks.cpg/sg50_11_cif.got.tgz:21598.got - 2010.06.03 11:33:33.
