data_PCOD9397994
_publ_section_title
;
Structure prediction by ZEFSAII (Michael W. Deem and Ramdas Pophale) SiO2 
 PCOD9397994
Probable space group: P B A N
;
_chemical_formula_sum "Si O2"
_cell_formula_units_Z 40
_cell_length_a 18.051281
_cell_length_b 8.150066
_cell_length_c 12.624873
_cell_angle_alpha 90.000000
_cell_angle_beta 90.000000
_cell_angle_gamma 90.000000
_cell_volume 1857.360351
_symmetry_space_group_name_H-M "P B A N"
_symmetry_group_IT_number 50
_space_group.IT_coordinate_system_code '2'
_symmetry_cell_setting 'orthorhombic'
loop_
_space_group_symop_operation_xyz
x,y,z
1/2-x,1/2-y,z
x,1/2-y,-z
1/2-x,y,-z
-x,-y,-z
1/2+x,1/2+y,-z
-x,1/2+y,z
1/2+x,-y,z
loop_
_atom_site_type_symbol
_atom_site_label
_atom_site_fract_x
_atom_site_fract_y
_atom_site_fract_z
Si Si1 0.656056 0.079033 0.562455
Si Si2 0.411537 0.499769 0.186023
Si Si3 0.797686 0.914126 0.635339
Si Si4 0.833783 0.053139 0.022912
Si Si5 0.922334 0.111549 0.225745
O O1 0.648476 0.250000 0.500000
O O2 0.597017 0.061775 0.654970
O O3 0.735307 0.056716 0.622180
O O4 0.654825 0.941562 0.471235
O O5 0.350431 0.424643 0.264386
O O6 0.493339 0.431501 0.201248
O O7 0.411827 0.693319 0.213437
O O8 0.386627 0.476009 0.065253
O O9 0.750000 0.750000 0.636201
O O10 0.866566 0.029781 0.140093
O O11 0.834393 0.250000 0.000000
O O12 0.750000 0.997364 0.000000
#
# Coordination Sequence:
#
# PCOD9397994 Si02
#       5
#     8   8   8   8   8
#     4  11  22  42  66  93 127 175 227 276 333 397
#     4  11  24  42  66  99 137 178 217 273 346 400
#     4  11  24  42  67  96 131 175 228 286 330 391
#     4   9  19  40  70  99 127 172 226 273 330 400
#     4  11  24  41  67  98 138 176 220 278 335 414
#
# _framework density 21.535937000000001
#
# number of rings (size 3 to 8) (size 9 to 14) (size 15 to 20)
#    0.000    1.400    2.000    4.200    2.800    2.400 
#    0.000    0.000    0.000    0.000    0.000    0.000 
#    0.000    0.000    0.000    0.000    0.000    0.000 
#
# Total GULP energy -223616.227728 kJ/mol
# GULP energy per Si atom -5590.405693 kJ/mol
# Density = 2.148692 g / cm^3
# Si number density = 21.535937 Si / 1000 Ang^3
#
#
#
# Elastic Constant Matrix: (Units=GPa)
#
#
# Indices 1 2 3 4 5 6 
#
# 1 113.9246 39.7760 74.4834 0.0000 0.0000 0.0000
# 2 39.7760 71.0206 52.2956 0.0000 0.0000 0.0000
# 3 74.4834 52.2956 151.5896 0.0000 0.0000 0.0000
# 4 0.0000 0.0000 0.0000 18.6729 0.0000 0.0000
# 5 0.0000 0.0000 0.0000 0.0000 44.2493 0.0000
# 6 0.0000 0.0000 0.0000 0.0000 0.0000 22.7698
#
#
#
# Elastic Compliance Matrix: (Units=1/GPa)
#
#
# Indices 1 2 3 4 5 6 
#
# 1 0.013590 -0.003612 -0.005431 0.000000 0.000000 0.000000
# 2 -0.003612 0.019835 -0.005068 0.000000 0.000000 0.000000
# 3 -0.005431 -0.005068 0.011014 0.000000 0.000000 0.000000
# 4 0.000000 0.000000 0.000000 0.053553 0.000000 0.000000
# 5 0.000000 0.000000 0.000000 0.000000 0.022599 0.000000
# 6 0.000000 0.000000 0.000000 0.000000 0.000000 0.043918
#
#
# Mechanical properties :
#
#
# Convention : Reuss Voigt Hill
#
# Bulk Modulus (GPa) = 61.66639 74.40496 68.03568
# Shear Modulus (GPa) = 25.23507 28.47040 26.85274
#
# Velocity S-wave (km/s) = 3.42682 3.63987 3.53495
# Velocity P-wave (km/s) = 6.65987 7.23112 6.95136
#
# Compressibility (1/GPa) = 0.01621629
#
# Stress axis : x y z
#
# Youngs Moduli (GPa) = 73.58500 50.41568 90.79506
#
# Poissons Ratio (x) = 0.18209 0.49313
# Poissons Ratio (y) = 0.26577 0.46016
# Poissons Ratio (z) = 0.39966 0.25551
#
# Static dielectric constant tensor:
#      x y z
#    x 1.749720 0.000000 0.000000 
#    y 0.000000 1.822240 0.000000 
#    z 0.000000 0.000000 1.779760 
# 
# From -- ./inp_files/21633.got.cif
#   From: 2010.05.17/outbox.cif.g08.bks.cpg/sg50_11_cif.got.tgz:21633.got - 2010.06.03 11:33:33.
