data_PCOD9397386
_publ_section_title
;
Structure prediction by ZEFSAII (Michael W. Deem and Ramdas Pophale) SiO2 
 PCOD9397386
Probable space group: P B A N
;
_chemical_formula_sum "Si O2"
_cell_formula_units_Z 56
_cell_length_a 9.267785
_cell_length_b 14.158631
_cell_length_c 19.660924
_cell_angle_alpha 90.000000
_cell_angle_beta 90.000000
_cell_angle_gamma 90.000000
_cell_volume 2579.889696
_symmetry_space_group_name_H-M "P B A N"
_symmetry_group_IT_number 50
_space_group.IT_coordinate_system_code '2'
_symmetry_cell_setting 'orthorhombic'
loop_
_space_group_symop_operation_xyz
x,y,z
1/2-x,1/2-y,z
x,1/2-y,-z
1/2-x,y,-z
-x,-y,-z
1/2+x,1/2+y,-z
-x,1/2+y,z
1/2+x,-y,z
loop_
_atom_site_type_symbol
_atom_site_label
_atom_site_fract_x
_atom_site_fract_y
_atom_site_fract_z
Si Si1 0.017067 0.992518 0.358081
Si Si2 0.566649 0.883741 0.065979
Si Si3 0.739436 0.862921 0.581554
Si Si4 0.767903 0.464813 0.733784
Si Si5 0.705147 0.344503 0.135111
Si Si6 0.508014 0.101725 0.079767
Si Si7 0.791386 0.645035 0.814435
O O1 0.911767 0.917362 0.397362
O O2 0.120608 0.938700 0.303996
O O3 0.901892 0.053111 0.315171
O O4 0.128839 0.065750 0.394790
O O5 0.442396 0.820524 0.097855
O O6 0.697341 0.878907 0.118022
O O7 0.501249 0.988718 0.073514
O O8 0.577859 0.861960 0.986387
O O9 0.750000 0.750000 0.603711
O O10 0.750000 0.860843 0.500000
O O11 0.799704 0.422186 0.807258
O O12 0.760965 0.576048 0.752368
O O13 0.750000 0.250000 0.172651
O O14 0.823400 0.373320 0.079371
O O15 0.448908 0.131671 0.153273
O O16 0.750000 0.750000 0.795092
#
# Coordination Sequence:
#
# PCOD9397386 Si02
#       7
#     8   8   8   8   8   8   8
#     4  10  23  40  70  98 139 184 218 264 320 380
#     4  11  22  39  59  79 110 150 198 265 335 396
#     4  10  22  44  74 109 145 179 222 269 314 371
#     4  11  22  41  59  90 132 168 215 265 311 384
#     4  12  24  38  58  81 113 156 200 255 320 385
#     4  11  22  39  59  79 110 150 198 265 335 396
#     4  12  24  39  62  85 113 156 206 265 329 388
#
# _framework density 21.706354999999999
#
# number of rings (size 3 to 8) (size 9 to 14) (size 15 to 20)
#    0.000    1.000    2.857    3.857    0.000    9.143 
#    0.000    2.143    0.000    7.714    0.000    0.000 
#    0.000    0.000    0.000    0.000    0.000    0.000 
#
# Total GULP energy -312401.679099 kJ/mol
# GULP energy per Si atom -5578.601412 kJ/mol
# Density = 2.165695 g / cm^3
# Si number density = 21.706355 Si / 1000 Ang^3
#
#
#
# Elastic Constant Matrix: (Units=GPa)
#
#
# Indices 1 2 3 4 5 6 
#
# 1 110.4448 4.6999 42.9509 0.0000 0.0000 0.0000
# 2 4.6999 108.1811 27.3992 0.0000 0.0000 0.0000
# 3 42.9509 27.3992 90.0316 0.0000 0.0000 0.0000
# 4 0.0000 0.0000 0.0000 7.8307 0.0000 0.0000
# 5 0.0000 0.0000 0.0000 0.0000 31.1387 0.0000
# 6 0.0000 0.0000 0.0000 0.0000 0.0000 24.7357
#
#
#
# Elastic Compliance Matrix: (Units=1/GPa)
#
#
# Indices 1 2 3 4 5 6 
#
# 1 0.011204 0.000939 -0.005631 0.000000 0.000000 0.000000
# 2 0.000939 0.010095 -0.003520 0.000000 0.000000 0.000000
# 3 -0.005631 -0.003520 0.014865 0.000000 0.000000 0.000000
# 4 0.000000 0.000000 0.000000 0.127703 0.000000 0.000000
# 5 0.000000 0.000000 0.000000 0.000000 0.032114 0.000000
# 6 0.000000 0.000000 0.000000 0.000000 0.000000 0.040427
#
#
# Mechanical properties :
#
#
# Convention : Reuss Voigt Hill
#
# Bulk Modulus (GPa) = 50.65872 50.97306 50.81589
# Shear Modulus (GPa) = 19.27437 28.31485 23.79461
#
# Velocity S-wave (km/s) = 2.98310 3.61563 3.31449
# Velocity P-wave (km/s) = 5.93751 6.40034 6.17327
#
# Compressibility (1/GPa) = 0.01973994
#
# Stress axis : x y z
#
# Youngs Moduli (GPa) = 89.25259 99.06368 67.27272
#
# Poissons Ratio (x) = -0.09306 0.37881
# Poissons Ratio (y) = -0.08384 0.23681
# Poissons Ratio (z) = 0.50258 0.34872
#
# Static dielectric constant tensor:
#      x y z
#    x 1.839430 0.000000 0.000000 
#    y 0.000000 1.978860 0.000000 
#    z 0.000000 0.000000 1.745160 
# 
# From -- ./inp_files/30625.got.cif
#   From: 2010.05.17/outbox.cif.g08.bks.cpg/sg50_16_cif.got.tgz:30625.got - 2010.06.03 11:33:33.
