data_PCOD9397678
_publ_section_title
;
Structure prediction by ZEFSAII (Michael W. Deem and Ramdas Pophale) SiO2 
 PCOD9397678
Probable space group: P B A N
;
_chemical_formula_sum "Si O2"
_cell_formula_units_Z 26
_cell_length_a 25.054866
_cell_length_b 9.004616
_cell_length_c 4.747750
_cell_angle_alpha 90.000000
_cell_angle_beta 90.000000
_cell_angle_gamma 90.000000
_cell_volume 1071.137253
_symmetry_space_group_name_H-M "P B A N"
_symmetry_group_IT_number 50
_space_group.IT_coordinate_system_code '2'
_symmetry_cell_setting 'orthorhombic'
loop_
_space_group_symop_operation_xyz
x,y,z
1/2-x,1/2-y,z
x,1/2-y,-z
1/2-x,y,-z
-x,-y,-z
1/2+x,1/2+y,-z
-x,1/2+y,z
1/2+x,-y,z
loop_
_atom_site_type_symbol
_atom_site_label
_atom_site_fract_x
_atom_site_fract_y
_atom_site_fract_z
Si Si1 0.856727 0.097248 0.178712
Si Si2 0.007876 0.250000 0.500000
Si Si3 0.074677 0.972496 0.289247
Si Si4 0.750000 0.750000 0.500000
Si Si5 0.750000 0.949782 0.000000
O O1 0.897808 0.996297 0.005541
O O2 0.796547 0.041751 0.147350
O O3 0.859875 0.250000 0.000000
O O4 0.879483 0.081364 0.491557
O O5 0.044162 0.379489 0.623192
O O6 0.968262 0.161244 0.710435
O O7 0.723525 0.643801 0.738678
#
# Coordination Sequence:
#
# PCOD9397678 Si02
#       5
#     8   4   8   2   4
#     4  12  24  44  66 101 129 177 217 274 322 406
#     4  10  24  45  66  98 130 182 214 287 328 382
#     4  11  25  42  69  96 137 169 230 268 333 390
#     4  10  24  44  62  98 124 178 208 270 316 394
#     4  11  25  44  72  92 141 165 220 266 336 382
#
# _framework density 24.273268000000002
#
# number of rings (size 3 to 8) (size 9 to 14) (size 15 to 20)
#    0.000    0.923    3.077    2.308    0.000   16.000 
#    0.000    4.615    0.000    0.000    0.000    0.000 
#    0.000    0.000    0.000    0.000    0.000    0.000 
#
# Total GULP energy -145186.992767 kJ/mol
# GULP energy per Si atom -5584.115106 kJ/mol
# Density = 2.421802 g / cm^3
# Si number density = 24.273268 Si / 1000 Ang^3
#
#
#
# Elastic Constant Matrix: (Units=GPa)
#
#
# Indices 1 2 3 4 5 6 
#
# 1 95.3200 41.1839 18.1285 0.0000 0.0000 0.0000
# 2 41.1839 105.2982 20.2342 0.0000 0.0000 0.0000
# 3 18.1285 20.2342 139.0218 0.0000 0.0000 0.0000
# 4 0.0000 0.0000 0.0000 18.8270 0.0000 0.0000
# 5 0.0000 0.0000 0.0000 0.0000 9.8749 0.0000
# 6 0.0000 0.0000 0.0000 0.0000 0.0000 7.0248
#
#
#
# Elastic Compliance Matrix: (Units=1/GPa)
#
#
# Indices 1 2 3 4 5 6 
#
# 1 0.012749 -0.004801 -0.000964 0.000000 0.000000 0.000000
# 2 -0.004801 0.011578 -0.001059 0.000000 0.000000 0.000000
# 3 -0.000964 -0.001059 0.007473 0.000000 0.000000 0.000000
# 4 0.000000 0.000000 0.000000 0.053115 0.000000 0.000000
# 5 0.000000 0.000000 0.000000 0.000000 0.101267 0.000000
# 6 0.000000 0.000000 0.000000 0.000000 0.000000 0.142353
#
#
# Mechanical properties :
#
#
# Convention : Reuss Voigt Hill
#
# Bulk Modulus (GPa) = 55.09006 55.41480 55.25243
# Shear Modulus (GPa) = 14.35823 24.48490 19.42156
#
# Velocity S-wave (km/s) = 2.43477 3.17948 2.83171
# Velocity P-wave (km/s) = 5.53617 6.02975 5.78822
#
# Compressibility (1/GPa) = 0.01815209
#
# Stress axis : x y z
#
# Youngs Moduli (GPa) = 78.44016 86.36989 133.81638
#
# Poissons Ratio (x) = 0.41466 0.12895
# Poissons Ratio (y) = 0.37659 0.14173
# Poissons Ratio (z) = 0.07559 0.09148
#
# Static dielectric constant tensor:
#      x y z
#    x 1.903130 0.000000 0.000000 
#    y 0.000000 2.023820 0.000000 
#    z 0.000000 0.000000 0.971360 
# 
# From -- ./inp_files/6338.got.cif
#   From: 2010.05.17/outbox.cif.g08.bks.cpg/sg50_4_cif.got.tgz:6338.got - 2010.06.03 11:33:33.
