data_PCOD9397767
_publ_section_title
;
Structure prediction by ZEFSAII (Michael W. Deem and Ramdas Pophale) SiO2 
 PCOD9397767
Probable space group: P B A N
;
_chemical_formula_sum "Si O2"
_cell_formula_units_Z 44
_cell_length_a 13.913128
_cell_length_b 23.237675
_cell_length_c 5.896230
_cell_angle_alpha 90.000000
_cell_angle_beta 90.000000
_cell_angle_gamma 90.000000
_cell_volume 1906.302732
_symmetry_space_group_name_H-M "P B A N"
_symmetry_group_IT_number 50
_space_group.IT_coordinate_system_code '2'
_symmetry_cell_setting 'orthorhombic'
loop_
_space_group_symop_operation_xyz
x,y,z
1/2-x,1/2-y,z
x,1/2-y,-z
1/2-x,y,-z
-x,-y,-z
1/2+x,1/2+y,-z
-x,1/2+y,z
1/2+x,-y,z
loop_
_atom_site_type_symbol
_atom_site_label
_atom_site_fract_x
_atom_site_fract_y
_atom_site_fract_z
Si Si1 0.402309 0.169249 0.102946
Si Si2 0.902606 0.453043 0.760271
Si Si3 0.582268 0.179136 0.816769
Si Si4 0.880794 0.548384 0.117300
Si Si5 0.750000 0.750000 0.000000
Si Si6 0.439980 0.250000 0.500000
Si Si7 0.750000 0.976420 0.500000
Si Si8 0.750000 0.250000 0.000000
O O1 0.330286 0.201639 0.927751
O O2 0.383335 0.204308 0.336592
O O3 0.514032 0.179895 0.041102
O O4 0.389776 0.101260 0.061307
O O5 0.886942 0.385574 0.767198
O O6 0.838832 0.483470 0.571907
O O7 0.018237 0.456420 0.749433
O O8 0.872029 0.488148 0.985771
O O9 0.511108 0.207693 0.636981
O O10 0.678854 0.213460 0.847656
O O11 0.793558 0.558518 0.289418
#
# Coordination Sequence:
#
# PCOD9397767 Si02
#       8
#     8   8   8   8   2   4   4   2
#     4  11  25  48  68 103 145 182 237 295 356 421
#     4  10  25  46  70 100 144 189 228 302 364 418
#     4  11  25  46  69 100 147 180 235 300 358 423
#     4  10  25  48  71 100 150 190 228 306 367 414
#     4  12  22  46  70 102 138 184 222 288 356 394
#     4  12  22  48  70 100 140 194 236 284 354 446
#     4  12  24  42  72 116 132 184 260 278 360 444
#     4  12  22  42  70 102 138 184 230 304 360 402
#
# _framework density 23.081327999999999
#
# number of rings (size 3 to 8) (size 9 to 14) (size 15 to 20)
#    0.000    1.091    3.636    1.091    5.091    9.455 
#    0.000    0.000    0.000    0.000    0.000    0.000 
#    0.000    0.000    0.000    0.000    0.000    0.000 
#
# Total GULP energy -245371.336652 kJ/mol
# GULP energy per Si atom -5576.621288 kJ/mol
# Density = 2.302879 g / cm^3
# Si number density = 23.081328 Si / 1000 Ang^3
#
#
#
# Elastic Constant Matrix: (Units=GPa)
#
#
# Indices 1 2 3 4 5 6 
#
# 1 139.4609 34.4653 34.5411 0.0000 0.0000 0.0000
# 2 34.4653 135.1385 54.9278 0.0000 0.0000 0.0000
# 3 34.5411 54.9278 76.8778 0.0000 0.0000 0.0000
# 4 0.0000 0.0000 0.0000 23.8075 0.0000 0.0000
# 5 0.0000 0.0000 0.0000 0.0000 33.3116 0.0000
# 6 0.0000 0.0000 0.0000 0.0000 0.0000 25.5867
#
#
#
# Elastic Compliance Matrix: (Units=1/GPa)
#
#
# Indices 1 2 3 4 5 6 
#
# 1 0.008134 -0.000830 -0.003061 0.000000 0.000000 0.000000
# 2 -0.000830 0.010513 -0.007138 0.000000 0.000000 0.000000
# 3 -0.003061 -0.007138 0.019483 0.000000 0.000000 0.000000
# 4 0.000000 0.000000 0.000000 0.042003 0.000000 0.000000
# 5 0.000000 0.000000 0.000000 0.000000 0.030020 0.000000
# 6 0.000000 0.000000 0.000000 0.000000 0.000000 0.039083
#
#
# Mechanical properties :
#
#
# Convention : Reuss Voigt Hill
#
# Bulk Modulus (GPa) = 62.22619 66.59396 64.41007
# Shear Modulus (GPa) = 28.30415 31.71072 30.00743
#
# Velocity S-wave (km/s) = 3.50563 3.71059 3.60957
# Velocity P-wave (km/s) = 6.58817 6.87550 6.73337
#
# Compressibility (1/GPa) = 0.01607040
#
# Stress axis : x y z
#
# Youngs Moduli (GPa) = 122.94294 95.12081 51.32581
#
# Poissons Ratio (x) = 0.07896 0.15713
# Poissons Ratio (y) = 0.10205 0.36638
# Poissons Ratio (z) = 0.37638 0.67901
#
# Static dielectric constant tensor:
#      x y z
#    x 1.859870 0.000000 0.000000 
#    y 0.000000 1.851610 0.000000 
#    z 0.000000 0.000000 2.084130 
# 
# From -- ./inp_files/3540.got.cif
#   From: 2010.05.17/outbox.cif.g08.bks.cpg/sg50_2_cif.got.tgz:3540.got - 2010.06.03 11:33:33.
