data_PCOD9397431
_publ_section_title
;
Structure prediction by ZEFSAII (Michael W. Deem and Ramdas Pophale) SiO2 
 PCOD9397431
Probable space group: P B A N
;
_chemical_formula_sum "Si O2"
_cell_formula_units_Z 48
_cell_length_a 26.339881
_cell_length_b 11.740051
_cell_length_c 7.264517
_cell_angle_alpha 90.000000
_cell_angle_beta 90.000000
_cell_angle_gamma 90.000000
_cell_volume 2246.417825
_symmetry_space_group_name_H-M "P B A N"
_symmetry_group_IT_number 50
_space_group.IT_coordinate_system_code '2'
_symmetry_cell_setting 'orthorhombic'
loop_
_space_group_symop_operation_xyz
x,y,z
1/2-x,1/2-y,z
x,1/2-y,-z
1/2-x,y,-z
-x,-y,-z
1/2+x,1/2+y,-z
-x,1/2+y,z
1/2+x,-y,z
loop_
_atom_site_type_symbol
_atom_site_label
_atom_site_fract_x
_atom_site_fract_y
_atom_site_fract_z
Si Si1 0.973497 0.750000 0.000000
Si Si2 0.939726 0.204226 0.242909
Si Si3 0.192669 0.001336 0.041556
Si Si4 0.951585 0.062490 0.576341
Si Si5 0.154598 0.750000 0.000000
Si Si6 0.633431 0.907042 0.349128
Si Si7 0.879818 0.846666 0.221256
O O1 0.935508 0.824666 0.129862
O O2 0.014699 0.669222 0.106074
O O3 0.925954 0.109009 0.389633
O O4 0.963563 0.319450 0.325312
O O5 0.886096 0.243699 0.164400
O O6 0.178800 0.023628 0.255668
O O7 0.250000 0.036178 0.000000
O O8 0.185074 0.867187 0.004032
O O9 0.153953 0.074639 0.913152
O O10 0.917088 0.979545 0.696674
O O11 0.000000 0.000000 0.500000
O O12 0.637018 0.784619 0.252056
O O13 0.626817 0.891476 0.568617
#
# Coordination Sequence:
#
# PCOD9397431 Si02
#       7
#     4   8   8   8   4   8   8
#     4  11  20  40  64 104 144 194 238 285 356 434
#     4  10  23  37  65  97 144 190 237 291 350 430
#     4  12  26  47  73 102 136 181 242 306 369 423
#     4  11  21  38  61 102 142 190 238 283 346 433
#     4  11  23  46  67  98 135 186 239 295 356 428
#     4  11  23  44  70  99 140 183 230 292 358 427
#     4  11  24  43  70 102 141 180 230 292 360 435
#
# _framework density 21.367350999999999
#
# number of rings (size 3 to 8) (size 9 to 14) (size 15 to 20)
#    0.000    1.000    3.333    3.250    0.000    4.667 
#    0.000    6.667    0.000    2.000    0.000    0.000 
#    0.000    0.000    0.000    0.000    0.000    0.000 
#
# Total GULP energy -267483.720296 kJ/mol
# GULP energy per Si atom -5572.577506 kJ/mol
# Density = 2.131872 g / cm^3
# Si number density = 21.367351 Si / 1000 Ang^3
#
#
#
# Elastic Constant Matrix: (Units=GPa)
#
#
# Indices 1 2 3 4 5 6 
#
# 1 95.8256 18.3322 14.7963 0.0000 0.0000 0.0000
# 2 18.3322 122.1137 21.7215 0.0000 0.0000 0.0000
# 3 14.7963 21.7215 71.8696 0.0000 0.0000 0.0000
# 4 0.0000 0.0000 0.0000 26.0404 0.0000 0.0000
# 5 0.0000 0.0000 0.0000 0.0000 21.1241 0.0000
# 6 0.0000 0.0000 0.0000 0.0000 0.0000 14.5090
#
#
#
# Elastic Compliance Matrix: (Units=1/GPa)
#
#
# Indices 1 2 3 4 5 6 
#
# 1 0.010975 -0.001316 -0.001862 0.000000 0.000000 0.000000
# 2 -0.001316 0.008812 -0.002392 0.000000 0.000000 0.000000
# 3 -0.001862 -0.002392 0.015020 0.000000 0.000000 0.000000
# 4 0.000000 0.000000 0.000000 0.038402 0.000000 0.000000
# 5 0.000000 0.000000 0.000000 0.000000 0.047339 0.000000
# 6 0.000000 0.000000 0.000000 0.000000 0.000000 0.068923
#
#
# Mechanical properties :
#
#
# Convention : Reuss Voigt Hill
#
# Bulk Modulus (GPa) = 42.25334 44.38989 43.32161
# Shear Modulus (GPa) = 23.98069 27.99863 25.98966
#
# Velocity S-wave (km/s) = 3.35372 3.62380 3.49137
# Velocity P-wave (km/s) = 5.90036 6.19104 6.04744
#
# Compressibility (1/GPa) = 0.02366677
#
# Stress axis : x y z
#
# Youngs Moduli (GPa) = 91.11682 113.47814 66.57607
#
# Poissons Ratio (x) = 0.14939 0.12394
# Poissons Ratio (y) = 0.11995 0.15927
# Poissons Ratio (z) = 0.16962 0.27148
#
# Static dielectric constant tensor:
#      x y z
#    x 1.802370 0.000000 0.000000 
#    y 0.000000 1.799910 0.000000 
#    z 0.000000 0.000000 1.931850 
# 
# From -- ./inp_files/16011.got.cif
#   From: 2010.05.17/outbox.cif.g08.bks.cpg/sg50_9_cif.got.tgz:16011.got - 2010.06.03 11:33:33.
