data_PCOD9397663
_publ_section_title
;
Structure prediction by ZEFSAII (Michael W. Deem and Ramdas Pophale) SiO2 
 PCOD9397663
Probable space group: P B A N
;
_chemical_formula_sum "Si O2"
_cell_formula_units_Z 36
_cell_length_a 21.758636
_cell_length_b 7.947017
_cell_length_c 10.859724
_cell_angle_alpha 90.000000
_cell_angle_beta 90.000000
_cell_angle_gamma 90.000000
_cell_volume 1877.822752
_symmetry_space_group_name_H-M "P B A N"
_symmetry_group_IT_number 50
_space_group.IT_coordinate_system_code '2'
_symmetry_cell_setting 'orthorhombic'
loop_
_space_group_symop_operation_xyz
x,y,z
1/2-x,1/2-y,z
x,1/2-y,-z
1/2-x,y,-z
-x,-y,-z
1/2+x,1/2+y,-z
-x,1/2+y,z
1/2+x,-y,z
loop_
_atom_site_type_symbol
_atom_site_label
_atom_site_fract_x
_atom_site_fract_y
_atom_site_fract_z
Si Si1 0.780065 0.081940 0.134592
Si Si2 0.750000 0.750000 0.288649
Si Si3 0.923878 0.043626 0.153170
Si Si4 0.651212 0.750000 0.500000
Si Si5 0.975336 0.750000 0.000000
Si Si6 0.435154 0.562733 0.552659
O O1 0.750000 0.250000 0.192111
O O2 0.853882 0.100073 0.127713
O O3 0.762569 0.915211 0.208684
O O4 0.750000 0.066749 0.000000
O O5 0.692438 0.769987 0.379065
O O6 0.934868 0.057505 0.298901
O O7 0.933445 0.861086 0.090803
O O8 0.977705 0.147516 0.086407
O O9 0.612495 0.579939 0.488169
O O10 0.422319 0.750000 0.500000
O O11 0.500000 0.500000 0.500000
#
# Coordination Sequence:
#
# PCOD9397663 Si02
#       6
#     8   4   8   4   4   8
#     4  11  25  44  68 101 134 178 225 276 344 402
#     4  11  25  44  70  94 135 175 226 278 332 407
#     4  11  24  46  66 106 134 177 229 280 343 411
#     4  11  26  44  64 104 130 175 230 274 336 399
#     4  10  24  42  72  96 140 172 222 288 346 398
#     4  12  25  44  70 101 138 180 225 278 342 406
#
# _framework density 19.171137999999999
#
# number of rings (size 3 to 8) (size 9 to 14) (size 15 to 20)
#    0.000    0.889    3.333    3.000    6.222    0.000 
#    4.000    2.222    0.000    0.000    0.000    0.000 
#    0.000    0.000    0.000    0.000    0.000    0.000 
#
# Total GULP energy -201105.286000 kJ/mol
# GULP energy per Si atom -5586.257944 kJ/mol
# Density = 1.912750 g / cm^3
# Si number density = 19.171138 Si / 1000 Ang^3
#
#
#
# Elastic Constant Matrix: (Units=GPa)
#
#
# Indices 1 2 3 4 5 6 
#
# 1 135.7068 46.1743 49.3271 0.0000 0.0000 0.0000
# 2 46.1743 143.5189 65.2533 0.0000 0.0000 0.0000
# 3 49.3271 65.2533 152.4198 0.0000 0.0000 0.0000
# 4 0.0000 0.0000 0.0000 253.8431 0.0000 0.0000
# 5 0.0000 0.0000 0.0000 0.0000 42.8099 0.0000
# 6 0.0000 0.0000 0.0000 0.0000 0.0000 44.8022
#
#
#
# Elastic Compliance Matrix: (Units=1/GPa)
#
#
# Indices 1 2 3 4 5 6 
#
# 1 0.008748 -0.001896 -0.002019 0.000000 0.000000 0.000000
# 2 -0.001896 0.009063 -0.003266 0.000000 0.000000 0.000000
# 3 -0.002019 -0.003266 0.008613 0.000000 0.000000 0.000000
# 4 0.000000 0.000000 0.000000 0.003939 0.000000 0.000000
# 5 0.000000 0.000000 0.000000 0.000000 0.023359 0.000000
# 6 0.000000 0.000000 0.000000 0.000000 0.000000 0.022320
#
#
# Mechanical properties :
#
#
# Convention : Reuss Voigt Hill
#
# Bulk Modulus (GPa) = 82.92001 83.68388 83.30194
# Shear Modulus (GPa) = 52.95145 86.35043 69.65094
#
# Velocity S-wave (km/s) = 5.26121 6.71861 6.03407
# Velocity P-wave (km/s) = 8.95844 10.19470 9.59650
#
# Compressibility (1/GPa) = 0.01205982
#
# Stress axis : x y z
#
# Youngs Moduli (GPa) = 114.31138 110.33983 116.10867
#
# Poissons Ratio (x) = 0.20925 0.23445
# Poissons Ratio (y) = 0.21678 0.37924
# Poissons Ratio (z) = 0.23082 0.36040
#
# Static dielectric constant tensor:
#      x y z
#    x 1.644060 0.000000 0.000000 
#    y 0.000000 1.717840 0.000000 
#    z 0.000000 0.000000 1.642810 
# 
# From -- ./inp_files/14977.got.cif
#   From: 2010.05.17/outbox.cif.g08.bks.cpg/sg50_8_cif.got.tgz:14977.got - 2010.06.03 11:33:33.
