data_PCOD9397778
_publ_section_title
;
Structure prediction by ZEFSAII (Michael W. Deem and Ramdas Pophale) SiO2 
 PCOD9397778
Probable space group: P B A N
;
_chemical_formula_sum "Si O2"
_cell_formula_units_Z 32
_cell_length_a 6.785281
_cell_length_b 25.469793
_cell_length_c 7.459337
_cell_angle_alpha 90.000000
_cell_angle_beta 90.000000
_cell_angle_gamma 90.000000
_cell_volume 1289.120401
_symmetry_space_group_name_H-M "P B A N"
_symmetry_group_IT_number 50
_space_group.IT_coordinate_system_code '2'
_symmetry_cell_setting 'orthorhombic'
loop_
_space_group_symop_operation_xyz
x,y,z
1/2-x,1/2-y,z
x,1/2-y,-z
1/2-x,y,-z
-x,-y,-z
1/2+x,1/2+y,-z
-x,1/2+y,z
1/2+x,-y,z
loop_
_atom_site_type_symbol
_atom_site_label
_atom_site_fract_x
_atom_site_fract_y
_atom_site_fract_z
Si Si1 0.609649 0.100122 0.170308
Si Si2 0.381384 0.008769 0.639677
Si Si3 0.190599 0.372109 0.709824
Si Si4 0.679089 0.305756 0.209696
O O1 0.624140 0.040890 0.230491
O O2 0.384506 0.119616 0.167892
O O3 0.705157 0.145024 0.295284
O O4 0.750000 0.100970 0.000000
O O5 0.902572 0.931090 0.708214
O O6 0.127515 0.005807 0.589576
O O7 0.250000 0.363605 0.500000
O O8 0.046538 0.325199 0.771899
O O9 0.750000 0.250000 0.285715
O O10 0.750000 0.302516 0.000000
#
# Coordination Sequence:
#
# PCOD9397778 Si02
#       4
#     8   8   8   8
#     4  11  25  43  71 115 152 198 259 317 376 452
#     4  11  20  41  71 102 152 205 243 302 381 457
#     4  11  24  45  77 111 149 200 255 312 387 457
#     4  10  25  50  75 104 148 202 257 318 381 455
#
# _framework density 24.823129999999999
#
# number of rings (size 3 to 8) (size 9 to 14) (size 15 to 20)
#    0.000    1.250    5.000    1.500    0.000    6.000 
#    4.500    8.750    0.000    0.000    0.000    0.000 
#    0.000    0.000    0.000    0.000    0.000    0.000 
#
# Total GULP energy -178356.512284 kJ/mol
# GULP energy per Si atom -5573.641009 kJ/mol
# Density = 2.476663 g / cm^3
# Si number density = 24.823130 Si / 1000 Ang^3
#
#
#
# Elastic Constant Matrix: (Units=GPa)
#
#
# Indices 1 2 3 4 5 6 
#
# 1 202.0835 65.2159 71.3382 0.0000 0.0000 0.0000
# 2 65.2159 199.1029 63.7811 0.0000 0.0000 0.0000
# 3 71.3382 63.7811 100.5102 0.0000 0.0000 0.0000
# 4 0.0000 0.0000 0.0000 57.5318 0.0000 0.0000
# 5 0.0000 0.0000 0.0000 0.0000 49.9789 0.0000
# 6 0.0000 0.0000 0.0000 0.0000 0.0000 -162.1098
#
#
#
# Elastic Compliance Matrix: (Units=1/GPa)
#
#
# Indices 1 2 3 4 5 6 
#
# 1 0.006714 -0.000844 -0.004230 0.000000 0.000000 0.000000
# 2 -0.000844 0.006410 -0.003469 0.000000 0.000000 0.000000
# 3 -0.004230 -0.003469 0.015152 0.000000 0.000000 0.000000
# 4 0.000000 0.000000 0.000000 0.017382 0.000000 0.000000
# 5 0.000000 0.000000 0.000000 0.000000 0.020008 0.000000
# 6 0.000000 0.000000 0.000000 0.000000 0.000000 -0.006169
#
#
# Mechanical properties :
#
#
# Convention : Reuss Voigt Hill
#
# Bulk Modulus (GPa) = 89.35171 100.26301 94.80736
# Shear Modulus (GPa) = 62.25623 9.17093 35.71358
#
# Velocity S-wave (km/s) = 5.01342 1.92420 3.79716
# Velocity P-wave (km/s) = 8.34182 6.73909 7.58292
#
# Compressibility (1/GPa) = 0.01119173
#
# Stress axis : x y z
#
# Youngs Moduli (GPa) = 148.94220 156.00209 65.99670
#
# Poissons Ratio (x) = 0.13170 0.27914
# Poissons Ratio (y) = 0.12574 0.22891
# Poissons Ratio (z) = 0.62997 0.54109
#
# Static dielectric constant tensor:
#      x y z
#    x 2.167870 0.000000 0.000000 
#    y 0.000000 1.931810 0.000000 
#    z 0.000000 0.000000 1.887730 
# 
# From -- ./inp_files/7989.got.cif
#   From: 2010.05.17/outbox.cif.g08.bks.cpg/sg50_4_cif.got.tgz:7989.got - 2010.06.03 11:33:33.
