data_PCOD9397643
_publ_section_title
;
Structure prediction by ZEFSAII (Michael W. Deem and Ramdas Pophale) SiO2 
 PCOD9397643
Probable space group: P B A N
;
_chemical_formula_sum "Si O2"
_cell_formula_units_Z 30
_cell_length_a 31.189706
_cell_length_b 7.845904
_cell_length_c 5.502726
_cell_angle_alpha 90.000000
_cell_angle_beta 90.000000
_cell_angle_gamma 90.000000
_cell_volume 1346.579998
_symmetry_space_group_name_H-M "P B A N"
_symmetry_group_IT_number 50
_space_group.IT_coordinate_system_code '2'
_symmetry_cell_setting 'orthorhombic'
loop_
_space_group_symop_operation_xyz
x,y,z
1/2-x,1/2-y,z
x,1/2-y,-z
1/2-x,y,-z
-x,-y,-z
1/2+x,1/2+y,-z
-x,1/2+y,z
1/2+x,-y,z
loop_
_atom_site_type_symbol
_atom_site_label
_atom_site_fract_x
_atom_site_fract_y
_atom_site_fract_z
Si Si1 0.250000 0.750000 0.000000
Si Si2 0.501805 0.750000 0.000000
Si Si3 0.860740 0.452866 0.462768
Si Si4 0.542524 0.496955 0.657044
Si Si5 0.315478 0.446247 0.947883
O O1 0.282409 0.604390 0.892817
O O2 0.467813 0.659789 0.172101
O O3 0.535201 0.844979 0.170215
O O4 0.853940 0.250000 0.500000
O O5 0.911590 0.487101 0.459506
O O6 0.842342 0.552743 0.696965
O O7 0.840308 0.502888 0.199445
O O8 0.500000 0.500000 0.500000
O O9 0.300062 0.250000 0.000000
#
# Coordination Sequence:
#
# PCOD9397643 Si02
#       5
#     2   4   8   8   8
#     4  12  26  60  84 116 164 198 262 318 422 472
#     4  10  24  41  64 104 138 210 268 316 375 456
#     4  12  26  49  76 113 160 206 262 324 394 460
#     4  11  25  42  69 101 150 208 260 317 386 452
#     4  12  29  50  83 120 152 205 256 324 394 483
#
# _framework density 22.278663000000002
#
# number of rings (size 3 to 8) (size 9 to 14) (size 15 to 20)
#    0.000    0.533    2.667    3.600   13.067    4.267 
#    0.000    2.667    0.000    0.000    0.000    0.000 
#    0.000    0.000    0.000    0.000    0.000    0.000 
#
# Total GULP energy -167032.298054 kJ/mol
# GULP energy per Si atom -5567.743268 kJ/mol
# Density = 2.222796 g / cm^3
# Si number density = 22.278663 Si / 1000 Ang^3
#
#
#
# Elastic Constant Matrix: (Units=GPa)
#
#
# Indices 1 2 3 4 5 6 
#
# 1 107.9943 49.9063 56.7967 0.0000 0.0000 0.0000
# 2 49.9063 120.3924 35.0602 0.0000 0.0000 0.0000
# 3 56.7967 35.0602 152.9331 0.0000 0.0000 0.0000
# 4 0.0000 0.0000 0.0000 -3.1977 0.0000 0.0000
# 5 0.0000 0.0000 0.0000 0.0000 -26.1878 0.0000
# 6 0.0000 0.0000 0.0000 0.0000 0.0000 42.3053
#
#
#
# Elastic Compliance Matrix: (Units=1/GPa)
#
#
# Indices 1 2 3 4 5 6 
#
# 1 0.013370 -0.004389 -0.003959 0.000000 0.000000 0.000000
# 2 -0.004389 0.010341 -0.000741 0.000000 0.000000 0.000000
# 3 -0.003959 -0.000741 0.008179 0.000000 0.000000 0.000000
# 4 0.000000 0.000000 0.000000 -0.312722 0.000000 0.000000
# 5 0.000000 0.000000 0.000000 0.000000 -0.038186 0.000000
# 6 0.000000 0.000000 0.000000 0.000000 0.000000 0.023638
#
#
# Mechanical properties :
#
#
# Convention : Reuss Voigt Hill
#
# Bulk Modulus (GPa) = 72.92782 73.87180 73.39981
# Shear Modulus (GPa) = -18.33989 18.55439 0.10725
#
# Velocity S-wave (km/s) = -2.87227 2.88901 0.21965
# Velocity P-wave (km/s) = 4.66964 6.66023 5.75170
#
# Compressibility (1/GPa) = 0.01371219
#
# Stress axis : x y z
#
# Youngs Moduli (GPa) = 74.79169 96.69857 122.26439
#
# Poissons Ratio (x) = 0.42445 0.48408
# Poissons Ratio (y) = 0.32830 0.09055
# Poissons Ratio (z) = 0.29612 0.07162
#
# Static dielectric constant tensor:
#      x y z
#    x 1.048560 0.000000 0.000000 
#    y 0.000000 1.934220 0.000000 
#    z 0.000000 0.000000 1.324510 
# 
# From -- ./inp_files/6952.got.cif
#   From: 2010.05.17/outbox.cif.g08.bks.cpg/sg50_4_cif.got.tgz:6952.got - 2010.06.03 11:33:33.
