data_PCOD9397150
_publ_section_title
;
Structure prediction by ZEFSAII (Michael W. Deem and Ramdas Pophale) SiO2 
 PCOD9397150
Probable space group: P B A N
;
_chemical_formula_sum "Si O2"
_cell_formula_units_Z 38
_cell_length_a 4.894549
_cell_length_b 12.359132
_cell_length_c 27.184162
_cell_angle_alpha 90.000000
_cell_angle_beta 90.000000
_cell_angle_gamma 90.000000
_cell_volume 1644.434581
_symmetry_space_group_name_H-M "P B A N"
_symmetry_group_IT_number 50
_space_group.IT_coordinate_system_code '2'
_symmetry_cell_setting 'orthorhombic'
loop_
_space_group_symop_operation_xyz
x,y,z
1/2-x,1/2-y,z
x,1/2-y,-z
1/2-x,y,-z
-x,-y,-z
1/2+x,1/2+y,-z
-x,1/2+y,z
1/2+x,-y,z
loop_
_atom_site_type_symbol
_atom_site_label
_atom_site_fract_x
_atom_site_fract_y
_atom_site_fract_z
Si Si1 0.502019 0.571309 0.136989
Si Si2 0.750000 0.582114 0.500000
Si Si3 0.250000 0.250000 0.314711
Si Si4 0.750000 0.250000 0.066245
Si Si5 0.642773 0.581484 0.605827
Si Si6 0.560728 0.076113 0.251239
Si Si7 0.250000 0.250000 0.000000
O O1 0.813636 0.535296 0.130678
O O2 0.394994 0.659787 0.099340
O O3 0.461623 0.606457 0.193593
O O4 0.500000 0.500000 0.500000
O O5 0.688824 0.636752 0.552260
O O6 0.397979 0.331859 0.351875
O O7 0.454779 0.176996 0.282556
O O8 0.488813 0.300896 0.035568
O O9 0.408086 0.492938 0.610332
O O10 0.358996 0.973373 0.260088
#
# Coordination Sequence:
#
# PCOD9397150 Si02
#       7
#     8   4   4   4   8   8   2
#     4  10  22  41  66  91 120 166 216 255 300 366
#     4   8  16  35  58  79 114 156 198 257 308 355
#     4  12  24  38  64  88 124 168 196 252 330 372
#     4  11  22  44  66  94 136 170 208 259 314 368
#     4  10  22  39  59  87 120 158 207 256 308 379
#     4  10  24  42  60  90 123 155 207 259 301 363
#     4  10  24  40  64 102 140 166 200 266 320 364
#
# _framework density 23.108246000000001
#
# number of rings (size 3 to 8) (size 9 to 14) (size 15 to 20)
#    0.000    1.895    0.000    2.526    0.000    9.684 
#    0.000   10.526    0.000    7.579    0.000    0.000 
#    0.000    0.000    0.000    0.000    0.000    0.000 
#
# Total GULP energy -211997.559583 kJ/mol
# GULP energy per Si atom -5578.883147 kJ/mol
# Density = 2.305565 g / cm^3
# Si number density = 23.108246 Si / 1000 Ang^3
#
#
#
# Elastic Constant Matrix: (Units=GPa)
#
#
# Indices 1 2 3 4 5 6 
#
# 1 127.9572 7.1640 19.4873 0.0000 0.0000 0.0000
# 2 7.1640 78.2221 53.5465 0.0000 0.0000 0.0000
# 3 19.4873 53.5465 149.3561 0.0000 0.0000 0.0000
# 4 0.0000 0.0000 0.0000 6.7595 0.0000 0.0000
# 5 0.0000 0.0000 0.0000 0.0000 29.4053 0.0000
# 6 0.0000 0.0000 0.0000 0.0000 0.0000 11.2630
#
#
#
# Elastic Compliance Matrix: (Units=1/GPa)
#
#
# Indices 1 2 3 4 5 6 
#
# 1 0.007974 -0.000024 -0.001032 0.000000 0.000000 0.000000
# 2 -0.000024 0.016942 -0.006071 0.000000 0.000000 0.000000
# 3 -0.001032 -0.006071 0.009007 0.000000 0.000000 0.000000
# 4 0.000000 0.000000 0.000000 0.147941 0.000000 0.000000
# 5 0.000000 0.000000 0.000000 0.000000 0.034008 0.000000
# 6 0.000000 0.000000 0.000000 0.000000 0.000000 0.088786
#
#
# Mechanical properties :
#
#
# Convention : Reuss Voigt Hill
#
# Bulk Modulus (GPa) = 50.84145 57.32566 54.08355
# Shear Modulus (GPa) = 15.36258 27.84139 21.60198
#
# Velocity S-wave (km/s) = 2.58119 3.47482 3.06079
# Velocity P-wave (km/s) = 5.56171 6.40004 5.99554
#
# Compressibility (1/GPa) = 0.01966899
#
# Stress axis : x y z
#
# Youngs Moduli (GPa) = 125.41400 59.02458 111.03051
#
# Poissons Ratio (x) = 0.00141 0.11456
# Poissons Ratio (y) = 0.00301 0.67405
# Poissons Ratio (z) = 0.12940 0.35833
#
# Static dielectric constant tensor:
#      x y z
#    x 1.821760 0.000000 0.000000 
#    y 0.000000 1.858010 0.000000 
#    z 0.000000 0.000000 1.982320 
# 
# From -- ./inp_files/32335.got.cif
#   From: 2010.05.17/outbox.cif.g08.bks.cpg/sg50_17_cif.got.tgz:32335.got - 2010.06.03 11:33:33.
