data_PCOD9397956
_publ_section_title
;
Structure prediction by ZEFSAII (Michael W. Deem and Ramdas Pophale) SiO2 
 PCOD9397956
Probable space group: P B A N
;
_chemical_formula_sum "Si O2"
_cell_formula_units_Z 28
_cell_length_a 18.101346
_cell_length_b 8.186189
_cell_length_c 7.124456
_cell_angle_alpha 90.000000
_cell_angle_beta 90.000000
_cell_angle_gamma 90.000000
_cell_volume 1055.709296
_symmetry_space_group_name_H-M "P B A N"
_symmetry_group_IT_number 50
_space_group.IT_coordinate_system_code '2'
_symmetry_cell_setting 'orthorhombic'
loop_
_space_group_symop_operation_xyz
x,y,z
1/2-x,1/2-y,z
x,1/2-y,-z
1/2-x,y,-z
-x,-y,-z
1/2+x,1/2+y,-z
-x,1/2+y,z
1/2+x,-y,z
loop_
_atom_site_type_symbol
_atom_site_label
_atom_site_fract_x
_atom_site_fract_y
_atom_site_fract_z
Si Si1 0.250000 0.750000 0.748811
Si Si2 0.290630 0.404415 0.797347
Si Si3 0.566603 0.714995 0.721882
Si Si4 0.907961 0.171620 0.712683
O O1 0.275603 0.568371 0.683522
O O2 0.168359 0.704402 0.817683
O O3 0.250000 0.250000 0.708628
O O4 0.374950 0.342246 0.812619
O O5 0.250000 0.427216 0.000000
O O6 0.568897 0.750000 0.500000
O O7 0.583341 0.523208 0.728277
O O8 0.483243 0.749275 0.785986
O O9 0.899613 0.250000 0.500000
#
# Coordination Sequence:
#
# PCOD9397956 Si02
#       4
#     4   8   8   8
#     4  12  22  42  66 102 138 185 229 280 347 406
#     4  11  24  44  68  94 139 178 234 284 342 405
#     4  11  22  42  67 101 141 183 229 286 348 414
#     4  11  22  38  66 104 143 178 229 283 346 420
#
# _framework density 26.522449999999999
#
# number of rings (size 3 to 8) (size 9 to 14) (size 15 to 20)
#    0.000    0.857    2.857    7.714    0.000    0.571 
#    0.000    1.429    6.286    0.000    0.000    0.000 
#    0.000    0.000    0.000    0.000    0.000    0.000 
#
# Total GULP energy -156128.252018 kJ/mol
# GULP energy per Si atom -5576.009001 kJ/mol
# Density = 2.646208 g / cm^3
# Si number density = 26.522450 Si / 1000 Ang^3
#
#
#
# Elastic Constant Matrix: (Units=GPa)
#
#
# Indices 1 2 3 4 5 6 
#
# 1 314.3253 97.0920 52.0097 0.0000 0.0000 0.0000
# 2 97.0920 284.3048 38.6619 0.0000 0.0000 0.0000
# 3 52.0097 38.6619 128.4759 0.0000 0.0000 0.0000
# 4 0.0000 0.0000 0.0000 -13.0314 0.0000 0.0000
# 5 0.0000 0.0000 0.0000 0.0000 -128.7668 0.0000
# 6 0.0000 0.0000 0.0000 0.0000 0.0000 66.3515
#
#
#
# Elastic Compliance Matrix: (Units=1/GPa)
#
#
# Indices 1 2 3 4 5 6 
#
# 1 0.003718 -0.001111 -0.001171 0.000000 0.000000 0.000000
# 2 -0.001111 0.003999 -0.000754 0.000000 0.000000 0.000000
# 3 -0.001171 -0.000754 0.008484 0.000000 0.000000 0.000000
# 4 0.000000 0.000000 0.000000 -0.076738 0.000000 0.000000
# 5 0.000000 0.000000 0.000000 0.000000 -0.007766 0.000000
# 6 0.000000 0.000000 0.000000 0.000000 0.000000 0.015071
#
#
# Mechanical properties :
#
#
# Convention : Reuss Voigt Hill
#
# Bulk Modulus (GPa) = 98.70752 122.51479 110.61115
# Shear Modulus (GPa) = -114.20058 20.86683 -46.66688
#
# Velocity S-wave (km/s) = -6.56898 2.80797 -4.19922
# Velocity P-wave (km/s) = 4.49867 7.53698 4.27598
#
# Compressibility (1/GPa) = 0.01013094
#
# Stress axis : x y z
#
# Youngs Moduli (GPa) = 268.94609 250.05434 117.86234
#
# Poissons Ratio (x) = 0.27770 0.13802
# Poissons Ratio (y) = 0.29868 0.08885
# Poissons Ratio (z) = 0.31494 0.18851
#
# Static dielectric constant tensor:
#      x y z
#    x 2.047820 0.000000 0.000000 
#    y 0.000000 2.066960 0.000000 
#    z 0.000000 0.000000 2.218920 
# 
# From -- ./inp_files/8822.got.cif
#   From: 2010.05.17/outbox.cif.g08.bks.cpg/sg50_5_cif.got.tgz:8822.got - 2010.06.03 11:33:33.
