data_PCOD9397923
_publ_section_title
;
Structure prediction by ZEFSAII (Michael W. Deem and Ramdas Pophale) SiO2 
 PCOD9397923
Probable space group: P B A N
;
_chemical_formula_sum "Si O2"
_cell_formula_units_Z 24
_cell_length_a 14.130118
_cell_length_b 8.637644
_cell_length_c 7.829492
_cell_angle_alpha 90.000000
_cell_angle_beta 90.000000
_cell_angle_gamma 90.000000
_cell_volume 955.596772
_symmetry_space_group_name_H-M "P B A N"
_symmetry_group_IT_number 50
_space_group.IT_coordinate_system_code '2'
_symmetry_cell_setting 'orthorhombic'
loop_
_space_group_symop_operation_xyz
x,y,z
1/2-x,1/2-y,z
x,1/2-y,-z
1/2-x,y,-z
-x,-y,-z
1/2+x,1/2+y,-z
-x,1/2+y,z
1/2+x,-y,z
loop_
_atom_site_type_symbol
_atom_site_label
_atom_site_fract_x
_atom_site_fract_y
_atom_site_fract_z
Si Si1 0.748651 0.433759 0.796262
Si Si2 0.056199 0.886532 0.122902
Si Si3 0.081555 0.397850 0.402996
O O1 0.750000 0.250000 0.763915
O O2 0.638137 0.469403 0.766969
O O3 0.832239 0.507799 0.685639
O O4 0.750000 0.471707 0.000000
O O5 0.980048 0.820198 0.251296
O O6 0.094490 0.750000 0.000000
O O7 0.000000 0.000000 0.000000
O O8 0.121580 0.250000 0.500000
O O9 0.000000 0.500000 0.500000
#
# Coordination Sequence:
#
# PCOD9397923 Si02
#       3
#     8   8   8
#     4  11  21  45  80 114 155 220 281 332 412 508
#     4  12  23  45  78 110 153 215 279 327 404 507
#     4  12  27  49  78 126 171 210 272 357 429 488
#
# _framework density 25.115195
#
# number of rings (size 3 to 8) (size 9 to 14) (size 15 to 20)
#    0.000    0.333    6.667    4.000    0.000    1.333 
#    0.000   16.667    0.000    0.000    0.000    0.000 
#    0.000    0.000    0.000    0.000    0.000    0.000 
#
# Total GULP energy -134031.298614 kJ/mol
# GULP energy per Si atom -5584.637442 kJ/mol
# Density = 2.505803 g / cm^3
# Si number density = 25.115195 Si / 1000 Ang^3
#
#
#
# Elastic Constant Matrix: (Units=GPa)
#
#
# Indices 1 2 3 4 5 6 
#
# 1 234.2138 83.6597 84.8028 0.0000 0.0000 0.0000
# 2 83.6597 126.2606 71.7204 0.0000 0.0000 0.0000
# 3 84.8028 71.7204 100.7288 0.0000 0.0000 0.0000
# 4 0.0000 0.0000 0.0000 37.7324 0.0000 0.0000
# 5 0.0000 0.0000 0.0000 0.0000 73.7854 0.0000
# 6 0.0000 0.0000 0.0000 0.0000 0.0000 44.3806
#
#
#
# Elastic Compliance Matrix: (Units=1/GPa)
#
#
# Indices 1 2 3 4 5 6 
#
# 1 0.006426 -0.001989 -0.003994 0.000000 0.000000 0.000000
# 2 -0.001989 0.013915 -0.008233 0.000000 0.000000 0.000000
# 3 -0.003994 -0.008233 0.019152 0.000000 0.000000 0.000000
# 4 0.000000 0.000000 0.000000 0.026502 0.000000 0.000000
# 5 0.000000 0.000000 0.000000 0.000000 0.013553 0.000000
# 6 0.000000 0.000000 0.000000 0.000000 0.000000 0.022532
#
#
# Mechanical properties :
#
#
# Convention : Reuss Voigt Hill
#
# Bulk Modulus (GPa) = 90.40655 104.61876 97.51265
# Shear Modulus (GPa) = 37.25821 45.91437 41.58629
#
# Velocity S-wave (km/s) = 3.85579 4.28033 4.07359
# Velocity P-wave (km/s) = 7.47648 8.13476 7.81255
#
# Compressibility (1/GPa) = 0.01106115
#
# Stress axis : x y z
#
# Youngs Moduli (GPa) = 155.61233 71.86637 52.21492
#
# Poissons Ratio (x) = 0.14297 0.20853
# Poissons Ratio (y) = 0.30958 0.42986
# Poissons Ratio (z) = 0.62147 0.59165
#
# Static dielectric constant tensor:
#      x y z
#    x 2.161290 0.000000 0.000000 
#    y 0.000000 1.854050 0.000000 
#    z 0.000000 0.000000 2.472950 
# 
# From -- ./inp_files/11969.got.cif
#   From: 2010.05.17/outbox.cif.g08.bks.cpg/sg50_6_cif.got.tgz:11969.got - 2010.06.03 11:33:33.
