data_PCOD9397434
_publ_section_title
;
Structure prediction by ZEFSAII (Michael W. Deem and Ramdas Pophale) SiO2 
 PCOD9397434
Probable space group: P B A N
;
_chemical_formula_sum "Si O2"
_cell_formula_units_Z 64
_cell_length_a 14.696922
_cell_length_b 8.257753
_cell_length_c 25.962219
_cell_angle_alpha 90.000000
_cell_angle_beta 90.000000
_cell_angle_gamma 90.000000
_cell_volume 3150.867109
_symmetry_space_group_name_H-M "P B A N"
_symmetry_group_IT_number 50
_space_group.IT_coordinate_system_code '2'
_symmetry_cell_setting 'orthorhombic'
loop_
_space_group_symop_operation_xyz
x,y,z
1/2-x,1/2-y,z
x,1/2-y,-z
1/2-x,y,-z
-x,-y,-z
1/2+x,1/2+y,-z
-x,1/2+y,z
1/2+x,-y,z
loop_
_atom_site_type_symbol
_atom_site_label
_atom_site_fract_x
_atom_site_fract_y
_atom_site_fract_z
Si Si1 0.619113 0.006801 0.279715
Si Si2 0.473350 0.250635 0.439723
Si Si3 0.896497 0.554890 0.002335
Si Si4 0.083718 0.608564 0.277644
Si Si5 0.732890 0.442933 0.199044
Si Si6 0.248110 0.054742 0.917529
Si Si7 0.307411 0.417441 0.391911
Si Si8 0.373839 0.560423 0.606517
O O1 0.603557 0.200224 0.280679
O O2 0.688845 0.974438 0.233456
O O3 0.522699 0.921940 0.272444
O O4 0.659560 0.954045 0.334367
O O5 0.492060 0.250000 0.500000
O O6 0.396230 0.385804 0.426435
O O7 0.565897 0.285049 0.408599
O O8 0.426792 0.085135 0.421535
O O9 0.841139 0.502582 0.053551
O O10 0.895600 0.750000 0.000000
O O11 0.835361 0.499378 0.953838
O O12 0.000000 0.500000 0.000000
O O13 0.139160 0.533573 0.230127
O O14 0.118189 0.536684 0.331985
O O15 0.750000 0.250000 0.199522
O O16 0.736020 0.498493 0.140511
O O17 0.250000 0.250000 0.917872
O O18 0.250000 0.250000 0.607827
O O19 0.232181 0.550181 0.407925
#
# Coordination Sequence:
#
# PCOD9397434 Si02
#       8
#     8   8   8   8   8   8   8   8
#     4  11  23  40  61  88 122 161 205 256 305 375
#     4  11  24  43  65  92 124 157 201 255 311 374
#     4   9  19  37  62  88 123 163 213 250 307 364
#     4  11  23  39  63  89 119 161 206 252 312 373
#     4  10  23  40  58  88 126 159 206 261 307 361
#     4   9  20  39  59  87 123 167 205 257 303 365
#     4  10  23  38  65  90 119 158 200 246 310 375
#     4  11  22  41  65  89 121 161 199 250 313 371
#
# _framework density 20.311869000000002
#
# number of rings (size 3 to 8) (size 9 to 14) (size 15 to 20)
#    0.000    1.750    2.500    1.875    1.750    5.750 
#    0.000    6.250    0.000    0.000    0.000    0.000 
#    0.000    0.000    0.000    0.000    0.000    0.000 
#
# Total GULP energy -357668.988119 kJ/mol
# GULP energy per Si atom -5588.577939 kJ/mol
# Density = 2.026564 g / cm^3
# Si number density = 20.311869 Si / 1000 Ang^3
#
#
#
# Elastic Constant Matrix: (Units=GPa)
#
#
# Indices 1 2 3 4 5 6 
#
# 1 149.9036 6.3375 52.8902 0.0000 0.0000 0.0000
# 2 6.3375 16.9964 5.4639 0.0000 0.0000 0.0000
# 3 52.8902 5.4639 141.2949 0.0000 0.0000 0.0000
# 4 0.0000 0.0000 0.0000 27.3125 0.0000 0.0000
# 5 0.0000 0.0000 0.0000 0.0000 21.7859 0.0000
# 6 0.0000 0.0000 0.0000 0.0000 0.0000 29.5940
#
#
#
# Elastic Compliance Matrix: (Units=1/GPa)
#
#
# Indices 1 2 3 4 5 6 
#
# 1 0.007751 -0.001982 -0.002825 0.000000 0.000000 0.000000
# 2 -0.001982 0.060083 -0.001581 0.000000 0.000000 0.000000
# 3 -0.002825 -0.001581 0.008196 0.000000 0.000000 0.000000
# 4 0.000000 0.000000 0.000000 0.036613 0.000000 0.000000
# 5 0.000000 0.000000 0.000000 0.000000 0.045901 0.000000
# 6 0.000000 0.000000 0.000000 0.000000 0.000000 0.033791
#
#
# Mechanical properties :
#
#
# Convention : Reuss Voigt Hill
#
# Bulk Modulus (GPa) = 15.80935 48.61980 32.21458
# Shear Modulus (GPa) = 22.10456 31.97202 27.03829
#
# Velocity S-wave (km/s) = 3.30245 3.97174 3.65246
# Velocity P-wave (km/s) = 4.72671 6.70981 5.80359
#
# Compressibility (1/GPa) = 0.06325371
#
# Stress axis : x y z
#
# Youngs Moduli (GPa) = 129.00781 16.64354 122.01084
#
# Poissons Ratio (x) = 0.03299 0.34467
# Poissons Ratio (y) = 0.25572 0.19296
# Poissons Ratio (z) = 0.36444 0.02632
#
# Static dielectric constant tensor:
#      x y z
#    x 1.720880 0.000000 0.000000 
#    y 0.000000 1.774650 0.000000 
#    z 0.000000 0.000000 1.642480 
# 
# From -- ./inp_files/31771.got.cif
#   From: 2010.05.17/outbox.cif.g08.bks.cpg/sg50_16_cif.got.tgz:31771.got - 2010.06.03 11:33:33.
