data_PCOD9397456
_publ_section_title
;
Structure prediction by ZEFSAII (Michael W. Deem and Ramdas Pophale) SiO2 
 PCOD9397456
Probable space group: P B A N
;
_chemical_formula_sum "Si O2"
_cell_formula_units_Z 40
_cell_length_a 10.793373
_cell_length_b 21.924384
_cell_length_c 8.624101
_cell_angle_alpha 90.000000
_cell_angle_beta 90.000000
_cell_angle_gamma 90.000000
_cell_volume 2040.790481
_symmetry_space_group_name_H-M "P B A N"
_symmetry_group_IT_number 50
_space_group.IT_coordinate_system_code '2'
_symmetry_cell_setting 'orthorhombic'
loop_
_space_group_symop_operation_xyz
x,y,z
1/2-x,1/2-y,z
x,1/2-y,-z
1/2-x,y,-z
-x,-y,-z
1/2+x,1/2+y,-z
-x,1/2+y,z
1/2+x,-y,z
loop_
_atom_site_type_symbol
_atom_site_label
_atom_site_fract_x
_atom_site_fract_y
_atom_site_fract_z
Si Si1 0.374509 0.009189 0.602826
Si Si2 0.761816 0.411614 0.174707
Si Si3 0.551931 0.185730 0.091020
Si Si4 0.388928 0.254730 0.317257
Si Si5 0.016176 0.116578 0.205067
O O1 0.250000 0.019898 0.500000
O O2 0.345145 0.950633 0.709800
O O3 0.500000 0.000000 0.500000
O O4 0.397452 0.064648 0.723411
O O5 0.822632 0.345432 0.148330
O O6 0.624260 0.403871 0.239848
O O7 0.750000 0.439080 0.000000
O O8 0.467811 0.202377 0.236157
O O9 0.569497 0.250000 0.000000
O O10 0.488320 0.135671 0.977144
O O11 0.250000 0.250000 0.252572
O O12 0.384901 0.250000 0.500000
O O13 0.447881 0.319832 0.281673
#
# Coordination Sequence:
#
# PCOD9397456 Si02
#       5
#     8   8   8   8   8
#     4  12  26  45  69  97 137 183 233 290 344 407
#     4  10  23  44  68  97 136 172 233 277 350 421
#     4   9  21  41  68  96 134 174 221 282 346 420
#     4  10  23  40  62  97 133 174 224 275 347 414
#     4  10  23  43  63  95 131 176 220 281 339 404
#
# _framework density 19.600248000000001
#
# number of rings (size 3 to 8) (size 9 to 14) (size 15 to 20)
#    0.000    1.800    2.000    0.000    5.600   16.000 
#    3.600    1.000    0.000    0.000    0.000    0.000 
#    0.000    0.000    0.000    0.000    0.000    0.000 
#
# Total GULP energy -223086.599813 kJ/mol
# GULP energy per Si atom -5577.164995 kJ/mol
# Density = 1.955564 g / cm^3
# Si number density = 19.600248 Si / 1000 Ang^3
#
#
#
# Elastic Constant Matrix: (Units=GPa)
#
#
# Indices 1 2 3 4 5 6 
#
# 1 116.9706 42.1549 54.0349 0.0000 0.0000 0.0000
# 2 42.1549 79.7995 42.7748 0.0000 0.0000 0.0000
# 3 54.0349 42.7748 64.8219 0.0000 0.0000 0.0000
# 4 0.0000 0.0000 0.0000 25.9454 0.0000 0.0000
# 5 0.0000 0.0000 0.0000 0.0000 -19.5327 0.0000
# 6 0.0000 0.0000 0.0000 0.0000 0.0000 31.5793
#
#
#
# Elastic Compliance Matrix: (Units=1/GPa)
#
#
# Indices 1 2 3 4 5 6 
#
# 1 0.014063 -0.001772 -0.010553 0.000000 0.000000 0.000000
# 2 -0.001772 0.019613 -0.011465 0.000000 0.000000 0.000000
# 3 -0.010553 -0.011465 0.031790 0.000000 0.000000 0.000000
# 4 0.000000 0.000000 0.000000 0.038543 0.000000 0.000000
# 5 0.000000 0.000000 0.000000 0.000000 -0.051196 0.000000
# 6 0.000000 0.000000 0.000000 0.000000 0.000000 0.031666
#
#
# Mechanical properties :
#
#
# Convention : Reuss Voigt Hill
#
# Bulk Modulus (GPa) = 55.91405 59.94681 57.93043
# Shear Modulus (GPa) = 36.22617 15.77354 25.99986
#
# Velocity S-wave (km/s) = 4.30379 2.83991 3.64607
# Velocity P-wave (km/s) = 7.29972 6.43464 6.88079
#
# Compressibility (1/GPa) = 0.01788459
#
# Stress axis : x y z
#
# Youngs Moduli (GPa) = 71.10881 50.98613 31.45652
#
# Poissons Ratio (x) = 0.09034 0.33198
# Poissons Ratio (y) = 0.12600 0.36066
# Poissons Ratio (z) = 0.75045 0.58457
#
# Static dielectric constant tensor:
#      x y z
#    x 1.705970 0.000000 0.000000 
#    y 0.000000 1.668810 0.000000 
#    z 0.000000 0.000000 1.626810 
# 
# From -- ./inp_files/11331.got.cif
#   From: 2010.05.17/outbox.cif.g08.bks.cpg/sg50_6_cif.got.tgz:11331.got - 2010.06.03 11:33:33.
