data_PCOD9397501
_publ_section_title
;
Structure prediction by ZEFSAII (Michael W. Deem and Ramdas Pophale) SiO2 
 PCOD9397501
Probable space group: P B A N
;
_chemical_formula_sum "Si O2"
_cell_formula_units_Z 32
_cell_length_a 14.140594
_cell_length_b 5.355362
_cell_length_c 18.686972
_cell_angle_alpha 90.000000
_cell_angle_beta 90.000000
_cell_angle_gamma 90.000000
_cell_volume 1415.127011
_symmetry_space_group_name_H-M "P B A N"
_symmetry_group_IT_number 50
_space_group.IT_coordinate_system_code '2'
_symmetry_cell_setting 'orthorhombic'
loop_
_space_group_symop_operation_xyz
x,y,z
1/2-x,1/2-y,z
x,1/2-y,-z
1/2-x,y,-z
-x,-y,-z
1/2+x,1/2+y,-z
-x,1/2+y,z
1/2+x,-y,z
loop_
_atom_site_type_symbol
_atom_site_label
_atom_site_fract_x
_atom_site_fract_y
_atom_site_fract_z
Si Si1 0.325950 0.418815 0.443312
Si Si2 0.312310 0.995655 0.817703
Si Si3 0.559987 0.370031 0.681563
Si Si4 0.893710 0.501535 0.031344
O O1 0.250000 0.250000 0.397463
O O2 0.386472 0.250000 0.500000
O O3 0.250000 0.518504 0.500000
O O4 0.385568 0.591516 0.393288
O O5 0.250000 0.250000 0.813433
O O6 0.368231 0.934566 0.745248
O O7 0.250000 0.750000 0.833043
O O8 0.385735 0.016358 0.883539
O O9 0.518629 0.090788 0.685608
O O10 0.850914 0.250000 0.000000
O O11 0.000000 0.500000 0.000000
O O12 0.849052 0.750000 0.000000
#
# Coordination Sequence:
#
# PCOD9397501 Si02
#       4
#     8   8   8   8
#     4   6  17  42  69  96 140 182 227 280 354 401
#     4  12  27  46  72 104 143 187 236 287 357 424
#     4  12  26  43  73 106 143 184 237 289 353 418
#     4  10  23  41  71  97 140 179 231 288 358 402
#
# _framework density 22.612812000000002
#
# number of rings (size 3 to 8) (size 9 to 14) (size 15 to 20)
#    1.500    0.500    0.000    3.750    7.000    4.000 
#    0.000    1.250    0.000    0.000    0.000    0.000 
#    0.000    0.000    0.000    0.000    0.000    0.000 
#
# Total GULP energy -178267.687199 kJ/mol
# GULP energy per Si atom -5570.865225 kJ/mol
# Density = 2.256134 g / cm^3
# Si number density = 22.612812 Si / 1000 Ang^3
#
#
#
# Elastic Constant Matrix: (Units=GPa)
#
#
# Indices 1 2 3 4 5 6 
#
# 1 94.0721 6.9020 30.8740 0.0000 0.0000 0.0000
# 2 6.9020 120.7633 -8.1233 0.0000 0.0000 0.0000
# 3 30.8740 -8.1233 131.7695 0.0000 0.0000 0.0000
# 4 0.0000 0.0000 0.0000 163.7507 0.0000 0.0000
# 5 0.0000 0.0000 0.0000 0.0000 671.4064 0.0000
# 6 0.0000 0.0000 0.0000 0.0000 0.0000 43.9829
#
#
#
# Elastic Compliance Matrix: (Units=1/GPa)
#
#
# Indices 1 2 3 4 5 6 
#
# 1 0.011602 -0.000849 -0.002771 0.000000 0.000000 0.000000
# 2 -0.000849 0.008377 0.000715 0.000000 0.000000 0.000000
# 3 -0.002771 0.000715 0.008282 0.000000 0.000000 0.000000
# 4 0.000000 0.000000 0.000000 0.006107 0.000000 0.000000
# 5 0.000000 0.000000 0.000000 0.000000 0.001489 0.000000
# 6 0.000000 0.000000 0.000000 0.000000 0.000000 0.022736
#
#
# Mechanical properties :
#
#
# Convention : Reuss Voigt Hill
#
# Bulk Modulus (GPa) = 44.53932 45.10114 44.82023
# Shear Modulus (GPa) = 69.55342 196.95815 133.25579
#
# Velocity S-wave (km/s) = 5.55204 9.34288 7.68487
# Velocity P-wave (km/s) = 7.79997 11.67793 9.93009
#
# Compressibility (1/GPa) = 0.02245207
#
# Stress axis : x y z
#
# Youngs Moduli (GPa) = 86.19352 119.36970 120.73936
#
# Poissons Ratio (x) = 0.10140 0.33453
# Poissons Ratio (y) = 0.07322 -0.08639
# Poissons Ratio (z) = 0.23882 -0.08541
#
# Static dielectric constant tensor:
#      x y z
#    x 2.557990 0.000000 0.000000 
#    y 0.000000 1.962140 0.000000 
#    z 0.000000 0.000000 1.740090 
# 
# From -- ./inp_files/29307.got.cif
#   From: 2010.05.17/outbox.cif.g08.bks.cpg/sg50_15_cif.got.tgz:29307.got - 2010.06.03 11:33:33.
