data_PCOD9397183
_publ_section_title
;
Structure prediction by ZEFSAII (Michael W. Deem and Ramdas Pophale) SiO2 
 PCOD9397183
Probable space group: P B A N
;
_chemical_formula_sum "Si O2"
_cell_formula_units_Z 26
_cell_length_a 9.436683
_cell_length_b 10.004146
_cell_length_c 12.178162
_cell_angle_alpha 90.000000
_cell_angle_beta 90.000000
_cell_angle_gamma 90.000000
_cell_volume 1149.691008
_symmetry_space_group_name_H-M "P B A N"
_symmetry_group_IT_number 50
_space_group.IT_coordinate_system_code '2'
_symmetry_cell_setting 'orthorhombic'
loop_
_space_group_symop_operation_xyz
x,y,z
1/2-x,1/2-y,z
x,1/2-y,-z
1/2-x,y,-z
-x,-y,-z
1/2+x,1/2+y,-z
-x,1/2+y,z
1/2+x,-y,z
loop_
_atom_site_type_symbol
_atom_site_label
_atom_site_fract_x
_atom_site_fract_y
_atom_site_fract_z
Si Si1 0.571090 0.967596 0.252083
Si Si2 0.669293 0.987271 0.605267
Si Si3 0.419222 0.769644 0.873349
Si Si4 0.750000 0.250000 0.500000
O O1 0.491440 0.033821 0.358632
O O2 0.553868 0.078484 0.159815
O O3 0.732151 0.952893 0.291345
O O4 0.501409 0.833007 0.206267
O O5 0.750000 0.924454 0.500000
O O6 0.669562 0.145834 0.577505
O O7 0.250000 0.750000 0.861766
O O8 0.459542 0.750000 0.000000
#
# Coordination Sequence:
#
# PCOD9397183 Si02
#       4
#     8   8   8   2
#     4  12  22  46  70 104 130 186 224 280 344 400
#     4  10  22  39  65 100 136 175 221 275 324 408
#     4  11  25  46  71  99 138 181 228 284 346 404
#     4   8  20  40  64  92 138 188 208 264 332 404
#
# _framework density 22.614771000000001
#
# number of rings (size 3 to 8) (size 9 to 14) (size 15 to 20)
#    0.923    0.308    3.077    3.692    0.000    1.231 
#    0.000    3.077    0.000    0.000    0.000    0.000 
#    0.000    0.000    0.000    0.000    0.000    0.000 
#
# Total GULP energy -145097.153705 kJ/mol
# GULP energy per Si atom -5580.659758 kJ/mol
# Density = 2.256330 g / cm^3
# Si number density = 22.614771 Si / 1000 Ang^3
#
#
#
# Elastic Constant Matrix: (Units=GPa)
#
#
# Indices 1 2 3 4 5 6 
#
# 1 60.6272 -7.6798 -10.7961 0.0000 0.0000 0.0000
# 2 -7.6798 66.0536 4.1588 0.0000 0.0000 0.0000
# 3 -10.7961 4.1588 70.1963 0.0000 0.0000 0.0000
# 4 0.0000 0.0000 0.0000 22.7584 0.0000 0.0000
# 5 0.0000 0.0000 0.0000 0.0000 16.8239 0.0000
# 6 0.0000 0.0000 0.0000 0.0000 0.0000 8.3223
#
#
#
# Elastic Compliance Matrix: (Units=1/GPa)
#
#
# Indices 1 2 3 4 5 6 
#
# 1 0.017178 0.001838 0.002533 0.000000 0.000000 0.000000
# 2 0.001838 0.015393 -0.000629 0.000000 0.000000 0.000000
# 3 0.002533 -0.000629 0.014673 0.000000 0.000000 0.000000
# 4 0.000000 0.000000 0.000000 0.043940 0.000000 0.000000
# 5 0.000000 0.000000 0.000000 0.000000 0.059439 0.000000
# 6 0.000000 0.000000 0.000000 0.000000 0.000000 0.120159
#
#
# Mechanical properties :
#
#
# Convention : Reuss Voigt Hill
#
# Bulk Modulus (GPa) = 18.27275 18.69368 18.48321
# Shear Modulus (GPa) = 17.75946 23.66054 20.71000
#
# Velocity S-wave (km/s) = 2.80537 3.23808 3.02946
# Velocity P-wave (km/s) = 4.31173 4.71850 4.51969
#
# Compressibility (1/GPa) = 0.05472630
#
# Stress axis : x y z
#
# Youngs Moduli (GPa) = 58.21366 64.96664 68.15414
#
# Poissons Ratio (x) = -0.11939 -0.17264
# Poissons Ratio (y) = -0.10698 0.04289
# Poissons Ratio (z) = -0.14746 0.04088
#
# Static dielectric constant tensor:
#      x y z
#    x 1.805030 0.000000 0.000000 
#    y 0.000000 1.786380 0.000000 
#    z 0.000000 0.000000 1.889770 
# 
# From -- ./inp_files/18195.got.cif
#   From: 2010.05.17/outbox.cif.g08.bks.cpg/sg50_10_cif.got.tgz:18195.got - 2010.06.03 11:33:33.
