data_PCOD9397413
_publ_section_title
;
Structure prediction by ZEFSAII (Michael W. Deem and Ramdas Pophale) SiO2 
 PCOD9397413
Probable space group: P B A N
;
_chemical_formula_sum "Si O2"
_cell_formula_units_Z 30
_cell_length_a 18.907521
_cell_length_b 12.275015
_cell_length_c 5.494321
_cell_angle_alpha 90.000000
_cell_angle_beta 90.000000
_cell_angle_gamma 90.000000
_cell_volume 1275.177532
_symmetry_space_group_name_H-M "P B A N"
_symmetry_group_IT_number 50
_space_group.IT_coordinate_system_code '2'
_symmetry_cell_setting 'orthorhombic'
loop_
_space_group_symop_operation_xyz
x,y,z
1/2-x,1/2-y,z
x,1/2-y,-z
1/2-x,y,-z
-x,-y,-z
1/2+x,1/2+y,-z
-x,1/2+y,z
1/2+x,-y,z
loop_
_atom_site_type_symbol
_atom_site_label
_atom_site_fract_x
_atom_site_fract_y
_atom_site_fract_z
Si Si1 0.017546 0.250000 0.000000
Si Si2 0.250000 0.250000 0.500000
Si Si3 0.168311 0.929704 0.442643
Si Si4 0.112010 0.902380 0.936678
Si Si5 0.622577 0.624451 0.300803
O O1 0.965220 0.351429 0.956673
O O2 0.066060 0.284533 0.228501
O O3 0.302140 0.318506 0.670940
O O4 0.250000 0.954420 0.500000
O O5 0.155219 0.878576 0.181070
O O6 0.121614 0.041720 0.468137
O O7 0.143078 0.862721 0.678672
O O8 0.116485 0.033054 0.907802
#
# Coordination Sequence:
#
# PCOD9397413 Si02
#       5
#     4   2   8   8   8
#     4  12  26  45  69 106 140 202 226 280 362 430
#     4  12  24  46  76 112 136 184 236 300 378 398
#     4  10  22  46  73  97 141 180 231 306 344 394
#     4  10  25  46  67 106 144 185 233 290 348 426
#     4  10  26  43  72 105 142 177 238 300 346 427
#
# _framework density 23.526136000000001
#
# number of rings (size 3 to 8) (size 9 to 14) (size 15 to 20)
#    1.600    0.000    1.333    1.600    3.733    6.933 
#    0.000    4.000    0.000    0.000    0.000    0.000 
#    0.000    0.000    0.000    0.000    0.000    0.000 
#
# Total GULP energy -167110.316648 kJ/mol
# GULP energy per Si atom -5570.343888 kJ/mol
# Density = 2.347259 g / cm^3
# Si number density = 23.526136 Si / 1000 Ang^3
#
#
#
# Elastic Constant Matrix: (Units=GPa)
#
#
# Indices 1 2 3 4 5 6 
#
# 1 149.9076 56.9515 61.3442 0.0000 0.0000 0.0000
# 2 56.9515 124.8345 38.3232 0.0000 0.0000 0.0000
# 3 61.3442 38.3232 152.9005 0.0000 0.0000 0.0000
# 4 0.0000 0.0000 0.0000 5.1320 0.0000 0.0000
# 5 0.0000 0.0000 0.0000 0.0000 53.1278 0.0000
# 6 0.0000 0.0000 0.0000 0.0000 0.0000 49.2268
#
#
#
# Elastic Compliance Matrix: (Units=1/GPa)
#
#
# Indices 1 2 3 4 5 6 
#
# 1 0.009067 -0.003271 -0.002818 0.000000 0.000000 0.000000
# 2 -0.003271 0.009859 -0.001159 0.000000 0.000000 0.000000
# 3 -0.002818 -0.001159 0.007961 0.000000 0.000000 0.000000
# 4 0.000000 0.000000 0.000000 0.194855 0.000000 0.000000
# 5 0.000000 0.000000 0.000000 0.000000 0.018823 0.000000
# 6 0.000000 0.000000 0.000000 0.000000 0.000000 0.020314
#
#
# Mechanical properties :
#
#
# Convention : Reuss Voigt Hill
#
# Bulk Modulus (GPa) = 80.70149 82.32005 81.51077
# Shear Modulus (GPa) = 17.88888 39.56558 28.72723
#
# Velocity S-wave (km/s) = 2.76050 4.10539 3.49818
# Velocity P-wave (km/s) = 6.67367 7.58546 7.14412
#
# Compressibility (1/GPa) = 0.01239134
#
# Stress axis : x y z
#
# Youngs Moduli (GPa) = 110.29496 101.43325 125.61211
#
# Poissons Ratio (x) = 0.33182 0.35393
# Poissons Ratio (y) = 0.36081 0.14553
# Poissons Ratio (z) = 0.31077 0.11751
#
# Static dielectric constant tensor:
#      x y z
#    x 1.856600 0.000000 0.000000 
#    y 0.000000 2.062000 0.000000 
#    z 0.000000 0.000000 1.895930 
# 
# From -- ./inp_files/4010.got.cif
#   From: 2010.05.17/outbox.cif.g08.bks.cpg/sg50_3_cif.got.tgz:4010.got - 2010.06.03 11:33:33.
