data_PCOD9397943
_publ_section_title
;
Structure prediction by ZEFSAII (Michael W. Deem and Ramdas Pophale) SiO2 
 PCOD9397943
Probable space group: P B A N
;
_chemical_formula_sum "Si O2"
_cell_formula_units_Z 48
_cell_length_a 8.543514
_cell_length_b 17.988772
_cell_length_c 15.430583
_cell_angle_alpha 90.000000
_cell_angle_beta 90.000000
_cell_angle_gamma 90.000000
_cell_volume 2371.485031
_symmetry_space_group_name_H-M "P B A N"
_symmetry_group_IT_number 50
_space_group.IT_coordinate_system_code '2'
_symmetry_cell_setting 'orthorhombic'
loop_
_space_group_symop_operation_xyz
x,y,z
1/2-x,1/2-y,z
x,1/2-y,-z
1/2-x,y,-z
-x,-y,-z
1/2+x,1/2+y,-z
-x,1/2+y,z
1/2+x,-y,z
loop_
_atom_site_type_symbol
_atom_site_label
_atom_site_fract_x
_atom_site_fract_y
_atom_site_fract_z
Si Si1 0.442884 0.165169 0.851496
Si Si2 0.572563 0.662632 0.177110
Si Si3 0.037917 0.581093 0.658237
Si Si4 0.439056 0.834190 0.486878
Si Si5 0.910944 0.415788 0.687493
Si Si6 0.434062 0.582049 0.016123
O O1 0.476193 0.252292 0.838529
O O2 0.256930 0.154780 0.840936
O O3 0.533672 0.117911 0.778652
O O4 0.490358 0.137510 0.946206
O O5 0.539503 0.637578 0.274336
O O6 0.478512 0.609962 0.111472
O O7 0.004034 0.609814 0.561367
O O8 0.223514 0.582582 0.677463
O O9 0.974494 0.498803 0.674855
O O10 0.496467 0.750000 0.500000
O O11 0.250000 0.832283 0.500000
O O12 0.472996 0.864752 0.391427
O O13 0.250000 0.581489 0.000000
O O14 0.500000 0.500000 0.000000
#
# Coordination Sequence:
#
# PCOD9397943 Si02
#       6
#     8   8   8   8   8   8
#     4  11  24  42  63  89 122 157 196 245 299 354
#     4  11  24  42  63  89 122 157 196 245 299 354
#     4  11  22  38  61  88 121 159 201 247 296 353
#     4   9  19  36  59  87 118 155 200 249 298 350
#     4  11  22  38  61  88 121 159 201 247 296 353
#     4  12  25  42  65  91 121 157 199 244 293 352
#
# _framework density 20.240482
#
# number of rings (size 3 to 8) (size 9 to 14) (size 15 to 20)
#    0.000    1.167    0.000    6.500    0.000    6.000 
#    0.000    2.500    0.000    6.000    0.000    0.000 
#    0.000    0.000    0.000    0.000    0.000    0.000 
#
# Total GULP energy -268629.325840 kJ/mol
# GULP energy per Si atom -5596.444288 kJ/mol
# Density = 2.019441 g / cm^3
# Si number density = 20.240482 Si / 1000 Ang^3
#
#
#
# Elastic Constant Matrix: (Units=GPa)
#
#
# Indices 1 2 3 4 5 6 
#
# 1 52.1629 9.0932 -14.9196 0.0000 0.0000 0.0000
# 2 9.0932 71.6496 -31.4433 0.0000 0.0000 0.0000
# 3 -14.9196 -31.4433 40.8551 0.0000 0.0000 0.0000
# 4 0.0000 0.0000 0.0000 38.7206 0.0000 0.0000
# 5 0.0000 0.0000 0.0000 0.0000 22.6210 0.0000
# 6 0.0000 0.0000 0.0000 0.0000 0.0000 0.7363
#
#
#
# Elastic Compliance Matrix: (Units=1/GPa)
#
#
# Indices 1 2 3 4 5 6 
#
# 1 0.021462 0.001081 0.008669 0.000000 0.000000 0.000000
# 2 0.001081 0.021129 0.016656 0.000000 0.000000 0.000000
# 3 0.008669 0.016656 0.040462 0.000000 0.000000 0.000000
# 4 0.000000 0.000000 0.000000 0.025826 0.000000 0.000000
# 5 0.000000 0.000000 0.000000 0.000000 0.044207 0.000000
# 6 0.000000 0.000000 0.000000 0.000000 0.000000 1.358084
#
#
# Mechanical properties :
#
#
# Convention : Reuss Voigt Hill
#
# Bulk Modulus (GPa) = 7.36020 10.01424 8.68722
# Shear Modulus (GPa) = 3.32525 25.87807 14.60166
#
# Velocity S-wave (km/s) = 1.28314 3.57953 2.68882
# Velocity P-wave (km/s) = 2.41651 4.69494 3.73376
#
# Compressibility (1/GPa) = 0.13586582
#
# Stress axis : x y z
#
# Youngs Moduli (GPa) = 46.59418 47.32776 24.71463
#
# Poissons Ratio (x) = -0.05115 -0.21426
# Poissons Ratio (y) = -0.05036 -0.41166
# Poissons Ratio (z) = -0.40394 -0.78831
#
# Static dielectric constant tensor:
#      x y z
#    x 1.708090 0.000000 0.000000 
#    y 0.000000 1.678850 0.000000 
#    z 0.000000 0.000000 1.672480 
# 
# From -- ./inp_files/25014.got.cif
#   From: 2010.05.17/outbox.cif.g08.bks.cpg/sg50_13_cif.got.tgz:25014.got - 2010.06.03 11:33:33.
