data_PCOD9397161
_publ_section_title
;
Structure prediction by ZEFSAII (Michael W. Deem and Ramdas Pophale) SiO2 
 PCOD9397161
Probable space group: P B A N
;
_chemical_formula_sum "Si O2"
_cell_formula_units_Z 60
_cell_length_a 22.291883
_cell_length_b 23.580354
_cell_length_c 6.289076
_cell_angle_alpha 90.000000
_cell_angle_beta 90.000000
_cell_angle_gamma 90.000000
_cell_volume 3305.855897
_symmetry_space_group_name_H-M "P B A N"
_symmetry_group_IT_number 50
_space_group.IT_coordinate_system_code '2'
_symmetry_cell_setting 'orthorhombic'
loop_
_space_group_symop_operation_xyz
x,y,z
1/2-x,1/2-y,z
x,1/2-y,-z
1/2-x,y,-z
-x,-y,-z
1/2+x,1/2+y,-z
-x,1/2+y,z
1/2+x,-y,z
loop_
_atom_site_type_symbol
_atom_site_label
_atom_site_fract_x
_atom_site_fract_y
_atom_site_fract_z
Si Si1 0.389342 0.509434 0.302960
Si Si2 0.487276 0.564778 0.059993
Si Si3 0.969163 0.690612 0.610210
Si Si4 0.931635 0.149652 0.285115
Si Si5 0.688660 0.084489 0.603428
Si Si6 0.312105 0.478999 0.903565
Si Si7 0.403244 0.085289 0.362631
Si Si8 0.971521 0.250000 0.000000
O O1 0.435899 0.557696 0.236289
O O2 0.337487 0.541019 0.429863
O O3 0.417296 0.460460 0.452026
O O4 0.360646 0.484311 0.090710
O O5 0.546965 0.584585 0.176429
O O6 0.500000 0.500000 0.000000
O O7 0.463041 0.601425 0.863319
O O8 0.956990 0.750000 0.500000
O O9 0.912531 0.649688 0.568987
O O10 0.988927 0.708807 0.848448
O O11 0.025971 0.662233 0.487828
O O12 0.864845 0.128239 0.342256
O O13 0.933267 0.207922 0.149152
O O14 0.750000 0.107989 0.500000
O O15 0.697831 0.041749 0.802900
O O16 0.340646 0.436434 0.731814
O O17 0.250000 0.458560 0.000000
#
# Coordination Sequence:
#
# PCOD9397161 Si02
#       8
#     8   8   8   8   8   8   8   4
#     4  11  21  35  55  84 127 153 188 239 293 374
#     4  12  19  33  55  90 125 148 183 239 311 372
#     4  10  22  39  61  87 118 152 200 252 305 362
#     4  11  22  37  60  89 119 160 198 257 307 358
#     4  11  22  36  58  85 115 163 207 235 290 357
#     4  11  22  38  55  84 124 161 196 233 291 369
#     4  11  22  34  57  89 120 156 192 239 306 371
#     4  10  22  42  62  81 121 156 204 252 318 358
#
# _framework density 18.149612000000001
#
# number of rings (size 3 to 8) (size 9 to 14) (size 15 to 20)
#    0.000    1.067    5.333    2.800    0.000    0.000 
#    0.000    0.000    0.000    4.400    0.000    7.000 
#    0.000    0.000    0.000    0.000    0.000    0.000 
#
# Total GULP energy -334543.420463 kJ/mol
# GULP energy per Si atom -5575.723674 kJ/mol
# Density = 1.810830 g / cm^3
# Si number density = 18.149612 Si / 1000 Ang^3
#
#
#
# Elastic Constant Matrix: (Units=GPa)
#
#
# Indices 1 2 3 4 5 6 
#
# 1 81.6026 28.9145 21.1105 0.0000 0.0000 0.0000
# 2 28.9145 96.2608 27.3527 0.0000 0.0000 0.0000
# 3 21.1105 27.3527 73.9162 0.0000 0.0000 0.0000
# 4 0.0000 0.0000 0.0000 29.5112 0.0000 0.0000
# 5 0.0000 0.0000 0.0000 0.0000 29.2138 0.0000
# 6 0.0000 0.0000 0.0000 0.0000 0.0000 16.7874
#
#
#
# Elastic Compliance Matrix: (Units=1/GPa)
#
#
# Indices 1 2 3 4 5 6 
#
# 1 0.014204 -0.003480 -0.002769 0.000000 0.000000 0.000000
# 2 -0.003480 0.012462 -0.003618 0.000000 0.000000 0.000000
# 3 -0.002769 -0.003618 0.015658 0.000000 0.000000 0.000000
# 4 0.000000 0.000000 0.000000 0.033885 0.000000 0.000000
# 5 0.000000 0.000000 0.000000 0.000000 0.034230 0.000000
# 6 0.000000 0.000000 0.000000 0.000000 0.000000 0.059569
#
#
# Mechanical properties :
#
#
# Convention : Reuss Voigt Hill
#
# Bulk Modulus (GPa) = 44.26493 45.17055 44.71774
# Shear Modulus (GPa) = 25.34583 26.72927 26.03755
#
# Velocity S-wave (km/s) = 3.74102 3.84176 3.79173
# Velocity P-wave (km/s) = 6.56523 6.67988 6.62280
#
# Compressibility (1/GPa) = 0.02259125
#
# Stress axis : x y z
#
# Youngs Moduli (GPa) = 70.40369 80.24643 63.86373
#
# Poissons Ratio (x) = 0.27923 0.17684
# Poissons Ratio (y) = 0.24498 0.23103
# Poissons Ratio (z) = 0.19494 0.29030
#
# Static dielectric constant tensor:
#      x y z
#    x 1.655980 0.000000 0.000000 
#    y 0.000000 1.674780 0.000000 
#    z 0.000000 0.000000 1.713540 
# 
# From -- ./inp_files/5479.got.cif
#   From: 2010.05.17/outbox.cif.g08.bks.cpg/sg50_3_cif.got.tgz:5479.got - 2010.06.03 11:33:33.
