data_PCOD9397369
_publ_section_title
;
Structure prediction by ZEFSAII (Michael W. Deem and Ramdas Pophale) SiO2 
 PCOD9397369
Probable space group: P B A N
;
_chemical_formula_sum "Si O2"
_cell_formula_units_Z 56
_cell_length_a 20.237723
_cell_length_b 13.353931
_cell_length_c 8.452020
_cell_angle_alpha 90.000000
_cell_angle_beta 90.000000
_cell_angle_gamma 90.000000
_cell_volume 2284.185084
_symmetry_space_group_name_H-M "P B A N"
_symmetry_group_IT_number 50
_space_group.IT_coordinate_system_code '2'
_symmetry_cell_setting 'orthorhombic'
loop_
_space_group_symop_operation_xyz
x,y,z
1/2-x,1/2-y,z
x,1/2-y,-z
1/2-x,y,-z
-x,-y,-z
1/2+x,1/2+y,-z
-x,1/2+y,z
1/2+x,-y,z
loop_
_atom_site_type_symbol
_atom_site_label
_atom_site_fract_x
_atom_site_fract_y
_atom_site_fract_z
Si Si1 0.248457 0.071540 0.689558
Si Si2 0.890367 0.559776 0.377123
Si Si3 0.506819 0.235873 0.812554
Si Si4 0.387538 0.341435 0.706212
Si Si5 0.267562 0.641173 0.183794
Si Si6 0.522935 0.021711 0.821872
Si Si7 0.888922 0.158968 0.617012
O O1 0.250000 0.079439 0.500000
O O2 0.326031 0.085740 0.728908
O O3 0.190293 0.145488 0.745106
O O4 0.235165 0.956867 0.739804
O O5 0.895192 0.638723 0.518812
O O6 0.880378 0.449914 0.461475
O O7 0.956597 0.534247 0.282590
O O8 0.429200 0.246193 0.767462
O O9 0.548673 0.134094 0.794996
O O10 0.540282 0.312732 0.690471
O O11 0.509762 0.250000 0.000000
O O12 0.425676 0.436152 0.781689
O O13 0.250000 0.750000 0.251182
O O14 0.344816 0.641769 0.225664
O O15 0.250000 0.639196 0.000000
O O16 0.500000 0.000000 0.000000
O O17 0.870725 0.250000 0.500000
#
# Coordination Sequence:
#
# PCOD9397369 Si02
#       7
#     8   8   8   8   8   8   8
#     4   9  22  41  68  93 130 180 224 282 350 411
#     4  10  22  44  66 101 131 179 235 279 355 413
#     4  12  26  42  65 100 137 180 234 286 360 419
#     4  11  23  43  68  99 139 175 230 290 344 425
#     4  10  24  38  57  95 137 179 222 270 339 424
#     4  12  24  42  68  94 139 180 226 289 350 412
#     4  11  24  40  67  99 137 180 230 289 343 428
#
# _framework density 24.516401999999999
#
# number of rings (size 3 to 8) (size 9 to 14) (size 15 to 20)
#    0.000    1.286    2.857    1.286   12.000    2.286 
#    0.000    0.714    0.000    3.429    0.000    0.000 
#    0.000    0.000    0.000    0.000    0.000    0.000 
#
# Total GULP energy -312479.114508 kJ/mol
# GULP energy per Si atom -5579.984188 kJ/mol
# Density = 2.446060 g / cm^3
# Si number density = 24.516402 Si / 1000 Ang^3
#
#
#
# Elastic Constant Matrix: (Units=GPa)
#
#
# Indices 1 2 3 4 5 6 
#
# 1 88.0170 -0.9795 34.1264 0.0000 0.0000 0.0000
# 2 -0.9795 88.4039 4.0906 0.0000 0.0000 0.0000
# 3 34.1264 4.0906 70.7714 0.0000 0.0000 0.0000
# 4 0.0000 0.0000 0.0000 20.1633 0.0000 0.0000
# 5 0.0000 0.0000 0.0000 0.0000 10.0271 0.0000
# 6 0.0000 0.0000 0.0000 0.0000 0.0000 14.3823
#
#
#
# Elastic Compliance Matrix: (Units=1/GPa)
#
#
# Indices 1 2 3 4 5 6 
#
# 1 0.013993 0.000469 -0.006775 0.000000 0.000000 0.000000
# 2 0.000469 0.011358 -0.000882 0.000000 0.000000 0.000000
# 3 -0.006775 -0.000882 0.017448 0.000000 0.000000 0.000000
# 4 0.000000 0.000000 0.000000 0.049595 0.000000 0.000000
# 5 0.000000 0.000000 0.000000 0.000000 0.099729 0.000000
# 6 0.000000 0.000000 0.000000 0.000000 0.000000 0.069530
#
#
# Mechanical properties :
#
#
# Convention : Reuss Voigt Hill
#
# Bulk Modulus (GPa) = 35.18442 35.74080 35.46261
# Shear Modulus (GPa) = 17.51286 22.91154 20.21220
#
# Velocity S-wave (km/s) = 2.67560 3.06034 2.87441
# Velocity P-wave (km/s) = 4.89159 5.20553 5.05100
#
# Compressibility (1/GPa) = 0.02842167
#
# Stress axis : x y z
#
# Youngs Moduli (GPa) = 71.46218 88.04571 57.31362
#
# Poissons Ratio (x) = -0.04125 0.38829
# Poissons Ratio (y) = -0.03348 0.05057
# Poissons Ratio (z) = 0.48414 0.07769
#
# Static dielectric constant tensor:
#      x y z
#    x 2.047220 0.000000 0.000000 
#    y 0.000000 2.098370 0.000000 
#    z 0.000000 0.000000 1.916780 
# 
# From -- ./inp_files/15360.got.cif
#   From: 2010.05.17/outbox.cif.g08.bks.cpg/sg50_8_cif.got.tgz:15360.got - 2010.06.03 11:33:33.
