data_PCOD9397903
_publ_section_title
;
Structure prediction by ZEFSAII (Michael W. Deem and Ramdas Pophale) SiO2 
 PCOD9397903
Probable space group: P B A N
;
_chemical_formula_sum "Si O2"
_cell_formula_units_Z 64
_cell_length_a 12.824330
_cell_length_b 12.738675
_cell_length_c 15.929962
_cell_angle_alpha 90.000000
_cell_angle_beta 90.000000
_cell_angle_gamma 90.000000
_cell_volume 2602.397795
_symmetry_space_group_name_H-M "P B A N"
_symmetry_group_IT_number 50
_space_group.IT_coordinate_system_code '2'
_symmetry_cell_setting 'orthorhombic'
loop_
_space_group_symop_operation_xyz
x,y,z
1/2-x,1/2-y,z
x,1/2-y,-z
1/2-x,y,-z
-x,-y,-z
1/2+x,1/2+y,-z
-x,1/2+y,z
1/2+x,-y,z
loop_
_atom_site_type_symbol
_atom_site_label
_atom_site_fract_x
_atom_site_fract_y
_atom_site_fract_z
Si Si1 0.613938 0.552575 0.202527
Si Si2 0.404707 0.860930 0.794036
Si Si3 0.000146 0.383858 0.611755
Si Si4 0.982596 0.344331 0.866896
Si Si5 0.869267 0.874264 0.012390
Si Si6 0.347209 0.081328 0.766962
Si Si7 0.135067 0.007928 0.509431
Si Si8 0.852744 0.189674 0.616285
O O1 0.517682 0.611124 0.245104
O O2 0.583472 0.429550 0.187822
O O3 0.609214 0.594904 0.107365
O O4 0.724160 0.582578 0.242158
O O5 0.418905 0.764481 0.857886
O O6 0.334330 0.839275 0.713419
O O7 0.366627 0.975357 0.822992
O O8 0.902390 0.464407 0.599579
O O9 0.948855 0.270698 0.617937
O O10 0.084832 0.414055 0.682103
O O11 0.058719 0.403780 0.524599
O O12 0.095158 0.329699 0.820857
O O13 0.025005 0.390000 0.955243
O O14 0.858313 0.750000 0.000000
O O15 0.750000 0.918649 0.000000
O O16 0.250000 0.050060 0.500000
O O17 0.133531 0.909645 0.443858
O O18 0.750000 0.250000 0.587907
#
# Coordination Sequence:
#
# PCOD9397903 Si02
#       8
#     8   8   8   8   8   8   8   8
#     4  11  25  43  70  95 142 186 226 286 359 416
#     4  11  25  41  66 103 136 179 234 288 350 425
#     4  11  24  42  70 105 137 178 242 294 349 427
#     4  11  23  42  68  99 135 173 234 285 342 426
#     4  11  21  40  70  99 133 181 232 279 345 427
#     4  11  24  43  65 101 138 181 230 288 363 420
#     4  11  24  45  74 100 139 187 237 293 364 428
#     4  12  24  43  74 101 134 185 240 285 357 434
#
# _framework density 24.592704000000001
#
# number of rings (size 3 to 8) (size 9 to 14) (size 15 to 20)
#    0.000    0.875    6.250    0.750    1.750    2.500 
#    0.000    0.000    2.750    0.000    0.000    0.000 
#    0.000    0.000    0.000    0.000    0.000    0.000 
#
# Total GULP energy -357008.045395 kJ/mol
# GULP energy per Si atom -5578.250709 kJ/mol
# Density = 2.453673 g / cm^3
# Si number density = 24.592704 Si / 1000 Ang^3
#
#
#
# Elastic Constant Matrix: (Units=GPa)
#
#
# Indices 1 2 3 4 5 6 
#
# 1 93.9929 -8.8597 10.4755 0.0000 0.0000 0.0000
# 2 -8.8597 69.3760 4.0036 0.0000 0.0000 0.0000
# 3 10.4755 4.0036 70.7907 0.0000 0.0000 0.0000
# 4 0.0000 0.0000 0.0000 27.0784 0.0000 0.0000
# 5 0.0000 0.0000 0.0000 0.0000 33.4383 0.0000
# 6 0.0000 0.0000 0.0000 0.0000 0.0000 30.8365
#
#
#
# Elastic Compliance Matrix: (Units=1/GPa)
#
#
# Indices 1 2 3 4 5 6 
#
# 1 0.010971 0.001500 -0.001708 0.000000 0.000000 0.000000
# 2 0.001500 0.014666 -0.001051 0.000000 0.000000 0.000000
# 3 -0.001708 -0.001051 0.014438 0.000000 0.000000 0.000000
# 4 0.000000 0.000000 0.000000 0.036930 0.000000 0.000000
# 5 0.000000 0.000000 0.000000 0.000000 0.029906 0.000000
# 6 0.000000 0.000000 0.000000 0.000000 0.000000 0.032429
#
#
# Mechanical properties :
#
#
# Convention : Reuss Voigt Hill
#
# Bulk Modulus (GPa) = 26.62717 27.26646 26.94682
# Shear Modulus (GPa) = 32.38783 33.50664 32.94723
#
# Velocity S-wave (km/s) = 3.63294 3.69516 3.66418
# Velocity P-wave (km/s) = 5.33371 5.41451 5.37426
#
# Compressibility (1/GPa) = 0.03755562
#
# Stress axis : x y z
#
# Youngs Moduli (GPa) = 91.15069 68.18312 69.25973
#
# Poissons Ratio (x) = -0.10225 0.11831
# Poissons Ratio (y) = -0.13669 0.07282
# Poissons Ratio (z) = 0.15571 0.07169
#
# Static dielectric constant tensor:
#      x y z
#    x 2.043990 0.000000 0.000000 
#    y 0.000000 1.976230 0.000000 
#    z 0.000000 0.000000 2.042550 
# 
# From -- ./inp_files/29240.got.cif
#   From: 2010.05.17/outbox.cif.g08.bks.cpg/sg50_15_cif.got.tgz:29240.got - 2010.06.03 11:33:33.
