data_PCOD9397041
_publ_section_title
;
Structure prediction by ZEFSAII (Michael W. Deem and Ramdas Pophale) SiO2 
 PCOD9397041
Probable space group: P B A N
;
_chemical_formula_sum "Si O2"
_cell_formula_units_Z 38
_cell_length_a 14.988804
_cell_length_b 8.391936
_cell_length_c 15.269253
_cell_angle_alpha 90.000000
_cell_angle_beta 90.000000
_cell_angle_gamma 90.000000
_cell_volume 1920.644269
_symmetry_space_group_name_H-M "P B A N"
_symmetry_group_IT_number 50
_space_group.IT_coordinate_system_code '2'
_symmetry_cell_setting 'orthorhombic'
loop_
_space_group_symop_operation_xyz
x,y,z
1/2-x,1/2-y,z
x,1/2-y,-z
1/2-x,y,-z
-x,-y,-z
1/2+x,1/2+y,-z
-x,1/2+y,z
1/2+x,-y,z
loop_
_atom_site_type_symbol
_atom_site_label
_atom_site_fract_x
_atom_site_fract_y
_atom_site_fract_z
Si Si1 0.385038 0.024619 0.307260
Si Si2 0.750000 0.750000 0.000000
Si Si3 0.037866 0.707886 0.602669
Si Si4 0.103902 0.450316 0.099890
Si Si5 0.454922 0.750000 0.000000
Si Si6 0.779793 0.062855 0.596022
O O1 0.424638 0.857013 0.342678
O O2 0.281063 0.026415 0.333920
O O3 0.444365 0.152942 0.358486
O O4 0.396251 0.041180 0.204036
O O5 0.811764 0.642043 0.938691
O O6 0.032127 0.750000 0.500000
O O7 0.114133 0.569709 0.608779
O O8 0.099971 0.625410 0.057504
O O9 0.018118 0.353115 0.064239
O O10 0.750000 0.250000 0.598334
O O11 0.750000 0.004697 0.500000
#
# Coordination Sequence:
#
# PCOD9397041 Si02
#       6
#     8   2   8   8   4   8
#     4  11  22  38  64  93 118 163 217 255 303 381
#     4  10  24  46  64  86 142 156 196 278 340 378
#     4  11  21  39  62  88 126 170 208 254 312 363
#     4  10  21  43  63  96 121 164 208 265 321 390
#     4   9  20  42  70  83 128 162 200 261 338 380
#     4   9  17  36  56  81 123 162 194 243 302 353
#
# _framework density 19.785025999999998
#
# number of rings (size 3 to 8) (size 9 to 14) (size 15 to 20)
#    0.000    1.895    4.211    1.895    0.000    0.421 
#   26.526    0.000    0.000    0.000    0.000    0.000 
#    0.000    0.000    0.000    0.000    0.000    0.000 
#
# Total GULP energy -212252.535843 kJ/mol
# GULP energy per Si atom -5585.593049 kJ/mol
# Density = 1.973999 g / cm^3
# Si number density = 19.785026 Si / 1000 Ang^3
#
#
#
# Elastic Constant Matrix: (Units=GPa)
#
#
# Indices 1 2 3 4 5 6 
#
# 1 85.2870 35.6843 64.0307 0.0000 0.0000 0.0000
# 2 35.6843 73.8704 50.2362 0.0000 0.0000 0.0000
# 3 64.0307 50.2362 193.6018 0.0000 0.0000 0.0000
# 4 0.0000 0.0000 0.0000 16.3508 0.0000 0.0000
# 5 0.0000 0.0000 0.0000 0.0000 9.3976 0.0000
# 6 0.0000 0.0000 0.0000 0.0000 0.0000 0.2576
#
#
#
# Elastic Compliance Matrix: (Units=1/GPa)
#
#
# Indices 1 2 3 4 5 6 
#
# 1 0.017202 -0.005392 -0.004290 0.000000 0.000000 0.000000
# 2 -0.005392 0.018128 -0.002921 0.000000 0.000000 0.000000
# 3 -0.004290 -0.002921 0.007342 0.000000 0.000000 0.000000
# 4 0.000000 0.000000 0.000000 0.061159 0.000000 0.000000
# 5 0.000000 0.000000 0.000000 0.000000 0.106411 0.000000
# 6 0.000000 0.000000 0.000000 0.000000 0.000000 3.882489
#
#
# Mechanical properties :
#
#
# Convention : Reuss Voigt Hill
#
# Bulk Modulus (GPa) = 57.25263 72.51796 64.88530
# Shear Modulus (GPa) = 1.21249 18.72173 9.96711
#
# Velocity S-wave (km/s) = 0.78368 3.07947 2.24692
# Velocity P-wave (km/s) = 5.46068 7.02685 6.29268
#
# Compressibility (1/GPa) = 0.01746645
#
# Stress axis : x y z
#
# Youngs Moduli (GPa) = 58.13229 55.16283 136.20327
#
# Poissons Ratio (x) = 0.29745 0.58433
# Poissons Ratio (y) = 0.31346 0.39779
# Poissons Ratio (z) = 0.24940 0.16111
#
# Static dielectric constant tensor:
#      x y z
#    x 1.713030 0.000000 0.000000 
#    y 0.000000 1.725810 0.000000 
#    z 0.000000 0.000000 1.636590 
# 
# From -- ./inp_files/26241.got.cif
#   From: 2010.05.17/outbox.cif.g08.bks.cpg/sg50_14_cif.got.tgz:26241.got - 2010.06.03 11:33:33.
