data_PCOD9397581
_publ_section_title
;
Structure prediction by ZEFSAII (Michael W. Deem and Ramdas Pophale) SiO2 
 PCOD9397581
Probable space group: P B A N
;
_chemical_formula_sum "Si O2"
_cell_formula_units_Z 34
_cell_length_a 12.129680
_cell_length_b 8.980537
_cell_length_c 13.727673
_cell_angle_alpha 90.000000
_cell_angle_beta 90.000000
_cell_angle_gamma 90.000000
_cell_volume 1495.369697
_symmetry_space_group_name_H-M "P B A N"
_symmetry_group_IT_number 50
_space_group.IT_coordinate_system_code '2'
_symmetry_cell_setting 'orthorhombic'
loop_
_space_group_symop_operation_xyz
x,y,z
1/2-x,1/2-y,z
x,1/2-y,-z
1/2-x,y,-z
-x,-y,-z
1/2+x,1/2+y,-z
-x,1/2+y,z
1/2+x,-y,z
loop_
_atom_site_type_symbol
_atom_site_label
_atom_site_fract_x
_atom_site_fract_y
_atom_site_fract_z
Si Si1 0.750000 0.750000 0.000000
Si Si2 0.135225 0.080774 0.830591
Si Si3 0.443797 0.754452 0.116826
Si Si4 0.882132 0.076752 0.531240
Si Si5 0.192539 0.906541 0.262730
O O1 0.814120 0.858912 0.070313
O O2 0.044975 0.205735 0.814716
O O3 0.083542 0.921300 0.854465
O O4 0.224846 0.043659 0.750516
O O5 0.354030 0.634980 0.155211
O O6 0.458361 0.750000 0.000000
O O7 0.889368 0.250000 0.500000
O O8 0.750000 0.032898 0.500000
O O9 0.885850 0.060183 0.648349
O O10 0.000000 0.000000 0.500000
O O11 0.250000 0.750000 0.291313
#
# Coordination Sequence:
#
# PCOD9397581 Si02
#       5
#     2   8   8   8   8
#     4  12  24  44  62 100 148 196 250 300 364 456
#     4  11  25  40  66  96 140 189 245 300 366 448
#     4  11  23  41  66  97 141 189 241 300 372 439
#     4  11  25  49  81 111 156 201 259 330 398 467
#     4  10  23  44  71 102 141 194 249 305 383 464
#
# _framework density 22.736853
#
# number of rings (size 3 to 8) (size 9 to 14) (size 15 to 20)
#    0.000    1.176    3.529    2.118    6.588    3.765 
#    0.000    0.000    0.000    0.000    0.000    0.000 
#    0.000    0.000    0.000    0.000    0.000    0.000 
#
# Total GULP energy -189273.503511 kJ/mol
# GULP energy per Si atom -5566.867750 kJ/mol
# Density = 2.268510 g / cm^3
# Si number density = 22.736853 Si / 1000 Ang^3
#
#
#
# Elastic Constant Matrix: (Units=GPa)
#
#
# Indices 1 2 3 4 5 6 
#
# 1 129.8191 67.2632 51.5184 0.0000 0.0000 0.0000
# 2 67.2632 101.0835 41.0985 0.0000 0.0000 0.0000
# 3 51.5184 41.0985 123.8363 0.0000 0.0000 0.0000
# 4 0.0000 0.0000 0.0000 7.5143 0.0000 0.0000
# 5 0.0000 0.0000 0.0000 0.0000 10.1692 0.0000
# 6 0.0000 0.0000 0.0000 0.0000 0.0000 39.0153
#
#
#
# Elastic Compliance Matrix: (Units=1/GPa)
#
#
# Indices 1 2 3 4 5 6 
#
# 1 0.012562 -0.007206 -0.002834 0.000000 0.000000 0.000000
# 2 -0.007206 0.015570 -0.002169 0.000000 0.000000 0.000000
# 3 -0.002834 -0.002169 0.009974 0.000000 0.000000 0.000000
# 4 0.000000 0.000000 0.000000 0.133080 0.000000 0.000000
# 5 0.000000 0.000000 0.000000 0.000000 0.098336 0.000000
# 6 0.000000 0.000000 0.000000 0.000000 0.000000 0.025631
#
#
# Mechanical properties :
#
#
# Convention : Reuss Voigt Hill
#
# Bulk Modulus (GPa) = 73.06763 74.94433 74.00598
# Shear Modulus (GPa) = 15.42564 24.33034 19.87799
#
# Velocity S-wave (km/s) = 2.60752 3.27476 2.96000
# Velocity P-wave (km/s) = 6.42429 6.87982 6.65595
#
# Compressibility (1/GPa) = 0.01368595
#
# Stress axis : x y z
#
# Youngs Moduli (GPa) = 79.60716 64.22539 100.25828
#
# Poissons Ratio (x) = 0.46284 0.28416
# Poissons Ratio (y) = 0.57369 0.21750
# Poissons Ratio (z) = 0.22563 0.13933
#
# Static dielectric constant tensor:
#      x y z
#    x 1.952230 0.000000 0.000000 
#    y 0.000000 1.505130 0.000000 
#    z 0.000000 0.000000 1.711690 
# 
# From -- ./inp_files/25662.got.cif
#   From: 2010.05.17/outbox.cif.g08.bks.cpg/sg50_13_cif.got.tgz:25662.got - 2010.06.03 11:33:33.
