data_PCOD9397780
_publ_section_title
;
Structure prediction by ZEFSAII (Michael W. Deem and Ramdas Pophale) SiO2 
 PCOD9397780
Probable space group: P B A N
;
_chemical_formula_sum "Si O2"
_cell_formula_units_Z 30
_cell_length_a 16.252930
_cell_length_b 15.730815
_cell_length_c 5.054463
_cell_angle_alpha 90.000000
_cell_angle_beta 90.000000
_cell_angle_gamma 90.000000
_cell_volume 1292.283830
_symmetry_space_group_name_H-M "P B A N"
_symmetry_group_IT_number 50
_space_group.IT_coordinate_system_code '2'
_symmetry_cell_setting 'orthorhombic'
loop_
_space_group_symop_operation_xyz
x,y,z
1/2-x,1/2-y,z
x,1/2-y,-z
1/2-x,y,-z
-x,-y,-z
1/2+x,1/2+y,-z
-x,1/2+y,z
1/2+x,-y,z
loop_
_atom_site_type_symbol
_atom_site_label
_atom_site_fract_x
_atom_site_fract_y
_atom_site_fract_z
Si Si1 0.750000 0.462599 0.500000
Si Si2 0.750000 0.750000 0.500000
Si Si3 0.323897 0.115539 0.172999
Si Si4 0.503258 0.901319 0.082483
Si Si5 0.405176 0.845794 0.592087
O O1 0.795089 0.523864 0.714592
O O2 0.823213 0.403159 0.395395
O O3 0.680517 0.819554 0.589598
O O4 0.403420 0.119714 0.992232
O O5 0.250000 0.150519 0.000000
O O6 0.446489 0.849739 0.878562
O O7 0.469465 0.885356 0.376827
O O8 0.500000 0.000000 0.000000
O O9 0.386978 0.750000 0.500000
#
# Coordination Sequence:
#
# PCOD9397780 Si02
#       5
#     4   2   8   8   8
#     4  11  25  47  73 104 146 194 249 295 379 439
#     4  10  26  40  66 106 142 190 244 312 366 446
#     4  11  25  44  73 103 144 196 242 304 372 443
#     4  12  26  48  75 106 146 194 251 297 370 439
#     4  12  28  47  74 111 147 196 244 314 363 439
#
# _framework density 23.214715000000002
#
# number of rings (size 3 to 8) (size 9 to 14) (size 15 to 20)
#    0.000    0.533    2.667    4.000    9.333    2.133 
#    0.000    2.667    0.000    0.000    0.000    0.000 
#    0.000    0.000    0.000    0.000    0.000    0.000 
#
# Total GULP energy -167593.182871 kJ/mol
# GULP energy per Si atom -5586.439429 kJ/mol
# Density = 2.316188 g / cm^3
# Si number density = 23.214715 Si / 1000 Ang^3
#
#
#
# Elastic Constant Matrix: (Units=GPa)
#
#
# Indices 1 2 3 4 5 6 
#
# 1 160.7897 17.3210 9.2274 0.0000 0.0000 0.0000
# 2 17.3210 129.1635 -4.7779 0.0000 0.0000 0.0000
# 3 9.2274 -4.7779 55.2087 0.0000 0.0000 0.0000
# 4 0.0000 0.0000 0.0000 28.3139 0.0000 0.0000
# 5 0.0000 0.0000 0.0000 0.0000 6.8408 0.0000
# 6 0.0000 0.0000 0.0000 0.0000 0.0000 -15.0190
#
#
#
# Elastic Compliance Matrix: (Units=1/GPa)
#
#
# Indices 1 2 3 4 5 6 
#
# 1 0.006382 -0.000898 -0.001144 0.000000 0.000000 0.000000
# 2 -0.000898 0.007893 0.000833 0.000000 0.000000 0.000000
# 3 -0.001144 0.000833 0.018376 0.000000 0.000000 0.000000
# 4 0.000000 0.000000 0.000000 0.035318 0.000000 0.000000
# 5 0.000000 0.000000 0.000000 0.000000 0.146181 0.000000
# 6 0.000000 0.000000 0.000000 0.000000 0.000000 -0.066582
#
#
# Mechanical properties :
#
#
# Convention : Reuss Voigt Hill
#
# Bulk Modulus (GPa) = 33.07635 43.18920 38.13277
# Shear Modulus (GPa) = 31.23741 25.58660 28.41200
#
# Velocity S-wave (km/s) = 3.67220 3.32350 3.50219
# Velocity P-wave (km/s) = 5.67970 5.77686 5.72849
#
# Compressibility (1/GPa) = 0.03023308
#
# Stress axis : x y z
#
# Youngs Moduli (GPa) = 156.69745 126.68835 54.41746
#
# Poissons Ratio (x) = 0.11378 0.06227
# Poissons Ratio (y) = 0.14073 -0.04534
# Poissons Ratio (z) = 0.17932 -0.10556
#
# Static dielectric constant tensor:
#      x y z
#    x 2.111760 0.000000 0.000000 
#    y 0.000000 2.200780 0.000000 
#    z 0.000000 0.000000 1.413090 
# 
# From -- ./inp_files/2970.got.cif
#   From: 2010.05.17/outbox.cif.g08.bks.cpg/sg50_2_cif.got.tgz:2970.got - 2010.06.03 11:33:33.
