data_PCOD9397540
_publ_section_title
;
Structure prediction by ZEFSAII (Michael W. Deem and Ramdas Pophale) SiO2 
 PCOD9397540
Probable space group: P B A N
;
_chemical_formula_sum "Si O2"
_cell_formula_units_Z 38
_cell_length_a 9.440840
_cell_length_b 11.732684
_cell_length_c 19.281889
_cell_angle_alpha 90.000000
_cell_angle_beta 90.000000
_cell_angle_gamma 90.000000
_cell_volume 2135.785283
_symmetry_space_group_name_H-M "P B A N"
_symmetry_group_IT_number 50
_space_group.IT_coordinate_system_code '2'
_symmetry_cell_setting 'orthorhombic'
loop_
_space_group_symop_operation_xyz
x,y,z
1/2-x,1/2-y,z
x,1/2-y,-z
1/2-x,y,-z
-x,-y,-z
1/2+x,1/2+y,-z
-x,1/2+y,z
1/2+x,-y,z
loop_
_atom_site_type_symbol
_atom_site_label
_atom_site_fract_x
_atom_site_fract_y
_atom_site_fract_z
Si Si1 0.250000 0.750000 0.000000
Si Si2 0.221842 0.618744 0.581903
Si Si3 0.250000 0.250000 0.722486
Si Si4 0.724909 0.373249 0.142627
Si Si5 0.934766 0.555838 0.654651
Si Si6 0.065121 0.442546 0.792644
O O1 0.243985 0.653018 0.937733
O O2 0.250000 0.750000 0.601801
O O3 0.250000 0.607755 0.500000
O O4 0.328052 0.535031 0.621657
O O5 0.062685 0.585757 0.603157
O O6 0.152147 0.168104 0.676141
O O7 0.151959 0.331439 0.769147
O O8 0.750000 0.250000 0.179007
O O9 0.564191 0.409839 0.157244
O O10 0.828941 0.467852 0.172544
O O11 0.000130 0.500953 0.724137
#
# Coordination Sequence:
#
# PCOD9397540 Si02
#       6
#     2   8   4   8   8   8
#     4   8  24  44  64  92 136 172 210 266 314 400
#     4  11  25  44  66  91 133 176 217 262 330 391
#     4  12  24  38  65 105 126 170 216 272 334 370
#     4  10  23  43  63  97 127 171 213 262 325 383
#     4  12  23  43  65  98 130 169 219 277 324 377
#     4  12  22  40  70  93 134 167 218 274 320 383
#
# _framework density 17.792051000000001
#
# number of rings (size 3 to 8) (size 9 to 14) (size 15 to 20)
#    0.632    0.211    4.211    3.158    0.000    2.526 
#    0.000    0.000    0.000    1.263    0.000    0.000 
#    0.000    0.000    0.000    0.000    0.000    0.000 
#
# Total GULP energy -211733.761691 kJ/mol
# GULP energy per Si atom -5571.941097 kJ/mol
# Density = 1.775156 g / cm^3
# Si number density = 17.792051 Si / 1000 Ang^3
#
#
#
# Elastic Constant Matrix: (Units=GPa)
#
#
# Indices 1 2 3 4 5 6 
#
# 1 192.7548 105.2730 95.8815 0.0000 0.0000 0.0000
# 2 105.2730 174.6489 82.5212 0.0000 0.0000 0.0000
# 3 95.8815 82.5212 133.2806 0.0000 0.0000 0.0000
# 4 0.0000 0.0000 0.0000 41.8736 0.0000 0.0000
# 5 0.0000 0.0000 0.0000 0.0000 6.0215 0.0000
# 6 0.0000 0.0000 0.0000 0.0000 0.0000 42.8504
#
#
#
# Elastic Compliance Matrix: (Units=1/GPa)
#
#
# Indices 1 2 3 4 5 6 
#
# 1 0.009370 -0.003482 -0.004585 0.000000 0.000000 0.000000
# 2 -0.003482 0.009387 -0.003307 0.000000 0.000000 0.000000
# 3 -0.004585 -0.003307 0.012849 0.000000 0.000000 0.000000
# 4 0.000000 0.000000 0.000000 0.023881 0.000000 0.000000
# 5 0.000000 0.000000 0.000000 0.000000 0.166072 0.000000
# 6 0.000000 0.000000 0.000000 0.000000 0.000000 0.023337
#
#
# Mechanical properties :
#
#
# Convention : Reuss Voigt Hill
#
# Bulk Modulus (GPa) = 112.88996 118.67064 115.78030
# Shear Modulus (GPa) = 18.47758 32.61632 25.54695
#
# Velocity S-wave (km/s) = 3.22612 4.28623 3.79339
# Velocity P-wave (km/s) = 8.80139 9.55715 9.18705
#
# Compressibility (1/GPa) = 0.00885818
#
# Stress axis : x y z
#
# Youngs Moduli (GPa) = 106.72095 106.52908 77.82445
#
# Poissons Ratio (x) = 0.37089 0.35685
# Poissons Ratio (y) = 0.37155 0.25740
# Poissons Ratio (z) = 0.48935 0.35234
#
# Static dielectric constant tensor:
#      x y z
#    x 1.598450 0.000000 0.000000 
#    y 0.000000 1.601580 0.000000 
#    z 0.000000 0.000000 1.585000 
# 
# From -- ./inp_files/28512.got.cif
#   From: 2010.05.17/outbox.cif.g08.bks.cpg/sg50_15_cif.got.tgz:28512.got - 2010.06.03 11:33:33.
