data_PCOD9397790
_publ_section_title
;
Structure prediction by ZEFSAII (Michael W. Deem and Ramdas Pophale) SiO2 
 PCOD9397790
Probable space group: P B A N
;
_chemical_formula_sum "Si O2"
_cell_formula_units_Z 34
_cell_length_a 10.336001
_cell_length_b 9.474938
_cell_length_c 15.656094
_cell_angle_alpha 90.000000
_cell_angle_beta 90.000000
_cell_angle_gamma 90.000000
_cell_volume 1533.247763
_symmetry_space_group_name_H-M "P B A N"
_symmetry_group_IT_number 50
_space_group.IT_coordinate_system_code '2'
_symmetry_cell_setting 'orthorhombic'
loop_
_space_group_symop_operation_xyz
x,y,z
1/2-x,1/2-y,z
x,1/2-y,-z
1/2-x,y,-z
-x,-y,-z
1/2+x,1/2+y,-z
-x,1/2+y,z
1/2+x,-y,z
loop_
_atom_site_type_symbol
_atom_site_label
_atom_site_fract_x
_atom_site_fract_y
_atom_site_fract_z
Si Si1 0.722165 0.916487 0.902679
Si Si2 0.468321 0.994156 0.802796
Si Si3 0.250000 0.250000 0.500000
Si Si4 0.628258 0.023327 0.553456
Si Si5 0.900584 0.263061 0.708954
O O1 0.750000 0.750000 0.897476
O O2 0.577337 0.941794 0.868960
O O3 0.827246 0.994799 0.843876
O O4 0.750000 0.961124 0.000000
O O5 0.458100 0.893939 0.718758
O O6 0.517025 0.147178 0.775704
O O7 0.176174 0.140733 0.563667
O O8 0.750000 0.082050 0.500000
O O9 0.599637 0.139212 0.625189
O O10 0.500000 0.000000 0.500000
O O11 0.750000 0.250000 0.731874
#
# Coordination Sequence:
#
# PCOD9397790 Si02
#       5
#     8   8   2   8   8
#     4  11  24  46  74 109 152 197 245 308 366 447
#     4  12  25  47  73 111 149 193 253 299 380 440
#     4   8  24  48  72 108 144 184 254 304 348 444
#     4  10  26  48  76 107 147 192 251 297 379 435
#     4  12  28  46  74 107 153 193 243 319 365 444
#
# _framework density 22.175152000000001
#
# number of rings (size 3 to 8) (size 9 to 14) (size 15 to 20)
#    0.706    0.235    4.706    0.706    6.588    0.471 
#    2.118    1.176    0.000    0.000    0.000    0.000 
#    0.000    0.000    0.000    0.000    0.000    0.000 
#
# Total GULP energy -189649.789326 kJ/mol
# GULP energy per Si atom -5577.934980 kJ/mol
# Density = 2.212468 g / cm^3
# Si number density = 22.175152 Si / 1000 Ang^3
#
#
#
# Elastic Constant Matrix: (Units=GPa)
#
#
# Indices 1 2 3 4 5 6 
#
# 1 112.3570 41.7379 36.7847 0.0000 0.0000 0.0000
# 2 41.7379 115.1669 40.0570 0.0000 0.0000 0.0000
# 3 36.7847 40.0570 88.6436 0.0000 0.0000 0.0000
# 4 0.0000 0.0000 0.0000 50.7213 0.0000 0.0000
# 5 0.0000 0.0000 0.0000 0.0000 28.3138 0.0000
# 6 0.0000 0.0000 0.0000 0.0000 0.0000 28.6251
#
#
#
# Elastic Compliance Matrix: (Units=1/GPa)
#
#
# Indices 1 2 3 4 5 6 
#
# 1 0.011038 -0.002856 -0.003290 0.000000 0.000000 0.000000
# 2 -0.002856 0.011041 -0.003804 0.000000 0.000000 0.000000
# 3 -0.003290 -0.003804 0.014365 0.000000 0.000000 0.000000
# 4 0.000000 0.000000 0.000000 0.019716 0.000000 0.000000
# 5 0.000000 0.000000 0.000000 0.000000 0.035318 0.000000
# 6 0.000000 0.000000 0.000000 0.000000 0.000000 0.034934
#
#
# Mechanical properties :
#
#
# Convention : Reuss Voigt Hill
#
# Bulk Modulus (GPa) = 60.44313 61.48074 60.96193
# Shear Modulus (GPa) = 32.93183 34.70458 33.81820
#
# Velocity S-wave (km/s) = 3.85785 3.96033 3.90942
# Velocity P-wave (km/s) = 6.86734 6.97836 6.92307
#
# Compressibility (1/GPa) = 0.01654448
#
# Stress axis : x y z
#
# Youngs Moduli (GPa) = 90.59388 90.56892 69.61146
#
# Poissons Ratio (x) = 0.25868 0.22902
# Poissons Ratio (y) = 0.25875 0.26482
# Poissons Ratio (z) = 0.29805 0.34454
#
# Static dielectric constant tensor:
#      x y z
#    x 1.793730 0.000000 0.000000 
#    y 0.000000 1.827120 0.000000 
#    z 0.000000 0.000000 2.075290 
# 
# From -- ./inp_files/24458.got.cif
#   From: 2010.05.17/outbox.cif.g08.bks.cpg/sg50_13_cif.got.tgz:24458.got - 2010.06.03 11:33:33.
