data_PCOD9397529
_publ_section_title
;
Structure prediction by ZEFSAII (Michael W. Deem and Ramdas Pophale) SiO2 
 PCOD9397529
Probable space group: P B A N
;
_chemical_formula_sum "Si O2"
_cell_formula_units_Z 56
_cell_length_a 15.148136
_cell_length_b 17.019810
_cell_length_c 10.591018
_cell_angle_alpha 90.000000
_cell_angle_beta 90.000000
_cell_angle_gamma 90.000000
_cell_volume 2730.559279
_symmetry_space_group_name_H-M "P B A N"
_symmetry_group_IT_number 50
_space_group.IT_coordinate_system_code '2'
_symmetry_cell_setting 'orthorhombic'
loop_
_space_group_symop_operation_xyz
x,y,z
1/2-x,1/2-y,z
x,1/2-y,-z
1/2-x,y,-z
-x,-y,-z
1/2+x,1/2+y,-z
-x,1/2+y,z
1/2+x,-y,z
loop_
_atom_site_type_symbol
_atom_site_label
_atom_site_fract_x
_atom_site_fract_y
_atom_site_fract_z
Si Si1 0.499394 0.791302 0.131921
Si Si2 0.845584 0.916817 0.462758
Si Si3 0.593615 0.033718 0.321667
Si Si4 0.451415 0.529948 0.874221
Si Si5 0.505471 0.310350 0.613797
Si Si6 0.228973 0.009437 0.772212
Si Si7 0.206562 0.325185 0.861941
O O1 0.454433 0.876255 0.142386
O O2 0.486904 0.735003 0.252720
O O3 0.603382 0.811404 0.125983
O O4 0.474503 0.750000 0.000000
O O5 0.750000 0.883166 0.500000
O O6 0.909871 0.851314 0.406446
O O7 0.889766 0.962836 0.579680
O O8 0.822102 0.984061 0.360562
O O9 0.571222 0.115631 0.387750
O O10 0.684048 0.043215 0.241253
O O11 0.510218 0.010102 0.235608
O O12 0.348524 0.506260 0.871416
O O13 0.500000 0.500000 0.000000
O O14 0.520096 0.250000 0.500000
O O15 0.269238 0.095094 0.795125
O O16 0.250000 0.250000 0.796289
O O17 0.250000 0.330441 0.000000
#
# Coordination Sequence:
#
# PCOD9397529 Si02
#       7
#     8   8   8   8   8   8   8
#     4  12  25  45  66 103 142 183 225 288 358 419
#     4  10  23  42  69  99 134 178 232 289 351 422
#     4  11  24  46  68  97 139 181 241 281 341 424
#     4  12  25  43  73 101 138 183 234 281 348 432
#     4  12  26  42  69  99 144 184 229 296 362 415
#     4  11  24  42  71 100 132 185 235 281 344 417
#     4  11  21  36  64 101 140 170 216 287 351 419
#
# _framework density 20.508618999999999
#
# number of rings (size 3 to 8) (size 9 to 14) (size 15 to 20)
#    0.000    0.714    4.286    3.857    4.000    0.286 
#    0.000    0.714    0.000    0.857    0.000    0.000 
#    0.000    0.000    0.000    0.000    0.000    0.000 
#
# Total GULP energy -313009.817919 kJ/mol
# GULP energy per Si atom -5589.461034 kJ/mol
# Density = 2.046194 g / cm^3
# Si number density = 20.508619 Si / 1000 Ang^3
#
#
#
# Elastic Constant Matrix: (Units=GPa)
#
#
# Indices 1 2 3 4 5 6 
#
# 1 89.9206 36.2021 13.4244 0.0000 0.0000 0.0000
# 2 36.2021 118.5113 37.2894 0.0000 0.0000 0.0000
# 3 13.4244 37.2894 88.6894 0.0000 0.0000 0.0000
# 4 0.0000 0.0000 0.0000 30.5398 0.0000 0.0000
# 5 0.0000 0.0000 0.0000 0.0000 27.9357 0.0000
# 6 0.0000 0.0000 0.0000 0.0000 0.0000 30.5865
#
#
#
# Elastic Compliance Matrix: (Units=1/GPa)
#
#
# Indices 1 2 3 4 5 6 
#
# 1 0.012689 -0.003771 -0.000335 0.000000 0.000000 0.000000
# 2 -0.003771 0.010845 -0.003989 0.000000 0.000000 0.000000
# 3 -0.000335 -0.003989 0.013003 0.000000 0.000000 0.000000
# 4 0.000000 0.000000 0.000000 0.032744 0.000000 0.000000
# 5 0.000000 0.000000 0.000000 0.000000 0.035796 0.000000
# 6 0.000000 0.000000 0.000000 0.000000 0.000000 0.032694
#
#
# Mechanical properties :
#
#
# Convention : Reuss Voigt Hill
#
# Bulk Modulus (GPa) = 49.14657 52.32814 50.73735
# Shear Modulus (GPa) = 31.10526 31.82610 31.46568
#
# Velocity S-wave (km/s) = 3.89870 3.94361 3.92122
# Velocity P-wave (km/s) = 6.65450 6.80490 6.73012
#
# Compressibility (1/GPa) = 0.02034730
#
# Stress axis : x y z
#
# Youngs Moduli (GPa) = 78.80811 92.20839 76.90385
#
# Poissons Ratio (x) = 0.34769 0.02578
# Poissons Ratio (y) = 0.29716 0.30677
# Poissons Ratio (z) = 0.02642 0.36782
#
# Static dielectric constant tensor:
#      x y z
#    x 1.749110 0.000000 0.000000 
#    y 0.000000 1.727150 0.000000 
#    z 0.000000 0.000000 1.794280 
# 
# From -- ./inp_files/21162.got.cif
#   From: 2010.05.17/outbox.cif.g08.bks.cpg/sg50_11_cif.got.tgz:21162.got - 2010.06.03 11:33:33.
