data_PCOD9397013
_publ_section_title
;
Structure prediction by ZEFSAII (Michael W. Deem and Ramdas Pophale) SiO2 
 PCOD9397013
Probable space group: P B A N
;
_chemical_formula_sum "Si O2"
_cell_formula_units_Z 34
_cell_length_a 21.879795
_cell_length_b 11.786253
_cell_length_c 5.269638
_cell_angle_alpha 90.000000
_cell_angle_beta 90.000000
_cell_angle_gamma 90.000000
_cell_volume 1358.938460
_symmetry_space_group_name_H-M "P B A N"
_symmetry_group_IT_number 50
_space_group.IT_coordinate_system_code '2'
_symmetry_cell_setting 'orthorhombic'
loop_
_space_group_symop_operation_xyz
x,y,z
1/2-x,1/2-y,z
x,1/2-y,-z
1/2-x,y,-z
-x,-y,-z
1/2+x,1/2+y,-z
-x,1/2+y,z
1/2+x,-y,z
loop_
_atom_site_type_symbol
_atom_site_label
_atom_site_fract_x
_atom_site_fract_y
_atom_site_fract_z
Si Si1 0.750000 0.250000 0.500000
Si Si2 0.250000 0.917528 0.000000
Si Si3 0.146949 0.442410 0.820099
Si Si4 0.549227 0.916622 0.795816
Si Si5 0.140225 0.250000 0.500000
Si Si6 0.424752 0.878239 0.536951
O O1 0.749143 0.153341 0.263536
O O2 0.308604 0.000501 0.020054
O O3 0.175067 0.330838 0.694219
O O4 0.129988 0.546122 0.638053
O O5 0.080311 0.408283 0.931189
O O6 0.595332 0.839300 0.635119
O O7 0.481569 0.874065 0.733422
O O8 0.551887 0.047880 0.702313
O O9 0.403624 0.750000 0.500000
#
# Coordination Sequence:
#
# PCOD9397013 Si02
#       6
#     2   4   8   8   4   8
#     4  10  28  54  78 108 156 192 244 346 370 460
#     4  11  28  50  85 108 152 197 266 313 404 446
#     4  11  25  44  74 105 143 201 246 315 370 467
#     4  10  21  42  64 104 146 194 236 309 377 443
#     4  10  22  44  70  96 152 185 247 304 374 438
#     4  10  22  39  68 105 149 190 246 301 380 458
#
# _framework density 25.019528999999999
#
# number of rings (size 3 to 8) (size 9 to 14) (size 15 to 20)
#    0.000    1.647    1.176    1.412    8.235    2.824 
#    4.235    3.529    0.000    0.000    0.000    0.000 
#    0.000    0.000    0.000    0.000    0.000    0.000 
#
# Total GULP energy -189420.629887 kJ/mol
# GULP energy per Si atom -5571.194997 kJ/mol
# Density = 2.496258 g / cm^3
# Si number density = 25.019529 Si / 1000 Ang^3
#
#
#
# Elastic Constant Matrix: (Units=GPa)
#
#
# Indices 1 2 3 4 5 6 
#
# 1 42.4946 14.2380 13.8886 0.0000 0.0000 0.0000
# 2 14.2380 182.1751 55.4313 0.0000 0.0000 0.0000
# 3 13.8886 55.4313 124.1285 0.0000 0.0000 0.0000
# 4 0.0000 0.0000 0.0000 27.7229 0.0000 0.0000
# 5 0.0000 0.0000 0.0000 0.0000 16.7800 0.0000
# 6 0.0000 0.0000 0.0000 0.0000 0.0000 -20.9455
#
#
#
# Elastic Compliance Matrix: (Units=1/GPa)
#
#
# Indices 1 2 3 4 5 6 
#
# 1 0.024673 -0.001259 -0.002198 0.000000 0.000000 0.000000
# 2 -0.001259 0.006417 -0.002725 0.000000 0.000000 0.000000
# 3 -0.002198 -0.002725 0.009519 0.000000 0.000000 0.000000
# 4 0.000000 0.000000 0.000000 0.036071 0.000000 0.000000
# 5 0.000000 0.000000 0.000000 0.000000 0.059595 0.000000
# 6 0.000000 0.000000 0.000000 0.000000 0.000000 -0.047743
#
#
# Mechanical properties :
#
#
# Convention : Reuss Voigt Hill
#
# Bulk Modulus (GPa) = 35.40587 57.32378 46.36483
# Shear Modulus (GPa) = 45.32660 22.39416 33.86038
#
# Velocity S-wave (km/s) = 4.26096 2.99501 3.68279
# Velocity P-wave (km/s) = 6.19595 5.90944 6.05439
#
# Compressibility (1/GPa) = 0.02824390
#
# Stress axis : x y z
#
# Youngs Moduli (GPa) = 40.53046 155.84424 105.05532
#
# Poissons Ratio (x) = 0.19628 0.23093
# Poissons Ratio (y) = 0.05105 0.28623
# Poissons Ratio (z) = 0.08909 0.42460
#
# Static dielectric constant tensor:
#      x y z
#    x 1.999950 0.000000 0.000000 
#    y 0.000000 1.957300 0.000000 
#    z 0.000000 0.000000 2.095000 
# 
# From -- ./inp_files/5827.got.cif
#   From: 2010.05.17/outbox.cif.g08.bks.cpg/sg50_3_cif.got.tgz:5827.got - 2010.06.03 11:33:33.
