data_PCOD9397350
_publ_section_title
;
Structure prediction by ZEFSAII (Michael W. Deem and Ramdas Pophale) SiO2 
 PCOD9397350
Probable space group: P B A N
;
_chemical_formula_sum "Si O2"
_cell_formula_units_Z 26
_cell_length_a 12.295369
_cell_length_b 20.851489
_cell_length_c 5.245876
_cell_angle_alpha 90.000000
_cell_angle_beta 90.000000
_cell_angle_gamma 90.000000
_cell_volume 1344.920647
_symmetry_space_group_name_H-M "P B A N"
_symmetry_group_IT_number 50
_space_group.IT_coordinate_system_code '2'
_symmetry_cell_setting 'orthorhombic'
loop_
_space_group_symop_operation_xyz
x,y,z
1/2-x,1/2-y,z
x,1/2-y,-z
1/2-x,y,-z
-x,-y,-z
1/2+x,1/2+y,-z
-x,1/2+y,z
1/2+x,-y,z
loop_
_atom_site_type_symbol
_atom_site_label
_atom_site_fract_x
_atom_site_fract_y
_atom_site_fract_z
Si Si1 0.558811 0.308447 0.188447
Si Si2 0.129712 0.370284 0.540223
Si Si3 0.957864 0.571698 0.975895
Si Si4 0.250000 0.750000 0.500000
O O1 0.463371 0.318620 0.395866
O O2 0.671512 0.292973 0.325252
O O3 0.533380 0.250000 0.000000
O O4 0.552208 0.375380 0.033831
O O5 0.250000 0.343750 0.500000
O O6 0.092679 0.410920 0.296014
O O7 0.126622 0.413860 0.795081
O O8 0.000000 0.500000 0.000000
#
# Coordination Sequence:
#
# PCOD9397350 Si02
#       4
#     8   8   8   2
#     4  10  24  41  72  94 143 176 236 288 344 414
#     4  10  22  43  69 101 139 178 224 285 347 414
#     4  10  22  43  70 100 139 182 228 281 343 415
#     4  12  22  48  62 106 128 186 240 282 356 402
#
# _framework density 19.331997999999999
#
# number of rings (size 3 to 8) (size 9 to 14) (size 15 to 20)
#    1.846    0.000    0.000    4.154    0.000    0.000 
#    2.769   17.692    0.000    0.000    0.000    0.000 
#    0.000    0.000    0.000    0.000    0.000    0.000 
#
# Total GULP energy -144850.834890 kJ/mol
# GULP energy per Si atom -5571.185957 kJ/mol
# Density = 1.928800 g / cm^3
# Si number density = 19.331998 Si / 1000 Ang^3
#
#
#
# Elastic Constant Matrix: (Units=GPa)
#
#
# Indices 1 2 3 4 5 6 
#
# 1 136.6269 49.6733 46.9041 0.0000 0.0000 0.0000
# 2 49.6733 140.5958 45.1073 0.0000 0.0000 0.0000
# 3 46.9041 45.1073 145.9876 0.0000 0.0000 0.0000
# 4 0.0000 0.0000 0.0000 9.3283 0.0000 0.0000
# 5 0.0000 0.0000 0.0000 0.0000 18.2340 0.0000
# 6 0.0000 0.0000 0.0000 0.0000 0.0000 15.6503
#
#
#
# Elastic Compliance Matrix: (Units=1/GPa)
#
#
# Indices 1 2 3 4 5 6 
#
# 1 0.008946 -0.002485 -0.002106 0.000000 0.000000 0.000000
# 2 -0.002485 0.008585 -0.001854 0.000000 0.000000 0.000000
# 3 -0.002106 -0.001854 0.008100 0.000000 0.000000 0.000000
# 4 0.000000 0.000000 0.000000 0.107200 0.000000 0.000000
# 5 0.000000 0.000000 0.000000 0.000000 0.054843 0.000000
# 6 0.000000 0.000000 0.000000 0.000000 0.000000 0.063897
#
#
# Mechanical properties :
#
#
# Convention : Reuss Voigt Hill
#
# Bulk Modulus (GPa) = 78.49533 78.50886 78.50210
# Shear Modulus (GPa) = 18.60756 27.41089 23.00923
#
# Velocity S-wave (km/s) = 3.10583 3.76959 3.45369
# Velocity P-wave (km/s) = 7.31803 7.72304 7.52326
#
# Compressibility (1/GPa) = 0.01273961
#
# Stress axis : x y z
#
# Youngs Moduli (GPa) = 111.78528 116.47657 123.46241
#
# Poissons Ratio (x) = 0.28942 0.26006
# Poissons Ratio (y) = 0.27776 0.22895
# Poissons Ratio (z) = 0.23547 0.21599
#
# Static dielectric constant tensor:
#      x y z
#    x 1.662940 0.000000 0.000000 
#    y 0.000000 1.653270 0.000000 
#    z 0.000000 0.000000 1.703320 
# 
# From -- ./inp_files/2099.got.cif
#   From: 2010.05.17/outbox.cif.g08.bks.cpg/sg50_2_cif.got.tgz:2099.got - 2010.06.03 11:33:33.
