data_PCOD9397073
_publ_section_title
;
Structure prediction by ZEFSAII (Michael W. Deem and Ramdas Pophale) SiO2 
 PCOD9397073
Probable space group: P B A N
;
_chemical_formula_sum "Si O2"
_cell_formula_units_Z 32
_cell_length_a 8.617358
_cell_length_b 18.319929
_cell_length_c 9.058241
_cell_angle_alpha 90.000000
_cell_angle_beta 90.000000
_cell_angle_gamma 90.000000
_cell_volume 1430.018952
_symmetry_space_group_name_H-M "P B A N"
_symmetry_group_IT_number 50
_space_group.IT_coordinate_system_code '2'
_symmetry_cell_setting 'orthorhombic'
loop_
_space_group_symop_operation_xyz
x,y,z
1/2-x,1/2-y,z
x,1/2-y,-z
1/2-x,y,-z
-x,-y,-z
1/2+x,1/2+y,-z
-x,1/2+y,z
1/2+x,-y,z
loop_
_atom_site_type_symbol
_atom_site_label
_atom_site_fract_x
_atom_site_fract_y
_atom_site_fract_z
Si Si1 0.919497 0.168062 0.556654
Si Si2 0.369208 0.444493 0.385373
Si Si3 0.119895 0.025350 0.809748
Si Si4 0.150536 0.888909 0.122198
O O1 0.946354 0.250000 0.500000
O O2 0.750000 0.146591 0.500000
O O3 0.901953 0.155729 0.732826
O O4 0.045465 0.118554 0.473948
O O5 0.250000 0.481877 0.500000
O O6 0.250741 0.421007 0.256435
O O7 0.493746 0.497578 0.310741
O O8 0.010260 0.069628 0.922759
O O9 0.222703 0.953772 0.845261
O O10 0.250000 0.845550 0.000000
#
# Coordination Sequence:
#
# PCOD9397073 Si02
#       4
#     8   8   8   8
#     4  11  24  41  61  88 121 167 228 269 305 374
#     4  11  20  34  61  92 128 162 206 270 314 372
#     4  10  22  34  60  98 130 160 203 257 332 400
#     4  11  22  39  62  93 129 165 204 259 331 389
#
# _framework density 22.377326
#
# number of rings (size 3 to 8) (size 9 to 14) (size 15 to 20)
#    0.000    1.250    5.000    1.500    3.500    0.500 
#    0.000    2.500    0.000    0.000    0.000    7.000 
#    0.000    0.000    0.000    0.000    0.000    0.000 
#
# Total GULP energy -178259.812198 kJ/mol
# GULP energy per Si atom -5570.619131 kJ/mol
# Density = 2.232639 g / cm^3
# Si number density = 22.377326 Si / 1000 Ang^3
#
#
#
# Elastic Constant Matrix: (Units=GPa)
#
#
# Indices 1 2 3 4 5 6 
#
# 1 159.1678 38.9447 47.5372 0.0000 0.0000 0.0000
# 2 38.9447 98.7258 42.6239 0.0000 0.0000 0.0000
# 3 47.5372 42.6239 91.3804 0.0000 0.0000 0.0000
# 4 0.0000 0.0000 0.0000 21.2241 0.0000 0.0000
# 5 0.0000 0.0000 0.0000 0.0000 57.7048 0.0000
# 6 0.0000 0.0000 0.0000 0.0000 0.0000 23.1032
#
#
#
# Elastic Compliance Matrix: (Units=1/GPa)
#
#
# Indices 1 2 3 4 5 6 
#
# 1 0.007641 -0.001625 -0.003217 0.000000 0.000000 0.000000
# 2 -0.001625 0.013029 -0.005232 0.000000 0.000000 0.000000
# 3 -0.003217 -0.005232 0.015057 0.000000 0.000000 0.000000
# 4 0.000000 0.000000 0.000000 0.047116 0.000000 0.000000
# 5 0.000000 0.000000 0.000000 0.000000 0.017330 0.000000
# 6 0.000000 0.000000 0.000000 0.000000 0.000000 0.043284
#
#
# Mechanical properties :
#
#
# Convention : Reuss Voigt Hill
#
# Bulk Modulus (GPa) = 64.18828 67.49839 65.84333
# Shear Modulus (GPa) = 29.62119 35.08430 32.35275
#
# Velocity S-wave (km/s) = 3.64224 3.96390 3.80647
# Velocity P-wave (km/s) = 6.81430 7.15397 6.98620
#
# Compressibility (1/GPa) = 0.01557917
#
# Stress axis : x y z
#
# Youngs Moduli (GPa) = 130.87092 76.75187 66.41417
#
# Poissons Ratio (x) = 0.12475 0.21364
# Poissons Ratio (y) = 0.21271 0.34746
# Poissons Ratio (z) = 0.42099 0.40155
#
# Static dielectric constant tensor:
#      x y z
#    x 1.844180 0.000000 0.000000 
#    y 0.000000 1.847720 0.000000 
#    z 0.000000 0.000000 2.107260 
# 
# From -- ./inp_files/9095.got.cif
#   From: 2010.05.17/outbox.cif.g08.bks.cpg/sg50_5_cif.got.tgz:9095.got - 2010.06.03 11:33:33.
