data_PCOD9397874
_publ_section_title
;
Structure prediction by ZEFSAII (Michael W. Deem and Ramdas Pophale) SiO2 
 PCOD9397874
Probable space group: P B A N
;
_chemical_formula_sum "Si O2"
_cell_formula_units_Z 34
_cell_length_a 19.863462
_cell_length_b 10.248828
_cell_length_c 8.789034
_cell_angle_alpha 90.000000
_cell_angle_beta 90.000000
_cell_angle_gamma 90.000000
_cell_volume 1789.246981
_symmetry_space_group_name_H-M "P B A N"
_symmetry_group_IT_number 50
_space_group.IT_coordinate_system_code '2'
_symmetry_cell_setting 'orthorhombic'
loop_
_space_group_symop_operation_xyz
x,y,z
1/2-x,1/2-y,z
x,1/2-y,-z
1/2-x,y,-z
-x,-y,-z
1/2+x,1/2+y,-z
-x,1/2+y,z
1/2+x,-y,z
loop_
_atom_site_type_symbol
_atom_site_label
_atom_site_fract_x
_atom_site_fract_y
_atom_site_fract_z
Si Si1 0.998464 0.866969 0.902813
Si Si2 0.250000 0.750000 0.000000
Si Si3 0.140989 0.717838 0.238632
Si Si4 0.450979 0.389449 0.431383
Si Si5 0.328817 0.947194 0.535369
O O1 0.070685 0.809985 0.844787
O O2 0.959369 0.891688 0.748444
O O3 0.967075 0.750000 0.000000
O O4 0.000000 0.000000 0.000000
O O5 0.198847 0.819318 0.882781
O O6 0.144044 0.632036 0.389817
O O7 0.156126 0.861858 0.310957
O O8 0.470364 0.250000 0.500000
O O9 0.500000 0.500000 0.500000
O O10 0.373686 0.424268 0.463459
O O11 0.250000 0.962671 0.500000
#
# Coordination Sequence:
#
# PCOD9397874 Si02
#       5
#     8   2   8   8   8
#     4  12  25  40  63  98 139 174 219 284 346 397
#     4  12  20  34  64 100 134 170 224 286 346 394
#     4  11  21  37  64  97 133 172 224 277 331 401
#     4  12  25  43  68  95 130 178 230 276 331 408
#     4  11  22  41  65  96 132 175 231 274 330 397
#
# _framework density 19.002406000000001
#
# number of rings (size 3 to 8) (size 9 to 14) (size 15 to 20)
#    0.000    0.471    5.882    4.941    0.000    0.471 
#    0.000    0.000    0.000    0.000    0.000    0.000 
#    0.000    0.000    0.000    0.000    0.000    0.000 
#
# Total GULP energy -189678.044782 kJ/mol
# GULP energy per Si atom -5578.766023 kJ/mol
# Density = 1.895916 g / cm^3
# Si number density = 19.002406 Si / 1000 Ang^3
#
#
#
# Elastic Constant Matrix: (Units=GPa)
#
#
# Indices 1 2 3 4 5 6 
#
# 1 94.6952 23.6934 16.4009 0.0000 0.0000 0.0000
# 2 23.6934 126.9636 51.3615 0.0000 0.0000 0.0000
# 3 16.4009 51.3615 132.1218 0.0000 0.0000 0.0000
# 4 0.0000 0.0000 0.0000 26.6985 0.0000 0.0000
# 5 0.0000 0.0000 0.0000 0.0000 40.4765 0.0000
# 6 0.0000 0.0000 0.0000 0.0000 0.0000 16.1805
#
#
#
# Elastic Compliance Matrix: (Units=1/GPa)
#
#
# Indices 1 2 3 4 5 6 
#
# 1 0.011129 -0.001801 -0.000681 0.000000 0.000000 0.000000
# 2 -0.001801 0.009638 -0.003523 0.000000 0.000000 0.000000
# 3 -0.000681 -0.003523 0.009023 0.000000 0.000000 0.000000
# 4 0.000000 0.000000 0.000000 0.037455 0.000000 0.000000
# 5 0.000000 0.000000 0.000000 0.000000 0.024706 0.000000
# 6 0.000000 0.000000 0.000000 0.000000 0.000000 0.061803
#
#
# Mechanical properties :
#
#
# Convention : Reuss Voigt Hill
#
# Bulk Modulus (GPa) = 56.24793 59.63247 57.94020
# Shear Modulus (GPa) = 29.12227 34.15944 31.64085
#
# Velocity S-wave (km/s) = 3.91904 4.24446 4.08499
# Velocity P-wave (km/s) = 7.08118 7.44783 7.26682
#
# Compressibility (1/GPa) = 0.01777843
#
# Stress axis : x y z
#
# Youngs Moduli (GPa) = 89.85636 103.76060 110.82949
#
# Poissons Ratio (x) = 0.18690 0.07550
# Poissons Ratio (y) = 0.16185 0.39045
# Poissons Ratio (z) = 0.06122 0.36554
#
# Static dielectric constant tensor:
#      x y z
#    x 1.730370 0.000000 0.000000 
#    y 0.000000 1.674150 0.000000 
#    z 0.000000 0.000000 1.695930 
# 
# From -- ./inp_files/9240.got.cif
#   From: 2010.05.17/outbox.cif.g08.bks.cpg/sg50_5_cif.got.tgz:9240.got - 2010.06.03 11:33:33.
