data_PCOD9397853
_publ_section_title
;
Structure prediction by ZEFSAII (Michael W. Deem and Ramdas Pophale) SiO2 
 PCOD9397853
Probable space group: P B A N
;
_chemical_formula_sum "Si O2"
_cell_formula_units_Z 64
_cell_length_a 11.297774
_cell_length_b 36.011053
_cell_length_c 8.853893
_cell_angle_alpha 90.000000
_cell_angle_beta 90.000000
_cell_angle_gamma 90.000000
_cell_volume 3602.159780
_symmetry_space_group_name_H-M "P B A N"
_symmetry_group_IT_number 50
_space_group.IT_coordinate_system_code '2'
_symmetry_cell_setting 'orthorhombic'
loop_
_space_group_symop_operation_xyz
x,y,z
1/2-x,1/2-y,z
x,1/2-y,-z
1/2-x,y,-z
-x,-y,-z
1/2+x,1/2+y,-z
-x,1/2+y,z
1/2+x,-y,z
loop_
_atom_site_type_symbol
_atom_site_label
_atom_site_fract_x
_atom_site_fract_y
_atom_site_fract_z
Si Si1 0.490224 0.818920 0.320266
Si Si2 0.113210 0.893997 0.681927
Si Si3 0.113821 0.975434 0.817659
Si Si4 0.386179 0.975434 0.817659
Si Si5 0.750000 0.205994 0.171119
Si Si6 0.386790 0.893997 0.681927
Si Si7 0.110566 0.250000 0.832667
Si Si8 0.509776 0.318920 0.679734
O O1 0.481604 0.862329 0.272933
O O2 0.363176 0.804745 0.267041
O O3 0.575727 0.788370 0.248455
O O4 0.503717 0.817926 0.500000
O O5 0.094645 0.933708 0.757810
O O6 0.250000 0.882686 0.718427
O O7 0.107733 0.897622 0.500000
O O8 1.000000 1.000000 0.768264
O O9 0.250000 0.986616 0.770977
O O10 0.113762 0.975413 0.000000
O O11 0.405355 0.933708 0.757809
O O12 0.750000 0.250000 0.156431
O O13 0.636823 0.195255 0.267041
O O14 0.750000 0.190084 0.000000
O O15 0.481604 0.862329 0.727067
O O16 0.250000 0.250000 0.845573
O O17 0.075727 0.211630 0.751546
O O18 0.053692 0.250000 0.000000
#
# Coordination Sequence:
#
# PCOD9397853 Si02
#       8
#     8   8   8   8   8   8   8   8
#     4  11  21  35  56  79 106 137 175 222 270 320
#     4   9  18  33  52  79 110 135 167 215 267 315
#     4   9  18  33  53  78 107 140 177 217 264 322
#     4   9  18  33  53  78 107 140 177 217 264 322
#     4  11  21  31  49  81 112 136 168 212 268 322
#     4   9  18  33  52  79 110 135 167 215 267 315
#     4  11  25  42  55  72 103 143 187 229 268 319
#     4  11  21  35  56  79 106 137 175 222 270 320
#
# _framework density 17.767119000000001
#
# number of rings (size 3 to 8) (size 9 to 14) (size 15 to 20)
#    0.000    2.000    2.500    1.500    0.000    4.000 
#    0.000    1.250    0.000    4.500    0.000    0.000 
#    0.000    0.000    0.000    0.000    0.000    0.000 
#
# Total GULP energy -356296.115821 kJ/mol
# GULP energy per Si atom -5567.126810 kJ/mol
# Density = 1.772668 g / cm^3
# Si number density = 17.767119 Si / 1000 Ang^3
#
#
#
# Elastic Constant Matrix: (Units=GPa)
#
#
# Indices 1 2 3 4 5 6 
#
# 1 96.4941 67.1304 20.2076 0.0000 0.0000 0.0000
# 2 67.1304 127.8838 34.9982 0.0000 0.0000 0.0000
# 3 20.2076 34.9982 30.2145 0.0000 0.0000 0.0000
# 4 0.0000 0.0000 0.0000 39.8896 0.0000 0.0000
# 5 0.0000 0.0000 0.0000 0.0000 24.5354 0.0000
# 6 0.0000 0.0000 0.0000 0.0000 0.0000 12.4774
#
#
#
# Elastic Compliance Matrix: (Units=1/GPa)
#
#
# Indices 1 2 3 4 5 6 
#
# 1 0.016369 -0.008194 -0.001456 0.000000 0.000000 0.000000
# 2 -0.008194 0.015551 -0.012533 0.000000 0.000000 0.000000
# 3 -0.001456 -0.012533 0.048587 0.000000 0.000000 0.000000
# 4 0.000000 0.000000 0.000000 0.025069 0.000000 0.000000
# 5 0.000000 0.000000 0.000000 0.000000 0.040757 0.000000
# 6 0.000000 0.000000 0.000000 0.000000 0.000000 0.080145
#
#
# Mechanical properties :
#
#
# Convention : Reuss Voigt Hill
#
# Bulk Modulus (GPa) = 27.66917 55.47387 41.57152
# Shear Modulus (GPa) = 17.67465 24.19757 20.93611
#
# Velocity S-wave (km/s) = 3.15746 3.69444 3.43645
# Velocity P-wave (km/s) = 5.37585 7.03484 6.26054
#
# Compressibility (1/GPa) = 0.03614130
#
# Stress axis : x y z
#
# Youngs Moduli (GPa) = 61.09185 64.30580 20.58147
#
# Poissons Ratio (x) = 0.52692 0.02997
# Poissons Ratio (y) = 0.50059 0.25794
# Poissons Ratio (z) = 0.08897 0.80592
#
# Static dielectric constant tensor:
#      x y z
#    x 1.599040 0.000000 0.000000 
#    y 0.000000 1.635290 0.000000 
#    z 0.000000 0.000000 1.617690 
# 
# From -- ./inp_files/11864.got.cif
#   From: 2010.05.17/outbox.cif.g08.bks.cpg/sg50_6_cif.got.tgz:11864.got - 2010.06.03 11:33:33.
