data_PCOD9397237
_publ_section_title
;
Structure prediction by ZEFSAII (Michael W. Deem and Ramdas Pophale) SiO2 
 PCOD9397237
Probable space group: P B A N
;
_chemical_formula_sum "Si O2"
_cell_formula_units_Z 48
_cell_length_a 16.418764
_cell_length_b 16.958865
_cell_length_c 8.597368
_cell_angle_alpha 90.000000
_cell_angle_beta 90.000000
_cell_angle_gamma 90.000000
_cell_volume 2393.882115
_symmetry_space_group_name_H-M "P B A N"
_symmetry_group_IT_number 50
_space_group.IT_coordinate_system_code '2'
_symmetry_cell_setting 'orthorhombic'
loop_
_space_group_symop_operation_xyz
x,y,z
1/2-x,1/2-y,z
x,1/2-y,-z
1/2-x,y,-z
-x,-y,-z
1/2+x,1/2+y,-z
-x,1/2+y,z
1/2+x,-y,z
loop_
_atom_site_type_symbol
_atom_site_label
_atom_site_fract_x
_atom_site_fract_y
_atom_site_fract_z
Si Si1 0.847064 0.760789 0.680044
Si Si2 0.334106 0.084808 0.891333
Si Si3 0.741320 0.156911 0.181926
Si Si4 0.327875 0.969897 0.391476
Si Si5 0.917763 0.600315 0.800788
Si Si6 0.400495 0.562696 0.297212
O O1 0.750000 0.750000 0.679394
O O2 0.873935 0.750000 0.500000
O O3 0.851511 0.843152 0.773022
O O4 0.893580 0.690721 0.768530
O O5 0.349357 0.006430 0.790515
O O6 0.250000 0.089810 0.000000
O O7 0.404348 0.084960 0.019056
O O8 0.750000 0.250000 0.197549
O O9 0.803849 0.103443 0.281660
O O10 0.652458 0.137719 0.248713
O O11 0.750000 0.135531 0.000000
O O12 0.250000 0.987563 0.500000
O O13 0.396359 0.949366 0.517822
O O14 0.354557 0.045269 0.293733
O O15 0.007601 0.574428 0.753781
#
# Coordination Sequence:
#
# PCOD9397237 Si02
#       6
#     8   8   8   8   8   8
#     4  11  25  42  66  94 131 174 221 272 326 401
#     4  12  23  43  70  93 133 178 225 263 329 405
#     4  10  22  44  67  91 122 169 222 269 325 394
#     4  10  22  40  69  90 130 177 220 263 326 403
#     4  12  24  41  64 100 133 167 220 273 334 380
#     4  11  24  42  64 100 131 167 218 276 332 387
#
# _framework density 20.051113999999998
#
# number of rings (size 3 to 8) (size 9 to 14) (size 15 to 20)
#    0.000    1.000    1.667    6.000    2.333    3.000 
#   12.000    0.000    0.000    0.000    0.000    0.000 
#    0.000    0.000    0.000    0.000    0.000    0.000 
#
# Total GULP energy -267916.585680 kJ/mol
# GULP energy per Si atom -5581.595535 kJ/mol
# Density = 2.000548 g / cm^3
# Si number density = 20.051114 Si / 1000 Ang^3
#
#
#
# Elastic Constant Matrix: (Units=GPa)
#
#
# Indices 1 2 3 4 5 6 
#
# 1 64.3844 40.1850 36.9226 0.0000 0.0000 0.0000
# 2 40.1850 119.9582 56.1325 0.0000 0.0000 0.0000
# 3 36.9226 56.1325 125.5872 0.0000 0.0000 0.0000
# 4 0.0000 0.0000 0.0000 111.8246 0.0000 0.0000
# 5 0.0000 0.0000 0.0000 0.0000 51.6111 0.0000
# 6 0.0000 0.0000 0.0000 0.0000 0.0000 3.4779
#
#
#
# Elastic Compliance Matrix: (Units=1/GPa)
#
#
# Indices 1 2 3 4 5 6 
#
# 1 0.021001 -0.005242 -0.003831 0.000000 0.000000 0.000000
# 2 -0.005242 0.011849 -0.003755 0.000000 0.000000 0.000000
# 3 -0.003831 -0.003755 0.010767 0.000000 0.000000 0.000000
# 4 0.000000 0.000000 0.000000 0.008943 0.000000 0.000000
# 5 0.000000 0.000000 0.000000 0.000000 0.019376 0.000000
# 6 0.000000 0.000000 0.000000 0.000000 0.000000 0.287534
#
#
# Mechanical properties :
#
#
# Convention : Reuss Voigt Hill
#
# Bulk Modulus (GPa) = 55.67749 64.04554 59.86151
# Shear Modulus (GPa) = 12.78403 45.16202 28.97303
#
# Velocity S-wave (km/s) = 2.52776 4.75104 3.80538
# Velocity P-wave (km/s) = 6.02889 7.88080 7.01621
#
# Compressibility (1/GPa) = 0.01796058
#
# Stress axis : x y z
#
# Youngs Moduli (GPa) = 47.61745 84.39193 92.87410
#
# Poissons Ratio (x) = 0.44241 0.35581
# Poissons Ratio (y) = 0.24963 0.34874
# Poissons Ratio (z) = 0.18243 0.31689
#
# Static dielectric constant tensor:
#      x y z
#    x 1.716300 0.000000 0.000000 
#    y 0.000000 1.739240 0.000000 
#    z 0.000000 0.000000 1.767380 
# 
# From -- ./inp_files/14229.got.cif
#   From: 2010.05.17/outbox.cif.g08.bks.cpg/sg50_8_cif.got.tgz:14229.got - 2010.06.03 11:33:33.
