data_PCOD9397587
_publ_section_title
;
Structure prediction by ZEFSAII (Michael W. Deem and Ramdas Pophale) SiO2 
 PCOD9397587
Probable space group: P B A N
;
_chemical_formula_sum "Si O2"
_cell_formula_units_Z 34
_cell_length_a 9.348233
_cell_length_b 9.552000
_cell_length_c 18.229149
_cell_angle_alpha 90.000000
_cell_angle_beta 90.000000
_cell_angle_gamma 90.000000
_cell_volume 1627.759494
_symmetry_space_group_name_H-M "P B A N"
_symmetry_group_IT_number 50
_space_group.IT_coordinate_system_code '2'
_symmetry_cell_setting 'orthorhombic'
loop_
_space_group_symop_operation_xyz
x,y,z
1/2-x,1/2-y,z
x,1/2-y,-z
1/2-x,y,-z
-x,-y,-z
1/2+x,1/2+y,-z
-x,1/2+y,z
1/2+x,-y,z
loop_
_atom_site_type_symbol
_atom_site_label
_atom_site_fract_x
_atom_site_fract_y
_atom_site_fract_z
Si Si1 0.871873 0.350587 0.643024
Si Si2 0.367471 0.368412 0.872285
Si Si3 0.106771 0.338233 0.292347
Si Si4 0.817328 0.402402 0.076691
Si Si5 0.750000 0.250000 0.500000
O O1 0.750000 0.250000 0.677594
O O2 0.879824 0.504530 0.676823
O O3 0.837428 0.347624 0.556241
O O4 0.008903 0.257233 0.657195
O O5 0.250000 0.250000 0.894720
O O6 0.438199 0.340056 0.793020
O O7 0.510013 0.394366 0.921390
O O8 0.261357 0.500465 0.864355
O O9 0.250000 0.250000 0.289722
O O10 0.750000 0.250000 0.084603
O O11 0.750000 0.458459 0.000000
#
# Coordination Sequence:
#
# PCOD9397587 Si02
#       5
#     8   8   8   8   2
#     4  10  23  45  67  96 143 174 233 277 341 414
#     4  11  26  42  70 102 135 180 235 281 356 414
#     4  11  25  41  69 106 134 180 226 291 343 406
#     4  11  25  44  66  97 137 184 227 288 347 415
#     4   8  24  44  68  96 132 196 218 280 344 408
#
# _framework density 20.887606000000002
#
# number of rings (size 3 to 8) (size 9 to 14) (size 15 to 20)
#    0.706    0.706    0.000    3.529   13.176    3.294 
#    0.000    0.000    0.000    0.000    0.000    0.000 
#    0.000    0.000    0.000    0.000    0.000    0.000 
#
# Total GULP energy -189372.150277 kJ/mol
# GULP energy per Si atom -5569.769126 kJ/mol
# Density = 2.084007 g / cm^3
# Si number density = 20.887606 Si / 1000 Ang^3
#
#
#
# Elastic Constant Matrix: (Units=GPa)
#
#
# Indices 1 2 3 4 5 6 
#
# 1 104.0129 23.3493 42.7434 0.0000 0.0000 0.0000
# 2 23.3493 118.1964 17.8960 0.0000 0.0000 0.0000
# 3 42.7434 17.8960 78.5042 0.0000 0.0000 0.0000
# 4 0.0000 0.0000 0.0000 24.0384 0.0000 0.0000
# 5 0.0000 0.0000 0.0000 0.0000 26.1783 0.0000
# 6 0.0000 0.0000 0.0000 0.0000 0.0000 29.8162
#
#
#
# Elastic Compliance Matrix: (Units=1/GPa)
#
#
# Indices 1 2 3 4 5 6 
#
# 1 0.012639 -0.001507 -0.006538 0.000000 0.000000 0.000000
# 2 -0.001507 0.008943 -0.001218 0.000000 0.000000 0.000000
# 3 -0.006538 -0.001218 0.016576 0.000000 0.000000 0.000000
# 4 0.000000 0.000000 0.000000 0.041600 0.000000 0.000000
# 5 0.000000 0.000000 0.000000 0.000000 0.038200 0.000000
# 6 0.000000 0.000000 0.000000 0.000000 0.000000 0.033539
#
#
# Mechanical properties :
#
#
# Convention : Reuss Voigt Hill
#
# Bulk Modulus (GPa) = 50.93942 52.07676 51.50809
# Shear Modulus (GPa) = 28.31794 30.45489 29.38641
#
# Velocity S-wave (km/s) = 3.68602 3.82257 3.75491
# Velocity P-wave (km/s) = 6.52349 6.66849 6.59639
#
# Compressibility (1/GPa) = 0.01963116
#
# Stress axis : x y z
#
# Youngs Moduli (GPa) = 79.11819 111.82413 60.32909
#
# Poissons Ratio (x) = 0.16851 0.39445
# Poissons Ratio (y) = 0.11922 0.07349
# Poissons Ratio (z) = 0.51729 0.13621
#
# Static dielectric constant tensor:
#      x y z
#    x 1.707860 0.000000 0.000000 
#    y 0.000000 1.761310 0.000000 
#    z 0.000000 0.000000 1.930330 
# 
# From -- ./inp_files/30528.got.cif
#   From: 2010.05.17/outbox.cif.g08.bks.cpg/sg50_16_cif.got.tgz:30528.got - 2010.06.03 11:33:33.
