data_PCOD9397719
_publ_section_title
;
Structure prediction by ZEFSAII (Michael W. Deem and Ramdas Pophale) SiO2 
 PCOD9397719
Probable space group: P B A N
;
_chemical_formula_sum "Si O2"
_cell_formula_units_Z 30
_cell_length_a 31.129988
_cell_length_b 5.183545
_cell_length_c 8.303281
_cell_angle_alpha 90.000000
_cell_angle_beta 90.000000
_cell_angle_gamma 90.000000
_cell_volume 1339.848092
_symmetry_space_group_name_H-M "P B A N"
_symmetry_group_IT_number 50
_space_group.IT_coordinate_system_code '2'
_symmetry_cell_setting 'orthorhombic'
loop_
_space_group_symop_operation_xyz
x,y,z
1/2-x,1/2-y,z
x,1/2-y,-z
1/2-x,y,-z
-x,-y,-z
1/2+x,1/2+y,-z
-x,1/2+y,z
1/2+x,-y,z
loop_
_atom_site_type_symbol
_atom_site_label
_atom_site_fract_x
_atom_site_fract_y
_atom_site_fract_z
Si Si1 0.364332 0.250000 0.000000
Si Si2 0.970936 0.410730 0.319451
Si Si3 0.391803 0.750000 0.500000
Si Si4 0.423788 0.750000 0.000000
Si Si5 0.250000 0.250000 0.500000
Si Si6 0.331677 0.103206 0.338231
O O1 0.393528 0.502084 0.974147
O O2 0.337900 0.252296 0.831099
O O3 0.926968 0.439948 0.420725
O O4 0.954009 0.354063 0.141028
O O5 0.000908 0.654120 0.345686
O O6 0.360548 0.651577 0.642037
O O7 0.281502 0.082220 0.386181
O O8 0.347937 0.250000 0.500000
#
# Coordination Sequence:
#
# PCOD9397719 Si02
#       6
#     4   8   4   4   2   8
#     4  12  24  44  78 100 145 188 249 280 376 436
#     4  12  26  42  66 100 140 190 247 302 356 418
#     4  12  24  43  71  94 148 186 249 289 374 426
#     4  12  24  45  66 103 137 194 241 307 350 433
#     4   8  24  44  74 108 144 172 238 288 368 422
#     4  10  24  46  71 107 140 190 229 305 354 448
#
# _framework density 22.390598000000001
#
# number of rings (size 3 to 8) (size 9 to 14) (size 15 to 20)
#    0.800    0.000    2.667    4.800    3.733    1.067 
#    0.000    0.000    0.000    1.600    0.000    0.000 
#    0.000    0.000    0.000    0.000    0.000    0.000 
#
# Total GULP energy -167132.366164 kJ/mol
# GULP energy per Si atom -5571.078872 kJ/mol
# Density = 2.233964 g / cm^3
# Si number density = 22.390598 Si / 1000 Ang^3
#
#
#
# Elastic Constant Matrix: (Units=GPa)
#
#
# Indices 1 2 3 4 5 6 
#
# 1 176.2253 59.6593 54.3735 0.0000 0.0000 0.0000
# 2 59.6593 110.3838 25.8496 0.0000 0.0000 0.0000
# 3 54.3735 25.8496 164.3365 0.0000 0.0000 0.0000
# 4 0.0000 0.0000 0.0000 35.6620 0.0000 0.0000
# 5 0.0000 0.0000 0.0000 0.0000 28.0738 0.0000
# 6 0.0000 0.0000 0.0000 0.0000 0.0000 11.1179
#
#
#
# Elastic Compliance Matrix: (Units=1/GPa)
#
#
# Indices 1 2 3 4 5 6 
#
# 1 0.007481 -0.003596 -0.001910 0.000000 0.000000 0.000000
# 2 -0.003596 0.011134 -0.000562 0.000000 0.000000 0.000000
# 3 -0.001910 -0.000562 0.006805 0.000000 0.000000 0.000000
# 4 0.000000 0.000000 0.000000 0.028041 0.000000 0.000000
# 5 0.000000 0.000000 0.000000 0.000000 0.035620 0.000000
# 6 0.000000 0.000000 0.000000 0.000000 0.000000 0.089945
#
#
# Mechanical properties :
#
#
# Convention : Reuss Voigt Hill
#
# Bulk Modulus (GPa) = 75.26622 81.19004 78.22813
# Shear Modulus (GPa) = 25.56354 35.70829 30.63591
#
# Velocity S-wave (km/s) = 3.38258 3.99781 3.70300
# Velocity P-wave (km/s) = 6.99599 7.59273 7.30046
#
# Compressibility (1/GPa) = 0.01328617
#
# Stress axis : x y z
#
# Youngs Moduli (GPa) = 133.66826 89.81147 146.94576
#
# Poissons Ratio (x) = 0.32298 0.28061
# Poissons Ratio (y) = 0.48070 0.08252
# Poissons Ratio (z) = 0.25525 0.05043
#
# Static dielectric constant tensor:
#      x y z
#    x 1.791430 0.000000 0.000000 
#    y 0.000000 2.007840 0.000000 
#    z 0.000000 0.000000 2.040060 
# 
# From -- ./inp_files/7968.got.cif
#   From: 2010.05.17/outbox.cif.g08.bks.cpg/sg50_4_cif.got.tgz:7968.got - 2010.06.03 11:33:33.
