data_PCOD9397557
_publ_section_title
;
Structure prediction by ZEFSAII (Michael W. Deem and Ramdas Pophale) SiO2 
 PCOD9397557
Probable space group: P B A N
;
_chemical_formula_sum "Si O2"
_cell_formula_units_Z 32
_cell_length_a 5.507869
_cell_length_b 18.136102
_cell_length_c 14.256360
_cell_angle_alpha 90.000000
_cell_angle_beta 90.000000
_cell_angle_gamma 90.000000
_cell_volume 1424.085963
_symmetry_space_group_name_H-M "P B A N"
_symmetry_group_IT_number 50
_space_group.IT_coordinate_system_code '2'
_symmetry_cell_setting 'orthorhombic'
loop_
_space_group_symop_operation_xyz
x,y,z
1/2-x,1/2-y,z
x,1/2-y,-z
1/2-x,y,-z
-x,-y,-z
1/2+x,1/2+y,-z
-x,1/2+y,z
1/2+x,-y,z
loop_
_atom_site_type_symbol
_atom_site_label
_atom_site_fract_x
_atom_site_fract_y
_atom_site_fract_z
Si Si1 0.250000 0.250000 0.500000
Si Si2 0.416261 0.822209 0.149179
Si Si3 0.250000 0.548429 0.500000
Si Si4 0.101702 0.673215 0.362924
Si Si5 0.923158 0.021708 0.106048
Si Si6 0.750000 0.750000 0.000000
O O1 0.391294 0.194267 0.566516
O O2 0.250000 0.750000 0.149175
O O3 0.487355 0.836787 0.256789
O O4 0.301215 0.897834 0.114067
O O5 0.611791 0.803017 0.071307
O O6 0.500000 0.500000 0.500000
O O7 0.238769 0.603516 0.409083
O O8 0.250000 0.750000 0.362861
O O9 0.699327 0.974049 0.148298
O O10 0.000000 0.000000 0.000000
#
# Coordination Sequence:
#
# PCOD9397557 Si02
#       6
#     2   8   4   8   8   2
#     4  12  18  44  80  98 144 194 252 306 386 456
#     4  11  27  43  72 108 147 193 264 316 370 450
#     4  12  26  46  75 115 156 196 248 326 400 470
#     4  11  24  46  73 108 143 201 251 311 385 465
#     4  10  23  43  68  95 139 193 234 289 372 430
#     4  12  24  44  68 108 148 192 266 324 370 422
#
# _framework density 22.470552999999999
#
# number of rings (size 3 to 8) (size 9 to 14) (size 15 to 20)
#    0.000    1.000    2.500    3.375   10.500    2.000 
#    0.000    0.000    0.000    0.000    0.000    0.000 
#    0.000    0.000    0.000    0.000    0.000    0.000 
#
# Total GULP energy -178275.966755 kJ/mol
# GULP energy per Si atom -5571.123961 kJ/mol
# Density = 2.241941 g / cm^3
# Si number density = 22.470553 Si / 1000 Ang^3
#
#
#
# Elastic Constant Matrix: (Units=GPa)
#
#
# Indices 1 2 3 4 5 6 
#
# 1 122.3333 35.5698 52.6331 0.0000 0.0000 0.0000
# 2 35.5698 141.6325 56.6924 0.0000 0.0000 0.0000
# 3 52.6331 56.6924 192.6037 0.0000 0.0000 0.0000
# 4 0.0000 0.0000 0.0000 21.6559 0.0000 0.0000
# 5 0.0000 0.0000 0.0000 0.0000 40.8358 0.0000
# 6 0.0000 0.0000 0.0000 0.0000 0.0000 32.9594
#
#
#
# Elastic Compliance Matrix: (Units=1/GPa)
#
#
# Indices 1 2 3 4 5 6 
#
# 1 0.009549 -0.001534 -0.002158 0.000000 0.000000 0.000000
# 2 -0.001534 0.008250 -0.002009 0.000000 0.000000 0.000000
# 3 -0.002158 -0.002009 0.006373 0.000000 0.000000 0.000000
# 4 0.000000 0.000000 0.000000 0.046177 0.000000 0.000000
# 5 0.000000 0.000000 0.000000 0.000000 0.024488 0.000000
# 6 0.000000 0.000000 0.000000 0.000000 0.000000 0.030340
#
#
# Mechanical properties :
#
#
# Convention : Reuss Voigt Hill
#
# Bulk Modulus (GPa) = 78.31187 82.92891 80.62039
# Shear Modulus (GPa) = 35.50211 39.86848 37.68530
#
# Velocity S-wave (km/s) = 3.97916 4.21676 4.09968
# Velocity P-wave (km/s) = 7.48586 7.79062 7.63976
#
# Compressibility (1/GPa) = 0.01276946
#
# Stress axis : x y z
#
# Youngs Moduli (GPa) = 104.72394 121.21102 156.91105
#
# Poissons Ratio (x) = 0.18599 0.33858
# Poissons Ratio (y) = 0.16069 0.31525
# Poissons Ratio (z) = 0.22597 0.24352
#
# Static dielectric constant tensor:
#      x y z
#    x 2.139270 0.000000 0.000000 
#    y 0.000000 2.123340 0.000000 
#    z 0.000000 0.000000 1.848140 
# 
# From -- ./inp_files/23696.got.cif
#   From: 2010.05.17/outbox.cif.g08.bks.cpg/sg50_12_cif.got.tgz:23696.got - 2010.06.03 11:33:33.
