data_PCOD9397998
_publ_section_title
;
Structure prediction by ZEFSAII (Michael W. Deem and Ramdas Pophale) SiO2 
 PCOD9397998
Probable space group: P B A N
;
_chemical_formula_sum "Si O2"
_cell_formula_units_Z 34
_cell_length_a 7.832738
_cell_length_b 9.376311
_cell_length_c 17.955050
_cell_angle_alpha 90.000000
_cell_angle_beta 90.000000
_cell_angle_gamma 90.000000
_cell_volume 1318.658148
_symmetry_space_group_name_H-M "P B A N"
_symmetry_group_IT_number 50
_space_group.IT_coordinate_system_code '2'
_symmetry_cell_setting 'orthorhombic'
loop_
_space_group_symop_operation_xyz
x,y,z
1/2-x,1/2-y,z
x,1/2-y,-z
1/2-x,y,-z
-x,-y,-z
1/2+x,1/2+y,-z
-x,1/2+y,z
1/2+x,-y,z
loop_
_atom_site_type_symbol
_atom_site_label
_atom_site_fract_x
_atom_site_fract_y
_atom_site_fract_z
Si Si1 0.285953 0.454161 0.138841
Si Si2 0.280550 0.452456 0.306806
Si Si3 0.250000 0.750000 0.500000
Si Si4 0.482270 0.712275 0.084001
Si Si5 0.522516 0.219169 0.359940
O O1 0.216091 0.438355 0.222550
O O2 0.340797 0.613997 0.121941
O O3 0.448453 0.348991 0.128668
O O4 0.147153 0.392697 0.082497
O O5 0.446309 0.350113 0.313583
O O6 0.340793 0.611900 0.323277
O O7 0.143768 0.386534 0.364530
O O8 0.397116 0.722010 0.563994
O O9 0.438963 0.750000 0.000000
#
# Coordination Sequence:
#
# PCOD9397998 Si02
#       5
#     8   8   2   8   8
#     4  11  22  43  69  97 136 176 231 286 346 395
#     4  11  23  44  71 102 134 183 233 298 335 413
#     4  12  28  46  68 102 140 186 218 286 348 430
#     4  11  24  41  64  98 138 180 226 283 344 413
#     4  11  25  43  69 101 140 176 233 279 352 412
#
# _framework density 25.783788000000001
#
# number of rings (size 3 to 8) (size 9 to 14) (size 15 to 20)
#    0.000    0.941    0.000    9.176    0.000    6.588 
#    0.000    7.059    0.000    0.000    0.000    0.000 
#    0.000    0.000    0.000    0.000    0.000    0.000 
#
# Total GULP energy -190050.119730 kJ/mol
# GULP energy per Si atom -5589.709404 kJ/mol
# Density = 2.572510 g / cm^3
# Si number density = 25.783788 Si / 1000 Ang^3
#
#
#
# Elastic Constant Matrix: (Units=GPa)
#
#
# Indices 1 2 3 4 5 6 
#
# 1 107.0001 10.1106 11.8950 0.0000 0.0000 0.0000
# 2 10.1106 159.7268 3.6339 0.0000 0.0000 0.0000
# 3 11.8950 3.6339 101.3058 0.0000 0.0000 0.0000
# 4 0.0000 0.0000 0.0000 -19.8692 0.0000 0.0000
# 5 0.0000 0.0000 0.0000 0.0000 19.1714 0.0000
# 6 0.0000 0.0000 0.0000 0.0000 0.0000 56.9168
#
#
#
# Elastic Compliance Matrix: (Units=1/GPa)
#
#
# Indices 1 2 3 4 5 6 
#
# 1 0.009522 -0.000578 -0.001097 0.000000 0.000000 0.000000
# 2 -0.000578 0.006301 -0.000158 0.000000 0.000000 0.000000
# 3 -0.001097 -0.000158 0.010006 0.000000 0.000000 0.000000
# 4 0.000000 0.000000 0.000000 -0.050329 0.000000 0.000000
# 5 0.000000 0.000000 0.000000 0.000000 0.052161 0.000000
# 6 0.000000 0.000000 0.000000 0.000000 0.000000 0.017570
#
#
# Mechanical properties :
#
#
# Convention : Reuss Voigt Hill
#
# Bulk Modulus (GPa) = 45.12187 46.59019 45.85603
# Shear Modulus (GPa) = 88.83496 34.07002 61.45249
#
# Velocity S-wave (km/s) = 5.87610 3.63901 4.88728
# Velocity P-wave (km/s) = 7.97347 5.98041 7.04775
#
# Compressibility (1/GPa) = 0.02216220
#
# Stress axis : x y z
#
# Youngs Moduli (GPa) = 105.01584 158.70838 99.94375
#
# Poissons Ratio (x) = 0.09170 0.10967
# Poissons Ratio (y) = 0.06068 0.01581
# Poissons Ratio (z) = 0.11524 0.02510
#
# Static dielectric constant tensor:
#      x y z
#    x 2.200790 0.000000 0.000000 
#    y 0.000000 2.068420 0.000000 
#    z 0.000000 0.000000 1.882130 
# 
# From -- ./inp_files/24444.got.cif
#   From: 2010.05.17/outbox.cif.g08.bks.cpg/sg50_13_cif.got.tgz:24444.got - 2010.06.03 11:33:33.
