data_PCOD9397335
_publ_section_title
;
Structure prediction by ZEFSAII (Michael W. Deem and Ramdas Pophale) SiO2 
 PCOD9397335
Probable space group: P B A N
;
_chemical_formula_sum "Si O2"
_cell_formula_units_Z 60
_cell_length_a 8.465233
_cell_length_b 25.897185
_cell_length_c 12.421602
_cell_angle_alpha 90.000000
_cell_angle_beta 90.000000
_cell_angle_gamma 90.000000
_cell_volume 2723.134457
_symmetry_space_group_name_H-M "P B A N"
_symmetry_group_IT_number 50
_space_group.IT_coordinate_system_code '2'
_symmetry_cell_setting 'orthorhombic'
loop_
_space_group_symop_operation_xyz
x,y,z
1/2-x,1/2-y,z
x,1/2-y,-z
1/2-x,y,-z
-x,-y,-z
1/2+x,1/2+y,-z
-x,1/2+y,z
1/2+x,-y,z
loop_
_atom_site_type_symbol
_atom_site_label
_atom_site_fract_x
_atom_site_fract_y
_atom_site_fract_z
Si Si1 0.863687 0.205748 0.681599
Si Si2 0.085451 0.850017 0.116286
Si Si3 0.750000 0.371243 0.500000
Si Si4 0.536076 0.161040 0.885925
Si Si5 0.598235 0.784080 0.325825
Si Si6 0.901379 0.894392 0.570580
Si Si7 0.038026 0.465155 0.105939
Si Si8 0.116994 0.442940 0.804209
O O1 0.750000 0.250000 0.731796
O O2 0.963784 0.175217 0.771388
O O3 0.778292 0.164998 0.604849
O O4 0.979415 0.243611 0.619845
O O5 0.274093 0.841742 0.120643
O O6 0.051765 0.910791 0.107799
O O7 0.007988 0.824475 0.010707
O O8 0.580949 0.400027 0.477698
O O9 0.464305 0.195264 0.790613
O O10 0.471448 0.103228 0.866801
O O11 0.750000 0.750000 0.307212
O O12 0.615704 0.833945 0.399490
O O13 0.750000 0.909076 0.500000
O O14 0.876845 0.923662 0.682783
O O15 0.219061 0.452627 0.133170
O O16 0.975641 0.503447 0.197000
O O17 0.000000 0.500000 0.000000
#
# Coordination Sequence:
#
# PCOD9397335 Si02
#       8
#     8   8   4   8   8   8   8   8
#     4  12  23  43  67 105 140 193 244 295 363 434
#     4  11  24  41  72  98 142 190 243 296 368 447
#     4  12  25  44  80 100 150 194 250 316 372 441
#     4  10  22  43  64  99 141 188 233 298 367 443
#     4  11  24  42  67 102 151 188 244 301 364 444
#     4  11  26  48  75 110 144 192 253 311 375 443
#     4  12  25  44  78 105 138 189 241 303 377 456
#     4  11  25  47  70 108 145 177 244 308 371 451
#
# _framework density 22.033432999999999
#
# number of rings (size 3 to 8) (size 9 to 14) (size 15 to 20)
#    0.000    0.800    4.000    3.000    7.467    1.867 
#    0.000    1.333    1.467    0.000    0.000    0.000 
#    0.000    0.000    0.000    0.000    0.000    0.000 
#
# Total GULP energy -334975.929612 kJ/mol
# GULP energy per Si atom -5582.932160 kJ/mol
# Density = 2.198328 g / cm^3
# Si number density = 22.033433 Si / 1000 Ang^3
#
#
#
# Elastic Constant Matrix: (Units=GPa)
#
#
# Indices 1 2 3 4 5 6 
#
# 1 104.1518 19.8147 23.5020 0.0000 0.0000 0.0000
# 2 19.8147 56.8871 24.2652 0.0000 0.0000 0.0000
# 3 23.5020 24.2652 108.8501 0.0000 0.0000 0.0000
# 4 0.0000 0.0000 0.0000 22.6901 0.0000 0.0000
# 5 0.0000 0.0000 0.0000 0.0000 27.6086 0.0000
# 6 0.0000 0.0000 0.0000 0.0000 0.0000 30.5057
#
#
#
# Elastic Compliance Matrix: (Units=1/GPa)
#
#
# Indices 1 2 3 4 5 6 
#
# 1 0.010532 -0.002982 -0.001609 0.000000 0.000000 0.000000
# 2 -0.002982 0.020270 -0.003875 0.000000 0.000000 0.000000
# 3 -0.001609 -0.003875 0.010398 0.000000 0.000000 0.000000
# 4 0.000000 0.000000 0.000000 0.044072 0.000000 0.000000
# 5 0.000000 0.000000 0.000000 0.000000 0.036221 0.000000
# 6 0.000000 0.000000 0.000000 0.000000 0.000000 0.032781
#
#
# Mechanical properties :
#
#
# Convention : Reuss Voigt Hill
#
# Bulk Modulus (GPa) = 41.20636 45.00587 43.10612
# Shear Modulus (GPa) = 27.88700 29.64802 28.76751
#
# Velocity S-wave (km/s) = 3.56148 3.67221 3.61727
# Velocity P-wave (km/s) = 5.97114 6.20086 6.08709
#
# Compressibility (1/GPa) = 0.02426810
#
# Stress axis : x y z
#
# Youngs Moduli (GPa) = 94.95044 49.33361 96.17075
#
# Poissons Ratio (x) = 0.14711 0.15476
# Poissons Ratio (y) = 0.28314 0.37265
# Poissons Ratio (z) = 0.15279 0.19116
#
# Static dielectric constant tensor:
#      x y z
#    x 1.933050 0.000000 0.000000 
#    y 0.000000 1.763720 0.000000 
#    z 0.000000 0.000000 1.898510 
# 
# From -- ./inp_files/19422.got.cif
#   From: 2010.05.17/outbox.cif.g08.bks.cpg/sg50_10_cif.got.tgz:19422.got - 2010.06.03 11:33:33.
