data_PCOD9397989
_publ_section_title
;
Structure prediction by ZEFSAII (Michael W. Deem and Ramdas Pophale) SiO2 
 PCOD9397989
Probable space group: P B A N
;
_chemical_formula_sum "Si O2"
_cell_formula_units_Z 44
_cell_length_a 26.748405
_cell_length_b 8.923825
_cell_length_c 8.258532
_cell_angle_alpha 90.000000
_cell_angle_beta 90.000000
_cell_angle_gamma 90.000000
_cell_volume 1971.295775
_symmetry_space_group_name_H-M "P B A N"
_symmetry_group_IT_number 50
_space_group.IT_coordinate_system_code '2'
_symmetry_cell_setting 'orthorhombic'
loop_
_space_group_symop_operation_xyz
x,y,z
1/2-x,1/2-y,z
x,1/2-y,-z
1/2-x,y,-z
-x,-y,-z
1/2+x,1/2+y,-z
-x,1/2+y,z
1/2+x,-y,z
loop_
_atom_site_type_symbol
_atom_site_label
_atom_site_fract_x
_atom_site_fract_y
_atom_site_fract_z
Si Si1 0.678223 0.171345 0.239092
Si Si2 0.182733 0.509938 0.097435
Si Si3 0.586554 0.641062 0.124314
Si Si4 0.976723 0.892827 0.813997
Si Si5 0.250000 0.250000 0.000000
Si Si6 0.439053 0.702839 0.315461
Si Si7 0.750000 0.250000 0.500000
O O1 0.698116 0.333351 0.176853
O O2 0.619489 0.186947 0.278188
O O3 0.712317 0.146233 0.395333
O O4 0.680392 0.052558 0.093408
O O5 0.127947 0.475398 0.171800
O O6 0.217580 0.365268 0.108970
O O7 0.559314 0.754131 0.245442
O O8 0.543322 0.587804 0.999051
O O9 0.616792 0.750000 0.000000
O O10 0.031810 0.826776 0.791761
O O11 0.964787 0.043095 0.720125
O O12 0.445956 0.750000 0.500000
#
# Coordination Sequence:
#
# PCOD9397989 Si02
#       7
#     8   8   8   8   2   8   2
#     4  11  25  43  71  96 133 177 234 274 345 411
#     4  11  22  41  70 103 127 172 225 288 349 412
#     4   8  18  37  62  92 134 163 205 288 333 398
#     4   9  22  37  61  94 135 171 223 268 336 398
#     4  12  20  38  68  98 128 154 216 294 360 380
#     4  12  23  41  62  94 137 191 228 270 335 421
#     4  12  24  50  64  94 132 174 228 294 328 408
#
# _framework density 22.320343999999999
#
# number of rings (size 3 to 8) (size 9 to 14) (size 15 to 20)
#    1.091    0.364    3.636    1.636    2.545    7.273 
#    0.000    0.000    0.000   10.909    0.000    0.000 
#    0.000    0.000    0.000    0.000    0.000    0.000 
#
# Total GULP energy -245337.725758 kJ/mol
# GULP energy per Si atom -5575.857404 kJ/mol
# Density = 2.226954 g / cm^3
# Si number density = 22.320344 Si / 1000 Ang^3
#
#
#
# Elastic Constant Matrix: (Units=GPa)
#
#
# Indices 1 2 3 4 5 6 
#
# 1 157.7185 68.4293 27.3171 0.0000 0.0000 0.0000
# 2 68.4293 140.5869 43.8742 0.0000 0.0000 0.0000
# 3 27.3171 43.8742 62.6620 0.0000 0.0000 0.0000
# 4 0.0000 0.0000 0.0000 26.2869 0.0000 0.0000
# 5 0.0000 0.0000 0.0000 0.0000 18.2276 0.0000
# 6 0.0000 0.0000 0.0000 0.0000 0.0000 51.1020
#
#
#
# Elastic Compliance Matrix: (Units=1/GPa)
#
#
# Indices 1 2 3 4 5 6 
#
# 1 0.008085 -0.003628 -0.000984 0.000000 0.000000 0.000000
# 2 -0.003628 0.010730 -0.005931 0.000000 0.000000 0.000000
# 3 -0.000984 -0.005931 0.020541 0.000000 0.000000 0.000000
# 4 0.000000 0.000000 0.000000 0.038042 0.000000 0.000000
# 5 0.000000 0.000000 0.000000 0.000000 0.054862 0.000000
# 6 0.000000 0.000000 0.000000 0.000000 0.000000 0.019569
#
#
# Mechanical properties :
#
#
# Convention : Reuss Voigt Hill
#
# Bulk Modulus (GPa) = 54.73939 71.13429 62.93684
# Shear Modulus (GPa) = 27.93223 33.87974 30.90599
#
# Velocity S-wave (km/s) = 3.54139 3.90023 3.72513
# Velocity P-wave (km/s) = 6.42647 7.22643 6.83816
#
# Compressibility (1/GPa) = 0.01826838
#
# Stress axis : x y z
#
# Youngs Moduli (GPa) = 123.68537 93.19661 48.68407
#
# Poissons Ratio (x) = 0.33813 0.04792
# Poissons Ratio (y) = 0.44875 0.28875
# Poissons Ratio (z) = 0.12174 0.55277
#
# Static dielectric constant tensor:
#      x y z
#    x 1.900470 0.000000 0.000000 
#    y 0.000000 1.893140 0.000000 
#    z 0.000000 0.000000 1.844770 
# 
# From -- ./inp_files/16865.got.cif
#   From: 2010.05.17/outbox.cif.g08.bks.cpg/sg50_9_cif.got.tgz:16865.got - 2010.06.03 11:33:33.
