data_PCOD9397642
_publ_section_title
;
Structure prediction by ZEFSAII (Michael W. Deem and Ramdas Pophale) SiO2 
 PCOD9397642
Probable space group: P B A N
;
_chemical_formula_sum "Si O2"
_cell_formula_units_Z 56
_cell_length_a 11.559632
_cell_length_b 22.086768
_cell_length_c 10.040208
_cell_angle_alpha 90.000000
_cell_angle_beta 90.000000
_cell_angle_gamma 90.000000
_cell_volume 2563.414803
_symmetry_space_group_name_H-M "P B A N"
_symmetry_group_IT_number 50
_space_group.IT_coordinate_system_code '2'
_symmetry_cell_setting 'orthorhombic'
loop_
_space_group_symop_operation_xyz
x,y,z
1/2-x,1/2-y,z
x,1/2-y,-z
1/2-x,y,-z
-x,-y,-z
1/2+x,1/2+y,-z
-x,1/2+y,z
1/2+x,-y,z
loop_
_atom_site_type_symbol
_atom_site_label
_atom_site_fract_x
_atom_site_fract_y
_atom_site_fract_z
Si Si1 0.576070 0.051148 0.327042
Si Si2 0.644556 0.622139 0.335126
Si Si3 0.015720 0.242679 0.664310
Si Si4 0.114419 0.419470 0.629038
Si Si5 0.297157 0.667537 0.361360
Si Si6 0.883922 0.457914 0.022756
Si Si7 0.569237 0.137967 0.797515
O O1 0.443448 0.068562 0.298570
O O2 0.631269 0.107804 0.400733
O O3 0.625027 0.051757 0.179684
O O4 0.612486 0.990537 0.401458
O O5 0.607477 0.690131 0.296160
O O6 0.771670 0.601656 0.292388
O O7 0.626973 0.619287 0.495506
O O8 0.023484 0.250000 0.500000
O O9 0.891366 0.213072 0.694175
O O10 0.011481 0.303386 0.755155
O O11 0.997044 0.411507 0.709006
O O12 0.250000 0.690042 0.500000
O O13 0.193909 0.653474 0.262112
O O14 0.750000 0.480321 0.000000
O O15 0.910304 0.395606 0.939223
O O16 0.000000 0.500000 0.000000
#
# Coordination Sequence:
#
# PCOD9397642 Si02
#       7
#     8   8   8   8   8   8   8
#     4  11  24  41  65  95 139 178 228 293 351 425
#     4  10  24  41  62 103 143 182 224 289 365 426
#     4  11  21  41  66  97 140 178 227 281 351 427
#     4  11  23  39  66 103 140 182 228 287 362 438
#     4  11  22  37  65 100 135 174 219 283 360 419
#     4  12  27  47  71 100 138 187 242 299 355 425
#     4  12  23  40  67  99 129 182 239 279 356 419
#
# _framework density 21.845859000000001
#
# number of rings (size 3 to 8) (size 9 to 14) (size 15 to 20)
#    0.000    0.857    5.714    1.714    6.000    0.571 
#    0.000    2.857    0.000    0.000    0.000    4.000 
#    0.000    0.000    0.000    0.000    0.000    0.000 
#
# Total GULP energy -311847.104225 kJ/mol
# GULP energy per Si atom -5568.698290 kJ/mol
# Density = 2.179614 g / cm^3
# Si number density = 21.845859 Si / 1000 Ang^3
#
#
#
# Elastic Constant Matrix: (Units=GPa)
#
#
# Indices 1 2 3 4 5 6 
#
# 1 85.7227 36.5377 7.1475 0.0000 0.0000 0.0000
# 2 36.5377 131.8226 3.5375 0.0000 0.0000 0.0000
# 3 7.1475 3.5375 40.8665 0.0000 0.0000 0.0000
# 4 0.0000 0.0000 0.0000 9.4386 0.0000 0.0000
# 5 0.0000 0.0000 0.0000 0.0000 25.1215 0.0000
# 6 0.0000 0.0000 0.0000 0.0000 0.0000 6.1606
#
#
#
# Elastic Compliance Matrix: (Units=1/GPa)
#
#
# Indices 1 2 3 4 5 6 
#
# 1 0.013394 -0.003658 -0.002026 0.000000 0.000000 0.000000
# 2 -0.003658 0.008603 -0.000105 0.000000 0.000000 0.000000
# 3 -0.002026 -0.000105 0.024833 0.000000 0.000000 0.000000
# 4 0.000000 0.000000 0.000000 0.105948 0.000000 0.000000
# 5 0.000000 0.000000 0.000000 0.000000 0.039807 0.000000
# 6 0.000000 0.000000 0.000000 0.000000 0.000000 0.162322
#
#
# Mechanical properties :
#
#
# Convention : Reuss Voigt Hill
#
# Bulk Modulus (GPa) = 28.36714 39.20636 33.78675
# Shear Modulus (GPa) = 13.21933 22.22341 17.72137
#
# Velocity S-wave (km/s) = 2.46258 3.19295 2.85125
# Velocity P-wave (km/s) = 4.59337 5.61952 5.13216
#
# Compressibility (1/GPa) = 0.03525206
#
# Stress axis : x y z
#
# Youngs Moduli (GPa) = 74.66261 116.24308 40.26850
#
# Poissons Ratio (x) = 0.42522 0.08158
# Poissons Ratio (y) = 0.27311 0.00422
# Poissons Ratio (z) = 0.15126 0.01219
#
# Static dielectric constant tensor:
#      x y z
#    x 1.904220 0.000000 0.000000 
#    y 0.000000 1.883320 0.000000 
#    z 0.000000 0.000000 2.065830 
# 
# From -- ./inp_files/20376.got.cif
#   From: 2010.05.17/outbox.cif.g08.bks.cpg/sg50_11_cif.got.tgz:20376.got - 2010.06.03 11:33:33.
