data_PCOD9397514
_publ_section_title
;
Structure prediction by ZEFSAII (Michael W. Deem and Ramdas Pophale) SiO2 
 PCOD9397514
Probable space group: P B A N
;
_chemical_formula_sum "Si O2"
_cell_formula_units_Z 34
_cell_length_a 12.134766
_cell_length_b 18.343249
_cell_length_c 7.009919
_cell_angle_alpha 90.000000
_cell_angle_beta 90.000000
_cell_angle_gamma 90.000000
_cell_volume 1560.345121
_symmetry_space_group_name_H-M "P B A N"
_symmetry_group_IT_number 50
_space_group.IT_coordinate_system_code '2'
_symmetry_cell_setting 'orthorhombic'
loop_
_space_group_symop_operation_xyz
x,y,z
1/2-x,1/2-y,z
x,1/2-y,-z
1/2-x,y,-z
-x,-y,-z
1/2+x,1/2+y,-z
-x,1/2+y,z
1/2+x,-y,z
loop_
_atom_site_type_symbol
_atom_site_label
_atom_site_fract_x
_atom_site_fract_y
_atom_site_fract_z
Si Si1 0.750000 0.250000 0.000000
Si Si2 0.350984 0.022885 0.884680
Si Si3 0.433325 0.761126 0.281869
Si Si4 0.508771 0.599163 0.218852
Si Si5 0.360492 0.142619 0.587215
O O1 0.665381 0.209906 0.852520
O O2 0.316758 0.084306 0.736931
O O3 0.411003 0.958900 0.771882
O O4 0.250000 0.990332 0.000000
O O5 0.424134 0.066969 0.039733
O O6 0.393251 0.750000 0.500000
O O7 0.546601 0.807076 0.310903
O O8 0.467491 0.817796 0.802617
O O9 0.576260 0.602744 0.414731
O O10 0.250000 0.177097 0.500000
#
# Coordination Sequence:
#
# PCOD9397514 Si02
#       5
#     2   8   8   8   8
#     4  12  22  44  68  96 144 180 238 284 352 426
#     4  11  22  40  66 100 136 183 234 288 355 426
#     4  10  24  42  68 100 137 186 234 292 356 426
#     4  10  23  42  64  97 139 178 237 284 356 430
#     4  11  22  44  69 101 141 186 233 299 361 423
#
# _framework density 21.790051999999999
#
# number of rings (size 3 to 8) (size 9 to 14) (size 15 to 20)
#    0.000    1.412    2.353    2.471    1.647    4.235 
#    0.000    3.529    0.000    0.000    0.000    0.000 
#    0.000    0.000    0.000    0.000    0.000    0.000 
#
# Total GULP energy -189605.135360 kJ/mol
# GULP energy per Si atom -5576.621628 kJ/mol
# Density = 2.174046 g / cm^3
# Si number density = 21.790052 Si / 1000 Ang^3
#
#
#
# Elastic Constant Matrix: (Units=GPa)
#
#
# Indices 1 2 3 4 5 6 
#
# 1 132.9022 48.2490 49.9322 0.0000 0.0000 0.0000
# 2 48.2490 100.3803 27.7186 0.0000 0.0000 0.0000
# 3 49.9322 27.7186 80.9682 0.0000 0.0000 0.0000
# 4 0.0000 0.0000 0.0000 12.7785 0.0000 0.0000
# 5 0.0000 0.0000 0.0000 0.0000 41.3782 0.0000
# 6 0.0000 0.0000 0.0000 0.0000 0.0000 16.3181
#
#
#
# Elastic Compliance Matrix: (Units=1/GPa)
#
#
# Indices 1 2 3 4 5 6 
#
# 1 0.010937 -0.003749 -0.005461 0.000000 0.000000 0.000000
# 2 -0.003749 0.012287 -0.001894 0.000000 0.000000 0.000000
# 3 -0.005461 -0.001894 0.016367 0.000000 0.000000 0.000000
# 4 0.000000 0.000000 0.000000 0.078257 0.000000 0.000000
# 5 0.000000 0.000000 0.000000 0.000000 0.024167 0.000000
# 6 0.000000 0.000000 0.000000 0.000000 0.000000 0.061282
#
#
# Mechanical properties :
#
#
# Convention : Reuss Voigt Hill
#
# Bulk Modulus (GPa) = 57.53147 62.89446 60.21296
# Shear Modulus (GPa) = 21.61686 26.65168 24.13427
#
# Velocity S-wave (km/s) = 3.15310 3.50110 3.33165
# Velocity P-wave (km/s) = 6.30206 6.72830 6.51867
#
# Compressibility (1/GPa) = 0.01738179
#
# Stress axis : x y z
#
# Youngs Moduli (GPa) = 91.43030 81.38519 61.09817
#
# Poissons Ratio (x) = 0.30512 0.33369
# Poissons Ratio (y) = 0.34277 0.11575
# Poissons Ratio (z) = 0.49934 0.15418
#
# Static dielectric constant tensor:
#      x y z
#    x 1.873770 0.000000 0.000000 
#    y 0.000000 1.802770 0.000000 
#    z 0.000000 0.000000 1.809560 
# 
# From -- ./inp_files/2272.got.cif
#   From: 2010.05.17/outbox.cif.g08.bks.cpg/sg50_2_cif.got.tgz:2272.got - 2010.06.03 11:33:33.
