data_PCOD9397072
_publ_section_title
;
Structure prediction by ZEFSAII (Michael W. Deem and Ramdas Pophale) SiO2 
 PCOD9397072
Probable space group: P B A N
;
_chemical_formula_sum "Si O2"
_cell_formula_units_Z 60
_cell_length_a 23.283752
_cell_length_b 8.332311
_cell_length_c 15.799289
_cell_angle_alpha 90.000000
_cell_angle_beta 90.000000
_cell_angle_gamma 90.000000
_cell_volume 3065.179975
_symmetry_space_group_name_H-M "P B A N"
_symmetry_group_IT_number 50
_space_group.IT_coordinate_system_code '2'
_symmetry_cell_setting 'orthorhombic'
loop_
_space_group_symop_operation_xyz
x,y,z
1/2-x,1/2-y,z
x,1/2-y,-z
1/2-x,y,-z
-x,-y,-z
1/2+x,1/2+y,-z
-x,1/2+y,z
1/2+x,-y,z
loop_
_atom_site_type_symbol
_atom_site_label
_atom_site_fract_x
_atom_site_fract_y
_atom_site_fract_z
Si Si1 0.784553 0.083651 0.180845
Si Si2 0.442476 0.545521 0.393749
Si Si3 0.508655 0.436112 0.227342
Si Si4 0.845275 0.924837 0.022410
Si Si5 0.465661 0.250000 0.500000
Si Si6 0.072246 0.220539 0.857236
Si Si7 0.621176 0.252536 0.720517
Si Si8 0.666887 0.959773 0.167306
O O1 0.750000 0.250000 0.166424
O O2 0.829799 0.121627 0.256114
O O3 0.816594 0.027199 0.096048
O O4 0.733264 0.956736 0.193682
O O5 0.467784 0.469403 0.307118
O O6 0.431045 0.391953 0.453371
O O7 0.492279 0.654538 0.435694
O O8 0.390175 0.665131 0.370486
O O9 0.471634 0.369792 0.147926
O O10 0.541748 0.596864 0.203701
O O11 0.559670 0.316831 0.252885
O O12 0.907998 0.875556 0.059190
O O13 0.817734 0.750000 0.000000
O O14 0.841635 0.006984 0.931538
O O15 0.132335 0.294000 0.823861
O O16 0.637613 0.401783 0.779146
#
# Coordination Sequence:
#
# PCOD9397072 Si02
#       8
#     8   8   8   8   4   8   8   8
#     4  10  22  39  62  85 114 161 217 278 328 372
#     4  11  20  37  61  90 129 157 192 243 302 384
#     4  12  20  37  60  82 124 169 198 252 311 386
#     4  10  22  38  56  83 118 159 213 278 329 359
#     4  10  22  34  60  98 125 157 192 234 310 386
#     4  11  21  36  58  83 119 169 213 257 322 376
#     4  11  21  37  59  87 119 162 207 255 315 382
#     4  10  22  38  56  83 117 159 217 276 319 360
#
# _framework density 19.574705999999999
#
# number of rings (size 3 to 8) (size 9 to 14) (size 15 to 20)
#    0.000    1.333    5.333    0.400    0.000    7.467 
#    0.000   10.667    0.000    0.000    0.000    4.200 
#    0.000    9.600    0.000    0.000    0.000    0.000 
#
# Total GULP energy -334156.736752 kJ/mol
# GULP energy per Si atom -5569.278946 kJ/mol
# Density = 1.953015 g / cm^3
# Si number density = 19.574706 Si / 1000 Ang^3
#
#
#
# Elastic Constant Matrix: (Units=GPa)
#
#
# Indices 1 2 3 4 5 6 
#
# 1 96.0614 39.4322 41.9191 0.0000 0.0000 0.0000
# 2 39.4322 48.7621 21.8717 0.0000 0.0000 0.0000
# 3 41.9191 21.8717 54.9698 0.0000 0.0000 0.0000
# 4 0.0000 0.0000 0.0000 39.6374 0.0000 0.0000
# 5 0.0000 0.0000 0.0000 0.0000 9.7541 0.0000
# 6 0.0000 0.0000 0.0000 0.0000 0.0000 41.5750
#
#
#
# Elastic Compliance Matrix: (Units=1/GPa)
#
#
# Indices 1 2 3 4 5 6 
#
# 1 0.019542 -0.011100 -0.010486 0.000000 0.000000 0.000000
# 2 -0.011100 0.031267 -0.003976 0.000000 0.000000 0.000000
# 3 -0.010486 -0.003976 0.027771 0.000000 0.000000 0.000000
# 4 0.000000 0.000000 0.000000 0.025229 0.000000 0.000000
# 5 0.000000 0.000000 0.000000 0.000000 0.102520 0.000000
# 6 0.000000 0.000000 0.000000 0.000000 0.000000 0.024053
#
#
# Mechanical properties :
#
#
# Convention : Reuss Voigt Hill
#
# Bulk Modulus (GPa) = 36.42252 45.13771 40.78012
# Shear Modulus (GPa) = 17.20234 24.63134 20.91684
#
# Velocity S-wave (km/s) = 2.96768 3.55114 3.27244
# Velocity P-wave (km/s) = 5.51273 6.31849 5.92931
#
# Compressibility (1/GPa) = 0.02745554
#
# Stress axis : x y z
#
# Youngs Moduli (GPa) = 51.17123 31.98251 36.00936
#
# Poissons Ratio (x) = 0.35499 0.37760
# Poissons Ratio (y) = 0.56798 0.14319
# Poissons Ratio (z) = 0.53659 0.12717
#
# Static dielectric constant tensor:
#      x y z
#    x 1.727760 0.000000 0.000000 
#    y 0.000000 1.796980 0.000000 
#    z 0.000000 0.000000 1.715810 
# 
# From -- ./inp_files/27467.got.cif
#   From: 2010.05.17/outbox.cif.g08.bks.cpg/sg50_14_cif.got.tgz:27467.got - 2010.06.03 11:33:33.
