data_PCOD9397276
_publ_section_title
;
Structure prediction by ZEFSAII (Michael W. Deem and Ramdas Pophale) SiO2 
 PCOD9397276
Probable space group: P B A N
;
_chemical_formula_sum "Si O2"
_cell_formula_units_Z 40
_cell_length_a 8.849423
_cell_length_b 18.994754
_cell_length_c 11.107252
_cell_angle_alpha 90.000000
_cell_angle_beta 90.000000
_cell_angle_gamma 90.000000
_cell_volume 1867.047011
_symmetry_space_group_name_H-M "P B A N"
_symmetry_group_IT_number 50
_space_group.IT_coordinate_system_code '2'
_symmetry_cell_setting 'orthorhombic'
loop_
_space_group_symop_operation_xyz
x,y,z
1/2-x,1/2-y,z
x,1/2-y,-z
1/2-x,y,-z
-x,-y,-z
1/2+x,1/2+y,-z
-x,1/2+y,z
1/2+x,-y,z
loop_
_atom_site_type_symbol
_atom_site_label
_atom_site_fract_x
_atom_site_fract_y
_atom_site_fract_z
Si Si1 0.113746 0.461522 0.589272
Si Si2 0.569277 0.422932 0.994580
Si Si3 0.602929 0.395808 0.728070
Si Si4 0.575069 0.774563 0.631341
Si Si5 0.443881 0.849708 0.244789
O O1 0.250000 0.441605 0.500000
O O2 0.141948 0.524399 0.686163
O O3 0.000000 0.500000 0.500000
O O4 0.040110 0.397241 0.661507
O O5 0.523649 0.377165 0.110165
O O6 0.750000 0.429067 0.000000
O O7 0.500000 0.500000 0.000000
O O8 0.535769 0.393913 0.862343
O O9 0.479668 0.354652 0.648107
O O10 0.766535 0.359008 0.727381
O O11 0.750000 0.750000 0.639143
O O12 0.521537 0.750000 0.500000
O O13 0.490571 0.730039 0.733423
#
# Coordination Sequence:
#
# PCOD9397276 Si02
#       5
#     8   8   8   8   8
#     4  12  24  37  66  99 131 170 223 270 332 397
#     4  10  22  41  67  98 130 170 224 276 331 399
#     4  11  24  44  66  96 133 178 220 273 337 402
#     4  11  27  44  66  95 134 174 223 276 337 406
#     4  11  24  43  67  96 133 177 219 276 335 399
#
# _framework density 21.424206000000002
#
# number of rings (size 3 to 8) (size 9 to 14) (size 15 to 20)
#    0.000    1.000    4.000    1.800    5.600    3.200 
#    0.000    4.000    0.000    0.000    0.000    0.000 
#    0.000    0.000    0.000    0.000    0.000    0.000 
#
# Total GULP energy -223517.829625 kJ/mol
# GULP energy per Si atom -5587.945741 kJ/mol
# Density = 2.137544 g / cm^3
# Si number density = 21.424206 Si / 1000 Ang^3
#
#
#
# Elastic Constant Matrix: (Units=GPa)
#
#
# Indices 1 2 3 4 5 6 
#
# 1 58.0397 24.1686 40.3406 0.0000 0.0000 0.0000
# 2 24.1686 91.9840 30.9999 0.0000 0.0000 0.0000
# 3 40.3406 30.9999 139.5939 0.0000 0.0000 0.0000
# 4 0.0000 0.0000 0.0000 35.4545 0.0000 0.0000
# 5 0.0000 0.0000 0.0000 0.0000 30.7382 0.0000
# 6 0.0000 0.0000 0.0000 0.0000 0.0000 36.7339
#
#
#
# Elastic Compliance Matrix: (Units=1/GPa)
#
#
# Indices 1 2 3 4 5 6 
#
# 1 0.022903 -0.004093 -0.005709 0.000000 0.000000 0.000000
# 2 -0.004093 0.012483 -0.001589 0.000000 0.000000 0.000000
# 3 -0.005709 -0.001589 0.009166 0.000000 0.000000 0.000000
# 4 0.000000 0.000000 0.000000 0.028205 0.000000 0.000000
# 5 0.000000 0.000000 0.000000 0.000000 0.032533 0.000000
# 6 0.000000 0.000000 0.000000 0.000000 0.000000 0.027223
#
#
# Mechanical properties :
#
#
# Convention : Reuss Voigt Hill
#
# Bulk Modulus (GPa) = 45.93985 53.40399 49.67192
# Shear Modulus (GPa) = 30.75937 33.52588 32.14263
#
# Velocity S-wave (km/s) = 3.79321 3.96012 3.87757
# Velocity P-wave (km/s) = 6.37763 6.77430 6.57895
#
# Compressibility (1/GPa) = 0.02176760
#
# Stress axis : x y z
#
# Youngs Moduli (GPa) = 43.66333 80.11192 109.09317
#
# Poissons Ratio (x) = 0.32793 0.62286
# Poissons Ratio (y) = 0.17873 0.17336
# Poissons Ratio (z) = 0.24929 0.12730
#
# Static dielectric constant tensor:
#      x y z
#    x 1.776180 0.000000 0.000000 
#    y 0.000000 1.826760 0.000000 
#    z 0.000000 0.000000 1.828990 
# 
# From -- ./inp_files/18694.got.cif
#   From: 2010.05.17/outbox.cif.g08.bks.cpg/sg50_10_cif.got.tgz:18694.got - 2010.06.03 11:33:33.
