data_PCOD9397367
_publ_section_title
;
Structure prediction by ZEFSAII (Michael W. Deem and Ramdas Pophale) SiO2 
 PCOD9397367
Probable space group: P B A N
;
_chemical_formula_sum "Si O2"
_cell_formula_units_Z 30
_cell_length_a 13.559405
_cell_length_b 18.908173
_cell_length_c 5.083091
_cell_angle_alpha 90.000000
_cell_angle_beta 90.000000
_cell_angle_gamma 90.000000
_cell_volume 1303.221045
_symmetry_space_group_name_H-M "P B A N"
_symmetry_group_IT_number 50
_space_group.IT_coordinate_system_code '2'
_symmetry_cell_setting 'orthorhombic'
loop_
_space_group_symop_operation_xyz
x,y,z
1/2-x,1/2-y,z
x,1/2-y,-z
1/2-x,y,-z
-x,-y,-z
1/2+x,1/2+y,-z
-x,1/2+y,z
1/2+x,-y,z
loop_
_atom_site_type_symbol
_atom_site_label
_atom_site_fract_x
_atom_site_fract_y
_atom_site_fract_z
Si Si1 0.337267 0.631023 0.318987
Si Si2 0.645438 0.634005 0.097099
Si Si3 0.972468 0.828782 0.586471
Si Si4 0.250000 0.995414 0.000000
Si Si5 0.750000 0.250000 0.000000
O O1 0.250000 0.659837 0.500000
O O2 0.435967 0.624553 0.487011
O O3 0.301005 0.556465 0.207113
O O4 0.331622 0.691559 0.099494
O O5 0.617702 0.655502 0.389401
O O6 0.666239 0.549716 0.098687
O O7 0.750000 0.664633 0.000000
O O8 0.563351 0.657121 0.882962
O O9 0.003036 0.750000 0.500000
#
# Coordination Sequence:
#
# PCOD9397367 Si02
#       5
#     8   8   8   4   2
#     4  11  25  43  73 101 146 182 234 301 355 437
#     4  10  26  48  68 104 144 186 241 293 350 424
#     4  12  26  43  76 106 138 187 240 293 364 416
#     4   9  26  47  69  98 147 188 238 286 367 410
#     4  10  22  44  64 102 148 176 232 300 376 420
#
# _framework density 23.019888999999999
#
# number of rings (size 3 to 8) (size 9 to 14) (size 15 to 20)
#    0.800    0.533    0.000    3.600   14.933    5.333 
#    0.000    0.000    0.000    0.000    0.000    0.000 
#    0.000    0.000    0.000    0.000    0.000    0.000 
#
# Total GULP energy -167296.897410 kJ/mol
# GULP energy per Si atom -5576.563247 kJ/mol
# Density = 2.296749 g / cm^3
# Si number density = 23.019889 Si / 1000 Ang^3
#
#
#
# Elastic Constant Matrix: (Units=GPa)
#
#
# Indices 1 2 3 4 5 6 
#
# 1 85.1734 -12.8719 -8.8322 0.0000 0.0000 0.0000
# 2 -12.8719 89.9833 8.2069 0.0000 0.0000 0.0000
# 3 -8.8322 8.2069 38.6955 0.0000 0.0000 0.0000
# 4 0.0000 0.0000 0.0000 -331.2726 0.0000 0.0000
# 5 0.0000 0.0000 0.0000 0.0000 23.0479 0.0000
# 6 0.0000 0.0000 0.0000 0.0000 0.0000 15.6908
#
#
#
# Elastic Compliance Matrix: (Units=1/GPa)
#
#
# Indices 1 2 3 4 5 6 
#
# 1 0.012227 0.001524 0.002468 0.000000 0.000000 0.000000
# 2 0.001524 0.011522 -0.002096 0.000000 0.000000 0.000000
# 3 0.002468 -0.002096 0.026851 0.000000 0.000000 0.000000
# 4 0.000000 0.000000 0.000000 -0.003019 0.000000 0.000000
# 5 0.000000 0.000000 0.000000 0.000000 0.043388 0.000000
# 6 0.000000 0.000000 0.000000 0.000000 0.000000 0.063732
#
#
# Mechanical properties :
#
#
# Convention : Reuss Voigt Hill
#
# Bulk Modulus (GPa) = 18.38539 20.76199 19.57369
# Shear Modulus (GPa) = 29.57881 -43.35016 -6.88567
#
# Velocity S-wave (km/s) = 3.58847 -4.34425 -1.73138
# Velocity P-wave (km/s) = 5.01733 4.01554 2.12709
#
# Compressibility (1/GPa) = 0.05439102
#
# Stress axis : x y z
#
# Youngs Moduli (GPa) = 81.78663 86.78795 37.24324
#
# Poissons Ratio (x) = -0.13226 -0.09190
# Poissons Ratio (y) = -0.12464 0.07806
# Poissons Ratio (z) = -0.20181 0.18190
#
# Static dielectric constant tensor:
#      x y z
#    x 1.892660 0.000000 0.000000 
#    y 0.000000 1.923740 0.000000 
#    z 0.000000 0.000000 1.876600 
# 
# From -- ./inp_files/2026.got.cif
#   From: 2010.05.17/outbox.cif.g08.bks.cpg/sg50_2_cif.got.tgz:2026.got - 2010.06.03 11:33:33.
