data_PCOD9397002
_publ_section_title
;
Structure prediction by ZEFSAII (Michael W. Deem and Ramdas Pophale) SiO2 
 PCOD9397002
Probable space group: P B A N
;
_chemical_formula_sum "Si O2"
_cell_formula_units_Z 60
_cell_length_a 20.374278
_cell_length_b 12.364179
_cell_length_c 11.893975
_cell_angle_alpha 90.000000
_cell_angle_beta 90.000000
_cell_angle_gamma 90.000000
_cell_volume 2996.225755
_symmetry_space_group_name_H-M "P B A N"
_symmetry_group_IT_number 50
_space_group.IT_coordinate_system_code '2'
_symmetry_cell_setting 'orthorhombic'
loop_
_space_group_symop_operation_xyz
x,y,z
1/2-x,1/2-y,z
x,1/2-y,-z
1/2-x,y,-z
-x,-y,-z
1/2+x,1/2+y,-z
-x,1/2+y,z
1/2+x,-y,z
loop_
_atom_site_type_symbol
_atom_site_label
_atom_site_fract_x
_atom_site_fract_y
_atom_site_fract_z
Si Si1 0.750000 0.750000 0.275272
Si Si2 0.301730 0.463118 0.403608
Si Si3 0.379378 0.279903 0.126277
Si Si4 0.920431 0.353543 0.714465
Si Si5 0.515780 0.669084 0.269593
Si Si6 0.427690 0.038123 0.459252
Si Si7 0.019631 0.472149 0.871689
Si Si8 0.823064 0.209419 0.624381
O O1 0.735817 0.862209 0.343860
O O2 0.684046 0.751749 0.200293
O O3 0.250000 0.494634 0.500000
O O4 0.372969 0.427900 0.451659
O O5 0.321054 0.580867 0.353215
O O6 0.438755 0.205344 0.167806
O O7 0.414569 0.398187 0.133557
O O8 0.362683 0.250000 0.000000
O O9 0.903231 0.439868 0.619190
O O10 0.858974 0.275006 0.723433
O O11 0.975793 0.267970 0.679658
O O12 0.955374 0.411264 0.819347
O O13 0.560754 0.631198 0.370379
O O14 0.473004 0.572908 0.214805
O O15 0.500000 0.000000 0.500000
O O16 0.000000 0.500000 0.000000
O O17 0.750000 0.250000 0.622629
O O18 0.850407 0.250000 0.500000
#
# Coordination Sequence:
#
# PCOD9397002 Si02
#       8
#     4   8   8   8   8   8   8   8
#     4  12  30  42  64  98 140 188 240 270 350 436
#     4  12  24  43  63  91 138 188 227 275 342 424
#     4  11  23  45  67  92 131 173 231 291 350 420
#     4  10  22  36  61  98 128 171 232 281 347 415
#     4  10  22  37  63  95 131 171 226 287 351 417
#     4  11  23  37  61  94 139 180 226 284 344 411
#     4  10  21  41  68  98 128 173 225 298 363 414
#     4  11  20  39  63  87 126 175 228 270 330 410
#
# _framework density 20.025192000000001
#
# number of rings (size 3 to 8) (size 9 to 14) (size 15 to 20)
#    0.000    1.200    4.000    2.000    7.467    1.067 
#    0.000    0.000    0.000    0.000    0.000    0.933 
#    0.000    0.000    0.000    0.000    0.000    0.000 
#
# Total GULP energy -334085.680168 kJ/mol
# GULP energy per Si atom -5568.094669 kJ/mol
# Density = 1.997961 g / cm^3
# Si number density = 20.025192 Si / 1000 Ang^3
#
#
#
# Elastic Constant Matrix: (Units=GPa)
#
#
# Indices 1 2 3 4 5 6 
#
# 1 85.1843 28.5298 27.4955 0.0000 0.0000 0.0000
# 2 28.5298 104.7465 35.6554 0.0000 0.0000 0.0000
# 3 27.4955 35.6554 49.3302 0.0000 0.0000 0.0000
# 4 0.0000 0.0000 0.0000 -33.4954 0.0000 0.0000
# 5 0.0000 0.0000 0.0000 0.0000 5.8547 0.0000
# 6 0.0000 0.0000 0.0000 0.0000 0.0000 35.2371
#
#
#
# Elastic Compliance Matrix: (Units=1/GPa)
#
#
# Indices 1 2 3 4 5 6 
#
# 1 0.014512 -0.001591 -0.006939 0.000000 0.000000 0.000000
# 2 -0.001591 0.012837 -0.008392 0.000000 0.000000 0.000000
# 3 -0.006939 -0.008392 0.030204 0.000000 0.000000 0.000000
# 4 0.000000 0.000000 0.000000 -0.029855 0.000000 0.000000
# 5 0.000000 0.000000 0.000000 0.000000 0.170802 0.000000
# 6 0.000000 0.000000 0.000000 0.000000 0.000000 0.028379
#
#
# Mechanical properties :
#
#
# Convention : Reuss Voigt Hill
#
# Bulk Modulus (GPa) = 42.17505 46.95805 44.56655
# Shear Modulus (GPa) = 18.61336 11.35797 14.98566
#
# Velocity S-wave (km/s) = 3.05207 2.38415 2.73855
# Velocity P-wave (km/s) = 5.79024 5.57488 5.68358
#
# Compressibility (1/GPa) = 0.02371070
#
# Stress axis : x y z
#
# Youngs Moduli (GPa) = 68.91013 77.90243 33.10769
#
# Poissons Ratio (x) = 0.12391 0.22973
# Poissons Ratio (y) = 0.10961 0.27783
# Poissons Ratio (z) = 0.47815 0.65373
#
# Static dielectric constant tensor:
#      x y z
#    x 1.706770 0.000000 0.000000 
#    y 0.000000 1.808730 0.000000 
#    z 0.000000 0.000000 1.768490 
# 
# From -- ./inp_files/22449.got.cif
#   From: 2010.05.17/outbox.cif.g08.bks.cpg/sg50_12_cif.got.tgz:22449.got - 2010.06.03 11:33:33.
