data_PCOD9397618
_publ_section_title
;
Structure prediction by ZEFSAII (Michael W. Deem and Ramdas Pophale) SiO2 
 PCOD9397618
Probable space group: P B A N
;
_chemical_formula_sum "Si O2"
_cell_formula_units_Z 36
_cell_length_a 8.012772
_cell_length_b 22.632551
_cell_length_c 9.995777
_cell_angle_alpha 90.000000
_cell_angle_beta 90.000000
_cell_angle_gamma 90.000000
_cell_volume 1812.728871
_symmetry_space_group_name_H-M "P B A N"
_symmetry_group_IT_number 50
_space_group.IT_coordinate_system_code '2'
_symmetry_cell_setting 'orthorhombic'
loop_
_space_group_symop_operation_xyz
x,y,z
1/2-x,1/2-y,z
x,1/2-y,-z
1/2-x,y,-z
-x,-y,-z
1/2+x,1/2+y,-z
-x,1/2+y,z
1/2+x,-y,z
loop_
_atom_site_type_symbol
_atom_site_label
_atom_site_fract_x
_atom_site_fract_y
_atom_site_fract_z
Si Si1 0.250000 0.505238 0.000000
Si Si2 0.532992 0.583828 0.863025
Si Si3 0.445878 0.327894 0.365665
Si Si4 0.556866 0.316439 0.956868
Si Si5 0.544609 0.808730 0.664366
O O1 0.382194 0.547155 0.927907
O O2 0.182027 0.462165 0.883079
O O3 0.502331 0.615891 0.722033
O O4 0.556190 0.639739 0.959067
O O5 0.502751 0.261169 0.330058
O O6 0.245154 0.319854 0.342114
O O7 0.502924 0.334365 0.519645
O O8 0.532646 0.331671 0.801377
O O9 0.510030 0.250000 0.000000
O O10 0.750000 0.323508 0.000000
#
# Coordination Sequence:
#
# PCOD9397618 Si02
#       5
#     4   8   8   8   8
#     4  10  24  36  62  82 122 166 226 248 286 340
#     4  11  20  40  58  87 116 166 204 258 292 357
#     4   9  18  34  61  84 125 153 189 247 307 371
#     4  11  21  34  58  89 126 151 190 254 318 375
#     4   9  18  34  56  95 120 151 186 239 322 384
#
# _framework density 19.859560999999999
#
# number of rings (size 3 to 8) (size 9 to 14) (size 15 to 20)
#    0.000    2.000    3.333    2.667    0.000    0.000 
#    0.000    1.111    0.000   24.000    0.000    0.000 
#    0.000    0.000    0.000    0.000    0.000    0.000 
#
# Total GULP energy -200511.750969 kJ/mol
# GULP energy per Si atom -5569.770860 kJ/mol
# Density = 1.981436 g / cm^3
# Si number density = 19.859561 Si / 1000 Ang^3
#
#
#
# Elastic Constant Matrix: (Units=GPa)
#
#
# Indices 1 2 3 4 5 6 
#
# 1 22.2132 15.9546 11.1181 0.0000 0.0000 0.0000
# 2 15.9546 110.5463 35.6197 0.0000 0.0000 0.0000
# 3 11.1181 35.6197 162.6894 0.0000 0.0000 0.0000
# 4 0.0000 0.0000 0.0000 39.4067 0.0000 0.0000
# 5 0.0000 0.0000 0.0000 0.0000 -36.2454 0.0000
# 6 0.0000 0.0000 0.0000 0.0000 0.0000 11.7011
#
#
#
# Elastic Compliance Matrix: (Units=1/GPa)
#
#
# Indices 1 2 3 4 5 6 
#
# 1 0.050828 -0.006688 -0.002009 0.000000 0.000000 0.000000
# 2 -0.006688 0.010613 -0.001866 0.000000 0.000000 0.000000
# 3 -0.002009 -0.001866 0.006693 0.000000 0.000000 0.000000
# 4 0.000000 0.000000 0.000000 0.025376 0.000000 0.000000
# 5 0.000000 0.000000 0.000000 0.000000 -0.027590 0.000000
# 6 0.000000 0.000000 0.000000 0.000000 0.000000 0.085462
#
#
# Mechanical properties :
#
#
# Convention : Reuss Voigt Hill
#
# Bulk Modulus (GPa) = 21.27424 46.75929 34.01677
# Shear Modulus (GPa) = 26.57057 18.48958 22.53008
#
# Velocity S-wave (km/s) = 3.66173 3.05457 3.37184
# Velocity P-wave (km/s) = 5.34914 6.00305 5.68550
#
# Compressibility (1/GPa) = 0.04700520
#
# Stress axis : x y z
#
# Youngs Moduli (GPa) = 19.67424 94.22681 149.41781
#
# Poissons Ratio (x) = 0.63022 0.30021
# Poissons Ratio (y) = 0.13159 0.27889
# Poissons Ratio (z) = 0.03953 0.17587
#
# Static dielectric constant tensor:
#      x y z
#    x 1.795250 0.000000 0.000000 
#    y 0.000000 1.713900 0.000000 
#    z 0.000000 0.000000 1.808590 
# 
# From -- ./inp_files/9249.got.cif
#   From: 2010.05.17/outbox.cif.g08.bks.cpg/sg50_5_cif.got.tgz:9249.got - 2010.06.03 11:33:33.
