data_PCOD9397846
_publ_section_title
;
Structure prediction by ZEFSAII (Michael W. Deem and Ramdas Pophale) SiO2 
 PCOD9397846
Probable space group: P B A N
;
_chemical_formula_sum "Si O2"
_cell_formula_units_Z 26
_cell_length_a 12.216302
_cell_length_b 16.371478
_cell_length_c 5.065945
_cell_angle_alpha 90.000000
_cell_angle_beta 90.000000
_cell_angle_gamma 90.000000
_cell_volume 1013.183526
_symmetry_space_group_name_H-M "P B A N"
_symmetry_group_IT_number 50
_space_group.IT_coordinate_system_code '2'
_symmetry_cell_setting 'orthorhombic'
loop_
_space_group_symop_operation_xyz
x,y,z
1/2-x,1/2-y,z
x,1/2-y,-z
1/2-x,y,-z
-x,-y,-z
1/2+x,1/2+y,-z
-x,1/2+y,z
1/2+x,-y,z
loop_
_atom_site_type_symbol
_atom_site_label
_atom_site_fract_x
_atom_site_fract_y
_atom_site_fract_z
Si Si1 0.250000 0.250000 0.000000
Si Si2 0.561514 0.633743 0.868003
Si Si3 0.867978 0.545156 0.606624
Si Si4 0.676230 0.358181 0.251043
O O1 0.336031 0.305219 0.162483
O O2 0.567048 0.557051 0.666187
O O3 0.445963 0.675332 0.796446
O O4 0.576923 0.599748 0.165047
O O5 0.750000 0.574000 0.500000
O O6 0.842715 0.455916 0.719416
O O7 0.750000 0.334812 0.500000
O O8 0.750000 0.342596 0.000000
#
# Coordination Sequence:
#
# PCOD9397846 Si02
#       4
#     2   8   8   8
#     4  12  28  46  70 102 136 194 232 282 344 430
#     4  12  24  42  66  98 142 179 233 275 344 418
#     4  11  20  39  65 101 137 174 222 290 350 409
#     4  11  23  41  68 103 136 176 227 289 357 409
#
# _framework density 25.661688000000002
#
# number of rings (size 3 to 8) (size 9 to 14) (size 15 to 20)
#    0.000    0.615    3.077    7.385    0.000    2.462 
#    0.000    0.769    0.000    1.846    0.000    0.000 
#    0.000    0.000    0.000    0.000    0.000    0.000 
#
# Total GULP energy -145380.560056 kJ/mol
# GULP energy per Si atom -5591.560002 kJ/mol
# Density = 2.560328 g / cm^3
# Si number density = 25.661688 Si / 1000 Ang^3
#
#
#
# Elastic Constant Matrix: (Units=GPa)
#
#
# Indices 1 2 3 4 5 6 
#
# 1 252.5440 38.4691 84.5479 0.0000 0.0000 0.0000
# 2 38.4691 107.6899 24.8261 0.0000 0.0000 0.0000
# 3 84.5479 24.8261 187.7756 0.0000 0.0000 0.0000
# 4 0.0000 0.0000 0.0000 41.2804 0.0000 0.0000
# 5 0.0000 0.0000 0.0000 0.0000 45.9903 0.0000
# 6 0.0000 0.0000 0.0000 0.0000 0.0000 26.9796
#
#
#
# Elastic Compliance Matrix: (Units=1/GPa)
#
#
# Indices 1 2 3 4 5 6 
#
# 1 0.004823 -0.001261 -0.002005 0.000000 0.000000 0.000000
# 2 -0.001261 0.009907 -0.000742 0.000000 0.000000 0.000000
# 3 -0.002005 -0.000742 0.006326 0.000000 0.000000 0.000000
# 4 0.000000 0.000000 0.000000 0.024225 0.000000 0.000000
# 5 0.000000 0.000000 0.000000 0.000000 0.021744 0.000000
# 6 0.000000 0.000000 0.000000 0.000000 0.000000 0.037065
#
#
# Mechanical properties :
#
#
# Convention : Reuss Voigt Hill
#
# Bulk Modulus (GPa) = 76.68088 93.74399 85.21243
# Shear Modulus (GPa) = 42.93592 49.52783 46.23187
#
# Velocity S-wave (km/s) = 4.09486 4.39798 4.24912
# Velocity P-wave (km/s) = 7.23211 7.89934 7.57308
#
# Compressibility (1/GPa) = 0.01304106
#
# Stress axis : x y z
#
# Youngs Moduli (GPa) = 207.34194 100.93495 158.06853
#
# Poissons Ratio (x) = 0.12724 0.31691
# Poissons Ratio (y) = 0.26139 0.11733
# Poissons Ratio (z) = 0.41570 0.07492
#
# Static dielectric constant tensor:
#      x y z
#    x 1.958820 0.000000 0.000000 
#    y 0.000000 2.028680 0.000000 
#    z 0.000000 0.000000 1.904810 
# 
# From -- ./inp_files/1715.got.cif
#   From: 2010.05.17/outbox.cif.g08.bks.cpg/sg50_1_cif.got.tgz:1715.got - 2010.06.03 11:33:33.
