data_PCOD9397726
_publ_section_title
;
Structure prediction by ZEFSAII (Michael W. Deem and Ramdas Pophale) SiO2 
 PCOD9397726
Probable space group: P B A N
;
_chemical_formula_sum "Si O2"
_cell_formula_units_Z 38
_cell_length_a 9.557873
_cell_length_b 16.158982
_cell_length_c 10.805271
_cell_angle_alpha 90.000000
_cell_angle_beta 90.000000
_cell_angle_gamma 90.000000
_cell_volume 1668.825458
_symmetry_space_group_name_H-M "P B A N"
_symmetry_group_IT_number 50
_space_group.IT_coordinate_system_code '2'
_symmetry_cell_setting 'orthorhombic'
loop_
_space_group_symop_operation_xyz
x,y,z
1/2-x,1/2-y,z
x,1/2-y,-z
1/2-x,y,-z
-x,-y,-z
1/2+x,1/2+y,-z
-x,1/2+y,z
1/2+x,-y,z
loop_
_atom_site_type_symbol
_atom_site_label
_atom_site_fract_x
_atom_site_fract_y
_atom_site_fract_z
Si Si1 0.772667 0.617178 0.859027
Si Si2 0.750000 0.250000 0.000000
Si Si3 0.532777 0.836847 0.326983
Si Si4 0.750000 0.903019 0.500000
Si Si5 0.211028 0.964314 0.715193
Si Si6 0.922499 0.173374 0.776262
O O1 0.652581 0.660259 0.777852
O O2 0.768126 0.517784 0.839190
O O3 0.923753 0.643568 0.811004
O O4 0.750000 0.639443 0.000000
O O5 0.843717 0.197004 0.904475
O O6 0.617931 0.849427 0.454344
O O7 0.432160 0.914482 0.300021
O O8 0.441753 0.754948 0.307598
O O9 0.783766 0.964915 0.388401
O O10 0.334951 0.897741 0.708227
#
# Coordination Sequence:
#
# PCOD9397726 Si02
#       6
#     8   2   8   4   8   8
#     4  11  25  41  67 102 145 187 240 296 362 431
#     4  12  24  44  74 102 152 188 240 300 362 428
#     4  11  23  46  70 104 138 191 239 299 360 430
#     4  10  24  46  76 102 140 186 244 306 359 424
#     4  11  24  46  70 103 142 188 243 301 361 430
#     4  12  25  44  70 105 144 192 242 301 363 435
#
# _framework density 22.770506999999998
#
# number of rings (size 3 to 8) (size 9 to 14) (size 15 to 20)
#    0.000    0.842    2.105    5.053    1.474    4.211 
#    0.000   16.842    0.000    0.000    0.000    0.000 
#    0.000    0.000    0.000    0.000    0.000    0.000 
#
# Total GULP energy -212801.978950 kJ/mol
# GULP energy per Si atom -5600.052078 kJ/mol
# Density = 2.271868 g / cm^3
# Si number density = 22.770507 Si / 1000 Ang^3
#
#
#
# Elastic Constant Matrix: (Units=GPa)
#
#
# Indices 1 2 3 4 5 6 
#
# 1 109.8906 39.4122 22.8502 0.0000 0.0000 0.0000
# 2 39.4122 130.7866 32.6084 0.0000 0.0000 0.0000
# 3 22.8502 32.6084 94.8597 0.0000 0.0000 0.0000
# 4 0.0000 0.0000 0.0000 -61.3901 0.0000 0.0000
# 5 0.0000 0.0000 0.0000 0.0000 38.3806 0.0000
# 6 0.0000 0.0000 0.0000 0.0000 0.0000 42.5175
#
#
#
# Elastic Compliance Matrix: (Units=1/GPa)
#
#
# Indices 1 2 3 4 5 6 
#
# 1 0.010410 -0.002747 -0.001563 0.000000 0.000000 0.000000
# 2 -0.002747 0.009088 -0.002462 0.000000 0.000000 0.000000
# 3 -0.001563 -0.002462 0.011765 0.000000 0.000000 0.000000
# 4 0.000000 0.000000 0.000000 -0.016289 0.000000 0.000000
# 5 0.000000 0.000000 0.000000 0.000000 0.026055 0.000000
# 6 0.000000 0.000000 0.000000 0.000000 0.000000 0.023520
#
#
# Mechanical properties :
#
#
# Convention : Reuss Voigt Hill
#
# Bulk Modulus (GPa) = 56.44173 58.36427 57.40300
# Shear Modulus (GPa) = 59.52401 19.94602 39.73502
#
# Velocity S-wave (km/s) = 5.11836 2.96287 4.18188
# Velocity P-wave (km/s) = 7.73118 6.11490 6.97005
#
# Compressibility (1/GPa) = 0.01771739
#
# Stress axis : x y z
#
# Youngs Moduli (GPa) = 96.05819 110.03711 84.99910
#
# Poissons Ratio (x) = 0.30231 0.13288
# Poissons Ratio (y) = 0.26391 0.20928
# Poissons Ratio (z) = 0.15016 0.27093
#
# Static dielectric constant tensor:
#      x y z
#    x 1.816050 0.000000 0.000000 
#    y 0.000000 1.856860 0.000000 
#    z 0.000000 0.000000 1.876390 
# 
# From -- ./inp_files/18797.got.cif
#   From: 2010.05.17/outbox.cif.g08.bks.cpg/sg50_10_cif.got.tgz:18797.got - 2010.06.03 11:33:33.
