data_PCOD9397011
_publ_section_title
;
Structure prediction by ZEFSAII (Michael W. Deem and Ramdas Pophale) SiO2 
 PCOD9397011
Probable space group: P B A N
;
_chemical_formula_sum "Si O2"
_cell_formula_units_Z 50
_cell_length_a 13.943667
_cell_length_b 8.831862
_cell_length_c 19.158077
_cell_angle_alpha 90.000000
_cell_angle_beta 90.000000
_cell_angle_gamma 90.000000
_cell_volume 2359.289264
_symmetry_space_group_name_H-M "P B A N"
_symmetry_group_IT_number 50
_space_group.IT_coordinate_system_code '2'
_symmetry_cell_setting 'orthorhombic'
loop_
_space_group_symop_operation_xyz
x,y,z
1/2-x,1/2-y,z
x,1/2-y,-z
1/2-x,y,-z
-x,-y,-z
1/2+x,1/2+y,-z
-x,1/2+y,z
1/2+x,-y,z
loop_
_atom_site_type_symbol
_atom_site_label
_atom_site_fract_x
_atom_site_fract_y
_atom_site_fract_z
Si Si1 0.147294 0.795990 0.113803
Si Si2 0.250000 0.250000 0.000000
Si Si3 0.765063 0.428009 0.377335
Si Si4 0.427690 0.102683 0.544373
Si Si5 0.563326 0.056743 0.668766
Si Si6 0.389425 0.517333 0.977878
Si Si7 0.908847 0.138777 0.741291
O O1 0.250000 0.750000 0.143829
O O2 0.157673 0.902480 0.046138
O O3 0.092755 0.878388 0.175935
O O4 0.107121 0.638403 0.084468
O O5 0.173619 0.366435 0.036843
O O6 0.750000 0.250000 0.395368
O O7 0.834400 0.510079 0.431704
O O8 0.659625 0.497441 0.369614
O O9 0.821217 0.432580 0.303006
O O10 0.404372 0.250000 0.500000
O O11 0.491480 0.135180 0.613349
O O12 0.500000 0.000000 0.500000
O O13 0.594966 0.184074 0.723414
O O14 0.504328 0.929484 0.707974
O O15 0.500000 0.500000 0.000000
#
# Coordination Sequence:
#
# PCOD9397011 Si02
#       7
#     8   2   8   8   8   8   8
#     4  11  21  43  65  90 133 177 219 274 345 399
#     4  12  20  46  68  90 144 174 216 288 342 408
#     4   9  19  40  64  91 131 176 217 272 331 392
#     4  11  22  39  66 100 133 171 218 271 331 401
#     4  10  21  42  62  90 131 168 214 276 327 389
#     4  11  24  41  65  99 136 176 221 283 343 408
#     4  10  22  39  66  90 123 173 220 267 331 395
#
# _framework density 21.192824000000002
#
# number of rings (size 3 to 8) (size 9 to 14) (size 15 to 20)
#    0.000    1.600    1.600    5.760    2.240    0.640 
#    0.000   12.800    0.000    0.000    0.000    0.000 
#    0.000    0.000    0.000    0.000    0.000    0.000 
#
# Total GULP energy -279167.667861 kJ/mol
# GULP energy per Si atom -5583.353357 kJ/mol
# Density = 2.114459 g / cm^3
# Si number density = 21.192824 Si / 1000 Ang^3
#
#
#
# Elastic Constant Matrix: (Units=GPa)
#
#
# Indices 1 2 3 4 5 6 
#
# 1 162.1429 49.4214 42.7919 0.0000 0.0000 0.0000
# 2 49.4214 80.5747 48.4678 0.0000 0.0000 0.0000
# 3 42.7919 48.4678 115.0182 0.0000 0.0000 0.0000
# 4 0.0000 0.0000 0.0000 26.3439 0.0000 0.0000
# 5 0.0000 0.0000 0.0000 0.0000 8.9529 0.0000
# 6 0.0000 0.0000 0.0000 0.0000 0.0000 33.7091
#
#
#
# Elastic Compliance Matrix: (Units=1/GPa)
#
#
# Indices 1 2 3 4 5 6 
#
# 1 0.007702 -0.004019 -0.001172 0.000000 0.000000 0.000000
# 2 -0.004019 0.018722 -0.006394 0.000000 0.000000 0.000000
# 3 -0.001172 -0.006394 0.011825 0.000000 0.000000 0.000000
# 4 0.000000 0.000000 0.000000 0.037959 0.000000 0.000000
# 5 0.000000 0.000000 0.000000 0.000000 0.111696 0.000000
# 6 0.000000 0.000000 0.000000 0.000000 0.000000 0.029666
#
#
# Mechanical properties :
#
#
# Convention : Reuss Voigt Hill
#
# Bulk Modulus (GPa) = 66.31899 71.01089 68.66494
# Shear Modulus (GPa) = 20.34458 28.27150 24.30804
#
# Velocity S-wave (km/s) = 3.10171 3.65638 3.39040
# Velocity P-wave (km/s) = 6.64744 7.16974 6.91353
#
# Compressibility (1/GPa) = 0.01507864
#
# Stress axis : x y z
#
# Youngs Moduli (GPa) = 129.84224 53.41253 84.56904
#
# Poissons Ratio (x) = 0.21467 0.09909
# Poissons Ratio (y) = 0.52184 0.54075
# Poissons Ratio (z) = 0.15214 0.34153
#
# Static dielectric constant tensor:
#      x y z
#    x 1.815110 0.000000 0.000000 
#    y 0.000000 1.765610 0.000000 
#    z 0.000000 0.000000 1.807170 
# 
# From -- ./inp_files/29482.got.cif
#   From: 2010.05.17/outbox.cif.g08.bks.cpg/sg50_15_cif.got.tgz:29482.got - 2010.06.03 11:33:33.
