data_PCOD9397095
_publ_section_title
;
Structure prediction by ZEFSAII (Michael W. Deem and Ramdas Pophale) SiO2 
 PCOD9397095
Probable space group: P B A N
;
_chemical_formula_sum "Si O2"
_cell_formula_units_Z 40
_cell_length_a 15.968360
_cell_length_b 22.700520
_cell_length_c 5.404261
_cell_angle_alpha 90.000000
_cell_angle_beta 90.000000
_cell_angle_gamma 90.000000
_cell_volume 1958.990978
_symmetry_space_group_name_H-M "P B A N"
_symmetry_group_IT_number 50
_space_group.IT_coordinate_system_code '2'
_symmetry_cell_setting 'orthorhombic'
loop_
_space_group_symop_operation_xyz
x,y,z
1/2-x,1/2-y,z
x,1/2-y,-z
1/2-x,y,-z
-x,-y,-z
1/2+x,1/2+y,-z
-x,1/2+y,z
1/2+x,-y,z
loop_
_atom_site_type_symbol
_atom_site_label
_atom_site_fract_x
_atom_site_fract_y
_atom_site_fract_z
Si Si1 0.890836 0.014522 0.731478
Si Si2 0.025658 0.188507 0.380215
Si Si3 0.250000 0.045549 0.000000
Si Si4 0.674590 0.857908 0.689504
Si Si5 0.648774 0.750000 0.000000
Si Si6 0.548019 0.428301 0.235514
O O1 0.899364 0.044910 0.464753
O O2 0.917322 0.055278 0.965021
O O3 0.957477 0.960540 0.738010
O O4 0.798591 0.991690 0.796054
O O5 0.994338 0.250000 0.500000
O O6 0.083833 0.152388 0.573107
O O7 0.089735 0.209096 0.168549
O O8 0.961255 0.141533 0.273776
O O9 0.180890 0.088315 0.877710
O O10 0.750000 0.868210 0.500000
O O11 0.693226 0.795758 0.818960
#
# Coordination Sequence:
#
# PCOD9397095 Si02
#       6
#     8   8   4   8   4   8
#     4  10  24  38  65  83 127 157 217 242 319 353
#     4  10  23  37  60  84 119 155 207 254 308 372
#     4  12  26  39  56  90 117 172 198 264 298 388
#     4  11  23  34  53  78 123 160 204 240 297 361
#     4  10  22  37  50  86 112 169 198 248 290 373
#     4  10  22  42  60  92 115 169 198 266 297 376
#
# _framework density 20.418672000000001
#
# number of rings (size 3 to 8) (size 9 to 14) (size 15 to 20)
#    0.000    1.600    0.000    3.600   16.800    9.600 
#    0.000    0.000    0.000    0.000    0.000    4.200 
#    0.000    0.000    0.000    0.000    0.000    0.000 
#
# Total GULP energy -223649.133403 kJ/mol
# GULP energy per Si atom -5591.228335 kJ/mol
# Density = 2.037220 g / cm^3
# Si number density = 20.418672 Si / 1000 Ang^3
#
#
#
# Elastic Constant Matrix: (Units=GPa)
#
#
# Indices 1 2 3 4 5 6 
#
# 1 40.3605 31.4032 15.1367 0.0000 0.0000 0.0000
# 2 31.4032 116.7862 35.0756 0.0000 0.0000 0.0000
# 3 15.1367 35.0756 89.1752 0.0000 0.0000 0.0000
# 4 0.0000 0.0000 0.0000 45.2369 0.0000 0.0000
# 5 0.0000 0.0000 0.0000 0.0000 33.0227 0.0000
# 6 0.0000 0.0000 0.0000 0.0000 0.0000 17.5961
#
#
#
# Elastic Compliance Matrix: (Units=1/GPa)
#
#
# Indices 1 2 3 4 5 6 
#
# 1 0.031744 -0.007844 -0.002303 0.000000 0.000000 0.000000
# 2 -0.007844 0.011648 -0.003250 0.000000 0.000000 0.000000
# 3 -0.002303 -0.003250 0.012883 0.000000 0.000000 0.000000
# 4 0.000000 0.000000 0.000000 0.022106 0.000000 0.000000
# 5 0.000000 0.000000 0.000000 0.000000 0.030282 0.000000
# 6 0.000000 0.000000 0.000000 0.000000 0.000000 0.056831
#
#
# Mechanical properties :
#
#
# Convention : Reuss Voigt Hill
#
# Bulk Modulus (GPa) = 33.92050 45.50587 39.71318
# Shear Modulus (GPa) = 24.73847 30.15157 27.44502
#
# Velocity S-wave (km/s) = 3.48452 3.84691 3.67019
# Velocity P-wave (km/s) = 5.73042 6.48586 6.11981
#
# Compressibility (1/GPa) = 0.02948070
#
# Stress axis : x y z
#
# Youngs Moduli (GPa) = 31.50247 85.85160 77.62083
#
# Poissons Ratio (x) = 0.67342 0.17875
# Poissons Ratio (y) = 0.24711 0.25227
# Poissons Ratio (z) = 0.07255 0.27903
#
# Static dielectric constant tensor:
#      x y z
#    x 2.404010 0.000000 0.000000 
#    y 0.000000 1.720370 0.000000 
#    z 0.000000 0.000000 1.794660 
# 
# From -- ./inp_files/4380.got.cif
#   From: 2010.05.17/outbox.cif.g08.bks.cpg/sg50_3_cif.got.tgz:4380.got - 2010.06.03 11:33:33.
