data_PCOD9397988
_publ_section_title
;
Structure prediction by ZEFSAII (Michael W. Deem and Ramdas Pophale) SiO2 
 PCOD9397988
Probable space group: P B A N
;
_chemical_formula_sum "Si O2"
_cell_formula_units_Z 38
_cell_length_a 9.974439
_cell_length_b 20.306555
_cell_length_c 6.894806
_cell_angle_alpha 90.000000
_cell_angle_beta 90.000000
_cell_angle_gamma 90.000000
_cell_volume 1396.518783
_symmetry_space_group_name_H-M "P B A N"
_symmetry_group_IT_number 50
_space_group.IT_coordinate_system_code '2'
_symmetry_cell_setting 'orthorhombic'
loop_
_space_group_symop_operation_xyz
x,y,z
1/2-x,1/2-y,z
x,1/2-y,-z
1/2-x,y,-z
-x,-y,-z
1/2+x,1/2+y,-z
-x,1/2+y,z
1/2+x,-y,z
loop_
_atom_site_type_symbol
_atom_site_label
_atom_site_fract_x
_atom_site_fract_y
_atom_site_fract_z
Si Si1 0.994309 0.865951 0.206792
Si Si2 0.899560 0.236750 0.233555
Si Si3 0.750000 0.424847 0.000000
Si Si4 0.610798 0.857394 0.215209
Si Si5 0.198051 0.474944 0.307503
Si Si6 0.750000 0.750000 0.500000
O O1 0.926368 0.924752 0.325241
O O2 0.010843 0.796615 0.314427
O O3 0.898248 0.853974 0.019762
O O4 0.141010 0.885854 0.126260
O O5 0.750000 0.250000 0.294816
O O6 0.958220 0.164624 0.267137
O O7 0.904653 0.250000 0.000000
O O8 0.668943 0.473500 0.140983
O O9 0.675608 0.927633 0.256501
O O10 0.690982 0.803570 0.341487
O O11 0.250000 0.509815 0.500000
#
# Coordination Sequence:
#
# PCOD9397988 Si02
#       6
#     8   8   4   8   8   2
#     4  11  23  45  73 103 143 191 251 306 376 451
#     4   9  19  38  68 101 133 180 232 294 364 441
#     4  12  26  50  75 103 144 202 256 308 370 448
#     4  11  22  41  70 102 143 187 238 297 373 444
#     4  12  26  44  70 106 145 193 253 312 370 439
#     4  12  24  40  68 108 150 184 240 312 370 448
#
# _framework density 27.210521
#
# number of rings (size 3 to 8) (size 9 to 14) (size 15 to 20)
#    0.000    1.053    3.158    4.421    0.000    4.211 
#    0.000    0.526    4.632    0.000    0.000    0.000 
#    0.000    0.000    0.000    0.000    0.000    0.000 
#
# Total GULP energy -212593.207907 kJ/mol
# GULP energy per Si atom -5594.558103 kJ/mol
# Density = 2.714859 g / cm^3
# Si number density = 27.210521 Si / 1000 Ang^3
#
#
#
# Elastic Constant Matrix: (Units=GPa)
#
#
# Indices 1 2 3 4 5 6 
#
# 1 106.9099 14.6257 -18.2767 0.0000 0.0000 0.0000
# 2 14.6257 116.4995 -2.9280 0.0000 0.0000 0.0000
# 3 -18.2767 -2.9280 95.5921 0.0000 0.0000 0.0000
# 4 0.0000 0.0000 0.0000 24.8166 0.0000 0.0000
# 5 0.0000 0.0000 0.0000 0.0000 11.8766 0.0000
# 6 0.0000 0.0000 0.0000 0.0000 0.0000 45.3948
#
#
#
# Elastic Compliance Matrix: (Units=1/GPa)
#
#
# Indices 1 2 3 4 5 6 
#
# 1 0.009831 -0.001188 0.001843 0.000000 0.000000 0.000000
# 2 -0.001188 0.008734 0.000040 0.000000 0.000000 0.000000
# 3 0.001843 0.000040 0.010815 0.000000 0.000000 0.000000
# 4 0.000000 0.000000 0.000000 0.040296 0.000000 0.000000
# 5 0.000000 0.000000 0.000000 0.000000 0.084199 0.000000
# 6 0.000000 0.000000 0.000000 0.000000 0.000000 0.022029
#
#
# Mechanical properties :
#
#
# Convention : Reuss Voigt Hill
#
# Bulk Modulus (GPa) = 32.49756 33.98259 33.24007
# Shear Modulus (GPa) = 27.06073 38.12296 32.59185
#
# Velocity S-wave (km/s) = 3.15698 3.74710 3.46463
# Velocity P-wave (km/s) = 5.02570 5.58900 5.31482
#
# Compressibility (1/GPa) = 0.03077154
#
# Stress axis : x y z
#
# Youngs Moduli (GPa) = 101.71588 114.49666 92.46603
#
# Poissons Ratio (x) = 0.13601 -0.17044
# Poissons Ratio (y) = 0.12083 -0.00374
# Poissons Ratio (z) = -0.18749 -0.00463
#
# Static dielectric constant tensor:
#      x y z
#    x 2.251780 0.000000 0.000000 
#    y 0.000000 2.090940 0.000000 
#    z 0.000000 0.000000 2.171310 
# 
# From -- ./inp_files/9587.got.cif
#   From: 2010.05.17/outbox.cif.g08.bks.cpg/sg50_5_cif.got.tgz:9587.got - 2010.06.03 11:33:33.
