data_PCOD9397030
_publ_section_title
;
Structure prediction by ZEFSAII (Michael W. Deem and Ramdas Pophale) SiO2 
 PCOD9397030
Probable space group: P B A N
;
_chemical_formula_sum "Si O2"
_cell_formula_units_Z 38
_cell_length_a 8.134743
_cell_length_b 11.872871
_cell_length_c 18.424879
_cell_angle_alpha 90.000000
_cell_angle_beta 90.000000
_cell_angle_gamma 90.000000
_cell_volume 1779.525561
_symmetry_space_group_name_H-M "P B A N"
_symmetry_group_IT_number 50
_space_group.IT_coordinate_system_code '2'
_symmetry_cell_setting 'orthorhombic'
loop_
_space_group_symop_operation_xyz
x,y,z
1/2-x,1/2-y,z
x,1/2-y,-z
1/2-x,y,-z
-x,-y,-z
1/2+x,1/2+y,-z
-x,1/2+y,z
1/2+x,-y,z
loop_
_atom_site_type_symbol
_atom_site_label
_atom_site_fract_x
_atom_site_fract_y
_atom_site_fract_z
Si Si1 0.937207 0.623245 0.473908
Si Si2 0.285774 0.597372 0.881277
Si Si3 0.653368 0.633651 0.851210
Si Si4 0.750000 0.250000 0.252474
Si Si5 0.750000 0.250000 0.000000
Si Si6 0.914027 0.676772 0.311295
O O1 0.005598 0.750000 0.500000
O O2 0.750000 0.627627 0.500000
O O3 0.943481 0.615052 0.386643
O O4 0.000000 0.500000 0.500000
O O5 0.476685 0.630486 0.889943
O O6 0.262376 0.465777 0.882295
O O7 0.236958 0.645180 0.802699
O O8 0.178529 0.660708 0.941953
O O9 0.750000 0.750000 0.856648
O O10 0.616706 0.613397 0.765131
O O11 0.582379 0.255357 0.296878
O O12 0.750000 0.750000 0.322085
#
# Coordination Sequence:
#
# PCOD9397030 Si02
#       6
#     8   8   8   4   2   8
#     4  11  25  45  65  98 140 182 233 288 349 427
#     4  10  23  43  68  97 141 171 227 277 336 406
#     4  10  24  41  68 102 131 173 229 283 332 402
#     4   9  22  41  69 104 123 184 234 274 343 408
#     4  10  24  44  68  92 138 188 212 270 342 404
#     4  10  21  42  70  97 139 174 229 286 345 399
#
# _framework density 21.354005999999998
#
# number of rings (size 3 to 8) (size 9 to 14) (size 15 to 20)
#    0.000    1.895    2.105    0.000   11.789    8.000 
#    0.000    0.000    0.000    0.000    0.000    0.000 
#    0.000    0.000    0.000    0.000    0.000    0.000 
#
# Total GULP energy -211578.229211 kJ/mol
# GULP energy per Si atom -5567.848137 kJ/mol
# Density = 2.130540 g / cm^3
# Si number density = 21.354006 Si / 1000 Ang^3
#
#
#
# Elastic Constant Matrix: (Units=GPa)
#
#
# Indices 1 2 3 4 5 6 
#
# 1 116.1038 52.8502 49.1871 0.0000 0.0000 0.0000
# 2 52.8502 180.6211 57.7441 0.0000 0.0000 0.0000
# 3 49.1871 57.7441 86.5775 0.0000 0.0000 0.0000
# 4 0.0000 0.0000 0.0000 14.6279 0.0000 0.0000
# 5 0.0000 0.0000 0.0000 0.0000 -7.0563 0.0000
# 6 0.0000 0.0000 0.0000 0.0000 0.0000 19.5017
#
#
#
# Elastic Compliance Matrix: (Units=1/GPa)
#
#
# Indices 1 2 3 4 5 6 
#
# 1 0.011719 -0.001653 -0.005555 0.000000 0.000000 0.000000
# 2 -0.001653 0.007270 -0.003910 0.000000 0.000000 0.000000
# 3 -0.005555 -0.003910 0.017314 0.000000 0.000000 0.000000
# 4 0.000000 0.000000 0.000000 0.068363 0.000000 0.000000
# 5 0.000000 0.000000 0.000000 0.000000 -0.141717 0.000000
# 6 0.000000 0.000000 0.000000 0.000000 0.000000 0.051278
#
#
# Mechanical properties :
#
#
# Convention : Reuss Voigt Hill
#
# Bulk Modulus (GPa) = 71.08864 78.09614 74.59239
# Shear Modulus (GPa) = 121.50328 20.31605 70.90967
#
# Velocity S-wave (km/s) = 7.55136 3.08781 5.76878
# Velocity P-wave (km/s) = 10.45914 7.02597 8.90948
#
# Compressibility (1/GPa) = 0.01406695
#
# Stress axis : x y z
#
# Youngs Moduli (GPa) = 85.33199 137.55051 57.75602
#
# Poissons Ratio (x) = 0.22736 0.32086
# Poissons Ratio (y) = 0.14105 0.22581
# Poissons Ratio (z) = 0.47405 0.53779
#
# Static dielectric constant tensor:
#      x y z
#    x 1.679410 0.000000 0.000000 
#    y 0.000000 1.804760 0.000000 
#    z 0.000000 0.000000 1.789180 
# 
# From -- ./inp_files/28544.got.cif
#   From: 2010.05.17/outbox.cif.g08.bks.cpg/sg50_15_cif.got.tgz:28544.got - 2010.06.03 11:33:33.
