data_PCOD9397582
_publ_section_title
;
Structure prediction by ZEFSAII (Michael W. Deem and Ramdas Pophale) SiO2 
 PCOD9397582
Probable space group: P B A N
;
_chemical_formula_sum "Si O2"
_cell_formula_units_Z 30
_cell_length_a 5.491585
_cell_length_b 12.602606
_cell_length_c 18.895937
_cell_angle_alpha 90.000000
_cell_angle_beta 90.000000
_cell_angle_gamma 90.000000
_cell_volume 1307.755338
_symmetry_space_group_name_H-M "P B A N"
_symmetry_group_IT_number 50
_space_group.IT_coordinate_system_code '2'
_symmetry_cell_setting 'orthorhombic'
loop_
_space_group_symop_operation_xyz
x,y,z
1/2-x,1/2-y,z
x,1/2-y,-z
1/2-x,y,-z
-x,-y,-z
1/2+x,1/2+y,-z
-x,1/2+y,z
1/2+x,-y,z
loop_
_atom_site_type_symbol
_atom_site_label
_atom_site_fract_x
_atom_site_fract_y
_atom_site_fract_z
Si Si1 0.750000 0.250000 0.000000
Si Si2 0.365961 0.132198 0.926286
Si Si3 0.710376 0.563488 0.417227
Si Si4 0.913305 0.940965 0.770510
Si Si5 0.750000 0.750000 0.685369
O O1 0.632666 0.333097 0.053226
O O2 0.250000 0.250000 0.914761
O O3 0.374944 0.067143 0.855237
O O4 0.250000 0.089882 0.000000
O O5 0.750000 0.592296 0.500000
O O6 0.480563 0.485276 0.403692
O O7 0.644773 0.663698 0.368821
O O8 0.912717 0.823234 0.736801
O O9 0.663650 0.001403 0.749571
#
# Coordination Sequence:
#
# PCOD9397582 Si02
#       5
#     2   8   8   8   4
#     4   8  18  36  72  90 124 166 232 276 362 404
#     4   9  20  40  65  94 122 173 220 290 340 403
#     4  10  23  44  73 108 138 176 233 277 325 403
#     4  12  29  44  66 100 132 178 233 273 336 415
#     4  12  25  48  69  98 146 190 210 286 343 396
#
# _framework density 22.940069000000001
#
# number of rings (size 3 to 8) (size 9 to 14) (size 15 to 20)
#    0.000    1.867    1.333    2.000    7.467    5.333 
#    0.000    4.000    0.000    0.000    0.000    0.000 
#    0.000    0.000    0.000    0.000    0.000    0.000 
#
# Total GULP energy -167087.767985 kJ/mol
# GULP energy per Si atom -5569.592266 kJ/mol
# Density = 2.288786 g / cm^3
# Si number density = 22.940069 Si / 1000 Ang^3
#
#
#
# Elastic Constant Matrix: (Units=GPa)
#
#
# Indices 1 2 3 4 5 6 
#
# 1 108.9320 48.8834 39.5808 0.0000 0.0000 0.0000
# 2 48.8834 98.7827 41.6197 0.0000 0.0000 0.0000
# 3 39.5808 41.6197 124.1664 0.0000 0.0000 0.0000
# 4 0.0000 0.0000 0.0000 54.1269 0.0000 0.0000
# 5 0.0000 0.0000 0.0000 0.0000 25.5981 0.0000
# 6 0.0000 0.0000 0.0000 0.0000 0.0000 496.3018
#
#
#
# Elastic Compliance Matrix: (Units=1/GPa)
#
#
# Indices 1 2 3 4 5 6 
#
# 1 0.012291 -0.005160 -0.002188 0.000000 0.000000 0.000000
# 2 -0.005160 0.013954 -0.003033 0.000000 0.000000 0.000000
# 3 -0.002188 -0.003033 0.009768 0.000000 0.000000 0.000000
# 4 0.000000 0.000000 0.000000 0.018475 0.000000 0.000000
# 5 0.000000 0.000000 0.000000 0.000000 0.039065 0.000000
# 6 0.000000 0.000000 0.000000 0.000000 0.000000 0.002015
#
#
# Mechanical properties :
#
#
# Convention : Reuss Voigt Hill
#
# Bulk Modulus (GPa) = 65.56951 65.78321 65.67636
# Shear Modulus (GPa) = 41.18134 128.65851 84.91992
#
# Velocity S-wave (km/s) = 4.24154 7.49709 6.09086
# Velocity P-wave (km/s) = 7.25483 10.18235 8.84061
#
# Compressibility (1/GPa) = 0.01525099
#
# Stress axis : x y z
#
# Youngs Moduli (GPa) = 81.36153 71.66159 102.37768
#
# Poissons Ratio (x) = 0.36979 0.22403
# Poissons Ratio (y) = 0.41984 0.31046
# Poissons Ratio (z) = 0.17804 0.21731
#
# Static dielectric constant tensor:
#      x y z
#    x 1.897700 0.000000 0.000000 
#    y 0.000000 1.794490 0.000000 
#    z 0.000000 0.000000 1.894050 
# 
# From -- ./inp_files/30174.got.cif
#   From: 2010.05.17/outbox.cif.g08.bks.cpg/sg50_16_cif.got.tgz:30174.got - 2010.06.03 11:33:33.
