data_PCOD9397910
_publ_section_title
;
Structure prediction by ZEFSAII (Michael W. Deem and Ramdas Pophale) SiO2 
 PCOD9397910
Probable space group: P B A N
;
_chemical_formula_sum "Si O2"
_cell_formula_units_Z 40
_cell_length_a 13.363110
_cell_length_b 14.166082
_cell_length_c 9.283356
_cell_angle_alpha 90.000000
_cell_angle_beta 90.000000
_cell_angle_gamma 90.000000
_cell_volume 1757.366324
_symmetry_space_group_name_H-M "P B A N"
_symmetry_group_IT_number 50
_space_group.IT_coordinate_system_code '2'
_symmetry_cell_setting 'orthorhombic'
loop_
_space_group_symop_operation_xyz
x,y,z
1/2-x,1/2-y,z
x,1/2-y,-z
1/2-x,y,-z
-x,-y,-z
1/2+x,1/2+y,-z
-x,1/2+y,z
1/2+x,-y,z
loop_
_atom_site_type_symbol
_atom_site_label
_atom_site_fract_x
_atom_site_fract_y
_atom_site_fract_z
Si Si1 0.615005 0.500015 0.874740
Si Si2 0.640343 0.142725 0.548473
Si Si3 0.343437 0.533273 0.801561
Si Si4 0.631635 0.778479 0.166004
Si Si5 0.028017 0.115183 0.670316
O O1 0.727940 0.473073 0.835500
O O2 0.609169 0.609928 0.828714
O O3 0.546459 0.428544 0.788420
O O4 0.604320 0.485409 0.046123
O O5 0.644608 0.250000 0.500000
O O6 0.750000 0.101500 0.500000
O O7 0.632905 0.129362 0.719413
O O8 0.538033 0.108419 0.472989
O O9 0.377109 0.454199 0.685837
O O10 0.750000 0.750000 0.186249
O O11 0.567498 0.717151 0.278917
O O12 0.608825 0.750000 0.000000
#
# Coordination Sequence:
#
# PCOD9397910 Si02
#       5
#     8   8   8   8   8
#     4  11  23  42  73 108 144 185 245 309 365 447
#     4  11  26  47  66  94 145 197 244 295 361 450
#     4  11  22  45  70 102 144 185 240 299 371 433
#     4  11  21  41  68 107 153 190 239 314 381 430
#     4  12  24  41  74 103 138 197 236 306 365 441
#
# _framework density 22.761333
#
# number of rings (size 3 to 8) (size 9 to 14) (size 15 to 20)
#    0.000    0.800    6.000    2.400    2.800    0.000 
#    0.000    0.000    0.000    0.000    0.000    1.400 
#    0.000    0.000    0.000    0.000    0.000    0.000 
#
# Total GULP energy -223482.172105 kJ/mol
# GULP energy per Si atom -5587.054303 kJ/mol
# Density = 2.270953 g / cm^3
# Si number density = 22.761333 Si / 1000 Ang^3
#
#
#
# Elastic Constant Matrix: (Units=GPa)
#
#
# Indices 1 2 3 4 5 6 
#
# 1 99.2568 12.2161 47.3731 0.0000 0.0000 0.0000
# 2 12.2161 108.3802 45.1030 0.0000 0.0000 0.0000
# 3 47.3731 45.1030 81.1664 0.0000 0.0000 0.0000
# 4 0.0000 0.0000 0.0000 30.6208 0.0000 0.0000
# 5 0.0000 0.0000 0.0000 0.0000 34.6295 0.0000
# 6 0.0000 0.0000 0.0000 0.0000 0.0000 36.6507
#
#
#
# Elastic Compliance Matrix: (Units=1/GPa)
#
#
# Indices 1 2 3 4 5 6 
#
# 1 0.014447 0.002446 -0.009792 0.000000 0.000000 0.000000
# 2 0.002446 0.012417 -0.008328 0.000000 0.000000 0.000000
# 3 -0.009792 -0.008328 0.022663 0.000000 0.000000 0.000000
# 4 0.000000 0.000000 0.000000 0.032658 0.000000 0.000000
# 5 0.000000 0.000000 0.000000 0.000000 0.028877 0.000000
# 6 0.000000 0.000000 0.000000 0.000000 0.000000 0.027285
#
#
# Mechanical properties :
#
#
# Convention : Reuss Voigt Hill
#
# Bulk Modulus (GPa) = 55.00246 55.35421 55.17834
# Shear Modulus (GPa) = 28.44929 32.65428 30.55179
#
# Velocity S-wave (km/s) = 3.53922 3.79177 3.66767
# Velocity P-wave (km/s) = 6.39678 6.59865 6.49850
#
# Compressibility (1/GPa) = 0.01818100
#
# Stress axis : x y z
#
# Youngs Moduli (GPa) = 69.21822 80.53749 44.12533
#
# Poissons Ratio (x) = -0.19702 0.43205
# Poissons Ratio (y) = -0.16933 0.36746
# Poissons Ratio (z) = 0.67775 0.67068
#
# Static dielectric constant tensor:
#      x y z
#    x 1.911760 0.000000 0.000000 
#    y 0.000000 1.913050 0.000000 
#    z 0.000000 0.000000 1.753440 
# 
# From -- ./inp_files/12556.got.cif
#   From: 2010.05.17/outbox.cif.g08.bks.cpg/sg50_7_cif.got.tgz:12556.got - 2010.06.03 11:33:33.
