data_PCOD9397873
_publ_section_title
;
Structure prediction by ZEFSAII (Michael W. Deem and Ramdas Pophale) SiO2 
 PCOD9397873
Probable space group: P B A N
;
_chemical_formula_sum "Si O2"
_cell_formula_units_Z 56
_cell_length_a 15.215753
_cell_length_b 20.631724
_cell_length_c 8.768869
_cell_angle_alpha 90.000000
_cell_angle_beta 90.000000
_cell_angle_gamma 90.000000
_cell_volume 2752.786636
_symmetry_space_group_name_H-M "P B A N"
_symmetry_group_IT_number 50
_space_group.IT_coordinate_system_code '2'
_symmetry_cell_setting 'orthorhombic'
loop_
_space_group_symop_operation_xyz
x,y,z
1/2-x,1/2-y,z
x,1/2-y,-z
1/2-x,y,-z
-x,-y,-z
1/2+x,1/2+y,-z
-x,1/2+y,z
1/2+x,-y,z
loop_
_atom_site_type_symbol
_atom_site_label
_atom_site_fract_x
_atom_site_fract_y
_atom_site_fract_z
Si Si1 0.202161 0.690248 0.838373
Si Si2 0.071499 0.033988 0.212845
Si Si3 0.506139 0.299796 0.729125
Si Si4 0.508500 0.158674 0.626364
Si Si5 0.300835 0.889315 0.356850
Si Si6 0.427738 0.425324 0.858066
Si Si7 0.234302 0.467644 0.337762
O O1 0.250000 0.750000 0.752782
O O2 0.100077 0.700592 0.814843
O O3 0.230954 0.621452 0.774690
O O4 0.250000 0.689920 0.000000
O O5 0.040888 0.094002 0.319763
O O6 0.170653 0.018967 0.264866
O O7 0.072624 0.058034 0.037166
O O8 0.002779 0.973368 0.215775
O O9 0.476566 0.225339 0.705455
O O10 0.511338 0.329011 0.556256
O O11 0.450426 0.350722 0.825351
O O12 0.608935 0.145871 0.675894
O O13 0.250000 0.860560 0.500000
O O14 0.314013 0.964919 0.382139
O O15 0.333371 0.436747 0.780119
O O16 0.250000 0.432083 0.500000
#
# Coordination Sequence:
#
# PCOD9397873 Si02
#       7
#     8   8   8   8   8   8   8
#     4  11  23  33  53  85 129 169 210 257 320 392
#     4  11  25  43  67  97 134 174 221 278 329 394
#     4  11  24  40  63  93 132 174 220 275 323 396
#     4  11  23  41  64  94 132 172 219 271 331 390
#     4  11  21  37  61  93 126 171 211 265 323 389
#     4  11  25  43  67  98 132 176 221 273 335 391
#     4  11  24  42  68  96 128 169 222 276 325 386
#
# _framework density 20.343022000000001
#
# number of rings (size 3 to 8) (size 9 to 14) (size 15 to 20)
#    0.000    1.000    4.286    2.143    4.000    3.143 
#    0.000    0.714    0.000    4.286    0.000    0.000 
#    0.000    0.000    0.000    0.000    0.000    0.000 
#
# Total GULP energy -312221.464659 kJ/mol
# GULP energy per Si atom -5575.383297 kJ/mol
# Density = 2.029672 g / cm^3
# Si number density = 20.343022 Si / 1000 Ang^3
#
#
#
# Elastic Constant Matrix: (Units=GPa)
#
#
# Indices 1 2 3 4 5 6 
#
# 1 98.1005 27.9747 20.2510 0.0000 0.0000 0.0000
# 2 27.9747 87.8408 21.2680 0.0000 0.0000 0.0000
# 3 20.2510 21.2680 68.6235 0.0000 0.0000 0.0000
# 4 0.0000 0.0000 0.0000 51.6378 0.0000 0.0000
# 5 0.0000 0.0000 0.0000 0.0000 37.9784 0.0000
# 6 0.0000 0.0000 0.0000 0.0000 0.0000 54.6181
#
#
#
# Elastic Compliance Matrix: (Units=1/GPa)
#
#
# Indices 1 2 3 4 5 6 
#
# 1 0.011584 -0.003093 -0.002460 0.000000 0.000000 0.000000
# 2 -0.003093 0.013134 -0.003158 0.000000 0.000000 0.000000
# 3 -0.002460 -0.003158 0.016277 0.000000 0.000000 0.000000
# 4 0.000000 0.000000 0.000000 0.019366 0.000000 0.000000
# 5 0.000000 0.000000 0.000000 0.000000 0.026331 0.000000
# 6 0.000000 0.000000 0.000000 0.000000 0.000000 0.018309
#
#
# Mechanical properties :
#
#
# Convention : Reuss Voigt Hill
#
# Bulk Modulus (GPa) = 42.42179 43.72802 43.07490
# Shear Modulus (GPa) = 38.37933 41.18494 39.78213
#
# Velocity S-wave (km/s) = 4.34822 4.50435 4.42698
# Velocity P-wave (km/s) = 6.79028 6.97096 6.88121
#
# Compressibility (1/GPa) = 0.02357279
#
# Stress axis : x y z
#
# Youngs Moduli (GPa) = 86.32959 76.13871 61.43749
#
# Poissons Ratio (x) = 0.23553 0.15111
# Poissons Ratio (y) = 0.26706 0.19399
# Poissons Ratio (z) = 0.21234 0.24042
#
# Static dielectric constant tensor:
#      x y z
#    x 1.708440 0.000000 0.000000 
#    y 0.000000 1.794260 0.000000 
#    z 0.000000 0.000000 1.565210 
# 
# From -- ./inp_files/13304.got.cif
#   From: 2010.05.17/outbox.cif.g08.bks.cpg/sg50_7_cif.got.tgz:13304.got - 2010.06.03 11:33:33.
