data_PCOD9397902
_publ_section_title
;
Structure prediction by ZEFSAII (Michael W. Deem and Ramdas Pophale) SiO2 
 PCOD9397902
Probable space group: P B A N
;
_chemical_formula_sum "Si O2"
_cell_formula_units_Z 32
_cell_length_a 8.206387
_cell_length_b 9.950122
_cell_length_c 16.113298
_cell_angle_alpha 90.000000
_cell_angle_beta 90.000000
_cell_angle_gamma 90.000000
_cell_volume 1315.724127
_symmetry_space_group_name_H-M "P B A N"
_symmetry_group_IT_number 50
_space_group.IT_coordinate_system_code '2'
_symmetry_cell_setting 'orthorhombic'
loop_
_space_group_symop_operation_xyz
x,y,z
1/2-x,1/2-y,z
x,1/2-y,-z
1/2-x,y,-z
-x,-y,-z
1/2+x,1/2+y,-z
-x,1/2+y,z
1/2+x,-y,z
loop_
_atom_site_type_symbol
_atom_site_label
_atom_site_fract_x
_atom_site_fract_y
_atom_site_fract_z
Si Si1 0.622078 0.930939 0.563971
Si Si2 0.207051 0.955123 0.853889
Si Si3 0.661694 0.387269 0.680689
Si Si4 0.497885 0.797553 0.909093
O O1 0.750000 0.869494 0.500000
O O2 0.511812 0.862361 0.635672
O O3 0.500000 0.000000 0.500000
O O4 0.727756 0.036241 0.614908
O O5 0.313024 0.960884 0.768357
O O6 0.341243 0.896611 0.917049
O O7 0.068021 0.834908 0.858300
O O8 0.133254 0.101973 0.871125
O O9 0.750000 0.250000 0.696982
O O10 0.547551 0.750000 0.000000
#
# Coordination Sequence:
#
# PCOD9397902 Si02
#       4
#     8   8   8   8
#     4   9  21  40  63  97 136 180 234 295 366 448
#     4  11  23  43  69 105 145 191 251 303 378 432
#     4  11  21  40  69  97 141 185 237 310 370 437
#     4  11  24  44  69 102 148 193 243 310 370 444
#
# _framework density 24.321207000000001
#
# number of rings (size 3 to 8) (size 9 to 14) (size 15 to 20)
#    0.000    1.500    2.500    3.750    0.000    5.500 
#    0.000   11.250    0.000    0.000    0.000    0.000 
#    0.000    0.000    0.000    0.000    0.000    0.000 
#
# Total GULP energy -178402.567020 kJ/mol
# GULP energy per Si atom -5575.080219 kJ/mol
# Density = 2.426585 g / cm^3
# Si number density = 24.321207 Si / 1000 Ang^3
#
#
#
# Elastic Constant Matrix: (Units=GPa)
#
#
# Indices 1 2 3 4 5 6 
#
# 1 126.7302 43.8069 64.5638 0.0000 0.0000 0.0000
# 2 43.8069 98.6747 47.8501 0.0000 0.0000 0.0000
# 3 64.5638 47.8501 170.6929 0.0000 0.0000 0.0000
# 4 0.0000 0.0000 0.0000 70.3123 0.0000 0.0000
# 5 0.0000 0.0000 0.0000 0.0000 120.7854 0.0000
# 6 0.0000 0.0000 0.0000 0.0000 0.0000 -498.3805
#
#
#
# Elastic Compliance Matrix: (Units=1/GPa)
#
#
# Indices 1 2 3 4 5 6 
#
# 1 0.010576 -0.003189 -0.003106 0.000000 0.000000 0.000000
# 2 -0.003189 0.012690 -0.002351 0.000000 0.000000 0.000000
# 3 -0.003106 -0.002351 0.007693 0.000000 0.000000 0.000000
# 4 0.000000 0.000000 0.000000 0.014222 0.000000 0.000000
# 5 0.000000 0.000000 0.000000 0.000000 0.008279 0.000000
# 6 0.000000 0.000000 0.000000 0.000000 0.000000 -0.002006
#
#
# Mechanical properties :
#
#
# Convention : Reuss Voigt Hill
#
# Bulk Modulus (GPa) = 73.17603 78.72660 75.95131
# Shear Modulus (GPa) = 68.21198 -45.46475 11.37361
#
# Velocity S-wave (km/s) = 5.30162 -4.32828 2.16485
# Velocity P-wave (km/s) = 8.22368 2.73150 6.12740
#
# Compressibility (1/GPa) = 0.01366568
#
# Stress axis : x y z
#
# Youngs Moduli (GPa) = 94.55786 78.80122 129.99620
#
# Poissons Ratio (x) = 0.25128 0.40380
# Poissons Ratio (y) = 0.30152 0.30566
# Poissons Ratio (z) = 0.29372 0.18528
#
# Static dielectric constant tensor:
#      x y z
#    x 2.027980 0.000000 0.000000 
#    y 0.000000 1.948620 0.000000 
#    z 0.000000 0.000000 1.966210 
# 
# From -- ./inp_files/24417.got.cif
#   From: 2010.05.17/outbox.cif.g08.bks.cpg/sg50_13_cif.got.tgz:24417.got - 2010.06.03 11:33:33.
