data_PCOD9397886
_publ_section_title
;
Structure prediction by ZEFSAII (Michael W. Deem and Ramdas Pophale) SiO2 
 PCOD9397886
Probable space group: P B A N
;
_chemical_formula_sum "Si O2"
_cell_formula_units_Z 40
_cell_length_a 10.245865
_cell_length_b 13.633376
_cell_length_c 15.975224
_cell_angle_alpha 90.000000
_cell_angle_beta 90.000000
_cell_angle_gamma 90.000000
_cell_volume 2231.510826
_symmetry_space_group_name_H-M "P B A N"
_symmetry_group_IT_number 50
_space_group.IT_coordinate_system_code '2'
_symmetry_cell_setting 'orthorhombic'
loop_
_space_group_symop_operation_xyz
x,y,z
1/2-x,1/2-y,z
x,1/2-y,-z
1/2-x,y,-z
-x,-y,-z
1/2+x,1/2+y,-z
-x,1/2+y,z
1/2+x,-y,z
loop_
_atom_site_type_symbol
_atom_site_label
_atom_site_fract_x
_atom_site_fract_y
_atom_site_fract_z
Si Si1 0.907648 0.407777 0.990196
Si Si2 0.406458 0.754625 0.864779
Si Si3 0.872604 0.027363 0.555221
Si Si4 0.131564 0.305667 0.590123
Si Si5 0.102108 0.788672 0.324232
O O1 0.940503 0.351743 0.903004
O O2 0.750000 0.426246 0.000000
O O3 0.942552 0.333591 0.065360
O O4 0.000000 0.500000 0.000000
O O5 0.250000 0.750000 0.863603
O O6 0.444776 0.787958 0.772179
O O7 0.750000 0.064621 0.500000
O O8 0.904604 0.107886 0.626071
O O9 0.832800 0.919593 0.587584
O O10 0.000000 0.000000 0.500000
O O11 0.250000 0.250000 0.635474
O O12 0.121719 0.250000 0.500000
O O13 0.992320 0.288002 0.630420
O O14 0.250000 0.750000 0.327100
#
# Coordination Sequence:
#
# PCOD9397886 Si02
#       5
#     8   8   8   8   8
#     4   9  17  35  63  83 113 148 182 220 280 344
#     4   8  18  37  55  82 115 150 178 226 287 337
#     4  12  22  35  56  77 102 148 196 232 287 343
#     4  11  21  39  54  73 113 152 183 234 308 339
#     4  11  23  36  58  84 110 142 202 247 270 334
#
# _framework density 17.925073999999999
#
# number of rings (size 3 to 8) (size 9 to 14) (size 15 to 20)
#    0.000    1.800    4.000    2.400    0.000    1.600 
#    0.000   10.000    0.000    0.000    0.000    0.000 
#    0.000    0.000    0.000    0.000    0.000    0.000 
#
# Total GULP energy -222719.671415 kJ/mol
# GULP energy per Si atom -5567.991785 kJ/mol
# Density = 1.788428 g / cm^3
# Si number density = 17.925074 Si / 1000 Ang^3
#
#
#
# Elastic Constant Matrix: (Units=GPa)
#
#
# Indices 1 2 3 4 5 6 
#
# 1 71.4825 15.3066 26.8169 0.0000 0.0000 0.0000
# 2 15.3066 116.8277 47.3849 0.0000 0.0000 0.0000
# 3 26.8169 47.3849 111.9725 0.0000 0.0000 0.0000
# 4 0.0000 0.0000 0.0000 13.5245 0.0000 0.0000
# 5 0.0000 0.0000 0.0000 0.0000 13.0809 0.0000
# 6 0.0000 0.0000 0.0000 0.0000 0.0000 35.0206
#
#
#
# Elastic Compliance Matrix: (Units=1/GPa)
#
#
# Indices 1 2 3 4 5 6 
#
# 1 0.015409 -0.000630 -0.003424 0.000000 0.000000 0.000000
# 2 -0.000630 0.010359 -0.004233 0.000000 0.000000 0.000000
# 3 -0.003424 -0.004233 0.011542 0.000000 0.000000 0.000000
# 4 0.000000 0.000000 0.000000 0.073940 0.000000 0.000000
# 5 0.000000 0.000000 0.000000 0.000000 0.076448 0.000000
# 6 0.000000 0.000000 0.000000 0.000000 0.000000 0.028555
#
#
# Mechanical properties :
#
#
# Convention : Reuss Voigt Hill
#
# Bulk Modulus (GPa) = 48.22439 53.25549 50.73994
# Shear Modulus (GPa) = 20.85616 26.37681 23.61648
#
# Velocity S-wave (km/s) = 3.41474 3.84018 3.63369
# Velocity P-wave (km/s) = 6.51989 7.03116 6.78035
#
# Compressibility (1/GPa) = 0.02073640
#
# Stress axis : x y z
#
# Youngs Moduli (GPa) = 64.89807 96.53438 86.64041
#
# Poissons Ratio (x) = 0.06084 0.29662
# Poissons Ratio (y) = 0.04090 0.36673
# Poissons Ratio (z) = 0.22219 0.40861
#
# Static dielectric constant tensor:
#      x y z
#    x 1.662110 0.000000 0.000000 
#    y 0.000000 1.633410 0.000000 
#    z 0.000000 0.000000 1.678760 
# 
# From -- ./inp_files/25749.got.cif
#   From: 2010.05.17/outbox.cif.g08.bks.cpg/sg50_13_cif.got.tgz:25749.got - 2010.06.03 11:33:33.
