data_PCOD9397857
_publ_section_title
;
Structure prediction by ZEFSAII (Michael W. Deem and Ramdas Pophale) SiO2 
 PCOD9397857
Probable space group: P B A N
;
_chemical_formula_sum "Si O2"
_cell_formula_units_Z 64
_cell_length_a 8.591604
_cell_length_b 23.908858
_cell_length_c 18.722821
_cell_angle_alpha 90.000000
_cell_angle_beta 90.000000
_cell_angle_gamma 90.000000
_cell_volume 3845.956514
_symmetry_space_group_name_H-M "P B A N"
_symmetry_group_IT_number 50
_space_group.IT_coordinate_system_code '2'
_symmetry_cell_setting 'orthorhombic'
loop_
_space_group_symop_operation_xyz
x,y,z
1/2-x,1/2-y,z
x,1/2-y,-z
1/2-x,y,-z
-x,-y,-z
1/2+x,1/2+y,-z
-x,1/2+y,z
1/2+x,-y,z
loop_
_atom_site_type_symbol
_atom_site_label
_atom_site_fract_x
_atom_site_fract_y
_atom_site_fract_z
Si Si1 0.935497 0.936391 0.272510
Si Si2 0.062495 0.629076 0.863284
Si Si3 0.063248 0.563544 0.577930
Si Si4 0.063648 0.437294 1.000000
Si Si5 0.060747 0.750000 0.082953
Si Si6 0.435497 0.063609 0.727489
Si Si7 0.563247 0.063544 0.577930
Si Si8 0.437505 0.870924 0.136717
O O1 0.750000 0.939327 0.270988
O O2 0.997993 0.898303 0.208640
O O3 0.991615 0.912995 0.349360
O O4 1.000000 0.000000 0.264638
O O5 0.013620 0.693269 0.877234
O O6 0.250000 0.626589 0.862490
O O7 0.999935 0.593974 0.930259
O O8 0.023430 0.588826 0.500000
O O9 0.250000 0.562352 0.584214
O O10 0.000000 0.500000 0.575939
O O11 0.250000 0.437313 0.000000
O O12 0.000000 0.500000 0.000000
O O13 0.000066 0.406026 0.930258
O O14 0.250000 0.750000 0.080647
O O15 0.013620 0.693269 0.122766
O O16 0.007903 0.750000 0.000000
O O17 0.491614 0.087005 0.650639
O O18 0.497994 0.101697 0.791359
#
# Coordination Sequence:
#
# PCOD9397857 Si02
#       8
#     8   8   8   8   8   8   8   8
#     4  11  21  33  49  74 107 140 173 209 254 303
#     4  11  21  37  57  76 100 131 169 211 254 303
#     4   9  16  27  45  70 100 135 172 207 247 298
#     4  12  24  37  52  75 103 134 168 204 251 304
#     4   9  18  36  60  80  95 124 169 212 258 305
#     4  11  21  33  49  74 107 140 173 209 254 303
#     4   9  16  27  45  70 100 135 172 207 247 298
#     4  11  21  37  57  76 100 131 169 211 254 303
#
# _framework density 16.640854000000001
#
# number of rings (size 3 to 8) (size 9 to 14) (size 15 to 20)
#    0.000    1.625    1.250    7.125    0.000    1.500 
#    0.000    3.125    0.000    0.000    0.000    0.875 
#    0.000    7.000    0.000    0.000    0.000    0.000 
#
# Total GULP energy -357127.334545 kJ/mol
# GULP energy per Si atom -5580.114602 kJ/mol
# Density = 1.660298 g / cm^3
# Si number density = 16.640854 Si / 1000 Ang^3
#
#
#
# Elastic Constant Matrix: (Units=GPa)
#
#
# Indices 1 2 3 4 5 6 
#
# 1 112.4860 41.2528 64.6512 0.0000 0.0000 0.0000
# 2 41.2528 109.4764 77.4921 0.0000 0.0000 0.0000
# 3 64.6512 77.4921 198.7996 0.0000 0.0000 0.0000
# 4 0.0000 0.0000 0.0000 -6.1792 0.0000 0.0000
# 5 0.0000 0.0000 0.0000 0.0000 31.8873 0.0000
# 6 0.0000 0.0000 0.0000 0.0000 0.0000 15.7211
#
#
#
# Elastic Compliance Matrix: (Units=1/GPa)
#
#
# Indices 1 2 3 4 5 6 
#
# 1 0.011337 -0.002296 -0.002792 0.000000 0.000000 0.000000
# 2 -0.002296 0.013080 -0.004352 0.000000 0.000000 0.000000
# 3 -0.002792 -0.004352 0.007635 0.000000 0.000000 0.000000
# 4 0.000000 0.000000 0.000000 -0.161833 0.000000 0.000000
# 5 0.000000 0.000000 0.000000 0.000000 0.031360 0.000000
# 6 0.000000 0.000000 0.000000 0.000000 0.000000 0.063609
#
#
# Mechanical properties :
#
#
# Convention : Reuss Voigt Hill
#
# Bulk Modulus (GPa) = 75.91862 87.50604 81.71233
# Shear Modulus (GPa) = -433.15900 24.11021 -204.52439
#
# Velocity S-wave (km/s) = -16.15127 3.81051 -11.09828
# Velocity P-wave (km/s) = 17.38095 8.48877 10.72469
#
# Compressibility (1/GPa) = 0.01317200
#
# Stress axis : x y z
#
# Youngs Moduli (GPa) = 88.21044 76.45285 130.98328
#
# Poissons Ratio (x) = 0.17550 0.36569
# Poissons Ratio (y) = 0.20250 0.57004
# Poissons Ratio (z) = 0.24628 0.33272
#
# Static dielectric constant tensor:
#      x y z
#    x 1.560870 0.000000 0.000000 
#    y 0.000000 1.535870 0.000000 
#    z 0.000000 0.000000 1.587930 
# 
# From -- ./inp_files/29005.got.cif
#   From: 2010.05.17/outbox.cif.g08.bks.cpg/sg50_15_cif.got.tgz:29005.got - 2010.06.03 11:33:33.
