data_PCOD9397425
_publ_section_title
;
Structure prediction by ZEFSAII (Michael W. Deem and Ramdas Pophale) SiO2 
 PCOD9397425
Probable space group: P B A N
;
_chemical_formula_sum "Si O2"
_cell_formula_units_Z 40
_cell_length_a 21.335940
_cell_length_b 8.718874
_cell_length_c 11.856390
_cell_angle_alpha 90.000000
_cell_angle_beta 90.000000
_cell_angle_gamma 90.000000
_cell_volume 2205.589367
_symmetry_space_group_name_H-M "P B A N"
_symmetry_group_IT_number 50
_space_group.IT_coordinate_system_code '2'
_symmetry_cell_setting 'orthorhombic'
loop_
_space_group_symop_operation_xyz
x,y,z
1/2-x,1/2-y,z
x,1/2-y,-z
1/2-x,y,-z
-x,-y,-z
1/2+x,1/2+y,-z
-x,1/2+y,z
1/2+x,-y,z
loop_
_atom_site_type_symbol
_atom_site_label
_atom_site_fract_x
_atom_site_fract_y
_atom_site_fract_z
Si Si1 0.943949 0.668274 0.395530
Si Si2 0.819318 0.235851 0.314911
Si Si3 0.975348 0.563738 0.758591
Si Si4 0.321708 0.005025 0.501289
Si Si5 0.078987 0.770068 0.870211
O O1 0.980054 0.750000 0.500000
O O2 0.935384 0.806693 0.306589
O O3 0.879581 0.604024 0.450244
O O4 0.984842 0.537246 0.333364
O O5 0.750000 0.250000 0.266406
O O6 0.820002 0.364186 0.411347
O O7 0.832875 0.074874 0.379291
O O8 0.867357 0.271855 0.217734
O O9 0.939145 0.443012 0.835655
O O10 0.021745 0.659493 0.837947
O O11 0.250000 0.069770 0.500000
O O12 0.095704 0.750000 0.000000
#
# Coordination Sequence:
#
# PCOD9397425 Si02
#       5
#     8   8   8   8   8
#     4  11  20  34  54  83 115 148 180 224 287 343
#     4   9  18  34  56  83 111 144 187 231 279 333
#     4  10  23  36  53  84 116 147 186 235 278 341
#     4   9  18  34  56  81 115 146 177 228 284 340
#     4  11  21  38  58  80 112 150 195 235 280 325
#
# _framework density 18.135742
#
# number of rings (size 3 to 8) (size 9 to 14) (size 15 to 20)
#    0.000    2.000    2.000    3.600    0.000    2.400 
#    0.000    0.000    0.000    0.000    0.000    0.000 
#    0.000    0.000    0.000    0.000    0.000    0.000 
#
# Total GULP energy -222939.632730 kJ/mol
# GULP energy per Si atom -5573.490818 kJ/mol
# Density = 1.809446 g / cm^3
# Si number density = 18.135742 Si / 1000 Ang^3
#
#
#
# Elastic Constant Matrix: (Units=GPa)
#
#
# Indices 1 2 3 4 5 6 
#
# 1 61.4018 16.7920 20.2194 0.0000 0.0000 0.0000
# 2 16.7920 77.9605 3.0743 0.0000 0.0000 0.0000
# 3 20.2194 3.0743 82.7333 0.0000 0.0000 0.0000
# 4 0.0000 0.0000 0.0000 15.5517 0.0000 0.0000
# 5 0.0000 0.0000 0.0000 0.0000 -7.6780 0.0000
# 6 0.0000 0.0000 0.0000 0.0000 0.0000 -143.2953
#
#
#
# Elastic Compliance Matrix: (Units=1/GPa)
#
#
# Indices 1 2 3 4 5 6 
#
# 1 0.018813 -0.003876 -0.004454 0.000000 0.000000 0.000000
# 2 -0.003876 0.013645 0.000440 0.000000 0.000000 0.000000
# 3 -0.004454 0.000440 0.013159 0.000000 0.000000 0.000000
# 4 0.000000 0.000000 0.000000 0.064302 0.000000 0.000000
# 5 0.000000 0.000000 0.000000 0.000000 -0.130243 0.000000
# 6 0.000000 0.000000 0.000000 0.000000 0.000000 -0.006979
#
#
# Mechanical properties :
#
#
# Convention : Reuss Voigt Hill
#
# Bulk Modulus (GPa) = 33.51548 33.58523 33.55036
# Shear Modulus (GPa) = -3169.30537 -14.95033 -1592.12785
#
# Velocity S-wave (km/s) = -41.84902 -2.87428 -29.66144
# Velocity P-wave (km/s) = 48.13107 2.74658 33.97835
#
# Compressibility (1/GPa) = 0.02983696
#
# Stress axis : x y z
#
# Youngs Moduli (GPa) = 53.15508 73.28901 75.99297
#
# Poissons Ratio (x) = 0.28410 0.33845
# Poissons Ratio (y) = 0.20606 -0.03346
# Poissons Ratio (z) = 0.23674 -0.03227
#
# Static dielectric constant tensor:
#      x y z
#    x 1.661190 0.000000 0.000000 
#    y 0.000000 1.671050 0.000000 
#    z 0.000000 0.000000 1.606240 
# 
# From -- ./inp_files/18938.got.cif
#   From: 2010.05.17/outbox.cif.g08.bks.cpg/sg50_10_cif.got.tgz:18938.got - 2010.06.03 11:33:33.
