data_PCOD9397401
_publ_section_title
;
Structure prediction by ZEFSAII (Michael W. Deem and Ramdas Pophale) SiO2 
 PCOD9397401
Probable space group: P B A N
;
_chemical_formula_sum "Si O2"
_cell_formula_units_Z 56
_cell_length_a 11.109449
_cell_length_b 14.343640
_cell_length_c 15.625176
_cell_angle_alpha 90.000000
_cell_angle_beta 90.000000
_cell_angle_gamma 90.000000
_cell_volume 2489.870812
_symmetry_space_group_name_H-M "P B A N"
_symmetry_group_IT_number 50
_space_group.IT_coordinate_system_code '2'
_symmetry_cell_setting 'orthorhombic'
loop_
_space_group_symop_operation_xyz
x,y,z
1/2-x,1/2-y,z
x,1/2-y,-z
1/2-x,y,-z
-x,-y,-z
1/2+x,1/2+y,-z
-x,1/2+y,z
1/2+x,-y,z
loop_
_atom_site_type_symbol
_atom_site_label
_atom_site_fract_x
_atom_site_fract_y
_atom_site_fract_z
Si Si1 0.887397 0.279069 0.768379
Si Si2 0.112807 0.786025 0.587370
Si Si3 0.125892 0.498449 0.445118
Si Si4 0.114381 0.361406 0.981531
Si Si5 0.555000 0.932623 0.207597
Si Si6 0.280718 0.143379 0.302823
Si Si7 0.974769 0.623819 0.842435
O O1 0.750000 0.250000 0.769719
O O2 0.941173 0.249350 0.675737
O O3 0.923775 0.386325 0.777462
O O4 0.952642 0.219197 0.839387
O O5 0.250000 0.750000 0.585911
O O6 0.053451 0.750000 0.500000
O O7 0.122177 0.896888 0.591771
O O8 0.250000 0.492357 0.500000
O O9 0.146501 0.418547 0.372843
O O10 0.000000 0.500000 0.500000
O O11 0.040866 0.405865 0.059708
O O12 0.106841 0.250000 0.000000
O O13 0.250000 0.389641 0.000000
O O14 0.088387 0.392364 0.885617
O O15 0.651522 0.901866 0.278418
O O16 0.546764 0.042868 0.204940
O O17 0.250000 0.250000 0.328979
O O18 0.354336 0.141968 0.212788
#
# Coordination Sequence:
#
# PCOD9397401 Si02
#       7
#     8   8   8   8   8   8   8
#     4  11  26  43  69 105 144 190 243 309 382 451
#     4  10  22  45  74  98 135 194 247 291 368 454
#     4  12  30  49  74 112 150 196 251 316 383 452
#     4  11  21  44  72 102 143 194 251 308 386 460
#     4  12  26  45  73 109 145 191 258 315 383 460
#     4  12  27  50  77 110 148 200 254 314 377 460
#     4  12  26  44  73 107 145 191 245 314 375 456
#
# _framework density 22.491126000000001
#
# number of rings (size 3 to 8) (size 9 to 14) (size 15 to 20)
#    0.000    0.571    5.714    1.286   12.000    0.286 
#    0.000    1.429    0.000    0.000    0.000    0.000 
#    0.000    0.000    0.000    0.000    0.000    0.000 
#
# Total GULP energy -312624.170902 kJ/mol
# GULP energy per Si atom -5582.574480 kJ/mol
# Density = 2.243994 g / cm^3
# Si number density = 22.491126 Si / 1000 Ang^3
#
#
#
# Elastic Constant Matrix: (Units=GPa)
#
#
# Indices 1 2 3 4 5 6 
#
# 1 88.5170 12.5496 28.8168 0.0000 0.0000 0.0000
# 2 12.5496 110.6582 12.6016 0.0000 0.0000 0.0000
# 3 28.8168 12.6016 117.4828 0.0000 0.0000 0.0000
# 4 0.0000 0.0000 0.0000 61.7034 0.0000 0.0000
# 5 0.0000 0.0000 0.0000 0.0000 29.3845 0.0000
# 6 0.0000 0.0000 0.0000 0.0000 0.0000 17.7292
#
#
#
# Elastic Compliance Matrix: (Units=1/GPa)
#
#
# Indices 1 2 3 4 5 6 
#
# 1 0.012402 -0.001073 -0.002927 0.000000 0.000000 0.000000
# 2 -0.001073 0.009241 -0.000728 0.000000 0.000000 0.000000
# 3 -0.002927 -0.000728 0.009308 0.000000 0.000000 0.000000
# 4 0.000000 0.000000 0.000000 0.016207 0.000000 0.000000
# 5 0.000000 0.000000 0.000000 0.000000 0.034032 0.000000
# 6 0.000000 0.000000 0.000000 0.000000 0.000000 0.056404
#
#
# Mechanical properties :
#
#
# Convention : Reuss Voigt Hill
#
# Bulk Modulus (GPa) = 46.52195 47.17712 46.84954
# Shear Modulus (GPa) = 32.42220 39.27610 35.84915
#
# Velocity S-wave (km/s) = 3.80090 4.18340 3.99673
# Velocity P-wave (km/s) = 6.32392 6.66002 6.49414
#
# Compressibility (1/GPa) = 0.02149523
#
# Stress axis : x y z
#
# Youngs Moduli (GPa) = 80.63012 108.20812 107.43530
#
# Poissons Ratio (x) = 0.11613 0.31446
# Poissons Ratio (y) = 0.08653 0.07822
# Poissons Ratio (z) = 0.23600 0.07878
#
# Static dielectric constant tensor:
#      x y z
#    x 1.841160 0.000000 0.000000 
#    y 0.000000 1.835180 0.000000 
#    z 0.000000 0.000000 1.942580 
# 
# From -- ./inp_files/25944.got.cif
#   From: 2010.05.17/outbox.cif.g08.bks.cpg/sg50_13_cif.got.tgz:25944.got - 2010.06.03 11:33:33.
