data_PCOD9397633
_publ_section_title
;
Structure prediction by ZEFSAII (Michael W. Deem and Ramdas Pophale) SiO2 
 PCOD9397633
Probable space group: P B A N
;
_chemical_formula_sum "Si O2"
_cell_formula_units_Z 46
_cell_length_a 24.757989
_cell_length_b 9.623092
_cell_length_c 8.546597
_cell_angle_alpha 90.000000
_cell_angle_beta 90.000000
_cell_angle_gamma 90.000000
_cell_volume 2036.213111
_symmetry_space_group_name_H-M "P B A N"
_symmetry_group_IT_number 50
_space_group.IT_coordinate_system_code '2'
_symmetry_cell_setting 'orthorhombic'
loop_
_space_group_symop_operation_xyz
x,y,z
1/2-x,1/2-y,z
x,1/2-y,-z
1/2-x,y,-z
-x,-y,-z
1/2+x,1/2+y,-z
-x,1/2+y,z
1/2+x,-y,z
loop_
_atom_site_type_symbol
_atom_site_label
_atom_site_fract_x
_atom_site_fract_y
_atom_site_fract_z
Si Si1 0.480210 0.543107 0.234346
Si Si2 0.580336 0.600098 0.042643
Si Si3 0.250000 0.951870 0.500000
Si Si4 0.387104 0.250000 0.500000
Si Si5 0.337103 0.750000 0.500000
Si Si6 0.750000 0.750000 0.000000
Si Si7 0.568030 0.438432 0.446469
Si Si8 0.175969 0.112297 0.750151
O O1 0.436659 0.484368 0.111833
O O2 0.520827 0.432273 0.318314
O O3 0.453303 0.613405 0.384249
O O4 0.523965 0.627263 0.133958
O O5 0.602670 0.750000 0.000000
O O6 0.624529 0.539881 0.162689
O O7 0.295018 0.853892 0.584676
O O8 0.214328 0.036667 0.623509
O O9 0.418528 0.396819 0.517110
O O10 0.349832 0.257719 0.654014
O O11 0.378014 0.647026 0.587255
O O12 0.785829 0.656651 0.888512
#
# Coordination Sequence:
#
# PCOD9397633 Si02
#       8
#     8   8   4   4   4   2   8   8
#     4  10  24  39  66 101 143 186 226 277 356 419
#     4  11  22  42  63  98 144 181 225 286 353 431
#     4  11  24  47  72  95 142 185 242 295 360 423
#     4  12  22  44  72 101 133 174 237 303 342 402
#     4  11  24  43  70 103 137 186 237 293 348 428
#     4  12  28  38  72  98 136 166 240 294 376 396
#     4  11  24  41  70 104 139 183 237 288 339 427
#     4  12  24  44  68 105 132 180 232 304 356 413
#
# _framework density 22.590957
#
# number of rings (size 3 to 8) (size 9 to 14) (size 15 to 20)
#    0.000    0.870    4.348    2.087    2.435    1.391 
#    0.000    0.000    0.000    6.261    0.000    0.000 
#    0.000    0.000    0.000    0.000    0.000    0.000 
#
# Total GULP energy -256366.740677 kJ/mol
# GULP energy per Si atom -5573.190015 kJ/mol
# Density = 2.253954 g / cm^3
# Si number density = 22.590957 Si / 1000 Ang^3
#
#
#
# Elastic Constant Matrix: (Units=GPa)
#
#
# Indices 1 2 3 4 5 6 
#
# 1 144.5016 47.7407 63.1451 0.0000 0.0000 0.0000
# 2 47.7407 77.3389 30.8898 0.0000 0.0000 0.0000
# 3 63.1451 30.8898 151.0384 0.0000 0.0000 0.0000
# 4 0.0000 0.0000 0.0000 21.2005 0.0000 0.0000
# 5 0.0000 0.0000 0.0000 0.0000 61.1870 0.0000
# 6 0.0000 0.0000 0.0000 0.0000 0.0000 30.4246
#
#
#
# Elastic Compliance Matrix: (Units=1/GPa)
#
#
# Indices 1 2 3 4 5 6 
#
# 1 0.009899 -0.004854 -0.003146 0.000000 0.000000 0.000000
# 2 -0.004854 0.016460 -0.001337 0.000000 0.000000 0.000000
# 3 -0.003146 -0.001337 0.008209 0.000000 0.000000 0.000000
# 4 0.000000 0.000000 0.000000 0.047169 0.000000 0.000000
# 5 0.000000 0.000000 0.000000 0.000000 0.016343 0.000000
# 6 0.000000 0.000000 0.000000 0.000000 0.000000 0.032868
#
#
# Mechanical properties :
#
#
# Convention : Reuss Voigt Hill
#
# Bulk Modulus (GPa) = 62.91260 72.93668 67.92464
# Shear Modulus (GPa) = 32.27467 37.96932 35.12199
#
# Velocity S-wave (km/s) = 3.78386 4.10412 3.94724
# Velocity P-wave (km/s) = 6.85559 7.40367 7.13489
#
# Compressibility (1/GPa) = 0.01589507
#
# Stress axis : x y z
#
# Youngs Moduli (GPa) = 101.02464 60.75166 121.81161
#
# Poissons Ratio (x) = 0.29488 0.38317
# Poissons Ratio (y) = 0.49037 0.16288
# Poissons Ratio (z) = 0.31779 0.08123
#
# Static dielectric constant tensor:
#      x y z
#    x 1.902790 0.000000 0.000000 
#    y 0.000000 1.919890 0.000000 
#    z 0.000000 0.000000 1.899390 
# 
# From -- ./inp_files/16047.got.cif
#   From: 2010.05.17/outbox.cif.g08.bks.cpg/sg50_9_cif.got.tgz:16047.got - 2010.06.03 11:33:33.
