data_PCOD9397153
_publ_section_title
;
Structure prediction by ZEFSAII (Michael W. Deem and Ramdas Pophale) SiO2 
 PCOD9397153
Probable space group: P B A N
;
_chemical_formula_sum "Si O2"
_cell_formula_units_Z 40
_cell_length_a 25.386809
_cell_length_b 8.745910
_cell_length_c 8.628804
_cell_angle_alpha 90.000000
_cell_angle_beta 90.000000
_cell_angle_gamma 90.000000
_cell_volume 1915.859795
_symmetry_space_group_name_H-M "P B A N"
_symmetry_group_IT_number 50
_space_group.IT_coordinate_system_code '2'
_symmetry_cell_setting 'orthorhombic'
loop_
_space_group_symop_operation_xyz
x,y,z
1/2-x,1/2-y,z
x,1/2-y,-z
1/2-x,y,-z
-x,-y,-z
1/2+x,1/2+y,-z
-x,1/2+y,z
1/2+x,-y,z
loop_
_atom_site_type_symbol
_atom_site_label
_atom_site_fract_x
_atom_site_fract_y
_atom_site_fract_z
Si Si1 0.032250 0.619152 0.605798
Si Si2 0.373029 0.047495 0.784153
Si Si3 0.442043 0.314729 0.827572
Si Si4 0.809480 0.286885 0.319495
Si Si5 0.891125 0.389574 0.902400
O O1 0.058223 0.750000 0.500000
O O2 0.075581 0.535031 0.709688
O O3 0.000000 0.500000 0.500000
O O4 0.990585 0.707039 0.714038
O O5 0.324372 0.965520 0.702141
O O6 0.389484 0.224068 0.773405
O O7 0.366753 0.998448 0.963694
O O8 0.431975 0.496022 0.825679
O O9 0.452960 0.250000 0.000000
O O10 0.750000 0.250000 0.270284
O O11 0.814621 0.250000 0.500000
O O12 0.849456 0.186598 0.213927
O O13 0.915485 0.250000 0.000000
#
# Coordination Sequence:
#
# PCOD9397153 Si02
#       5
#     8   8   8   8   8
#     4  12  25  39  59  91 126 168 211 259 315 376
#     4  10  22  39  59  88 123 161 206 253 312 372
#     4  10  23  41  58  87 125 164 208 255 311 377
#     4  10  22  40  64  93 120 155 206 260 316 377
#     4   9  21  37  63  86 117 161 202 254 309 368
#
# _framework density 20.878354000000002
#
# number of rings (size 3 to 8) (size 9 to 14) (size 15 to 20)
#    0.000    1.800    2.000    0.600    8.400    9.200 
#    0.000    1.000    0.000    8.400    0.000    0.000 
#    0.000    0.000    0.000    0.000    0.000    0.000 
#
# Total GULP energy -223302.317119 kJ/mol
# GULP energy per Si atom -5582.557928 kJ/mol
# Density = 2.083083 g / cm^3
# Si number density = 20.878354 Si / 1000 Ang^3
#
#
#
# Elastic Constant Matrix: (Units=GPa)
#
#
# Indices 1 2 3 4 5 6 
#
# 1 84.5441 36.6225 32.4449 0.0000 0.0000 0.0000
# 2 36.6225 113.3195 25.9718 0.0000 0.0000 0.0000
# 3 32.4449 25.9718 84.4759 0.0000 0.0000 0.0000
# 4 0.0000 0.0000 0.0000 33.2810 0.0000 0.0000
# 5 0.0000 0.0000 0.0000 0.0000 22.0676 0.0000
# 6 0.0000 0.0000 0.0000 0.0000 0.0000 15.6966
#
#
#
# Elastic Compliance Matrix: (Units=1/GPa)
#
#
# Indices 1 2 3 4 5 6 
#
# 1 0.015304 -0.003872 -0.004688 0.000000 0.000000 0.000000
# 2 -0.003872 0.010473 -0.001733 0.000000 0.000000 0.000000
# 3 -0.004688 -0.001733 0.014171 0.000000 0.000000 0.000000
# 4 0.000000 0.000000 0.000000 0.030047 0.000000 0.000000
# 5 0.000000 0.000000 0.000000 0.000000 0.045315 0.000000
# 6 0.000000 0.000000 0.000000 0.000000 0.000000 0.063708
#
#
# Mechanical properties :
#
#
# Convention : Reuss Voigt Hill
#
# Bulk Modulus (GPa) = 51.64286 52.49089 52.06688
# Shear Modulus (GPa) = 24.26507 26.69571 25.48039
#
# Velocity S-wave (km/s) = 3.41282 3.57967 3.49724
# Velocity P-wave (km/s) = 6.34969 6.50241 6.42650
#
# Compressibility (1/GPa) = 0.01936376
#
# Stress axis : x y z
#
# Youngs Moduli (GPa) = 65.34164 95.48357 70.56738
#
# Poissons Ratio (x) = 0.36968 0.33079
# Poissons Ratio (y) = 0.25298 0.12229
# Poissons Ratio (z) = 0.30630 0.16546
#
# Static dielectric constant tensor:
#      x y z
#    x 1.722410 0.000000 0.000000 
#    y 0.000000 1.812640 0.000000 
#    z 0.000000 0.000000 1.803040 
# 
# From -- ./inp_files/9485.got.cif
#   From: 2010.05.17/outbox.cif.g08.bks.cpg/sg50_5_cif.got.tgz:9485.got - 2010.06.03 11:33:33.
