data_PCOD9397211
_publ_section_title
;
Structure prediction by ZEFSAII (Michael W. Deem and Ramdas Pophale) SiO2 
 PCOD9397211
Probable space group: P B A N
;
_chemical_formula_sum "Si O2"
_cell_formula_units_Z 58
_cell_length_a 27.356225
_cell_length_b 8.658584
_cell_length_c 11.539025
_cell_angle_alpha 90.000000
_cell_angle_beta 90.000000
_cell_angle_gamma 90.000000
_cell_volume 2733.204681
_symmetry_space_group_name_H-M "P B A N"
_symmetry_group_IT_number 50
_space_group.IT_coordinate_system_code '2'
_symmetry_cell_setting 'orthorhombic'
loop_
_space_group_symop_operation_xyz
x,y,z
1/2-x,1/2-y,z
x,1/2-y,-z
1/2-x,y,-z
-x,-y,-z
1/2+x,1/2+y,-z
-x,1/2+y,z
1/2+x,-y,z
loop_
_atom_site_type_symbol
_atom_site_label
_atom_site_fract_x
_atom_site_fract_y
_atom_site_fract_z
Si Si1 0.250000 0.250000 0.500000
Si Si2 0.808611 0.539520 0.679357
Si Si3 0.994768 0.545810 0.737315
Si Si4 0.436938 0.726628 0.864121
Si Si5 0.567650 0.093696 0.450750
Si Si6 0.153267 0.704866 0.719498
Si Si7 0.592867 0.656200 0.379516
Si Si8 0.237664 0.932577 0.133734
O O1 0.217770 0.367792 0.423451
O O2 0.819220 0.353741 0.662087
O O3 0.858260 0.637918 0.693901
O O4 0.773614 0.535424 0.789473
O O5 0.966467 0.415948 0.808605
O O6 0.954659 0.674609 0.699193
O O7 0.035860 0.623716 0.814998
O O8 0.026486 0.506063 0.622690
O O9 0.382113 0.720049 0.815936
O O10 0.437012 0.750000 0.000000
O O11 0.545096 0.250000 0.500000
O O12 0.615934 0.127013 0.372846
O O13 0.584336 0.011999 0.566575
O O14 0.187008 0.581452 0.789876
O O15 0.597549 0.750000 0.500000
O O16 0.250000 0.750000 0.135519
O O17 0.250000 0.977214 0.000000
#
# Coordination Sequence:
#
# PCOD9397211 Si02
#       8
#     2   8   8   8   8   8   8   8
#     4  12  28  44  60  88 140 172 202 266 332 396
#     4  11  23  41  61  91 123 169 210 257 324 386
#     4  11  22  40  57  93 123 166 211 253 307 388
#     4  11  23  39  65  90 128 163 210 263 318 370
#     4  11  21  37  61  92 125 163 213 259 313 376
#     4  10  22  40  64  95 120 157 219 269 315 375
#     4  12  22  37  61  87 130 169 199 251 320 387
#     4   9  21  39  65  94 120 156 215 275 323 365
#
# _framework density 21.220509
#
# number of rings (size 3 to 8) (size 9 to 14) (size 15 to 20)
#    0.000    1.241    3.448    2.897    5.793    0.000 
#    2.483    0.345    0.000    0.000    0.000    0.000 
#    0.000    0.000    0.000    0.000    0.000    0.000 
#
# Total GULP energy -323099.809258 kJ/mol
# GULP energy per Si atom -5570.686367 kJ/mol
# Density = 2.117221 g / cm^3
# Si number density = 21.220509 Si / 1000 Ang^3
#
#
#
# Elastic Constant Matrix: (Units=GPa)
#
#
# Indices 1 2 3 4 5 6 
#
# 1 107.3927 14.4122 52.1682 0.0000 0.0000 0.0000
# 2 14.4122 47.2653 31.7710 0.0000 0.0000 0.0000
# 3 52.1682 31.7710 123.7565 0.0000 0.0000 0.0000
# 4 0.0000 0.0000 0.0000 23.4391 0.0000 0.0000
# 5 0.0000 0.0000 0.0000 0.0000 22.4211 0.0000
# 6 0.0000 0.0000 0.0000 0.0000 0.0000 21.8060
#
#
#
# Elastic Compliance Matrix: (Units=1/GPa)
#
#
# Indices 1 2 3 4 5 6 
#
# 1 0.011713 -0.000305 -0.004859 0.000000 0.000000 0.000000
# 2 -0.000305 0.025578 -0.006438 0.000000 0.000000 0.000000
# 3 -0.004859 -0.006438 0.011781 0.000000 0.000000 0.000000
# 4 0.000000 0.000000 0.000000 0.042664 0.000000 0.000000
# 5 0.000000 0.000000 0.000000 0.000000 0.044601 0.000000
# 6 0.000000 0.000000 0.000000 0.000000 0.000000 0.045859
#
#
# Mechanical properties :
#
#
# Convention : Reuss Voigt Hill
#
# Bulk Modulus (GPa) = 38.65805 52.79080 45.72442
# Shear Modulus (GPa) = 23.36208 25.53746 24.44977
#
# Velocity S-wave (km/s) = 3.32161 3.47282 3.39806
# Velocity P-wave (km/s) = 5.74175 6.40405 6.08192
#
# Compressibility (1/GPa) = 0.02586784
#
# Stress axis : x y z
#
# Youngs Moduli (GPa) = 85.37525 39.09677 84.87985
#
# Poissons Ratio (x) = 0.01194 0.41244
# Poissons Ratio (y) = 0.02607 0.54642
# Poissons Ratio (z) = 0.41485 0.25169
#
# Static dielectric constant tensor:
#      x y z
#    x 1.838560 0.000000 0.000000 
#    y 0.000000 1.383970 0.000000 
#    z 0.000000 0.000000 1.815430 
# 
# From -- ./inp_files/23171.got.cif
#   From: 2010.05.17/outbox.cif.g08.bks.cpg/sg50_12_cif.got.tgz:23171.got - 2010.06.03 11:33:33.
