data_PCOD9397832
_publ_section_title
;
Structure prediction by ZEFSAII (Michael W. Deem and Ramdas Pophale) SiO2 
 PCOD9397832
Probable space group: P B A N
;
_chemical_formula_sum "Si O2"
_cell_formula_units_Z 44
_cell_length_a 26.127231
_cell_length_b 9.088446
_cell_length_c 9.191185
_cell_angle_alpha 90.000000
_cell_angle_beta 90.000000
_cell_angle_gamma 90.000000
_cell_volume 2182.501364
_symmetry_space_group_name_H-M "P B A N"
_symmetry_group_IT_number 50
_space_group.IT_coordinate_system_code '2'
_symmetry_cell_setting 'orthorhombic'
loop_
_space_group_symop_operation_xyz
x,y,z
1/2-x,1/2-y,z
x,1/2-y,-z
1/2-x,y,-z
-x,-y,-z
1/2+x,1/2+y,-z
-x,1/2+y,z
1/2+x,-y,z
loop_
_atom_site_type_symbol
_atom_site_label
_atom_site_fract_x
_atom_site_fract_y
_atom_site_fract_z
Si Si1 0.683590 0.317329 0.235826
Si Si2 0.186514 0.524063 0.937439
Si Si3 0.576684 0.589730 0.966441
Si Si4 0.999807 0.037730 0.764641
Si Si5 0.250000 0.250000 0.000000
Si Si6 0.431053 0.808581 0.342341
Si Si7 0.750000 0.250000 0.500000
O O1 0.700369 0.419487 0.100441
O O2 0.622350 0.331590 0.258495
O O3 0.712909 0.338610 0.388672
O O4 0.695395 0.151469 0.180392
O O5 0.125212 0.511840 0.946274
O O6 0.213235 0.365610 0.914424
O O7 0.538742 0.557030 0.100028
O O8 0.597353 0.750000 0.000000
O O9 0.542953 0.575954 0.822041
O O10 0.035632 0.957926 0.647449
O O11 0.968474 0.184743 0.727549
O O12 0.416924 0.750000 0.500000
#
# Coordination Sequence:
#
# PCOD9397832 Si02
#       7
#     8   8   8   8   2   8   2
#     4  11  24  42  70  95 119 165 221 271 309 381
#     4  11  23  41  67  98 124 157 215 268 321 384
#     4  11  20  35  63  94 128 161 196 261 315 375
#     4  11  23  36  62  94 131 165 210 250 312 380
#     4  12  24  38  64  94 124 158 196 270 352 372
#     4  12  23  40  60  94 131 179 213 251 310 384
#     4  12  24  46  64  86 124 158 216 278 328 348
#
# _framework density 20.160353000000001
#
# number of rings (size 3 to 8) (size 9 to 14) (size 15 to 20)
#    0.000    0.727    7.273    1.636    0.000    1.455 
#    0.000    0.000    0.000    8.727    0.000    0.000 
#    0.000    0.000    0.000    0.000    0.000    0.000 
#
# Total GULP energy -245317.982755 kJ/mol
# GULP energy per Si atom -5575.408699 kJ/mol
# Density = 2.011447 g / cm^3
# Si number density = 20.160353 Si / 1000 Ang^3
#
#
#
# Elastic Constant Matrix: (Units=GPa)
#
#
# Indices 1 2 3 4 5 6 
#
# 1 117.8622 27.4393 22.5306 0.0000 0.0000 0.0000
# 2 27.4393 66.3270 13.3410 0.0000 0.0000 0.0000
# 3 22.5306 13.3410 67.3741 0.0000 0.0000 0.0000
# 4 0.0000 0.0000 0.0000 18.9391 0.0000 0.0000
# 5 0.0000 0.0000 0.0000 0.0000 38.9133 0.0000
# 6 0.0000 0.0000 0.0000 0.0000 0.0000 40.4586
#
#
#
# Elastic Compliance Matrix: (Units=1/GPa)
#
#
# Indices 1 2 3 4 5 6 
#
# 1 0.009800 -0.003536 -0.002577 0.000000 0.000000 0.000000
# 2 -0.003536 0.016978 -0.002179 0.000000 0.000000 0.000000
# 3 -0.002577 -0.002179 0.016136 0.000000 0.000000 0.000000
# 4 0.000000 0.000000 0.000000 0.052801 0.000000 0.000000
# 5 0.000000 0.000000 0.000000 0.000000 0.025698 0.000000
# 6 0.000000 0.000000 0.000000 0.000000 0.000000 0.024717
#
#
# Mechanical properties :
#
#
# Convention : Reuss Voigt Hill
#
# Bulk Modulus (GPa) = 37.98077 42.02055 40.00066
# Shear Modulus (GPa) = 29.15600 32.21237 30.68419
#
# Velocity S-wave (km/s) = 3.80703 4.00160 3.90552
# Velocity P-wave (km/s) = 6.18101 6.49914 6.34207
#
# Compressibility (1/GPa) = 0.02632912
#
# Stress axis : x y z
#
# Youngs Moduli (GPa) = 102.03715 58.89969 61.97365
#
# Poissons Ratio (x) = 0.20827 0.15972
# Poissons Ratio (y) = 0.36080 0.13507
# Poissons Ratio (z) = 0.26297 0.12837
#
# Static dielectric constant tensor:
#      x y z
#    x 1.764790 0.000000 0.000000 
#    y 0.000000 1.725700 0.000000 
#    z 0.000000 0.000000 1.700530 
# 
# From -- ./inp_files/9989.got.cif
#   From: 2010.05.17/outbox.cif.g08.bks.cpg/sg50_5_cif.got.tgz:9989.got - 2010.06.03 11:33:33.
