data_PCOD9397195
_publ_section_title
;
Structure prediction by ZEFSAII (Michael W. Deem and Ramdas Pophale) SiO2 
 PCOD9397195
Probable space group: P B A N
;
_chemical_formula_sum "Si O2"
_cell_formula_units_Z 48
_cell_length_a 25.407252
_cell_length_b 8.930972
_cell_length_c 11.509765
_cell_angle_alpha 90.000000
_cell_angle_beta 90.000000
_cell_angle_gamma 90.000000
_cell_volume 2611.697537
_symmetry_space_group_name_H-M "P B A N"
_symmetry_group_IT_number 50
_space_group.IT_coordinate_system_code '2'
_symmetry_cell_setting 'orthorhombic'
loop_
_space_group_symop_operation_xyz
x,y,z
1/2-x,1/2-y,z
x,1/2-y,-z
1/2-x,y,-z
-x,-y,-z
1/2+x,1/2+y,-z
-x,1/2+y,z
1/2+x,-y,z
loop_
_atom_site_type_symbol
_atom_site_label
_atom_site_fract_x
_atom_site_fract_y
_atom_site_fract_z
Si Si1 0.817954 0.561473 0.617332
Si Si2 0.943138 0.070598 0.012266
Si Si3 0.300248 0.419811 0.353827
Si Si4 0.022178 0.118585 0.409680
Si Si5 0.894737 0.031805 0.769140
Si Si6 0.913376 0.120066 0.267798
O O1 0.759383 0.523493 0.663572
O O2 0.812570 0.741608 0.634219
O O3 0.817745 0.523093 0.480699
O O4 0.869275 0.481709 0.669416
O O5 0.911548 0.009143 0.901941
O O6 0.946495 0.250000 0.000000
O O7 0.921862 0.045495 0.141592
O O8 0.000000 0.000000 0.000000
O O9 0.336660 0.475506 0.252499
O O10 0.039866 0.250000 0.500000
O O11 0.970219 0.143756 0.330114
O O12 0.066932 0.054097 0.323294
O O13 0.000000 0.000000 0.500000
O O14 0.894742 0.209193 0.745136
#
# Coordination Sequence:
#
# PCOD9397195 Si02
#       6
#     8   8   8   8   8   8
#     4   9  20  38  61  86 118 151 192 243 296 353
#     4  10  22  40  58  81 115 157 200 241 286 349
#     4   9  20  38  60  88 115 153 193 240 298 350
#     4  12  24  35  54  89 120 150 188 240 295 357
#     4  11  23  38  59  85 117 155 198 241 294 354
#     4  11  23  39  58  84 119 156 197 241 293 352
#
# _framework density 18.37885
#
# number of rings (size 3 to 8) (size 9 to 14) (size 15 to 20)
#    0.000    1.667    3.333    2.000    4.667    2.000 
#    0.000    2.500    0.000    5.000    0.000    0.000 
#    0.000    0.000    0.000    0.000    0.000    0.000 
#
# Total GULP energy -267307.656313 kJ/mol
# GULP energy per Si atom -5568.909507 kJ/mol
# Density = 1.833702 g / cm^3
# Si number density = 18.378850 Si / 1000 Ang^3
#
#
#
# Elastic Constant Matrix: (Units=GPa)
#
#
# Indices 1 2 3 4 5 6 
#
# 1 109.0193 14.6319 56.8444 0.0000 0.0000 0.0000
# 2 14.6319 22.5029 22.9988 0.0000 0.0000 0.0000
# 3 56.8444 22.9988 112.5784 0.0000 0.0000 0.0000
# 4 0.0000 0.0000 0.0000 27.0485 0.0000 0.0000
# 5 0.0000 0.0000 0.0000 0.0000 29.8518 0.0000
# 6 0.0000 0.0000 0.0000 0.0000 0.0000 27.7993
#
#
#
# Elastic Compliance Matrix: (Units=1/GPa)
#
#
# Indices 1 2 3 4 5 6 
#
# 1 0.012531 -0.002125 -0.005893 0.000000 0.000000 0.000000
# 2 -0.002125 0.056526 -0.010475 0.000000 0.000000 0.000000
# 3 -0.005893 -0.010475 0.013998 0.000000 0.000000 0.000000
# 4 0.000000 0.000000 0.000000 0.036971 0.000000 0.000000
# 5 0.000000 0.000000 0.000000 0.000000 0.033499 0.000000
# 6 0.000000 0.000000 0.000000 0.000000 0.000000 0.035972
#
#
# Mechanical properties :
#
#
# Convention : Reuss Voigt Hill
#
# Bulk Modulus (GPa) = 21.70642 48.11676 34.91159
# Shear Modulus (GPa) = 20.67499 26.91495 23.79497
#
# Velocity S-wave (km/s) = 3.35764 3.83097 3.60209
# Velocity P-wave (km/s) = 5.18342 6.76800 6.02800
#
# Compressibility (1/GPa) = 0.04606932
#
# Stress axis : x y z
#
# Youngs Moduli (GPa) = 79.80476 17.69101 71.43777
#
# Poissons Ratio (x) = 0.03759 0.42098
# Poissons Ratio (y) = 0.16957 0.74830
# Poissons Ratio (z) = 0.47029 0.18531
#
# Static dielectric constant tensor:
#      x y z
#    x 1.617220 0.000000 0.000000 
#    y 0.000000 1.740910 0.000000 
#    z 0.000000 0.000000 -1.200220 
# 
# From -- ./inp_files/19184.got.cif
#   From: 2010.05.17/outbox.cif.g08.bks.cpg/sg50_10_cif.got.tgz:19184.got - 2010.06.03 11:33:33.
