data_PCOD9397071
_publ_section_title
;
Structure prediction by ZEFSAII (Michael W. Deem and Ramdas Pophale) SiO2 
 PCOD9397071
Probable space group: P B A N
;
_chemical_formula_sum "Si O2"
_cell_formula_units_Z 48
_cell_length_a 9.800069
_cell_length_b 21.297202
_cell_length_c 12.211629
_cell_angle_alpha 90.000000
_cell_angle_beta 90.000000
_cell_angle_gamma 90.000000
_cell_volume 2548.738535
_symmetry_space_group_name_H-M "P B A N"
_symmetry_group_IT_number 50
_space_group.IT_coordinate_system_code '2'
_symmetry_cell_setting 'orthorhombic'
loop_
_space_group_symop_operation_xyz
x,y,z
1/2-x,1/2-y,z
x,1/2-y,-z
1/2-x,y,-z
-x,-y,-z
1/2+x,1/2+y,-z
-x,1/2+y,z
1/2+x,-y,z
loop_
_atom_site_type_symbol
_atom_site_label
_atom_site_fract_x
_atom_site_fract_y
_atom_site_fract_z
Si Si1 0.704706 0.624366 0.879376
Si Si2 0.179569 0.946592 0.617056
Si Si3 0.947620 0.315015 0.939709
Si Si4 0.921595 0.987802 0.743341
Si Si5 0.505077 0.116379 0.157676
Si Si6 0.744617 0.321921 0.271281
O O1 0.603062 0.682516 0.896455
O O2 0.618240 0.573019 0.813395
O O3 0.849937 0.638613 0.825758
O O4 0.750000 0.600351 0.000000
O O5 0.250000 0.956894 0.500000
O O6 0.281589 0.982597 0.699130
O O7 0.184272 0.872589 0.645146
O O8 0.028116 0.971050 0.646245
O O9 0.845574 0.324531 0.839801
O O10 0.918309 0.250000 0.000000
O O11 0.945510 0.367677 0.034525
O O12 0.987218 0.042670 0.816969
O O13 0.605889 0.153459 0.237998
O O14 0.750000 0.250000 0.308686
#
# Coordination Sequence:
#
# PCOD9397071 Si02
#       6
#     8   8   8   8   8   8
#     4  10  22  36  55  88 126 163 195 243 299 373
#     4  11  24  41  66  88 114 158 209 265 318 360
#     4  11  21  37  57  85 122 165 203 234 297 373
#     4  11  21  41  60  88 123 154 204 258 313 365
#     4  10  22  34  57  87 122 159 200 239 299 374
#     4  11  22  39  61  88 121 157 202 254 303 365
#
# _framework density 18.832846
#
# number of rings (size 3 to 8) (size 9 to 14) (size 15 to 20)
#    0.000    1.333    5.000    1.000    0.000    8.667 
#    0.000    0.000    0.000    0.000    0.000    0.000 
#    5.000    0.000    0.000    0.000    0.000    0.000 
#
# Total GULP energy -267848.322492 kJ/mol
# GULP energy per Si atom -5580.173385 kJ/mol
# Density = 1.878998 g / cm^3
# Si number density = 18.832846 Si / 1000 Ang^3
#
#
#
# Elastic Constant Matrix: (Units=GPa)
#
#
# Indices 1 2 3 4 5 6 
#
# 1 93.8936 16.0494 1.7900 0.0000 0.0000 0.0000
# 2 16.0494 65.4119 12.3960 0.0000 0.0000 0.0000
# 3 1.7900 12.3960 39.0914 0.0000 0.0000 0.0000
# 4 0.0000 0.0000 0.0000 19.2823 0.0000 0.0000
# 5 0.0000 0.0000 0.0000 0.0000 28.6874 0.0000
# 6 0.0000 0.0000 0.0000 0.0000 0.0000 15.5380
#
#
#
# Elastic Compliance Matrix: (Units=1/GPa)
#
#
# Indices 1 2 3 4 5 6 
#
# 1 0.011122 -0.002801 0.000379 0.000000 0.000000 0.000000
# 2 -0.002801 0.016970 -0.005253 0.000000 0.000000 0.000000
# 3 0.000379 -0.005253 0.027230 0.000000 0.000000 0.000000
# 4 0.000000 0.000000 0.000000 0.051861 0.000000 0.000000
# 5 0.000000 0.000000 0.000000 0.000000 0.034858 0.000000
# 6 0.000000 0.000000 0.000000 0.000000 0.000000 0.064358
#
#
# Mechanical properties :
#
#
# Convention : Reuss Voigt Hill
#
# Bulk Modulus (GPa) = 25.01755 28.76305 26.89030
# Shear Modulus (GPa) = 21.26995 23.91231 22.59113
#
# Velocity S-wave (km/s) = 3.36431 3.56717 3.46722
# Velocity P-wave (km/s) = 5.32957 5.68087 5.50802
#
# Compressibility (1/GPa) = 0.03997193
#
# Stress axis : x y z
#
# Youngs Moduli (GPa) = 89.91312 58.92616 36.72484
#
# Poissons Ratio (x) = 0.16503 -0.01391
# Poissons Ratio (y) = 0.25181 0.19292
# Poissons Ratio (z) = -0.03406 0.30955
#
# Static dielectric constant tensor:
#      x y z
#    x 1.678890 0.000000 0.000000 
#    y 0.000000 1.656990 0.000000 
#    z 0.000000 0.000000 1.657130 
# 
# From -- ./inp_files/19168.got.cif
#   From: 2010.05.17/outbox.cif.g08.bks.cpg/sg50_10_cif.got.tgz:19168.got - 2010.06.03 11:33:33.
