data_PCOD9397391
_publ_section_title
;
Structure prediction by ZEFSAII (Michael W. Deem and Ramdas Pophale) SiO2 
 PCOD9397391
Probable space group: P B A N
;
_chemical_formula_sum "Si O2"
_cell_formula_units_Z 38
_cell_length_a 9.272775
_cell_length_b 9.268536
_cell_length_c 20.556051
_cell_angle_alpha 90.000000
_cell_angle_beta 90.000000
_cell_angle_gamma 90.000000
_cell_volume 1766.690809
_symmetry_space_group_name_H-M "P B A N"
_symmetry_group_IT_number 50
_space_group.IT_coordinate_system_code '2'
_symmetry_cell_setting 'orthorhombic'
loop_
_space_group_symop_operation_xyz
x,y,z
1/2-x,1/2-y,z
x,1/2-y,-z
1/2-x,y,-z
-x,-y,-z
1/2+x,1/2+y,-z
-x,1/2+y,z
1/2+x,-y,z
loop_
_atom_site_type_symbol
_atom_site_label
_atom_site_fract_x
_atom_site_fract_y
_atom_site_fract_z
Si Si1 0.124543 0.350962 0.873198
Si Si2 0.750000 0.750000 0.500000
Si Si3 0.750000 0.750000 0.000000
Si Si4 0.607730 0.158497 0.192408
Si Si5 0.750000 0.250000 0.500000
Si Si6 0.009658 0.411834 0.580466
Si Si7 0.085803 0.686073 0.662623
O O1 0.250000 0.250000 0.844178
O O2 0.154519 0.344620 0.950546
O O3 0.128423 0.509234 0.844663
O O4 0.985388 0.264433 0.852011
O O5 0.855396 0.647266 0.459365
O O6 0.750000 0.250000 0.203166
O O7 0.552649 0.128070 0.265664
O O8 0.636033 0.144592 0.541076
O O9 0.039394 0.574903 0.604725
O O10 0.008220 0.325862 0.648030
O O11 0.250000 0.750000 0.659332
#
# Coordination Sequence:
#
# PCOD9397391 Si02
#       7
#     8   2   2   8   2   8   8
#     4  10  22  45  67 101 142 181 225 285 341 406
#     4  10  28  44  72 102 138 194 230 288 370 426
#     4   8  24  44  66 100 148 176 236 274 340 424
#     4  11  23  44  72 102 137 184 232 287 347 404
#     4  10  24  48  76 100 138 174 238 304 358 430
#     4  11  25  47  71 100 141 181 236 297 358 428
#     4  11  26  46  69 104 140 178 236 290 354 426
#
# _framework density 21.509142000000001
#
# number of rings (size 3 to 8) (size 9 to 14) (size 15 to 20)
#    0.632    0.842    1.053    2.526    2.947    7.579 
#    3.789    0.000    0.000    0.000    0.000    0.000 
#    0.000    0.000    0.000    0.000    0.000    0.000 
#
# Total GULP energy -211723.886876 kJ/mol
# GULP energy per Si atom -5571.681234 kJ/mol
# Density = 2.146019 g / cm^3
# Si number density = 21.509142 Si / 1000 Ang^3
#
#
#
# Elastic Constant Matrix: (Units=GPa)
#
#
# Indices 1 2 3 4 5 6 
#
# 1 85.3995 27.6698 40.9318 0.0000 0.0000 0.0000
# 2 27.6698 158.4481 60.5826 0.0000 0.0000 0.0000
# 3 40.9318 60.5826 161.3027 0.0000 0.0000 0.0000
# 4 0.0000 0.0000 0.0000 45.1326 0.0000 0.0000
# 5 0.0000 0.0000 0.0000 0.0000 20.8075 0.0000
# 6 0.0000 0.0000 0.0000 0.0000 0.0000 28.7168
#
#
#
# Elastic Compliance Matrix: (Units=1/GPa)
#
#
# Indices 1 2 3 4 5 6 
#
# 1 0.013532 -0.001226 -0.002973 0.000000 0.000000 0.000000
# 2 -0.001226 0.007481 -0.002498 0.000000 0.000000 0.000000
# 3 -0.002973 -0.002498 0.007892 0.000000 0.000000 0.000000
# 4 0.000000 0.000000 0.000000 0.022157 0.000000 0.000000
# 5 0.000000 0.000000 0.000000 0.000000 0.048060 0.000000
# 6 0.000000 0.000000 0.000000 0.000000 0.000000 0.034823
#
#
# Mechanical properties :
#
#
# Convention : Reuss Voigt Hill
#
# Bulk Modulus (GPa) = 64.47821 73.72431 69.10126
# Shear Modulus (GPa) = 32.78469 37.32910 35.05689
#
# Velocity S-wave (km/s) = 3.90836 4.17045 4.04153
# Velocity P-wave (km/s) = 7.09995 7.58554 7.34676
#
# Compressibility (1/GPa) = 0.01550911
#
# Stress axis : x y z
#
# Youngs Moduli (GPa) = 73.89839 133.67851 126.70428
#
# Poissons Ratio (x) = 0.16393 0.37673
# Poissons Ratio (y) = 0.09062 0.31656
# Poissons Ratio (z) = 0.21972 0.33399
#
# Static dielectric constant tensor:
#      x y z
#    x 1.917700 0.000000 0.000000 
#    y 0.000000 1.801230 0.000000 
#    z 0.000000 0.000000 1.813200 
# 
# From -- ./inp_files/31579.got.cif
#   From: 2010.05.17/outbox.cif.g08.bks.cpg/sg50_16_cif.got.tgz:31579.got - 2010.06.03 11:33:33.
