data_PCOD9397808
_publ_section_title
;
Structure prediction by ZEFSAII (Michael W. Deem and Ramdas Pophale) SiO2 
 PCOD9397808
Probable space group: P B A N
;
_chemical_formula_sum "Si O2"
_cell_formula_units_Z 40
_cell_length_a 11.921600
_cell_length_b 21.311723
_cell_length_c 8.491192
_cell_angle_alpha 90.000000
_cell_angle_beta 90.000000
_cell_angle_gamma 90.000000
_cell_volume 2157.355767
_symmetry_space_group_name_H-M "P B A N"
_symmetry_group_IT_number 50
_space_group.IT_coordinate_system_code '2'
_symmetry_cell_setting 'orthorhombic'
loop_
_space_group_symop_operation_xyz
x,y,z
1/2-x,1/2-y,z
x,1/2-y,-z
1/2-x,y,-z
-x,-y,-z
1/2+x,1/2+y,-z
-x,1/2+y,z
1/2+x,-y,z
loop_
_atom_site_type_symbol
_atom_site_label
_atom_site_fract_x
_atom_site_fract_y
_atom_site_fract_z
Si Si1 0.429433 0.025129 0.651707
Si Si2 0.719981 0.177706 0.319397
Si Si3 0.607431 0.412775 0.155979
Si Si4 0.209470 0.446804 0.176258
Si Si5 0.475465 0.894469 0.809049
O O1 0.507653 0.079938 0.719275
O O2 0.302241 0.048726 0.684771
O O3 0.500000 0.000000 0.500000
O O4 0.428199 0.962342 0.757474
O O5 0.750000 0.250000 0.291388
O O6 0.750000 0.162726 0.500000
O O7 0.796390 0.133940 0.210179
O O8 0.592194 0.158913 0.282562
O O9 0.658131 0.483197 0.150911
O O10 0.553730 0.391288 0.992821
O O11 0.107535 0.400804 0.220660
O O12 0.250000 0.428739 0.000000
#
# Coordination Sequence:
#
# PCOD9397808 Si02
#       5
#     8   8   8   8   8
#     4  11  21  33  55  89 128 161 192 246 305 369
#     4  11  24  41  59  84 119 154 202 261 311 367
#     4  11  20  33  58  86 118 157 198 239 307 368
#     4  11  18  35  57  88 127 156 194 248 306 367
#     4  11  21  35  58  85 117 157 198 243 305 366
#
# _framework density 18.541217
#
# number of rings (size 3 to 8) (size 9 to 14) (size 15 to 20)
#    0.000    1.000    6.000    3.000    0.000    4.000 
#    0.000    0.000    0.000    1.200    0.000    2.800 
#    0.000    0.000    0.000    0.000    0.000    0.000 
#
# Total GULP energy -222944.146377 kJ/mol
# GULP energy per Si atom -5573.603659 kJ/mol
# Density = 1.849902 g / cm^3
# Si number density = 18.541217 Si / 1000 Ang^3
#
#
#
# Elastic Constant Matrix: (Units=GPa)
#
#
# Indices 1 2 3 4 5 6 
#
# 1 167.8362 37.0025 58.2889 0.0000 0.0000 0.0000
# 2 37.0025 31.8980 24.7826 0.0000 0.0000 0.0000
# 3 58.2889 24.7826 101.3070 0.0000 0.0000 0.0000
# 4 0.0000 0.0000 0.0000 15.9983 0.0000 0.0000
# 5 0.0000 0.0000 0.0000 0.0000 27.0775 0.0000
# 6 0.0000 0.0000 0.0000 0.0000 0.0000 20.4360
#
#
#
# Elastic Compliance Matrix: (Units=1/GPa)
#
#
# Indices 1 2 3 4 5 6 
#
# 1 0.008751 -0.007703 -0.003150 0.000000 0.000000 0.000000
# 2 -0.007703 0.045488 -0.006695 0.000000 0.000000 0.000000
# 3 -0.003150 -0.006695 0.013322 0.000000 0.000000 0.000000
# 4 0.000000 0.000000 0.000000 0.062507 0.000000 0.000000
# 5 0.000000 0.000000 0.000000 0.000000 0.036931 0.000000
# 6 0.000000 0.000000 0.000000 0.000000 0.000000 0.048933
#
#
# Mechanical properties :
#
#
# Convention : Reuss Voigt Hill
#
# Bulk Modulus (GPa) = 30.80544 60.13215 45.46879
# Shear Modulus (GPa) = 19.09492 24.76683 21.93088
#
# Velocity S-wave (km/s) = 3.21263 3.65879 3.44294
# Velocity P-wave (km/s) = 5.51470 7.09584 6.35464
#
# Compressibility (1/GPa) = 0.03246180
#
# Stress axis : x y z
#
# Youngs Moduli (GPa) = 114.27729 21.98388 75.06655
#
# Poissons Ratio (x) = 0.16935 0.23649
# Poissons Ratio (y) = 0.88031 0.50260
# Poissons Ratio (z) = 0.36002 0.14719
#
# Static dielectric constant tensor:
#      x y z
#    x 1.751370 0.000000 0.000000 
#    y 0.000000 1.584970 0.000000 
#    z 0.000000 0.000000 1.718520 
# 
# From -- ./inp_files/11063.got.cif
#   From: 2010.05.17/outbox.cif.g08.bks.cpg/sg50_6_cif.got.tgz:11063.got - 2010.06.03 11:33:33.
