data_PCOD9397005
_publ_section_title
;
Structure prediction by ZEFSAII (Michael W. Deem and Ramdas Pophale) SiO2 
 PCOD9397005
Probable space group: P B A N
;
_chemical_formula_sum "Si O2"
_cell_formula_units_Z 48
_cell_length_a 9.836617
_cell_length_b 22.782687
_cell_length_c 11.517281
_cell_angle_alpha 90.000000
_cell_angle_beta 90.000000
_cell_angle_gamma 90.000000
_cell_volume 2581.075263
_symmetry_space_group_name_H-M "P B A N"
_symmetry_group_IT_number 50
_space_group.IT_coordinate_system_code '2'
_symmetry_cell_setting 'orthorhombic'
loop_
_space_group_symop_operation_xyz
x,y,z
1/2-x,1/2-y,z
x,1/2-y,-z
1/2-x,y,-z
-x,-y,-z
1/2+x,1/2+y,-z
-x,1/2+y,z
1/2+x,-y,z
loop_
_atom_site_type_symbol
_atom_site_label
_atom_site_fract_x
_atom_site_fract_y
_atom_site_fract_z
Si Si1 0.170222 0.303467 0.379026
Si Si2 0.967222 0.367974 0.835468
Si Si3 0.713007 0.610428 0.184123
Si Si4 0.403213 0.749116 0.704326
Si Si5 0.372772 0.513572 0.914246
Si Si6 0.997949 0.192092 0.937488
O O1 0.250000 0.250000 0.313179
O O2 0.250000 0.308892 0.500000
O O3 0.182633 0.364239 0.311724
O O4 0.016054 0.279789 0.377085
O O5 0.128833 0.379167 0.839970
O O6 0.939650 0.317975 0.739763
O O7 0.901571 0.432049 0.829030
O O8 0.921127 0.341835 0.960149
O O9 0.668844 0.544500 0.156402
O O10 0.619169 0.651619 0.105315
O O11 0.250000 0.750000 0.659849
O O12 0.413347 0.786284 0.825710
O O13 0.250000 0.528425 0.000000
O O14 0.500000 0.500000 0.000000
O O15 0.053577 0.250000 0.000000
#
# Coordination Sequence:
#
# PCOD9397005 Si02
#       6
#     8   8   8   8   8   8
#     4  10  21  41  69  93 110 150 209 266 326 377
#     4  11  21  34  53  84 128 166 206 238 296 370
#     4  11  20  37  56  84 119 164 214 254 303 363
#     4  10  22  36  57  95 123 154 190 256 322 370
#     4  12  23  35  53  85 123 173 210 240 286 361
#     4   9  19  29  51  81 124 160 198 239 297 373
#
# _framework density 18.596900000000002
#
# number of rings (size 3 to 8) (size 9 to 14) (size 15 to 20)
#    0.000    1.500    5.000    0.500    2.333    4.333 
#    0.000    1.667    0.000    1.000    0.000    0.000 
#    0.000    0.000    0.000    0.000    0.000    0.000 
#
# Total GULP energy -267781.664984 kJ/mol
# GULP energy per Si atom -5578.784687 kJ/mol
# Density = 1.855457 g / cm^3
# Si number density = 18.596900 Si / 1000 Ang^3
#
#
#
# Elastic Constant Matrix: (Units=GPa)
#
#
# Indices 1 2 3 4 5 6 
#
# 1 116.8570 30.8093 23.9198 0.0000 0.0000 0.0000
# 2 30.8093 127.3354 32.1576 0.0000 0.0000 0.0000
# 3 23.9198 32.1576 76.1390 0.0000 0.0000 0.0000
# 4 0.0000 0.0000 0.0000 21.2042 0.0000 0.0000
# 5 0.0000 0.0000 0.0000 0.0000 13.4704 0.0000
# 6 0.0000 0.0000 0.0000 0.0000 0.0000 29.6067
#
#
#
# Elastic Compliance Matrix: (Units=1/GPa)
#
#
# Indices 1 2 3 4 5 6 
#
# 1 0.009472 -0.001724 -0.002248 0.000000 0.000000 0.000000
# 2 -0.001724 0.009105 -0.003304 0.000000 0.000000 0.000000
# 3 -0.002248 -0.003304 0.015235 0.000000 0.000000 0.000000
# 4 0.000000 0.000000 0.000000 0.047161 0.000000 0.000000
# 5 0.000000 0.000000 0.000000 0.000000 0.074237 0.000000
# 6 0.000000 0.000000 0.000000 0.000000 0.000000 0.033776
#
#
# Mechanical properties :
#
#
# Convention : Reuss Voigt Hill
#
# Bulk Modulus (GPa) = 51.91785 54.90055 53.40920
# Shear Modulus (GPa) = 23.81440 28.41924 26.11682
#
# Velocity S-wave (km/s) = 3.58237 3.91342 3.75155
# Velocity P-wave (km/s) = 6.71485 7.07144 6.89545
#
# Compressibility (1/GPa) = 0.01926120
#
# Stress axis : x y z
#
# Youngs Moduli (GPa) = 105.57313 109.83222 65.63696
#
# Poissons Ratio (x) = 0.18937 0.14752
# Poissons Ratio (y) = 0.18203 0.21685
# Poissons Ratio (z) = 0.23728 0.36286
#
# Static dielectric constant tensor:
#      x y z
#    x 1.676030 0.000000 0.000000 
#    y 0.000000 1.665050 0.000000 
#    z 0.000000 0.000000 1.694220 
# 
# From -- ./inp_files/19154.got.cif
#   From: 2010.05.17/outbox.cif.g08.bks.cpg/sg50_10_cif.got.tgz:19154.got - 2010.06.03 11:33:33.
