data_PCOD9397563
_publ_section_title
;
Structure prediction by ZEFSAII (Michael W. Deem and Ramdas Pophale) SiO2 
 PCOD9397563
Probable space group: P B A N
;
_chemical_formula_sum "Si O2"
_cell_formula_units_Z 64
_cell_length_a 9.258233
_cell_length_b 29.501861
_cell_length_c 10.348349
_cell_angle_alpha 90.000000
_cell_angle_beta 90.000000
_cell_angle_gamma 90.000000
_cell_volume 2826.497371
_symmetry_space_group_name_H-M "P B A N"
_symmetry_group_IT_number 50
_space_group.IT_coordinate_system_code '2'
_symmetry_cell_setting 'orthorhombic'
loop_
_space_group_symop_operation_xyz
x,y,z
1/2-x,1/2-y,z
x,1/2-y,-z
1/2-x,y,-z
-x,-y,-z
1/2+x,1/2+y,-z
-x,1/2+y,z
1/2+x,-y,z
loop_
_atom_site_type_symbol
_atom_site_label
_atom_site_fract_x
_atom_site_fract_y
_atom_site_fract_z
Si Si1 0.658097 0.791658 0.685787
Si Si2 0.905007 0.363232 0.023062
Si Si3 0.895431 0.270410 0.144221
Si Si4 0.589471 0.619815 0.442412
Si Si5 0.249443 0.506622 0.747432
Si Si6 0.532671 0.935339 0.324523
Si Si7 0.346385 0.358775 0.132596
Si Si8 0.969601 0.561741 0.817176
O O1 0.750000 0.750000 0.633134
O O2 0.540485 0.767411 0.775969
O O3 0.579493 0.826899 0.589406
O O4 0.758642 0.825829 0.771021
O O5 0.875311 0.324293 0.125955
O O6 0.009043 0.402000 0.072653
O O7 0.750000 0.384180 0.000000
O O8 0.995089 0.340577 0.907925
O O9 0.750000 0.250000 0.203337
O O10 0.907965 0.250000 0.000000
O O11 0.750000 0.613819 0.500000
O O12 0.498458 0.598236 0.557624
O O13 0.560285 0.589947 0.314668
O O14 0.381468 0.538777 0.702339
O O15 0.155817 0.474127 0.650032
O O16 0.120356 0.535357 0.807357
O O17 0.338307 0.472327 0.838493
O O18 0.605314 0.904423 0.210863
O O19 0.250000 0.359588 0.000000
#
# Coordination Sequence:
#
# PCOD9397563 Si02
#       8
#     8   8   8   8   8   8   8   8
#     4  12  26  43  71 105 136 178 233 290 346 425
#     4  12  23  41  68 101 146 186 226 287 365 419
#     4  11  22  41  69 105 139 174 227 289 341 418
#     4  12  23  45  71  97 139 178 229 292 363 415
#     4  10  23  43  70 102 137 179 247 292 344 427
#     4  11  24  44  69 102 137 184 234 295 356 420
#     4  12  23  42  68  99 142 184 235 288 345 426
#     4  11  23  44  68 101 139 184 232 293 354 415
#
# _framework density 22.642866999999999
#
# number of rings (size 3 to 8) (size 9 to 14) (size 15 to 20)
#    0.000    0.625    6.250    2.250    0.000    3.750 
#    0.000   12.500    2.750    0.000    0.000    0.000 
#    0.000    0.000    0.000    0.000    0.000    0.000 
#
# Total GULP energy -357029.430479 kJ/mol
# GULP energy per Si atom -5578.584851 kJ/mol
# Density = 2.259133 g / cm^3
# Si number density = 22.642867 Si / 1000 Ang^3
#
#
#
# Elastic Constant Matrix: (Units=GPa)
#
#
# Indices 1 2 3 4 5 6 
#
# 1 153.6160 51.1173 23.6042 0.0000 0.0000 0.0000
# 2 51.1173 127.9277 28.7805 0.0000 0.0000 0.0000
# 3 23.6042 28.7805 63.6340 0.0000 0.0000 0.0000
# 4 0.0000 0.0000 0.0000 35.2061 0.0000 0.0000
# 5 0.0000 0.0000 0.0000 0.0000 31.4353 0.0000
# 6 0.0000 0.0000 0.0000 0.0000 0.0000 25.7160
#
#
#
# Elastic Compliance Matrix: (Units=1/GPa)
#
#
# Indices 1 2 3 4 5 6 
#
# 1 0.007655 -0.002694 -0.001621 0.000000 0.000000 0.000000
# 2 -0.002694 0.009651 -0.003365 0.000000 0.000000 0.000000
# 3 -0.001621 -0.003365 0.017838 0.000000 0.000000 0.000000
# 4 0.000000 0.000000 0.000000 0.028404 0.000000 0.000000
# 5 0.000000 0.000000 0.000000 0.000000 0.031811 0.000000
# 6 0.000000 0.000000 0.000000 0.000000 0.000000 0.038886
#
#
# Mechanical properties :
#
#
# Convention : Reuss Voigt Hill
#
# Bulk Modulus (GPa) = 50.54895 61.35353 55.95124
# Shear Modulus (GPa) = 32.00985 34.58318 33.29651
#
# Velocity S-wave (km/s) = 3.76398 3.91235 3.83888
# Velocity P-wave (km/s) = 6.42362 6.89664 6.66433
#
# Compressibility (1/GPa) = 0.01978281
#
# Stress axis : x y z
#
# Youngs Moduli (GPa) = 130.62746 103.62049 56.05908
#
# Poissons Ratio (x) = 0.27918 0.09088
# Poissons Ratio (y) = 0.35194 0.18866
# Poissons Ratio (z) = 0.21176 0.34873
#
# Static dielectric constant tensor:
#      x y z
#    x 1.962320 0.000000 0.000000 
#    y 0.000000 1.931860 0.000000 
#    z 0.000000 0.000000 1.902280 
# 
# From -- ./inp_files/19565.got.cif
#   From: 2010.05.17/outbox.cif.g08.bks.cpg/sg50_10_cif.got.tgz:19565.got - 2010.06.03 11:33:33.
