data_PCOD9397412
_publ_section_title
;
Structure prediction by ZEFSAII (Michael W. Deem and Ramdas Pophale) SiO2 
 PCOD9397412
Probable space group: P B A N
;
_chemical_formula_sum "Si O2"
_cell_formula_units_Z 30
_cell_length_a 12.171409
_cell_length_b 19.353839
_cell_length_c 5.693664
_cell_angle_alpha 90.000000
_cell_angle_beta 90.000000
_cell_angle_gamma 90.000000
_cell_volume 1341.219364
_symmetry_space_group_name_H-M "P B A N"
_symmetry_group_IT_number 50
_space_group.IT_coordinate_system_code '2'
_symmetry_cell_setting 'orthorhombic'
loop_
_space_group_symop_operation_xyz
x,y,z
1/2-x,1/2-y,z
x,1/2-y,-z
1/2-x,y,-z
-x,-y,-z
1/2+x,1/2+y,-z
-x,1/2+y,z
1/2+x,-y,z
loop_
_atom_site_type_symbol
_atom_site_label
_atom_site_fract_x
_atom_site_fract_y
_atom_site_fract_z
Si Si1 0.442094 0.750000 0.500000
Si Si2 0.365141 0.649825 0.869439
Si Si3 0.923686 0.850364 0.217948
Si Si4 0.934446 0.497681 0.747323
Si Si5 0.750000 0.750000 0.000000
O O1 0.372184 0.717522 0.708077
O O2 0.518616 0.684552 0.440327
O O3 0.369364 0.574298 0.745270
O O4 0.250000 0.651108 0.000000
O O5 0.475427 0.650613 0.030429
O O6 0.828326 0.799178 0.146914
O O7 0.877559 0.927240 0.249526
O O8 0.000000 0.500000 0.500000
O O9 0.000000 0.500000 0.000000
#
# Coordination Sequence:
#
# PCOD9397412 Si02
#       5
#     4   8   8   8   2
#     4  12  22  46  72 102 148 193 255 312 386 470
#     4  11  25  45  72 108 148 199 251 320 391 462
#     4  11  25  44  70 106 144 193 254 314 381 462
#     4  10  22  46  73 103 149 194 253 312 376 464
#     4  12  24  46  70 104 150 196 254 332 384 450
#
# _framework density 22.367706999999999
#
# number of rings (size 3 to 8) (size 9 to 14) (size 15 to 20)
#    0.000    1.067    5.333    0.000    1.867    4.800 
#    0.000    0.000    0.000    0.000    0.000    0.000 
#    0.000    0.000    0.000    0.000    0.000    0.000 
#
# Total GULP energy -167432.974551 kJ/mol
# GULP energy per Si atom -5581.099152 kJ/mol
# Density = 2.231680 g / cm^3
# Si number density = 22.367707 Si / 1000 Ang^3
#
#
#
# Elastic Constant Matrix: (Units=GPa)
#
#
# Indices 1 2 3 4 5 6 
#
# 1 106.2934 31.3993 22.2234 0.0000 0.0000 0.0000
# 2 31.3993 157.2189 -0.0693 0.0000 0.0000 0.0000
# 3 22.2234 -0.0693 68.8399 0.0000 0.0000 0.0000
# 4 0.0000 0.0000 0.0000 4.8184 0.0000 0.0000
# 5 0.0000 0.0000 0.0000 0.0000 22.0793 0.0000
# 6 0.0000 0.0000 0.0000 0.0000 0.0000 -23.9977
#
#
#
# Elastic Compliance Matrix: (Units=1/GPa)
#
#
# Indices 1 2 3 4 5 6 
#
# 1 0.010771 -0.002153 -0.003479 0.000000 0.000000 0.000000
# 2 -0.002153 0.006791 0.000702 0.000000 0.000000 0.000000
# 3 -0.003479 0.000702 0.015650 0.000000 0.000000 0.000000
# 4 0.000000 0.000000 0.000000 0.207536 0.000000 0.000000
# 5 0.000000 0.000000 0.000000 0.000000 0.045291 0.000000
# 6 0.000000 0.000000 0.000000 0.000000 0.000000 -0.041671
#
#
# Mechanical properties :
#
#
# Convention : Reuss Voigt Hill
#
# Bulk Modulus (GPa) = 42.82330 48.82879 45.82605
# Shear Modulus (GPa) = 19.08295 19.16659 19.12477
#
# Velocity S-wave (km/s) = 2.92404 2.93044 2.92724
# Velocity P-wave (km/s) = 5.53052 5.77299 5.65306
#
# Compressibility (1/GPa) = 0.02335177
#
# Stress axis : x y z
#
# Youngs Moduli (GPa) = 92.83917 147.25789 63.89601
#
# Poissons Ratio (x) = 0.31701 0.22232
# Poissons Ratio (y) = 0.19986 -0.04484
# Poissons Ratio (z) = 0.32303 -0.10335
#
# Static dielectric constant tensor:
#      x y z
#    x 1.572930 0.000000 0.000000 
#    y 0.000000 1.843870 0.000000 
#    z 0.000000 0.000000 2.113110 
# 
# From -- ./inp_files/2008.got.cif
#   From: 2010.05.17/outbox.cif.g08.bks.cpg/sg50_2_cif.got.tgz:2008.got - 2010.06.03 11:33:33.
