data_PCOD9397176
_publ_section_title
;
Structure prediction by ZEFSAII (Michael W. Deem and Ramdas Pophale) SiO2 
 PCOD9397176
Probable space group: P B A N
;
_chemical_formula_sum "Si O2"
_cell_formula_units_Z 52
_cell_length_a 9.863004
_cell_length_b 26.999327
_cell_length_c 8.834722
_cell_angle_alpha 90.000000
_cell_angle_beta 90.000000
_cell_angle_gamma 90.000000
_cell_volume 2352.637614
_symmetry_space_group_name_H-M "P B A N"
_symmetry_group_IT_number 50
_space_group.IT_coordinate_system_code '2'
_symmetry_cell_setting 'orthorhombic'
loop_
_space_group_symop_operation_xyz
x,y,z
1/2-x,1/2-y,z
x,1/2-y,-z
1/2-x,y,-z
-x,-y,-z
1/2+x,1/2+y,-z
-x,1/2+y,z
1/2+x,-y,z
loop_
_atom_site_type_symbol
_atom_site_label
_atom_site_fract_x
_atom_site_fract_y
_atom_site_fract_z
Si Si1 0.863462 0.992636 0.114754
Si Si2 0.523263 0.585513 0.486983
Si Si3 0.750000 0.250000 0.000000
Si Si4 0.929986 0.829113 0.697465
Si Si5 0.750000 0.750000 0.500000
Si Si6 0.500918 0.698812 0.012483
Si Si7 0.622032 0.003371 0.305064
Si Si8 0.666944 0.618255 0.191729
O O1 0.855103 0.933245 0.104986
O O2 0.750000 0.015269 0.000000
O O3 0.719484 0.004158 0.730956
O O4 0.020625 0.004382 0.156579
O O5 0.490511 0.632881 0.589423
O O6 0.590290 0.543725 0.592041
O O7 0.416607 0.554228 0.387714
O O8 0.623566 0.607774 0.362726
O O9 0.643138 0.285516 0.916154
O O10 0.847506 0.786099 0.604022
O O11 0.024116 0.812928 0.836292
O O12 0.816642 0.860513 0.790547
O O13 0.584884 0.750000 0.000000
O O14 0.574732 0.658630 0.110932
#
# Coordination Sequence:
#
# PCOD9397176 Si02
#       8
#     8   8   2   8   2   8   8   8
#     4  11  22  40  66 100 137 177 232 292 342 420
#     4  10  22  39  63  97 138 177 218 284 350 415
#     4   8  24  48  62  82 136 184 220 264 348 404
#     4  12  21  37  65 106 133 165 224 287 347 409
#     4  12  24  32  66 114 136 156 218 300 350 418
#     4  10  23  43  67  93 134 184 218 281 341 413
#     4  10  23  40  67  93 137 189 227 285 362 414
#     4  11  21  38  69 101 133 168 231 281 351 404
#
# _framework density 22.102853
#
# number of rings (size 3 to 8) (size 9 to 14) (size 15 to 20)
#    0.462    0.923    3.077    2.769    2.154    2.462 
#    0.000    4.615    0.000    3.231    0.000    0.000 
#    0.000    0.000    0.000    0.000    0.000    0.000 
#
# Total GULP energy -289639.860464 kJ/mol
# GULP energy per Si atom -5569.997317 kJ/mol
# Density = 2.205255 g / cm^3
# Si number density = 22.102853 Si / 1000 Ang^3
#
#
#
# Elastic Constant Matrix: (Units=GPa)
#
#
# Indices 1 2 3 4 5 6 
#
# 1 85.5226 13.9700 -0.5429 0.0000 0.0000 0.0000
# 2 13.9700 96.3699 21.4183 0.0000 0.0000 0.0000
# 3 -0.5429 21.4183 59.7269 0.0000 0.0000 0.0000
# 4 0.0000 0.0000 0.0000 30.8802 0.0000 0.0000
# 5 0.0000 0.0000 0.0000 0.0000 28.3452 0.0000
# 6 0.0000 0.0000 0.0000 0.0000 0.0000 185.9216
#
#
#
# Elastic Compliance Matrix: (Units=1/GPa)
#
#
# Indices 1 2 3 4 5 6 
#
# 1 0.012011 -0.001918 0.000797 0.000000 0.000000 0.000000
# 2 -0.001918 0.011582 -0.004171 0.000000 0.000000 0.000000
# 3 0.000797 -0.004171 0.018246 0.000000 0.000000 0.000000
# 4 0.000000 0.000000 0.000000 0.032383 0.000000 0.000000
# 5 0.000000 0.000000 0.000000 0.000000 0.035279 0.000000
# 6 0.000000 0.000000 0.000000 0.000000 0.000000 0.005379
#
#
# Mechanical properties :
#
#
# Convention : Reuss Voigt Hill
#
# Bulk Modulus (GPa) = 31.99503 34.59002 33.29252
# Shear Modulus (GPa) = 36.79664 62.81433 49.80548
#
# Velocity S-wave (km/s) = 4.08461 5.33674 4.75210
# Velocity P-wave (km/s) = 6.06237 7.32516 6.72348
#
# Compressibility (1/GPa) = 0.03125486
#
# Stress axis : x y z
#
# Youngs Moduli (GPa) = 83.25540 86.34300 54.80730
#
# Poissons Ratio (x) = 0.16563 -0.04369
# Poissons Ratio (y) = 0.15971 0.22858
# Poissons Ratio (z) = -0.06636 0.36011
#
# Static dielectric constant tensor:
#      x y z
#    x 1.821870 0.000000 0.000000 
#    y 0.000000 1.828720 0.000000 
#    z 0.000000 0.000000 1.991190 
# 
# From -- ./inp_files/11729.got.cif
#   From: 2010.05.17/outbox.cif.g08.bks.cpg/sg50_6_cif.got.tgz:11729.got - 2010.06.03 11:33:33.
