data_PCOD9397399
_publ_section_title
;
Structure prediction by ZEFSAII (Michael W. Deem and Ramdas Pophale) SiO2 
 PCOD9397399
Probable space group: P B A N
;
_chemical_formula_sum "Si O2"
_cell_formula_units_Z 40
_cell_length_a 9.921860
_cell_length_b 13.787889
_cell_length_c 14.746025
_cell_angle_alpha 90.000000
_cell_angle_beta 90.000000
_cell_angle_gamma 90.000000
_cell_volume 2017.278403
_symmetry_space_group_name_H-M "P B A N"
_symmetry_group_IT_number 50
_space_group.IT_coordinate_system_code '2'
_symmetry_cell_setting 'orthorhombic'
loop_
_space_group_symop_operation_xyz
x,y,z
1/2-x,1/2-y,z
x,1/2-y,-z
1/2-x,y,-z
-x,-y,-z
1/2+x,1/2+y,-z
-x,1/2+y,z
1/2+x,-y,z
loop_
_atom_site_type_symbol
_atom_site_label
_atom_site_fract_x
_atom_site_fract_y
_atom_site_fract_z
Si Si1 0.996569 0.491547 0.346635
Si Si2 0.250000 0.750000 0.861536
Si Si3 0.749572 0.046294 0.229410
Si Si4 0.883657 0.944474 0.943613
Si Si5 0.589004 0.858770 0.488061
Si Si6 0.481367 0.750000 0.000000
O O1 0.114804 0.499681 0.271410
O O2 0.041698 0.425262 0.429581
O O3 0.860689 0.445714 0.307679
O O4 0.958080 0.594450 0.393017
O O5 0.212444 0.847396 0.808048
O O6 0.376326 0.784521 0.922961
O O7 0.665731 0.983643 0.154153
O O8 0.930217 0.832959 0.952707
O O9 0.750000 0.958804 0.000000
O O10 0.000000 0.000000 0.000000
O O11 0.537246 0.750000 0.500000
O O12 0.750000 0.857356 0.500000
#
# Coordination Sequence:
#
# PCOD9397399 Si02
#       6
#     8   4   8   8   8   4
#     4  11  24  44  66 102 133 172 220 283 338 402
#     4  11  24  40  68  97 136 180 224 283 338 396
#     4  12  25  42  67 101 137 173 227 288 333 400
#     4  12  24  45  68  95 136 182 225 277 335 398
#     4  10  22  45  70  94 133 179 215 267 343 419
#     4  11  23  44  66  96 130 188 232 266 342 404
#
# _framework density 19.828695
#
# number of rings (size 3 to 8) (size 9 to 14) (size 15 to 20)
#    0.000    0.800    4.000    3.900    2.800    0.000 
#    0.000    1.000    0.000    0.000    0.000    0.000 
#    0.000    0.000    0.000    0.000    0.000    0.000 
#
# Total GULP energy -223126.903403 kJ/mol
# GULP energy per Si atom -5578.172585 kJ/mol
# Density = 1.978356 g / cm^3
# Si number density = 19.828695 Si / 1000 Ang^3
#
#
#
# Elastic Constant Matrix: (Units=GPa)
#
#
# Indices 1 2 3 4 5 6 
#
# 1 111.4454 12.4758 20.5725 0.0000 0.0000 0.0000
# 2 12.4758 95.3782 25.9143 0.0000 0.0000 0.0000
# 3 20.5725 25.9143 66.1042 0.0000 0.0000 0.0000
# 4 0.0000 0.0000 0.0000 20.1862 0.0000 0.0000
# 5 0.0000 0.0000 0.0000 0.0000 41.3149 0.0000
# 6 0.0000 0.0000 0.0000 0.0000 0.0000 27.8011
#
#
#
# Elastic Compliance Matrix: (Units=1/GPa)
#
#
# Indices 1 2 3 4 5 6 
#
# 1 0.009541 -0.000494 -0.002776 0.000000 0.000000 0.000000
# 2 -0.000494 0.011760 -0.004456 0.000000 0.000000 0.000000
# 3 -0.002776 -0.004456 0.017738 0.000000 0.000000 0.000000
# 4 0.000000 0.000000 0.000000 0.049539 0.000000 0.000000
# 5 0.000000 0.000000 0.000000 0.000000 0.024204 0.000000
# 6 0.000000 0.000000 0.000000 0.000000 0.000000 0.035970
#
#
# Mechanical properties :
#
#
# Convention : Reuss Voigt Hill
#
# Bulk Modulus (GPa) = 42.39567 43.42811 42.91189
# Shear Modulus (GPa) = 29.05859 32.12480 30.59169
#
# Velocity S-wave (km/s) = 3.83231 4.02943 3.93211
# Velocity P-wave (km/s) = 6.40387 6.60285 6.50412
#
# Compressibility (1/GPa) = 0.02358731
#
# Stress axis : x y z
#
# Youngs Moduli (GPa) = 104.81461 85.03404 56.37465
#
# Poissons Ratio (x) = 0.04199 0.15647
# Poissons Ratio (y) = 0.05176 0.25123
# Poissons Ratio (z) = 0.29092 0.37895
#
# Static dielectric constant tensor:
#      x y z
#    x 1.683900 0.000000 0.000000 
#    y 0.000000 2.274540 0.000000 
#    z 0.000000 0.000000 1.683360 
# 
# From -- ./inp_files/24743.got.cif
#   From: 2010.05.17/outbox.cif.g08.bks.cpg/sg50_13_cif.got.tgz:24743.got - 2010.06.03 11:33:33.
