data_PCOD9397133
_publ_section_title
;
Structure prediction by ZEFSAII (Michael W. Deem and Ramdas Pophale) SiO2 
 PCOD9397133
Probable space group: P B A N
;
_chemical_formula_sum "Si O2"
_cell_formula_units_Z 32
_cell_length_a 8.355377
_cell_length_b 24.156291
_cell_length_c 6.842084
_cell_angle_alpha 90.000000
_cell_angle_beta 90.000000
_cell_angle_gamma 90.000000
_cell_volume 1380.971465
_symmetry_space_group_name_H-M "P B A N"
_symmetry_group_IT_number 50
_space_group.IT_coordinate_system_code '2'
_symmetry_cell_setting 'orthorhombic'
loop_
_space_group_symop_operation_xyz
x,y,z
1/2-x,1/2-y,z
x,1/2-y,-z
1/2-x,y,-z
-x,-y,-z
1/2+x,1/2+y,-z
-x,1/2+y,z
1/2+x,-y,z
loop_
_atom_site_type_symbol
_atom_site_label
_atom_site_fract_x
_atom_site_fract_y
_atom_site_fract_z
Si Si1 0.077811 0.452874 0.243103
Si Si2 0.125852 0.208685 0.847714
Si Si3 0.943542 0.927570 0.791463
Si Si4 0.431775 0.640850 0.473106
O O1 0.263140 0.439379 0.279025
O O2 0.955714 0.419995 0.379038
O O3 0.048469 0.517974 0.256534
O O4 0.047795 0.429602 0.025198
O O5 0.250000 0.250000 0.742307
O O6 0.026358 0.177683 0.684806
O O7 0.033966 0.250000 0.000000
O O8 0.250000 0.177445 0.000000
O O9 0.997886 0.871056 0.688357
O O10 0.750000 0.341637 0.500000
#
# Coordination Sequence:
#
# PCOD9397133 Si02
#       4
#     8   8   8   8
#     4  10  22  40  60  97 149 193 235 289 354 417
#     4   6  18  41  72  97 136 182 238 300 371 441
#     4  10  22  38  64  95 145 200 237 284 347 436
#     4  12  22  36  70 111 135 174 244 300 356 436
#
# _framework density 23.172094000000001
#
# number of rings (size 3 to 8) (size 9 to 14) (size 15 to 20)
#    1.500    1.000    0.000    3.000    3.500    3.000 
#    0.000    0.000    0.000   18.000    0.000   21.000 
#    0.000    0.000    0.000    0.000    0.000    0.000 
#
# Total GULP energy -178339.969893 kJ/mol
# GULP energy per Si atom -5573.124059 kJ/mol
# Density = 2.311935 g / cm^3
# Si number density = 23.172094 Si / 1000 Ang^3
#
#
#
# Elastic Constant Matrix: (Units=GPa)
#
#
# Indices 1 2 3 4 5 6 
#
# 1 123.0607 55.7526 63.5811 0.0000 0.0000 0.0000
# 2 55.7526 62.3785 44.3356 0.0000 0.0000 0.0000
# 3 63.5811 44.3356 158.0228 0.0000 0.0000 0.0000
# 4 0.0000 0.0000 0.0000 29.2767 0.0000 0.0000
# 5 0.0000 0.0000 0.0000 0.0000 31.4679 0.0000
# 6 0.0000 0.0000 0.0000 0.0000 0.0000 11.4219
#
#
#
# Elastic Compliance Matrix: (Units=1/GPa)
#
#
# Indices 1 2 3 4 5 6 
#
# 1 0.014557 -0.011052 -0.002756 0.000000 0.000000 0.000000
# 2 -0.011052 0.028415 -0.003525 0.000000 0.000000 0.000000
# 3 -0.002756 -0.003525 0.008426 0.000000 0.000000 0.000000
# 4 0.000000 0.000000 0.000000 0.034157 0.000000 0.000000
# 5 0.000000 0.000000 0.000000 0.000000 0.031778 0.000000
# 6 0.000000 0.000000 0.000000 0.000000 0.000000 0.087551
#
#
# Mechanical properties :
#
#
# Convention : Reuss Voigt Hill
#
# Bulk Modulus (GPa) = 59.76917 74.53339 67.15128
# Shear Modulus (GPa) = 20.39744 26.41950 23.40847
#
# Velocity S-wave (km/s) = 2.97013 3.38026 3.18181
# Velocity P-wave (km/s) = 6.13285 6.88984 6.52234
#
# Compressibility (1/GPa) = 0.01673103
#
# Stress axis : x y z
#
# Youngs Moduli (GPa) = 68.69444 35.19296 118.67522
#
# Poissons Ratio (x) = 0.38895 0.32712
# Poissons Ratio (y) = 0.75920 0.41838
# Poissons Ratio (z) = 0.18935 0.12407
#
# Static dielectric constant tensor:
#      x y z
#    x 1.840610 0.000000 0.000000 
#    y 0.000000 1.936470 0.000000 
#    z 0.000000 0.000000 1.947880 
# 
# From -- ./inp_files/11168.got.cif
#   From: 2010.05.17/outbox.cif.g08.bks.cpg/sg50_6_cif.got.tgz:11168.got - 2010.06.03 11:33:33.
