data_PCOD9397392
_publ_section_title
;
Structure prediction by ZEFSAII (Michael W. Deem and Ramdas Pophale) SiO2 
 PCOD9397392
Probable space group: P B A N
;
_chemical_formula_sum "Si O2"
_cell_formula_units_Z 40
_cell_length_a 14.236156
_cell_length_b 8.539721
_cell_length_c 14.937761
_cell_angle_alpha 90.000000
_cell_angle_beta 90.000000
_cell_angle_gamma 90.000000
_cell_volume 1816.025436
_symmetry_space_group_name_H-M "P B A N"
_symmetry_group_IT_number 50
_space_group.IT_coordinate_system_code '2'
_symmetry_cell_setting 'orthorhombic'
loop_
_space_group_symop_operation_xyz
x,y,z
1/2-x,1/2-y,z
x,1/2-y,-z
1/2-x,y,-z
-x,-y,-z
1/2+x,1/2+y,-z
-x,1/2+y,z
1/2+x,-y,z
loop_
_atom_site_type_symbol
_atom_site_label
_atom_site_fract_x
_atom_site_fract_y
_atom_site_fract_z
Si Si1 0.801212 0.084324 0.274053
Si Si2 0.394081 0.044891 0.103839
Si Si3 0.039886 0.750000 0.000000
Si Si4 0.868244 0.580788 0.351846
Si Si5 0.250000 0.250000 0.500000
Si Si6 0.750000 0.750000 0.000000
Si Si7 0.051640 0.741854 0.392906
O O1 0.750000 0.250000 0.247968
O O2 0.862843 0.126714 0.362632
O O3 0.874078 0.013703 0.203196
O O4 0.718054 0.956957 0.285596
O O5 0.479440 0.161042 0.077365
O O6 0.308016 0.140159 0.065023
O O7 0.404521 0.887679 0.046445
O O8 0.815516 0.642867 0.439217
O O9 0.915815 0.413570 0.366141
O O10 0.956419 0.696241 0.340212
O O11 0.036263 0.750000 0.500000
#
# Coordination Sequence:
#
# PCOD9397392 Si02
#       7
#     8   8   4   8   2   2   8
#     4  10  25  43  68 105 139 183 236 294 352 419
#     4  10  22  45  67 104 136 179 227 292 350 427
#     4   9  22  44  76  99 134 182 236 279 360 438
#     4  11  25  42  66  98 130 181 236 286 351 414
#     4  12  24  42  70  96 130 186 246 288 358 424
#     4  10  24  40  68 102 136 182 228 278 358 430
#     4  11  23  45  67  95 137 184 233 293 351 411
#
# _framework density 22.026125
#
# number of rings (size 3 to 8) (size 9 to 14) (size 15 to 20)
#    0.000    1.600    1.000    1.800    5.600    6.800 
#    7.200    0.000    0.000    0.000    0.000    0.000 
#    0.000    0.000    0.000    0.000    0.000    0.000 
#
# Total GULP energy -223309.174871 kJ/mol
# GULP energy per Si atom -5582.729372 kJ/mol
# Density = 2.197599 g / cm^3
# Si number density = 22.026125 Si / 1000 Ang^3
#
#
#
# Elastic Constant Matrix: (Units=GPa)
#
#
# Indices 1 2 3 4 5 6 
#
# 1 110.7810 62.6598 33.5545 0.0000 0.0000 0.0000
# 2 62.6598 126.6621 40.9248 0.0000 0.0000 0.0000
# 3 33.5545 40.9248 77.5291 0.0000 0.0000 0.0000
# 4 0.0000 0.0000 0.0000 24.7192 0.0000 0.0000
# 5 0.0000 0.0000 0.0000 0.0000 146.6276 0.0000
# 6 0.0000 0.0000 0.0000 0.0000 0.0000 118.2015
#
#
#
# Elastic Compliance Matrix: (Units=1/GPa)
#
#
# Indices 1 2 3 4 5 6 
#
# 1 0.012982 -0.005554 -0.002687 0.000000 0.000000 0.000000
# 2 -0.005554 0.011895 -0.003875 0.000000 0.000000 0.000000
# 3 -0.002687 -0.003875 0.016107 0.000000 0.000000 0.000000
# 4 0.000000 0.000000 0.000000 0.040454 0.000000 0.000000
# 5 0.000000 0.000000 0.000000 0.000000 0.006820 0.000000
# 6 0.000000 0.000000 0.000000 0.000000 0.000000 0.008460
#
#
# Mechanical properties :
#
#
# Convention : Reuss Voigt Hill
#
# Bulk Modulus (GPa) = 59.69555 65.47227 62.58391
# Shear Modulus (GPa) = 39.51515 69.76520 54.64018
#
# Velocity S-wave (km/s) = 4.24017 5.63406 4.98606
# Velocity P-wave (km/s) = 7.15074 8.49193 7.85003
#
# Compressibility (1/GPa) = 0.01675167
#
# Stress axis : x y z
#
# Youngs Moduli (GPa) = 77.02874 84.07135 62.08614
#
# Poissons Ratio (x) = 0.46695 0.16681
# Poissons Ratio (y) = 0.42783 0.24058
# Poissons Ratio (z) = 0.20696 0.32577
#
# Static dielectric constant tensor:
#      x y z
#    x 1.850370 0.000000 0.000000 
#    y 0.000000 1.805210 0.000000 
#    z 0.000000 0.000000 1.760970 
# 
# From -- ./inp_files/26342.got.cif
#   From: 2010.05.17/outbox.cif.g08.bks.cpg/sg50_14_cif.got.tgz:26342.got - 2010.06.03 11:33:33.
