data_PCOD9397316
_publ_section_title
;
Structure prediction by ZEFSAII (Michael W. Deem and Ramdas Pophale) SiO2 
 PCOD9397316
Probable space group: P B A N
;
_chemical_formula_sum "Si O2"
_cell_formula_units_Z 34
_cell_length_a 7.634811
_cell_length_b 18.667632
_cell_length_c 8.552612
_cell_angle_alpha 90.000000
_cell_angle_beta 90.000000
_cell_angle_gamma 90.000000
_cell_volume 1218.951123
_symmetry_space_group_name_H-M "P B A N"
_symmetry_group_IT_number 50
_space_group.IT_coordinate_system_code '2'
_symmetry_cell_setting 'orthorhombic'
loop_
_space_group_symop_operation_xyz
x,y,z
1/2-x,1/2-y,z
x,1/2-y,-z
1/2-x,y,-z
-x,-y,-z
1/2+x,1/2+y,-z
-x,1/2+y,z
1/2+x,-y,z
loop_
_atom_site_type_symbol
_atom_site_label
_atom_site_fract_x
_atom_site_fract_y
_atom_site_fract_z
Si Si1 0.973415 0.766139 0.251461
Si Si2 0.438055 0.137423 0.959923
Si Si3 0.250000 0.750000 0.500000
Si Si4 0.637359 0.053919 0.712842
Si Si5 0.472060 0.407404 0.604397
O O1 0.887018 0.700335 0.162532
O O2 0.112977 0.725954 0.364671
O O3 0.903064 0.827939 0.365946
O O4 0.024296 0.818928 0.104667
O O5 0.567164 0.082579 0.876673
O O6 0.250000 0.104214 0.000000
O O7 0.827305 0.084917 0.668106
O O8 0.498419 0.075500 0.577250
O O9 0.636907 0.968216 0.692529
#
# Coordination Sequence:
#
# PCOD9397316 Si02
#       5
#     8   8   2   8   8
#     4  11  23  43  69  98 136 184 242 299 365 436
#     4  11  26  46  67 103 150 191 237 305 372 446
#     4  12  24  42  74 104 128 186 256 312 364 438
#     4  10  23  44  69 104 150 188 252 303 370 439
#     4  10  22  42  71 105 139 196 247 310 359 437
#
# _framework density 27.892831999999999
#
# number of rings (size 3 to 8) (size 9 to 14) (size 15 to 20)
#    0.000    1.412    0.000    5.647    3.294    7.529 
#    0.000    7.059    0.000    0.000    0.000    0.000 
#    0.000    0.000    0.000    0.000    0.000    0.000 
#
# Total GULP energy -189886.691109 kJ/mol
# GULP energy per Si atom -5584.902680 kJ/mol
# Density = 2.782935 g / cm^3
# Si number density = 27.892832 Si / 1000 Ang^3
#
#
#
# Elastic Constant Matrix: (Units=GPa)
#
#
# Indices 1 2 3 4 5 6 
#
# 1 112.7555 25.8676 74.3812 0.0000 0.0000 0.0000
# 2 25.8676 116.8903 14.8803 0.0000 0.0000 0.0000
# 3 74.3812 14.8803 132.1410 0.0000 0.0000 0.0000
# 4 0.0000 0.0000 0.0000 54.5209 0.0000 0.0000
# 5 0.0000 0.0000 0.0000 0.0000 46.4935 0.0000
# 6 0.0000 0.0000 0.0000 0.0000 0.0000 -747.0346
#
#
#
# Elastic Compliance Matrix: (Units=1/GPa)
#
#
# Indices 1 2 3 4 5 6 
#
# 1 0.014656 -0.002225 -0.007999 0.000000 0.000000 0.000000
# 2 -0.002225 0.009017 0.000237 0.000000 0.000000 0.000000
# 3 -0.007999 0.000237 0.012044 0.000000 0.000000 0.000000
# 4 0.000000 0.000000 0.000000 0.018342 0.000000 0.000000
# 5 0.000000 0.000000 0.000000 0.000000 0.021508 0.000000
# 6 0.000000 0.000000 0.000000 0.000000 0.000000 -0.001339
#
#
# Mechanical properties :
#
#
# Convention : Reuss Voigt Hill
#
# Bulk Modulus (GPa) = 63.52221 65.78277 64.65249
# Shear Modulus (GPa) = 50.27640 -112.76019 -31.24190
#
# Velocity S-wave (km/s) = 4.25017 -6.36506 -3.35037
# Velocity P-wave (km/s) = 6.84897 5.51211 2.87446
#
# Compressibility (1/GPa) = 0.01574252
#
# Stress axis : x y z
#
# Youngs Moduli (GPa) = 68.23133 110.89853 83.03114
#
# Poissons Ratio (x) = 0.24675 0.66418
# Poissons Ratio (y) = 0.15182 -0.01968
# Poissons Ratio (z) = 0.54580 -0.02629
#
# Static dielectric constant tensor:
#      x y z
#    x 2.356670 0.000000 0.000000 
#    y 0.000000 2.175080 0.000000 
#    z 0.000000 0.000000 2.248010 
# 
# From -- ./inp_files/9271.got.cif
#   From: 2010.05.17/outbox.cif.g08.bks.cpg/sg50_5_cif.got.tgz:9271.got - 2010.06.03 11:33:33.
