data_PCOD9397473
_publ_section_title
;
Structure prediction by ZEFSAII (Michael W. Deem and Ramdas Pophale) SiO2 
 PCOD9397473
Probable space group: P B A N
;
_chemical_formula_sum "Si O2"
_cell_formula_units_Z 40
_cell_length_a 8.191474
_cell_length_b 14.102342
_cell_length_c 14.734297
_cell_angle_alpha 90.000000
_cell_angle_beta 90.000000
_cell_angle_gamma 90.000000
_cell_volume 1702.090781
_symmetry_space_group_name_H-M "P B A N"
_symmetry_group_IT_number 50
_space_group.IT_coordinate_system_code '2'
_symmetry_cell_setting 'orthorhombic'
loop_
_space_group_symop_operation_xyz
x,y,z
1/2-x,1/2-y,z
x,1/2-y,-z
1/2-x,y,-z
-x,-y,-z
1/2+x,1/2+y,-z
-x,1/2+y,z
1/2+x,-y,z
loop_
_atom_site_type_symbol
_atom_site_label
_atom_site_fract_x
_atom_site_fract_y
_atom_site_fract_z
Si Si1 0.250000 0.002849 0.500000
Si Si2 0.062391 0.783886 0.715932
Si Si3 0.030914 0.485617 0.769378
Si Si4 0.296462 0.456532 0.901407
Si Si5 0.511455 0.881471 0.608190
Si Si6 0.250000 0.250000 0.847452
O O1 0.318320 0.074963 0.424218
O O2 0.383301 0.932601 0.542373
O O3 0.250000 0.750000 0.737768
O O4 0.047017 0.897835 0.714891
O O5 0.012420 0.730274 0.622813
O O6 0.915067 0.762368 0.787196
O O7 0.967286 0.497207 0.872943
O O8 0.217118 0.471165 0.800161
O O9 0.022597 0.577816 0.708305
O O10 0.285937 0.343452 0.904927
O O11 0.250000 0.495354 0.000000
#
# Coordination Sequence:
#
# PCOD9397473 Si02
#       6
#     4   8   8   8   8   4
#     4  10  24  40  72 100 132 180 214 303 355 400
#     4  11  23  41  69  95 130 182 235 270 334 425
#     4  11  23  40  69  95 129 190 220 273 353 406
#     4  11  22  40  65 100 138 176 231 289 340 404
#     4  11  22  46  65  98 139 170 232 282 346 426
#     4  10  23  40  68 101 132 186 232 283 348 408
#
# _framework density 23.500508
#
# number of rings (size 3 to 8) (size 9 to 14) (size 15 to 20)
#    0.000    1.200    2.000    4.500    2.800    0.000 
#    0.000   10.500    0.000    1.200    0.000    0.000 
#    0.000    0.000    0.000    0.000    0.000    0.000 
#
# Total GULP energy -222884.362910 kJ/mol
# GULP energy per Si atom -5572.109073 kJ/mol
# Density = 2.344702 g / cm^3
# Si number density = 23.500508 Si / 1000 Ang^3
#
#
#
# Elastic Constant Matrix: (Units=GPa)
#
#
# Indices 1 2 3 4 5 6 
#
# 1 28.0601 1.8848 4.2149 0.0000 0.0000 0.0000
# 2 1.8848 98.0747 23.4996 0.0000 0.0000 0.0000
# 3 4.2149 23.4996 72.5250 0.0000 0.0000 0.0000
# 4 0.0000 0.0000 0.0000 16.6665 0.0000 0.0000
# 5 0.0000 0.0000 0.0000 0.0000 17.0830 0.0000
# 6 0.0000 0.0000 0.0000 0.0000 0.0000 11.2779
#
#
#
# Elastic Compliance Matrix: (Units=1/GPa)
#
#
# Indices 1 2 3 4 5 6 
#
# 1 0.035955 -0.000206 -0.002023 0.000000 0.000000 0.000000
# 2 -0.000206 0.011056 -0.003570 0.000000 0.000000 0.000000
# 3 -0.002023 -0.003570 0.015063 0.000000 0.000000 0.000000
# 4 0.000000 0.000000 0.000000 0.060001 0.000000 0.000000
# 5 0.000000 0.000000 0.000000 0.000000 0.058538 0.000000
# 6 0.000000 0.000000 0.000000 0.000000 0.000000 0.088669
#
#
# Mechanical properties :
#
#
# Convention : Reuss Voigt Hill
#
# Bulk Modulus (GPa) = 19.81172 28.65096 24.23134
# Shear Modulus (GPa) = 16.79514 20.27618 18.53566
#
# Velocity S-wave (km/s) = 2.67623 2.94053 2.81149
# Velocity P-wave (km/s) = 4.24244 4.87309 4.56866
#
# Compressibility (1/GPa) = 0.05047516
#
# Stress axis : x y z
#
# Youngs Moduli (GPa) = 27.81221 90.45067 66.38891
#
# Poissons Ratio (x) = 0.01866 0.13429
# Poissons Ratio (y) = 0.00574 0.23703
# Poissons Ratio (z) = 0.05626 0.32294
#
# Static dielectric constant tensor:
#      x y z
#    x 2.337120 0.000000 0.000000 
#    y 0.000000 1.966220 0.000000 
#    z 0.000000 0.000000 1.866660 
# 
# From -- ./inp_files/24723.got.cif
#   From: 2010.05.17/outbox.cif.g08.bks.cpg/sg50_13_cif.got.tgz:24723.got - 2010.06.03 11:33:33.
