data_PCOD9397191
_publ_section_title
;
Structure prediction by ZEFSAII (Michael W. Deem and Ramdas Pophale) SiO2 
 PCOD9397191
Probable space group: P B A N
;
_chemical_formula_sum "Si O2"
_cell_formula_units_Z 24
_cell_length_a 8.441440
_cell_length_b 14.859200
_cell_length_c 8.295201
_cell_angle_alpha 90.000000
_cell_angle_beta 90.000000
_cell_angle_gamma 90.000000
_cell_volume 1040.492322
_symmetry_space_group_name_H-M "P B A N"
_symmetry_group_IT_number 50
_space_group.IT_coordinate_system_code '2'
_symmetry_cell_setting 'orthorhombic'
loop_
_space_group_symop_operation_xyz
x,y,z
1/2-x,1/2-y,z
x,1/2-y,-z
1/2-x,y,-z
-x,-y,-z
1/2+x,1/2+y,-z
-x,1/2+y,z
1/2+x,-y,z
loop_
_atom_site_type_symbol
_atom_site_label
_atom_site_fract_x
_atom_site_fract_y
_atom_site_fract_z
Si Si1 0.319653 0.885499 0.175104
Si Si2 0.895550 0.797750 0.674836
Si Si3 0.572103 0.503915 0.676328
O O1 0.433393 0.806628 0.240525
O O2 0.438056 0.972419 0.190811
O O3 0.174599 0.916931 0.286748
O O4 0.250000 0.870455 0.000000
O O5 0.750000 0.750000 0.763018
O O6 0.913972 0.750000 0.500000
O O7 0.836553 0.901103 0.667920
O O8 0.500000 0.500000 0.500000
#
# Coordination Sequence:
#
# PCOD9397191 Si02
#       3
#     8   8   8
#     4  10  22  41  74 109 142 179 246 310 367 419
#     4   9  22  37  68 100 148 188 237 292 368 433
#     4  10  22  39  74 107 133 186 250 297 355 432
#
# _framework density 23.066004
#
# number of rings (size 3 to 8) (size 9 to 14) (size 15 to 20)
#    2.000    0.333    0.000    2.000    9.333    0.000 
#    0.000    3.333    0.000   15.000    0.000    0.000 
#    0.000    0.000    0.000    0.000    0.000    0.000 
#
# Total GULP energy -133633.380557 kJ/mol
# GULP energy per Si atom -5568.057523 kJ/mol
# Density = 2.301351 g / cm^3
# Si number density = 23.066004 Si / 1000 Ang^3
#
#
#
# Elastic Constant Matrix: (Units=GPa)
#
#
# Indices 1 2 3 4 5 6 
#
# 1 145.3849 48.4696 87.8444 0.0000 0.0000 0.0000
# 2 48.4696 94.3745 39.3072 0.0000 0.0000 0.0000
# 3 87.8444 39.3072 134.1522 0.0000 0.0000 0.0000
# 4 0.0000 0.0000 0.0000 15.9544 0.0000 0.0000
# 5 0.0000 0.0000 0.0000 0.0000 43.0649 0.0000
# 6 0.0000 0.0000 0.0000 0.0000 0.0000 59.6338
#
#
#
# Elastic Compliance Matrix: (Units=1/GPa)
#
#
# Indices 1 2 3 4 5 6 
#
# 1 0.012251 -0.003361 -0.007037 0.000000 0.000000 0.000000
# 2 -0.003361 0.012991 -0.001606 0.000000 0.000000 0.000000
# 3 -0.007037 -0.001606 0.012533 0.000000 0.000000 0.000000
# 4 0.000000 0.000000 0.000000 0.062679 0.000000 0.000000
# 5 0.000000 0.000000 0.000000 0.000000 0.023221 0.000000
# 6 0.000000 0.000000 0.000000 0.000000 0.000000 0.016769
#
#
# Mechanical properties :
#
#
# Convention : Reuss Voigt Hill
#
# Bulk Modulus (GPa) = 72.63752 80.57265 76.60509
# Shear Modulus (GPa) = 29.57890 36.94997 33.26443
#
# Velocity S-wave (km/s) = 3.58489 4.00675 3.80167
# Velocity P-wave (km/s) = 6.97816 7.51083 7.24939
#
# Compressibility (1/GPa) = 0.01376699
#
# Stress axis : x y z
#
# Youngs Moduli (GPa) = 81.62746 76.97667 79.79098
#
# Poissons Ratio (x) = 0.25871 0.56151
# Poissons Ratio (y) = 0.27434 0.12812
# Poissons Ratio (z) = 0.57443 0.12360
#
# Static dielectric constant tensor:
#      x y z
#    x 1.977680 0.000000 0.000000 
#    y 0.000000 1.932820 0.000000 
#    z 0.000000 0.000000 1.832620 
# 
# From -- ./inp_files/8465.got.cif
#   From: 2010.05.17/outbox.cif.g08.bks.cpg/sg50_5_cif.got.tgz:8465.got - 2010.06.03 11:33:33.
