data_PCOD9397596
_publ_section_title
;
Structure prediction by ZEFSAII (Michael W. Deem and Ramdas Pophale) SiO2 
 PCOD9397596
Probable space group: P B A N
;
_chemical_formula_sum "Si O2"
_cell_formula_units_Z 50
_cell_length_a 15.277685
_cell_length_b 16.112288
_cell_length_c 9.453815
_cell_angle_alpha 90.000000
_cell_angle_beta 90.000000
_cell_angle_gamma 90.000000
_cell_volume 2327.136548
_symmetry_space_group_name_H-M "P B A N"
_symmetry_group_IT_number 50
_space_group.IT_coordinate_system_code '2'
_symmetry_cell_setting 'orthorhombic'
loop_
_space_group_symop_operation_xyz
x,y,z
1/2-x,1/2-y,z
x,1/2-y,-z
1/2-x,y,-z
-x,-y,-z
1/2+x,1/2+y,-z
-x,1/2+y,z
1/2+x,-y,z
loop_
_atom_site_type_symbol
_atom_site_label
_atom_site_fract_x
_atom_site_fract_y
_atom_site_fract_z
Si Si1 0.065746 0.646481 0.182776
Si Si2 0.835888 0.202543 0.728654
Si Si3 0.046659 0.608215 0.518670
Si Si4 0.375176 0.366887 0.172367
Si Si5 0.656336 0.453052 0.939334
Si Si6 0.144472 0.434995 0.530073
Si Si7 0.250000 0.250000 0.000000
O O1 0.126438 0.725881 0.172276
O O2 0.060776 0.617442 0.348300
O O3 0.968573 0.672708 0.146198
O O4 0.099623 0.579641 0.070924
O O5 0.750000 0.250000 0.670331
O O6 0.905753 0.179402 0.608005
O O7 0.825994 0.119753 0.824028
O O8 0.102130 0.525582 0.558566
O O9 0.942257 0.600953 0.556093
O O10 0.382186 0.462787 0.124020
O O11 0.354231 0.374216 0.336865
O O12 0.305609 0.311657 0.095253
O O13 0.750000 0.477487 0.000000
O O14 0.250000 0.445620 0.500000
#
# Coordination Sequence:
#
# PCOD9397596 Si02
#       7
#     8   8   8   8   8   8   2
#     4  11  26  43  69 103 144 179 232 286 352 419
#     4  12  25  43  69 107 148 181 230 293 357 425
#     4  10  24  44  68 110 141 187 237 289 355 431
#     4  11  26  49  67 101 135 183 242 291 346 426
#     4  12  24  46  68 100 142 188 225 281 359 431
#     4  10  23  45  74 100 140 189 242 290 352 427
#     4  12  28  44  74  96 132 184 244 298 356 412
#
# _framework density 21.485631000000001
#
# number of rings (size 3 to 8) (size 9 to 14) (size 15 to 20)
#    0.000    0.960    4.000    1.440    6.720    1.920 
#    0.000    2.000    0.000    0.000    0.000    0.000 
#    0.000    0.000    0.000    0.000    0.000    0.000 
#
# Total GULP energy -278683.121449 kJ/mol
# GULP energy per Si atom -5573.662429 kJ/mol
# Density = 2.143673 g / cm^3
# Si number density = 21.485631 Si / 1000 Ang^3
#
#
#
# Elastic Constant Matrix: (Units=GPa)
#
#
# Indices 1 2 3 4 5 6 
#
# 1 169.8740 22.1846 31.7544 0.0000 0.0000 0.0000
# 2 22.1846 79.1010 10.5429 0.0000 0.0000 0.0000
# 3 31.7544 10.5429 59.6340 0.0000 0.0000 0.0000
# 4 0.0000 0.0000 0.0000 -30.0294 0.0000 0.0000
# 5 0.0000 0.0000 0.0000 0.0000 22.9521 0.0000
# 6 0.0000 0.0000 0.0000 0.0000 0.0000 -27.1918
#
#
#
# Elastic Compliance Matrix: (Units=1/GPa)
#
#
# Indices 1 2 3 4 5 6 
#
# 1 0.006693 -0.001436 -0.003310 0.000000 0.000000 0.000000
# 2 -0.001436 0.013255 -0.001579 0.000000 0.000000 0.000000
# 3 -0.003310 -0.001579 0.018811 0.000000 0.000000 0.000000
# 4 0.000000 0.000000 0.000000 -0.033301 0.000000 0.000000
# 5 0.000000 0.000000 0.000000 0.000000 0.043569 0.000000
# 6 0.000000 0.000000 0.000000 0.000000 0.000000 -0.036776
#
#
# Mechanical properties :
#
#
# Convention : Reuss Voigt Hill
#
# Bulk Modulus (GPa) = 38.30065 48.61920 43.45992
# Shear Modulus (GPa) = 148.79175 9.42134 79.10654
#
# Velocity S-wave (km/s) = 8.33079 2.09630 6.07440
# Velocity P-wave (km/s) = 10.50719 5.34201 8.33481
#
# Compressibility (1/GPa) = 0.02610922
#
# Stress axis : x y z
#
# Youngs Moduli (GPa) = 149.41010 75.44204 53.16136
#
# Poissons Ratio (x) = 0.10833 0.17597
# Poissons Ratio (y) = 0.21454 0.08393
# Poissons Ratio (z) = 0.49456 0.11911
#
# Static dielectric constant tensor:
#      x y z
#    x 1.879440 0.000000 0.000000 
#    y 0.000000 1.752910 0.000000 
#    z 0.000000 0.000000 1.816290 
# 
# From -- ./inp_files/13011.got.cif
#   From: 2010.05.17/outbox.cif.g08.bks.cpg/sg50_7_cif.got.tgz:13011.got - 2010.06.03 11:33:33.
