data_PCOD9397925
_publ_section_title
;
Structure prediction by ZEFSAII (Michael W. Deem and Ramdas Pophale) SiO2 
 PCOD9397925
Probable space group: P B A N
;
_chemical_formula_sum "Si O2"
_cell_formula_units_Z 32
_cell_length_a 20.407395
_cell_length_b 14.416225
_cell_length_c 5.212073
_cell_angle_alpha 90.000000
_cell_angle_beta 90.000000
_cell_angle_gamma 90.000000
_cell_volume 1533.379357
_symmetry_space_group_name_H-M "P B A N"
_symmetry_group_IT_number 50
_space_group.IT_coordinate_system_code '2'
_symmetry_cell_setting 'orthorhombic'
loop_
_space_group_symop_operation_xyz
x,y,z
1/2-x,1/2-y,z
x,1/2-y,-z
1/2-x,y,-z
-x,-y,-z
1/2+x,1/2+y,-z
-x,1/2+y,z
1/2+x,-y,z
loop_
_atom_site_type_symbol
_atom_site_label
_atom_site_fract_x
_atom_site_fract_y
_atom_site_fract_z
Si Si1 0.146243 0.644132 0.502276
Si Si2 0.677159 0.475062 0.014735
Si Si3 0.553428 0.588324 0.188368
Si Si4 0.499794 0.886100 0.314017
O O1 0.169360 0.750000 0.500000
O O2 0.158335 0.586530 0.764162
O O3 0.068886 0.645645 0.431866
O O4 0.178091 0.591177 0.263377
O O5 0.750000 0.515336 0.000000
O O6 0.621281 0.550620 0.074084
O O7 0.554476 0.632244 0.470751
O O8 0.510521 0.495917 0.252279
O O9 0.518110 0.647426 0.969251
#
# Coordination Sequence:
#
# PCOD9397925 Si02
#       4
#     8   8   8   8
#     4  11  22  33  46  66  94 127 158 185 216 264
#     4  11  22  33  46  66  94 127 158 185 216 264
#     4   9  16  29  48  66  84 110 147 193 237 263
#     4   9  16  29  48  66  84 110 147 193 237 263
#
# _framework density 20.868939000000001
#
# number of rings (size 3 to 8) (size 9 to 14) (size 15 to 20)
#    0.000    2.000    0.000    9.000    0.000    3.000 
#    0.000    0.000    0.000    0.000    0.000    0.000 
#    0.000    6.000    0.000    0.000    0.000    0.000 
#
# Total GULP energy -178429.046655 kJ/mol
# GULP energy per Si atom -5575.907708 kJ/mol
# Density = 2.082144 g / cm^3
# Si number density = 20.868939 Si / 1000 Ang^3
#
#
#
# Elastic Constant Matrix: (Units=GPa)
#
#
# Indices 1 2 3 4 5 6 
#
# 1 124.2429 14.8102 52.4630 0.0000 0.0000 0.0000
# 2 14.8102 44.1328 15.8749 0.0000 0.0000 0.0000
# 3 52.4630 15.8749 166.9060 0.0000 0.0000 0.0000
# 4 0.0000 0.0000 0.0000 -3.6668 0.0000 0.0000
# 5 0.0000 0.0000 0.0000 0.0000 13.1878 0.0000
# 6 0.0000 0.0000 0.0000 0.0000 0.0000 -6.2259
#
#
#
# Elastic Compliance Matrix: (Units=1/GPa)
#
#
# Indices 1 2 3 4 5 6 
#
# 1 0.009480 -0.002184 -0.002772 0.000000 0.000000 0.000000
# 2 -0.002184 0.023965 -0.001593 0.000000 0.000000 0.000000
# 3 -0.002772 -0.001593 0.007014 0.000000 0.000000 0.000000
# 4 0.000000 0.000000 0.000000 -0.272717 0.000000 0.000000
# 5 0.000000 0.000000 0.000000 0.000000 0.075828 0.000000
# 6 0.000000 0.000000 0.000000 0.000000 0.000000 -0.160620
#
#
# Mechanical properties :
#
#
# Convention : Reuss Voigt Hill
#
# Bulk Modulus (GPa) = 36.54862 55.73086 46.13974
# Shear Modulus (GPa) = -16.95876 17.46792 0.25458
#
# Velocity S-wave (km/s) = -2.85376 2.89629 0.34965
# Velocity P-wave (km/s) = 2.58705 6.16018 4.72444
#
# Compressibility (1/GPa) = 0.02736081
#
# Stress axis : x y z
#
# Youngs Moduli (GPa) = 105.48978 41.72787 142.56802
#
# Poissons Ratio (x) = 0.09114 0.39519
# Poissons Ratio (y) = 0.23040 0.22709
# Poissons Ratio (z) = 0.29241 0.06647
#
# Static dielectric constant tensor:
#      x y z
#    x 1.801970 0.000000 0.000000 
#    y 0.000000 1.805370 0.000000 
#    z 0.000000 0.000000 1.832870 
# 
# From -- ./inp_files/5080.got.cif
#   From: 2010.05.17/outbox.cif.g08.bks.cpg/sg50_3_cif.got.tgz:5080.got - 2010.06.03 11:33:33.
