data_PCOD9397895
_publ_section_title
;
Structure prediction by ZEFSAII (Michael W. Deem and Ramdas Pophale) SiO2 
 PCOD9397895
Probable space group: P B A N
;
_chemical_formula_sum "Si O2"
_cell_formula_units_Z 40
_cell_length_a 13.507408
_cell_length_b 13.507400
_cell_length_c 10.778998
_cell_angle_alpha 90.000000
_cell_angle_beta 90.000000
_cell_angle_gamma 90.000000
_cell_volume 1966.627784
_symmetry_space_group_name_H-M "P B A N"
_symmetry_group_IT_number 50
_space_group.IT_coordinate_system_code '2'
_symmetry_cell_setting 'orthorhombic'
loop_
_space_group_symop_operation_xyz
x,y,z
1/2-x,1/2-y,z
x,1/2-y,-z
1/2-x,y,-z
-x,-y,-z
1/2+x,1/2+y,-z
-x,1/2+y,z
1/2+x,-y,z
loop_
_atom_site_type_symbol
_atom_site_label
_atom_site_fract_x
_atom_site_fract_y
_atom_site_fract_z
Si Si1 0.469300 0.128872 0.242520
Si Si2 0.007965 0.676983 0.118640
Si Si3 0.131965 0.131963 0.500000
Si Si4 0.176983 0.992046 0.881360
Si Si5 0.371131 0.030707 0.757482
O O1 0.495751 0.243386 0.229096
O O2 0.422656 0.099897 0.374728
O O3 0.392599 0.088136 0.139018
O O4 0.568677 0.068674 0.222142
O O5 0.102601 0.602595 0.122335
O O6 0.911871 0.607406 0.139016
O O7 0.012382 0.750000 0.000000
O O8 0.116665 0.250000 0.500000
O O9 0.250000 0.116648 0.500000
O O10 0.099892 0.077350 0.374726
O O11 0.256615 0.004263 0.770904
O O12 0.250000 0.987632 0.000000
#
# Coordination Sequence:
#
# PCOD9397895 Si02
#       5
#     8   8   8   8   8
#     4  11  23  41  66  95 129 170 217 268 324 387
#     4  11  24  42  65  96 132 171 214 264 321 386
#     4  11  21  40  66  92 127 167 216 272 328 372
#     4  11  24  42  65  96 132 171 214 264 321 386
#     4  11  23  41  66  95 129 170 217 268 324 387
#
# _framework density 20.339386000000001
#
# number of rings (size 3 to 8) (size 9 to 14) (size 15 to 20)
#    0.000    1.000    4.000    3.000    0.000    6.800 
#    0.000    2.000    0.000    0.000    0.000    0.000 
#    0.000    0.000    0.000    0.000    0.000    0.000 
#
# Total GULP energy -223025.794252 kJ/mol
# GULP energy per Si atom -5575.644856 kJ/mol
# Density = 2.029309 g / cm^3
# Si number density = 20.339386 Si / 1000 Ang^3
#
#
#
# Elastic Constant Matrix: (Units=GPa)
#
#
# Indices 1 2 3 4 5 6 
#
# 1 102.7382 55.4194 18.9907 0.0000 0.0000 0.0000
# 2 55.4194 102.7285 18.9976 0.0000 0.0000 0.0000
# 3 18.9907 18.9976 111.3434 0.0000 0.0000 0.0000
# 4 0.0000 0.0000 0.0000 22.4985 0.0000 0.0000
# 5 0.0000 0.0000 0.0000 0.0000 22.4957 0.0000
# 6 0.0000 0.0000 0.0000 0.0000 0.0000 17.5841
#
#
#
# Elastic Compliance Matrix: (Units=1/GPa)
#
#
# Indices 1 2 3 4 5 6 
#
# 1 0.013863 -0.007271 -0.001124 0.000000 0.000000 0.000000
# 2 -0.007271 0.013865 -0.001126 0.000000 0.000000 0.000000
# 3 -0.001124 -0.001126 0.009365 0.000000 0.000000 0.000000
# 4 0.000000 0.000000 0.000000 0.044447 0.000000 0.000000
# 5 0.000000 0.000000 0.000000 0.000000 0.044453 0.000000
# 6 0.000000 0.000000 0.000000 0.000000 0.000000 0.056870
#
#
# Mechanical properties :
#
#
# Convention : Reuss Voigt Hill
#
# Bulk Modulus (GPa) = 55.39443 55.95839 55.67641
# Shear Modulus (GPa) = 24.04746 27.40915 25.72831
#
# Velocity S-wave (km/s) = 3.44220 3.67494 3.56047
# Velocity P-wave (km/s) = 6.56449 6.75122 6.65851
#
# Compressibility (1/GPa) = 0.01805236
#
# Stress axis : x y z
#
# Youngs Moduli (GPa) = 72.13208 72.12331 106.78104
#
# Poissons Ratio (x) = 0.52442 0.12001
# Poissons Ratio (y) = 0.52448 0.12019
# Poissons Ratio (z) = 0.08107 0.08118
#
# Static dielectric constant tensor:
#      x y z
#    x 1.698540 0.000000 0.000000 
#    y 0.000000 1.698520 0.000000 
#    z 0.000000 0.000000 1.845270 
# 
# From -- ./inp_files/20915.got.cif
#   From: 2010.05.17/outbox.cif.g08.bks.cpg/sg50_11_cif.got.tgz:20915.got - 2010.06.03 11:33:33.
