data_PCOD9397912
_publ_section_title
;
Structure prediction by ZEFSAII (Michael W. Deem and Ramdas Pophale) SiO2 
 PCOD9397912
Probable space group: P B A N
;
_chemical_formula_sum "Si O2"
_cell_formula_units_Z 58
_cell_length_a 29.522898
_cell_length_b 11.109859
_cell_length_c 8.045139
_cell_angle_alpha 90.000000
_cell_angle_beta 90.000000
_cell_angle_gamma 90.000000
_cell_volume 2638.767249
_symmetry_space_group_name_H-M "P B A N"
_symmetry_group_IT_number 50
_space_group.IT_coordinate_system_code '2'
_symmetry_cell_setting 'orthorhombic'
loop_
_space_group_symop_operation_xyz
x,y,z
1/2-x,1/2-y,z
x,1/2-y,-z
1/2-x,y,-z
-x,-y,-z
1/2+x,1/2+y,-z
-x,1/2+y,z
1/2+x,-y,z
loop_
_atom_site_type_symbol
_atom_site_label
_atom_site_fract_x
_atom_site_fract_y
_atom_site_fract_z
Si Si1 0.389874 0.203560 0.820697
Si Si2 0.250000 0.750000 0.500000
Si Si3 0.059213 0.424335 0.268327
Si Si4 0.972110 0.290860 0.318014
Si Si5 0.098991 0.524443 0.603178
Si Si6 0.199708 0.293658 0.309533
Si Si7 0.676559 0.428831 0.361167
Si Si8 0.092621 0.855153 0.866380
O O1 0.412685 0.302723 0.703160
O O2 0.401942 0.075255 0.745128
O O3 0.336547 0.226102 0.803989
O O4 0.405823 0.250000 0.000000
O O5 0.282408 0.661869 0.606387
O O6 0.067903 0.491437 0.443363
O O7 0.081711 0.501514 0.119260
O O8 0.008001 0.382789 0.243626
O O9 0.987932 0.250000 0.500000
O O10 0.923349 0.353895 0.334431
O O11 0.957381 0.179346 0.207474
O O12 0.149091 0.544933 0.532109
O O13 0.250000 0.250000 0.268280
O O14 0.191180 0.250000 0.500000
O O15 0.192502 0.438520 0.300146
O O16 0.638216 0.367177 0.244999
O O17 0.100749 0.750000 0.000000
#
# Coordination Sequence:
#
# PCOD9397912 Si02
#       8
#     8   2   8   8   8   8   8   8
#     4  12  25  41  65  96 133 172 217 272 343 406
#     4  12  24  40  68 116 116 160 234 290 308 400
#     4  11  24  43  65  94 132 178 228 280 327 390
#     4  12  23  39  69 100 127 176 239 280 319 393
#     4  11  22  42  67  95 130 178 218 274 332 405
#     4  11  21  41  70  99 125 167 213 276 340 406
#     4  11  22  43  71  94 135 170 223 276 338 401
#     4  11  26  45  65  93 140 183 216 274 349 412
#
# _framework density 21.979958
#
# number of rings (size 3 to 8) (size 9 to 14) (size 15 to 20)
#    0.000    0.690    6.897    3.310    3.862    1.379 
#    0.000    0.345    3.034    0.000    0.000    0.000 
#    0.000    0.000    0.000    0.000    0.000    0.000 
#
# Total GULP energy -323510.347393 kJ/mol
# GULP energy per Si atom -5577.764610 kJ/mol
# Density = 2.192993 g / cm^3
# Si number density = 21.979958 Si / 1000 Ang^3
#
#
#
# Elastic Constant Matrix: (Units=GPa)
#
#
# Indices 1 2 3 4 5 6 
#
# 1 101.5941 33.9725 9.4547 0.0000 0.0000 0.0000
# 2 33.9725 101.6417 33.0156 0.0000 0.0000 0.0000
# 3 9.4547 33.0156 66.9253 0.0000 0.0000 0.0000
# 4 0.0000 0.0000 0.0000 35.6013 0.0000 0.0000
# 5 0.0000 0.0000 0.0000 0.0000 20.3300 0.0000
# 6 0.0000 0.0000 0.0000 0.0000 0.0000 53.6349
#
#
#
# Elastic Compliance Matrix: (Units=1/GPa)
#
#
# Indices 1 2 3 4 5 6 
#
# 1 0.011087 -0.003807 0.000312 0.000000 0.000000 0.000000
# 2 -0.003807 0.013023 -0.005887 0.000000 0.000000 0.000000
# 3 0.000312 -0.005887 0.017802 0.000000 0.000000 0.000000
# 4 0.000000 0.000000 0.000000 0.028089 0.000000 0.000000
# 5 0.000000 0.000000 0.000000 0.000000 0.049188 0.000000
# 6 0.000000 0.000000 0.000000 0.000000 0.000000 0.018645
#
#
# Mechanical properties :
#
#
# Convention : Reuss Voigt Hill
#
# Bulk Modulus (GPa) = 43.19971 47.00519 45.10245
# Shear Modulus (GPa) = 30.42952 34.82778 32.62865
#
# Velocity S-wave (km/s) = 3.72482 3.98493 3.85707
# Velocity P-wave (km/s) = 6.18028 6.52723 6.35612
#
# Compressibility (1/GPa) = 0.02314830
#
# Stress axis : x y z
#
# Youngs Moduli (GPa) = 90.19471 76.78673 56.17332
#
# Poissons Ratio (x) = 0.29233 -0.01751
# Poissons Ratio (y) = 0.34337 0.33068
# Poissons Ratio (z) = -0.02812 0.45202
#
# Static dielectric constant tensor:
#      x y z
#    x 1.854730 0.000000 0.000000 
#    y 0.000000 1.728490 0.000000 
#    z 0.000000 0.000000 1.901860 
# 
# From -- ./inp_files/17079.got.cif
#   From: 2010.05.17/outbox.cif.g08.bks.cpg/sg50_9_cif.got.tgz:17079.got - 2010.06.03 11:33:33.
