data_PCOD9397060
_publ_section_title
;
Structure prediction by ZEFSAII (Michael W. Deem and Ramdas Pophale) SiO2 
 PCOD9397060
Probable space group: P B A N
;
_chemical_formula_sum "Si O2"
_cell_formula_units_Z 40
_cell_length_a 9.517716
_cell_length_b 17.042131
_cell_length_c 11.787010
_cell_angle_alpha 90.000000
_cell_angle_beta 90.000000
_cell_angle_gamma 90.000000
_cell_volume 1911.878516
_symmetry_space_group_name_H-M "P B A N"
_symmetry_group_IT_number 50
_space_group.IT_coordinate_system_code '2'
_symmetry_cell_setting 'orthorhombic'
loop_
_space_group_symop_operation_xyz
x,y,z
1/2-x,1/2-y,z
x,1/2-y,-z
1/2-x,y,-z
-x,-y,-z
1/2+x,1/2+y,-z
-x,1/2+y,z
1/2+x,-y,z
loop_
_atom_site_type_symbol
_atom_site_label
_atom_site_fract_x
_atom_site_fract_y
_atom_site_fract_z
Si Si1 0.089025 0.754311 0.788174
Si Si2 0.728637 0.944116 0.311299
Si Si3 0.175032 0.324424 0.879218
Si Si4 0.548130 0.405246 0.662848
Si Si5 0.978175 0.829277 0.560705
O O1 0.250000 0.750000 0.822861
O O2 0.046106 0.665950 0.752788
O O3 0.986343 0.796906 0.877184
O O4 0.066477 0.803494 0.671121
O O5 0.699451 0.902335 0.191208
O O6 0.643183 0.887737 0.397523
O O7 0.893472 0.943488 0.335565
O O8 0.663751 0.029987 0.312876
O O9 0.250000 0.250000 0.817136
O O10 0.250000 0.331189 0.000000
O O11 0.568135 0.370417 0.537148
O O12 0.922719 0.750000 0.500000
#
# Coordination Sequence:
#
# PCOD9397060 Si02
#       5
#     8   8   8   8   8
#     4  10  22  41  68  94 129 167 221 275 320 381
#     4  11  23  39  61  93 132 177 217 273 331 391
#     4  10  21  44  74  91 117 167 224 276 330 389
#     4  11  23  38  60  93 137 174 217 262 334 387
#     4   9  21  37  61  92 131 180 227 263 310 387
#
# _framework density 20.921831000000001
#
# number of rings (size 3 to 8) (size 9 to 14) (size 15 to 20)
#    0.000    1.800    2.000    1.200    5.600    6.000 
#    0.000    3.000    0.000    0.000    0.000    0.000 
#    0.000    0.000    0.000    0.000    0.000    0.000 
#
# Total GULP energy -223600.852239 kJ/mol
# GULP energy per Si atom -5590.021306 kJ/mol
# Density = 2.087421 g / cm^3
# Si number density = 20.921831 Si / 1000 Ang^3
#
#
#
# Elastic Constant Matrix: (Units=GPa)
#
#
# Indices 1 2 3 4 5 6 
#
# 1 125.9830 30.0834 29.2620 0.0000 0.0000 0.0000
# 2 30.0834 109.9946 43.1153 0.0000 0.0000 0.0000
# 3 29.2620 43.1153 103.0213 0.0000 0.0000 0.0000
# 4 0.0000 0.0000 0.0000 12.8252 0.0000 0.0000
# 5 0.0000 0.0000 0.0000 0.0000 16.7614 0.0000
# 6 0.0000 0.0000 0.0000 0.0000 0.0000 29.5655
#
#
#
# Elastic Compliance Matrix: (Units=1/GPa)
#
#
# Indices 1 2 3 4 5 6 
#
# 1 0.008756 -0.001698 -0.001776 0.000000 0.000000 0.000000
# 2 -0.001698 0.011205 -0.004207 0.000000 0.000000 0.000000
# 3 -0.001776 -0.004207 0.011972 0.000000 0.000000 0.000000
# 4 0.000000 0.000000 0.000000 0.077972 0.000000 0.000000
# 5 0.000000 0.000000 0.000000 0.000000 0.059661 0.000000
# 6 0.000000 0.000000 0.000000 0.000000 0.000000 0.033823
#
#
# Mechanical properties :
#
#
# Convention : Reuss Voigt Hill
#
# Bulk Modulus (GPa) = 60.35215 60.43557 60.39386
# Shear Modulus (GPa) = 22.29412 27.59962 24.94687
#
# Velocity S-wave (km/s) = 3.26788 3.63599 3.45684
# Velocity P-wave (km/s) = 6.56870 6.82468 6.69792
#
# Compressibility (1/GPa) = 0.01656942
#
# Stress axis : x y z
#
# Youngs Moduli (GPa) = 114.21138 89.24668 83.52931
#
# Poissons Ratio (x) = 0.15158 0.14836
# Poissons Ratio (y) = 0.19398 0.35140
# Poissons Ratio (z) = 0.20285 0.37545
#
# Static dielectric constant tensor:
#      x y z
#    x 1.765830 0.000000 0.000000 
#    y 0.000000 1.744090 0.000000 
#    z 0.000000 0.000000 1.770330 
# 
# From -- ./inp_files/18730.got.cif
#   From: 2010.05.17/outbox.cif.g08.bks.cpg/sg50_10_cif.got.tgz:18730.got - 2010.06.03 11:33:33.
