data_PCOD9397728
_publ_section_title
;
Structure prediction by ZEFSAII (Michael W. Deem and Ramdas Pophale) SiO2 
 PCOD9397728
Probable space group: P B A N
;
_chemical_formula_sum "Si O2"
_cell_formula_units_Z 26
_cell_length_a 7.903565
_cell_length_b 28.469160
_cell_length_c 4.894206
_cell_angle_alpha 90.000000
_cell_angle_beta 90.000000
_cell_angle_gamma 90.000000
_cell_volume 1101.234802
_symmetry_space_group_name_H-M "P B A N"
_symmetry_group_IT_number 50
_space_group.IT_coordinate_system_code '2'
_symmetry_cell_setting 'orthorhombic'
loop_
_space_group_symop_operation_xyz
x,y,z
1/2-x,1/2-y,z
x,1/2-y,-z
1/2-x,y,-z
-x,-y,-z
1/2+x,1/2+y,-z
-x,1/2+y,z
1/2+x,-y,z
loop_
_atom_site_type_symbol
_atom_site_label
_atom_site_fract_x
_atom_site_fract_y
_atom_site_fract_z
Si Si1 0.483744 0.250000 0.500000
Si Si2 0.250000 0.057046 0.000000
Si Si3 0.250000 0.250000 0.000000
Si Si4 0.594759 0.410524 0.809487
Si Si5 0.750000 0.325131 0.500000
Si Si6 0.750000 0.013841 0.500000
O O1 0.378128 0.269897 0.762169
O O2 0.605379 0.290890 0.384075
O O3 0.418496 0.087848 0.034086
O O4 0.251625 0.021473 0.250299
O O5 0.651101 0.360150 0.700552
O O6 0.598753 0.448982 0.564780
O O7 0.750000 0.426197 0.000000
#
# Coordination Sequence:
#
# PCOD9397728 Si02
#       6
#     4   4   2   8   4   4
#     4  10  24  50  78 102 146 184 232 292 368 432
#     4  12  26  43  70  98 143 197 240 302 356 429
#     4  10  24  46  76 118 124 180 248 286 342 452
#     4  11  26  44  68 106 142 188 245 301 358 425
#     4  10  26  45  72 104 146 192 228 299 366 436
#     4  11  24  45  68  99 142 191 252 297 364 419
#
# _framework density 23.609862
#
# number of rings (size 3 to 8) (size 9 to 14) (size 15 to 20)
#    0.000    1.231    1.538    1.846   12.923    2.462 
#    5.538    0.000    0.000    0.000    4.000    0.000 
#    0.000    0.000    0.000    0.000    0.000    0.000 
#
# Total GULP energy -144906.543107 kJ/mol
# GULP energy per Si atom -5573.328581 kJ/mol
# Density = 2.355612 g / cm^3
# Si number density = 23.609862 Si / 1000 Ang^3
#
#
#
# Elastic Constant Matrix: (Units=GPa)
#
#
# Indices 1 2 3 4 5 6 
#
# 1 194.8187 63.0430 51.7749 0.0000 0.0000 0.0000
# 2 63.0430 118.5328 35.5399 0.0000 0.0000 0.0000
# 3 51.7749 35.5399 141.8049 0.0000 0.0000 0.0000
# 4 0.0000 0.0000 0.0000 5.2879 0.0000 0.0000
# 5 0.0000 0.0000 0.0000 0.0000 38.8919 0.0000
# 6 0.0000 0.0000 0.0000 0.0000 0.0000 4.4430
#
#
#
# Elastic Compliance Matrix: (Units=1/GPa)
#
#
# Indices 1 2 3 4 5 6 
#
# 1 0.006534 -0.002984 -0.001638 0.000000 0.000000 0.000000
# 2 -0.002984 0.010485 -0.001538 0.000000 0.000000 0.000000
# 3 -0.001638 -0.001538 0.008035 0.000000 0.000000 0.000000
# 4 0.000000 0.000000 0.000000 0.189112 0.000000 0.000000
# 5 0.000000 0.000000 0.000000 0.000000 0.025712 0.000000
# 6 0.000000 0.000000 0.000000 0.000000 0.000000 0.225075
#
#
# Mechanical properties :
#
#
# Convention : Reuss Voigt Hill
#
# Bulk Modulus (GPa) = 78.52966 83.98577 81.25771
# Shear Modulus (GPa) = 10.38384 30.04447 20.21416
#
# Velocity S-wave (km/s) = 2.09944 3.57114 2.92922
# Velocity P-wave (km/s) = 6.26182 7.25628 6.77732
#
# Compressibility (1/GPa) = 0.01273404
#
# Stress axis : x y z
#
# Youngs Moduli (GPa) = 153.04905 95.37612 124.44912
#
# Poissons Ratio (x) = 0.28461 0.20381
# Poissons Ratio (y) = 0.45671 0.19143
# Poissons Ratio (z) = 0.25065 0.14671
#
# Static dielectric constant tensor:
#      x y z
#    x 2.021040 0.000000 0.000000 
#    y 0.000000 1.880760 0.000000 
#    z 0.000000 0.000000 2.025980 
# 
# From -- ./inp_files/976.got.cif
#   From: 2010.05.17/outbox.cif.g08.bks.cpg/sg50_1_cif.got.tgz:976.got - 2010.06.03 11:33:33.
