data_PCOD9397253
_publ_section_title
;
Structure prediction by ZEFSAII (Michael W. Deem and Ramdas Pophale) SiO2 
 PCOD9397253
Probable space group: P B A N
;
_chemical_formula_sum "Si O2"
_cell_formula_units_Z 64
_cell_length_a 7.497039
_cell_length_b 26.420713
_cell_length_c 15.840756
_cell_angle_alpha 90.000000
_cell_angle_beta 90.000000
_cell_angle_gamma 90.000000
_cell_volume 3137.691260
_symmetry_space_group_name_H-M "P B A N"
_symmetry_group_IT_number 50
_space_group.IT_coordinate_system_code '2'
_symmetry_cell_setting 'orthorhombic'
loop_
_space_group_symop_operation_xyz
x,y,z
1/2-x,1/2-y,z
x,1/2-y,-z
1/2-x,y,-z
-x,-y,-z
1/2+x,1/2+y,-z
-x,1/2+y,z
1/2+x,-y,z
loop_
_atom_site_type_symbol
_atom_site_label
_atom_site_fract_x
_atom_site_fract_y
_atom_site_fract_z
Si Si1 0.368158 0.346805 0.420156
Si Si2 0.964677 0.618567 0.861521
Si Si3 0.811824 0.697746 0.096162
Si Si4 0.130412 0.643129 0.143746
Si Si5 0.041936 0.941591 0.980369
Si Si6 0.197190 0.808999 0.677467
Si Si7 0.537669 0.880848 0.674076
Si Si8 0.040533 0.558877 0.511214
O O1 0.250000 0.327458 0.500000
O O2 0.541622 0.314763 0.392773
O O3 0.273540 0.354343 0.654974
O O4 0.439826 0.402341 0.448707
O O5 0.159383 0.643282 0.875991
O O6 0.800740 0.656043 0.855835
O O7 0.979054 0.595920 0.767812
O O8 0.934310 0.585906 0.944956
O O9 0.750000 0.750000 0.134924
O O10 0.019437 0.686367 0.097000
O O11 0.750000 0.696507 0.000000
O O12 0.039523 0.590433 0.108269
O O13 0.120055 0.660132 0.241230
O O14 0.250000 0.937108 0.000000
O O15 0.000000 0.000000 0.000000
O O16 0.250000 0.750000 0.693097
O O17 0.379402 0.839976 0.658794
O O18 0.514848 0.923872 0.604428
O O19 0.250000 0.567209 0.500000
O O20 0.000000 0.500000 0.500000
#
# Coordination Sequence:
#
# PCOD9397253 Si02
#       8
#     8   8   8   8   8   8   8   8
#     4  10  22  43  67  97 137 173 220 284 336 418
#     4  10  22  42  62  90 136 166 218 282 321 406
#     4  11  23  36  62  95 126 175 225 270 328 387
#     4  10  23  42  62  91 132 178 224 276 334 405
#     4  10  22  41  64  90 127 178 223 274 349 396
#     4  11  24  43  69  99 139 186 222 285 347 407
#     4  10  22  42  65  98 133 168 224 279 340 407
#     4  11  21  42  70  96 131 176 221 277 346 413
#
# _framework density 20.397162000000002
#
# number of rings (size 3 to 8) (size 9 to 14) (size 15 to 20)
#    0.000    1.625    2.500    1.875    5.250    0.500 
#    2.250    9.375    0.000    0.000    0.000    0.000 
#    0.000    0.000    0.000    0.000    0.000    0.000 
#
# Total GULP energy -356480.192522 kJ/mol
# GULP energy per Si atom -5570.003008 kJ/mol
# Density = 2.035074 g / cm^3
# Si number density = 20.397162 Si / 1000 Ang^3
#
#
#
# Elastic Constant Matrix: (Units=GPa)
#
#
# Indices 1 2 3 4 5 6 
#
# 1 103.4316 24.3833 42.9310 0.0000 0.0000 0.0000
# 2 24.3833 110.9744 51.4175 0.0000 0.0000 0.0000
# 3 42.9310 51.4175 92.5768 0.0000 0.0000 0.0000
# 4 0.0000 0.0000 0.0000 13.0824 0.0000 0.0000
# 5 0.0000 0.0000 0.0000 0.0000 32.9648 0.0000
# 6 0.0000 0.0000 0.0000 0.0000 0.0000 16.3966
#
#
#
# Elastic Compliance Matrix: (Units=1/GPa)
#
#
# Indices 1 2 3 4 5 6 
#
# 1 0.011973 -0.000078 -0.005509 0.000000 0.000000 0.000000
# 2 -0.000078 0.012134 -0.006703 0.000000 0.000000 0.000000
# 3 -0.005509 -0.006703 0.017079 0.000000 0.000000 0.000000
# 4 0.000000 0.000000 0.000000 0.076438 0.000000 0.000000
# 5 0.000000 0.000000 0.000000 0.000000 0.030335 0.000000
# 6 0.000000 0.000000 0.000000 0.000000 0.000000 0.060988
#
#
# Mechanical properties :
#
#
# Convention : Reuss Voigt Hill
#
# Bulk Modulus (GPa) = 60.21834 60.49404 60.35619
# Shear Modulus (GPa) = 20.91488 25.03883 22.97686
#
# Velocity S-wave (km/s) = 3.20563 3.50746 3.35994
# Velocity P-wave (km/s) = 6.57939 6.79158 6.68633
#
# Compressibility (1/GPa) = 0.01660624
#
# Stress axis : x y z
#
# Youngs Moduli (GPa) = 83.51953 82.41335 58.55025
#
# Poissons Ratio (x) = 0.00646 0.32255
# Poissons Ratio (y) = 0.00654 0.39246
# Poissons Ratio (z) = 0.46010 0.55241
#
# Static dielectric constant tensor:
#      x y z
#    x 1.755430 0.000000 0.000000 
#    y 0.000000 2.228090 0.000000 
#    z 0.000000 0.000000 1.835740 
# 
# From -- ./inp_files/25418.got.cif
#   From: 2010.05.17/outbox.cif.g08.bks.cpg/sg50_13_cif.got.tgz:25418.got - 2010.06.03 11:33:33.
