data_PCOD9397564
_publ_section_title
;
Structure prediction by ZEFSAII (Michael W. Deem and Ramdas Pophale) SiO2 
 PCOD9397564
Probable space group: P B A N
;
_chemical_formula_sum "Si O2"
_cell_formula_units_Z 26
_cell_length_a 9.494848
_cell_length_b 22.765586
_cell_length_c 5.061288
_cell_angle_alpha 90.000000
_cell_angle_beta 90.000000
_cell_angle_gamma 90.000000
_cell_volume 1094.026649
_symmetry_space_group_name_H-M "P B A N"
_symmetry_group_IT_number 50
_space_group.IT_coordinate_system_code '2'
_symmetry_cell_setting 'orthorhombic'
loop_
_space_group_symop_operation_xyz
x,y,z
1/2-x,1/2-y,z
x,1/2-y,-z
1/2-x,y,-z
-x,-y,-z
1/2+x,1/2+y,-z
-x,1/2+y,z
1/2+x,-y,z
loop_
_atom_site_type_symbol
_atom_site_label
_atom_site_fract_x
_atom_site_fract_y
_atom_site_fract_z
Si Si1 0.978145 0.787647 0.739775
Si Si2 0.090200 0.414323 0.909436
Si Si3 0.853088 0.460043 0.253307
Si Si4 0.250000 0.750000 0.500000
O O1 0.916327 0.750000 0.500000
O O2 0.934396 0.854341 0.757351
O O3 0.145831 0.787476 0.680328
O O4 0.949682 0.750000 0.000000
O O5 0.080020 0.474100 0.737725
O O6 0.250000 0.412697 0.000000
O O7 0.981617 0.418873 0.156378
O O8 0.750000 0.447353 0.500000
O O9 0.750000 0.459484 0.000000
#
# Coordination Sequence:
#
# PCOD9397564 Si02
#       4
#     8   8   8   2
#     4  10  23  43  70 105 139 185 244 299 365 437
#     4  10  24  46  74 109 152 193 248 318 380 447
#     4  10  24  46  73 106 147 201 255 302 373 455
#     4   8  22  44  70  98 142 180 248 296 342 454
#
# _framework density 23.765418
#
# number of rings (size 3 to 8) (size 9 to 14) (size 15 to 20)
#    0.923    1.231    0.000    0.462    0.000   21.538 
#    5.538    1.538    0.000    0.000    0.000    0.000 
#    0.000    0.000    0.000    0.000    0.000    0.000 
#
# Total GULP energy -145366.319749 kJ/mol
# GULP energy per Si atom -5591.012298 kJ/mol
# Density = 2.371133 g / cm^3
# Si number density = 23.765418 Si / 1000 Ang^3
#
#
#
# Elastic Constant Matrix: (Units=GPa)
#
#
# Indices 1 2 3 4 5 6 
#
# 1 146.0210 50.9787 50.8581 0.0000 0.0000 0.0000
# 2 50.9787 141.6903 60.6846 0.0000 0.0000 0.0000
# 3 50.8581 60.6846 184.0457 0.0000 0.0000 0.0000
# 4 0.0000 0.0000 0.0000 28.4997 0.0000 0.0000
# 5 0.0000 0.0000 0.0000 0.0000 -211.5481 0.0000
# 6 0.0000 0.0000 0.0000 0.0000 0.0000 -20.9389
#
#
#
# Elastic Compliance Matrix: (Units=1/GPa)
#
#
# Indices 1 2 3 4 5 6 
#
# 1 0.008173 -0.002298 -0.001501 0.000000 0.000000 0.000000
# 2 -0.002298 0.008864 -0.002288 0.000000 0.000000 0.000000
# 3 -0.001501 -0.002288 0.006603 0.000000 0.000000 0.000000
# 4 0.000000 0.000000 0.000000 0.035088 0.000000 0.000000
# 5 0.000000 0.000000 0.000000 0.000000 -0.004727 0.000000
# 6 0.000000 0.000000 0.000000 0.000000 0.000000 -0.047758
#
#
# Mechanical properties :
#
#
# Convention : Reuss Voigt Hill
#
# Bulk Modulus (GPa) = 87.20693 88.53330 87.87011
# Shear Modulus (GPa) = 224.83432 -20.18176 102.32628
#
# Velocity S-wave (km/s) = 9.73710 -2.91728 6.56889
# Velocity P-wave (km/s) = 12.77456 5.09770 9.72563
#
# Compressibility (1/GPa) = 0.01146698
#
# Stress axis : x y z
#
# Youngs Moduli (GPa) = 122.34949 112.81301 151.45715
#
# Poissons Ratio (x) = 0.25923 0.22732
# Poissons Ratio (y) = 0.28114 0.34650
# Poissons Ratio (z) = 0.18363 0.25809
#
# Static dielectric constant tensor:
#      x y z
#    x 1.995070 0.000000 0.000000 
#    y 0.000000 2.056240 0.000000 
#    z 0.000000 0.000000 1.897250 
# 
# From -- ./inp_files/988.got.cif
#   From: 2010.05.17/outbox.cif.g08.bks.cpg/sg50_1_cif.got.tgz:988.got - 2010.06.03 11:33:33.
