data_PCOD9397865
_publ_section_title
;
Structure prediction by ZEFSAII (Michael W. Deem and Ramdas Pophale) SiO2 
 PCOD9397865
Probable space group: P B A N
;
_chemical_formula_sum "Si O2"
_cell_formula_units_Z 58
_cell_length_a 8.213706
_cell_length_b 30.013150
_cell_length_c 11.407463
_cell_angle_alpha 90.000000
_cell_angle_beta 90.000000
_cell_angle_gamma 90.000000
_cell_volume 2812.158541
_symmetry_space_group_name_H-M "P B A N"
_symmetry_group_IT_number 50
_space_group.IT_coordinate_system_code '2'
_symmetry_cell_setting 'orthorhombic'
loop_
_space_group_symop_operation_xyz
x,y,z
1/2-x,1/2-y,z
x,1/2-y,-z
1/2-x,y,-z
-x,-y,-z
1/2+x,1/2+y,-z
-x,1/2+y,z
1/2+x,-y,z
loop_
_atom_site_type_symbol
_atom_site_label
_atom_site_fract_x
_atom_site_fract_y
_atom_site_fract_z
Si Si1 0.935370 0.134968 0.036027
Si Si2 0.923058 0.623716 0.793713
Si Si3 0.750000 0.750000 0.000000
Si Si4 0.103964 0.776735 0.622212
Si Si5 0.385654 0.556766 0.816032
Si Si6 0.752902 0.124305 0.631598
Si Si7 0.021631 0.972292 0.123154
Si Si8 0.624181 0.811881 0.204941
O O1 0.973815 0.085419 0.082129
O O2 0.967655 0.163866 0.149595
O O3 0.750000 0.136301 0.000000
O O4 0.030071 0.146345 0.918292
O O5 0.758987 0.650819 0.760904
O O6 0.069965 0.628393 0.698124
O O7 0.917545 0.571328 0.834533
O O8 0.667350 0.782500 0.092979
O O9 0.250000 0.750000 0.686104
O O10 0.082352 0.750000 0.500000
O O11 0.169992 0.827200 0.614203
O O12 0.935517 0.780670 0.690672
O O13 0.349981 0.590330 0.710825
O O14 0.207790 0.542814 0.864118
O O15 0.481442 0.512249 0.786768
O O16 0.750000 0.105409 0.500000
O O17 0.000000 0.000000 0.000000
#
# Coordination Sequence:
#
# PCOD9397865 Si02
#       8
#     8   8   2   8   8   8   8   8
#     4  12  19  41  67  97 139 188 229 275 355 430
#     4  11  24  42  66 104 147 184 230 293 363 421
#     4  12  28  40  56 100 144 172 214 258 380 436
#     4  11  24  46  77 100 119 175 249 294 350 431
#     4  11  23  37  64 102 138 184 237 287 352 411
#     4  11  23  46  70  95 135 181 239 293 349 425
#     4  11  21  35  64 104 141 185 237 287 337 430
#     4  12  27  43  69 102 147 182 218 306 370 437
#
# _framework density 20.624725999999999
#
# number of rings (size 3 to 8) (size 9 to 14) (size 15 to 20)
#    0.000    0.690    8.276    0.414    3.862    2.207 
#    0.000    5.862    0.000    0.000    0.000    0.000 
#    0.000    0.000    0.000    0.000    0.000    0.000 
#
# Total GULP energy -322932.669716 kJ/mol
# GULP energy per Si atom -5567.804650 kJ/mol
# Density = 2.057778 g / cm^3
# Si number density = 20.624726 Si / 1000 Ang^3
#
#
#
# Elastic Constant Matrix: (Units=GPa)
#
#
# Indices 1 2 3 4 5 6 
#
# 1 45.2099 31.0755 46.7240 0.0000 0.0000 0.0000
# 2 31.0755 112.6594 55.0241 0.0000 0.0000 0.0000
# 3 46.7240 55.0241 138.4124 0.0000 0.0000 0.0000
# 4 0.0000 0.0000 0.0000 35.9837 0.0000 0.0000
# 5 0.0000 0.0000 0.0000 0.0000 23.2361 0.0000
# 6 0.0000 0.0000 0.0000 0.0000 0.0000 -2.6433
#
#
#
# Elastic Compliance Matrix: (Units=1/GPa)
#
#
# Indices 1 2 3 4 5 6 
#
# 1 0.036080 -0.004968 -0.010205 0.000000 0.000000 0.000000
# 2 -0.004968 0.011699 -0.002974 0.000000 0.000000 0.000000
# 3 -0.010205 -0.002974 0.011852 0.000000 0.000000 0.000000
# 4 0.000000 0.000000 0.000000 0.027790 0.000000 0.000000
# 5 0.000000 0.000000 0.000000 0.000000 0.043036 0.000000
# 6 0.000000 0.000000 0.000000 0.000000 0.000000 -0.378312
#
#
# Mechanical properties :
#
#
# Convention : Reuss Voigt Hill
#
# Bulk Modulus (GPa) = 42.84833 62.43653 52.64243
# Shear Modulus (GPa) = -24.53605 22.21251 -1.16177
#
# Velocity S-wave (km/s) = -3.45286 3.28530 -0.75134
# Velocity P-wave (km/s) = 2.21901 6.68800 4.98264
#
# Compressibility (1/GPa) = 0.02333813
#
# Stress axis : x y z
#
# Youngs Moduli (GPa) = 27.71589 85.47659 84.37575
#
# Poissons Ratio (x) = 0.42466 0.86103
# Poissons Ratio (y) = 0.13770 0.25091
# Poissons Ratio (z) = 0.28283 0.25418
#
# Static dielectric constant tensor:
#      x y z
#    x 1.835050 0.000000 0.000000 
#    y 0.000000 1.914020 0.000000 
#    z 0.000000 0.000000 1.780400 
# 
# From -- ./inp_files/19399.got.cif
#   From: 2010.05.17/outbox.cif.g08.bks.cpg/sg50_10_cif.got.tgz:19399.got - 2010.06.03 11:33:33.
