data_PCOD9397368
_publ_section_title
;
Structure prediction by ZEFSAII (Michael W. Deem and Ramdas Pophale) SiO2 
 PCOD9397368
Probable space group: P B A N
;
_chemical_formula_sum "Si O2"
_cell_formula_units_Z 48
_cell_length_a 5.389063
_cell_length_b 17.444787
_cell_length_c 27.344504
_cell_angle_alpha 90.000000
_cell_angle_beta 90.000000
_cell_angle_gamma 90.000000
_cell_volume 2570.685701
_symmetry_space_group_name_H-M "P B A N"
_symmetry_group_IT_number 50
_space_group.IT_coordinate_system_code '2'
_symmetry_cell_setting 'orthorhombic'
loop_
_space_group_symop_operation_xyz
x,y,z
1/2-x,1/2-y,z
x,1/2-y,-z
1/2-x,y,-z
-x,-y,-z
1/2+x,1/2+y,-z
-x,1/2+y,z
1/2+x,-y,z
loop_
_atom_site_type_symbol
_atom_site_label
_atom_site_fract_x
_atom_site_fract_y
_atom_site_fract_z
Si Si1 0.750000 0.450508 0.000000
Si Si2 0.081024 0.454981 0.365518
Si Si3 0.074327 0.048610 0.750549
Si Si4 0.250000 0.250000 0.000000
Si Si5 0.750000 0.250000 0.500000
Si Si6 0.862328 0.834800 0.448600
Si Si7 0.998662 0.802144 0.183657
Si Si8 0.601172 0.170691 0.074580
O O1 0.749190 0.397157 0.951498
O O2 0.500000 0.500000 0.000000
O O3 0.300624 0.516420 0.375024
O O4 0.085933 0.436532 0.307853
O O5 0.150485 0.386569 0.401720
O O6 0.031716 0.128847 0.778010
O O7 0.336845 0.006363 0.762020
O O8 0.390562 0.192619 0.036080
O O9 0.637142 0.311266 0.537497
O O10 0.750000 0.750000 0.441705
O O11 0.750000 0.866358 0.500000
O O12 0.750000 0.750000 0.184818
O O13 0.250000 0.750000 0.190884
O O14 0.015398 0.841185 0.129828
O O15 0.750000 0.250000 0.076490
#
# Coordination Sequence:
#
# PCOD9397368 Si02
#       8
#     4   8   8   2   2   8   8   8
#     4  12  26  38  57  91 126 154 202 248 294 362
#     4  10  23  39  60  88 118 159 205 244 300 366
#     4  10  22  44  64  86 127 166 195 251 323 369
#     4  12  16  40  68  80 120 162 202 230 308 358
#     4   8  18  36  52  78 120 156 200 232 322 342
#     4   9  20  36  56  84 121 160 197 249 304 357
#     4  11  24  40  65  98 118 153 217 261 297 367
#     4  11  23  39  64  86 120 167 199 244 305 363
#
# _framework density 18.672063000000001
#
# number of rings (size 3 to 8) (size 9 to 14) (size 15 to 20)
#    0.000    1.833    2.500    1.500    4.667    2.667 
#    1.500    0.000    0.000    0.000    0.000    0.000 
#    0.000    0.000    0.000    0.000    0.000    0.000 
#
# Total GULP energy -267234.731677 kJ/mol
# GULP energy per Si atom -5567.390243 kJ/mol
# Density = 1.862956 g / cm^3
# Si number density = 18.672063 Si / 1000 Ang^3
#
#
#
# Elastic Constant Matrix: (Units=GPa)
#
#
# Indices 1 2 3 4 5 6 
#
# 1 94.7711 36.0623 34.9693 0.0000 0.0000 0.0000
# 2 36.0623 94.4568 65.7487 0.0000 0.0000 0.0000
# 3 34.9693 65.7487 92.2529 0.0000 0.0000 0.0000
# 4 0.0000 0.0000 0.0000 87.4824 0.0000 0.0000
# 5 0.0000 0.0000 0.0000 0.0000 28.2526 0.0000
# 6 0.0000 0.0000 0.0000 0.0000 0.0000 163.7336
#
#
#
# Elastic Compliance Matrix: (Units=1/GPa)
#
#
# Indices 1 2 3 4 5 6 
#
# 1 0.012673 -0.002966 -0.002690 0.000000 0.000000 0.000000
# 2 -0.002966 0.021704 -0.014344 0.000000 0.000000 0.000000
# 3 -0.002690 -0.014344 0.022082 0.000000 0.000000 0.000000
# 4 0.000000 0.000000 0.000000 0.011431 0.000000 0.000000
# 5 0.000000 0.000000 0.000000 0.000000 0.035395 0.000000
# 6 0.000000 0.000000 0.000000 0.000000 0.000000 0.006107
#
#
# Mechanical properties :
#
#
# Convention : Reuss Voigt Hill
#
# Bulk Modulus (GPa) = 60.75615 61.67126 61.21371
# Shear Modulus (GPa) = 32.28347 65.54040 48.91194
#
# Velocity S-wave (km/s) = 4.16260 5.93102 5.12368
# Velocity P-wave (km/s) = 7.46406 8.94444 8.23757
#
# Compressibility (1/GPa) = 0.01645924
#
# Stress axis : x y z
#
# Youngs Moduli (GPa) = 78.90858 46.07538 45.28518
#
# Poissons Ratio (x) = 0.13666 0.12181
# Poissons Ratio (y) = 0.23404 0.64956
# Poissons Ratio (z) = 0.21226 0.66090
#
# Static dielectric constant tensor:
#      x y z
#    x 1.726320 0.000000 0.000000 
#    y 0.000000 1.645850 0.000000 
#    z 0.000000 0.000000 1.689440 
# 
# From -- ./inp_files/32065.got.cif
#   From: 2010.05.17/outbox.cif.g08.bks.cpg/sg50_17_cif.got.tgz:32065.got - 2010.06.03 11:33:33.
