data_PCOD9397549
_publ_section_title
;
Structure prediction by ZEFSAII (Michael W. Deem and Ramdas Pophale) SiO2 
 PCOD9397549
Probable space group: P B A N
;
_chemical_formula_sum "Si O2"
_cell_formula_units_Z 34
_cell_length_a 14.541941
_cell_length_b 11.609438
_cell_length_c 9.746387
_cell_angle_alpha 90.000000
_cell_angle_beta 90.000000
_cell_angle_gamma 90.000000
_cell_volume 1645.421724
_symmetry_space_group_name_H-M "P B A N"
_symmetry_group_IT_number 50
_space_group.IT_coordinate_system_code '2'
_symmetry_cell_setting 'orthorhombic'
loop_
_space_group_symop_operation_xyz
x,y,z
1/2-x,1/2-y,z
x,1/2-y,-z
1/2-x,y,-z
-x,-y,-z
1/2+x,1/2+y,-z
-x,1/2+y,z
1/2+x,-y,z
loop_
_atom_site_type_symbol
_atom_site_label
_atom_site_fract_x
_atom_site_fract_y
_atom_site_fract_z
Si Si1 0.579430 0.550959 0.643837
Si Si2 0.212200 0.631099 0.730432
Si Si3 0.250000 0.750000 0.000000
Si Si4 0.360739 0.250657 0.156315
Si Si5 0.620195 0.963806 0.655031
O O1 0.620251 0.423682 0.671664
O O2 0.609164 0.635990 0.763303
O O3 0.624346 0.587262 0.498934
O O4 0.469578 0.544377 0.643649
O O5 0.250000 0.750000 0.667224
O O6 0.199354 0.666124 0.891133
O O7 0.291514 0.536903 0.702094
O O8 0.250000 0.250000 0.156107
O O9 0.393684 0.138436 0.237813
O O10 0.393631 0.250000 0.000000
#
# Coordination Sequence:
#
# PCOD9397549 Si02
#       5
#     8   8   2   8   8
#     4  11  25  43  66  96 128 165 214 262 312 379
#     4  10  23  43  67  88 130 173 204 266 311 371
#     4   8  24  40  66  94 136 158 218 260 306 384
#     4  11  25  42  67  94 128 168 211 261 319 376
#     4  11  25  43  66  96 128 165 214 262 312 379
#
# _framework density 20.663397
#
# number of rings (size 3 to 8) (size 9 to 14) (size 15 to 20)
#    0.706    0.706    2.353    1.412    6.588    3.765 
#    4.235    0.000    0.000    0.000    0.000    0.000 
#    0.000    0.000    0.000    0.000    0.000    0.000 
#
# Total GULP energy -189703.997637 kJ/mol
# GULP energy per Si atom -5579.529342 kJ/mol
# Density = 2.061637 g / cm^3
# Si number density = 20.663397 Si / 1000 Ang^3
#
#
#
# Elastic Constant Matrix: (Units=GPa)
#
#
# Indices 1 2 3 4 5 6 
#
# 1 61.2478 -2.8225 9.4745 0.0000 0.0000 0.0000
# 2 -2.8225 73.3497 39.4772 0.0000 0.0000 0.0000
# 3 9.4745 39.4772 175.0988 0.0000 0.0000 0.0000
# 4 0.0000 0.0000 0.0000 44.4765 0.0000 0.0000
# 5 0.0000 0.0000 0.0000 0.0000 12.9770 0.0000
# 6 0.0000 0.0000 0.0000 0.0000 0.0000 14.5144
#
#
#
# Elastic Compliance Matrix: (Units=1/GPa)
#
#
# Indices 1 2 3 4 5 6 
#
# 1 0.016569 0.001275 -0.001184 0.000000 0.000000 0.000000
# 2 0.001275 0.015614 -0.003589 0.000000 0.000000 0.000000
# 3 -0.001184 -0.003589 0.006584 0.000000 0.000000 0.000000
# 4 0.000000 0.000000 0.000000 0.022484 0.000000 0.000000
# 5 0.000000 0.000000 0.000000 0.000000 0.077060 0.000000
# 6 0.000000 0.000000 0.000000 0.000000 0.000000 0.068897
#
#
# Mechanical properties :
#
#
# Convention : Reuss Voigt Hill
#
# Bulk Modulus (GPa) = 31.47563 44.66164 38.06863
# Shear Modulus (GPa) = 22.24247 31.96471 27.10359
#
# Velocity S-wave (km/s) = 3.28444 3.93736 3.62563
# Velocity P-wave (km/s) = 5.44509 6.50625 5.99918
#
# Compressibility (1/GPa) = 0.03177061
#
# Stress axis : x y z
#
# Youngs Moduli (GPa) = 60.35361 64.04446 151.87512
#
# Poissons Ratio (x) = -0.08164 0.17981
# Poissons Ratio (y) = -0.07694 0.54512
# Poissons Ratio (z) = 0.07146 0.22987
#
# Static dielectric constant tensor:
#      x y z
#    x 1.700390 0.000000 0.000000 
#    y 0.000000 1.723090 0.000000 
#    z 0.000000 0.000000 1.765760 
# 
# From -- ./inp_files/12235.got.cif
#   From: 2010.05.17/outbox.cif.g08.bks.cpg/sg50_7_cif.got.tgz:12235.got - 2010.06.03 11:33:33.
