data_PCOD9397511
_publ_section_title
;
Structure prediction by ZEFSAII (Michael W. Deem and Ramdas Pophale) SiO2 
 PCOD9397511
Probable space group: P B A N
;
_chemical_formula_sum "Si O2"
_cell_formula_units_Z 64
_cell_length_a 18.948251
_cell_length_b 14.510321
_cell_length_c 11.345953
_cell_angle_alpha 90.000000
_cell_angle_beta 90.000000
_cell_angle_gamma 90.000000
_cell_volume 3119.515367
_symmetry_space_group_name_H-M "P B A N"
_symmetry_group_IT_number 50
_space_group.IT_coordinate_system_code '2'
_symmetry_cell_setting 'orthorhombic'
loop_
_space_group_symop_operation_xyz
x,y,z
1/2-x,1/2-y,z
x,1/2-y,-z
1/2-x,y,-z
-x,-y,-z
1/2+x,1/2+y,-z
-x,1/2+y,z
1/2+x,-y,z
loop_
_atom_site_type_symbol
_atom_site_label
_atom_site_fract_x
_atom_site_fract_y
_atom_site_fract_z
Si Si1 0.087462 0.126431 0.243296
Si Si2 0.323181 0.954428 0.743673
Si Si3 0.113639 0.711920 0.630791
Si Si4 0.535367 0.012246 0.628118
Si Si5 0.535335 0.814915 0.742589
Si Si6 0.165687 0.881363 0.741219
Si Si7 0.666022 0.441435 0.008564
Si Si8 0.054129 0.085754 0.982573
O O1 0.088522 0.231479 0.285420
O O2 0.024892 0.066452 0.300136
O O3 0.155615 0.061612 0.260272
O O4 0.065959 0.133734 0.106651
O O5 0.361218 0.893159 0.644310
O O6 0.240297 0.933825 0.735524
O O7 0.353455 0.920469 0.872292
O O8 0.104145 0.750000 0.500000
O O9 0.169776 0.778095 0.693493
O O10 0.040537 0.720814 0.700030
O O11 0.606714 0.068360 0.660472
O O12 0.500000 0.000000 0.500000
O O13 0.549086 0.909294 0.673734
O O14 0.533237 0.847158 0.878056
O O15 0.146362 0.877272 0.880941
O O16 0.628620 0.536393 0.044515
O O17 0.750000 0.449348 0.000000
O O18 0.000000 0.000000 0.000000
#
# Coordination Sequence:
#
# PCOD9397511 Si02
#       8
#     8   8   8   8   8   8   8   8
#     4  11  23  40  62  95 131 168 215 276 331 393
#     4  10  23  42  64  93 133 172 215 279 338 407
#     4  12  25  41  61  95 132 171 225 280 338 410
#     4  12  24  42  64  93 130 172 220 272 330 391
#     4  12  23  39  67  94 129 171 222 274 337 401
#     4  11  22  41  66  92 129 175 220 273 343 401
#     4   9  19  38  64  90 128 166 210 265 334 398
#     4  11  19  38  63  94 129 166 215 269 328 387
#
# _framework density 20.516006999999998
#
# number of rings (size 3 to 8) (size 9 to 14) (size 15 to 20)
#    0.000    1.000    5.000    2.250    0.000    1.500 
#    2.250    2.500    0.000    0.750    0.000    1.750 
#    0.000    0.000    0.000    0.000    0.000    0.000 
#
# Total GULP energy -357146.691103 kJ/mol
# GULP energy per Si atom -5580.417048 kJ/mol
# Density = 2.046931 g / cm^3
# Si number density = 20.516007 Si / 1000 Ang^3
#
#
#
# Elastic Constant Matrix: (Units=GPa)
#
#
# Indices 1 2 3 4 5 6 
#
# 1 44.7080 9.8594 23.2838 0.0000 0.0000 0.0000
# 2 9.8594 124.4305 32.0409 0.0000 0.0000 0.0000
# 3 23.2838 32.0409 117.0686 0.0000 0.0000 0.0000
# 4 0.0000 0.0000 0.0000 23.3362 0.0000 0.0000
# 5 0.0000 0.0000 0.0000 0.0000 19.8821 0.0000
# 6 0.0000 0.0000 0.0000 0.0000 0.0000 27.7501
#
#
#
# Elastic Compliance Matrix: (Units=1/GPa)
#
#
# Indices 1 2 3 4 5 6 
#
# 1 0.025018 -0.000754 -0.004769 0.000000 0.000000 0.000000
# 2 -0.000754 0.008669 -0.002223 0.000000 0.000000 0.000000
# 3 -0.004769 -0.002223 0.010099 0.000000 0.000000 0.000000
# 4 0.000000 0.000000 0.000000 0.042852 0.000000 0.000000
# 5 0.000000 0.000000 0.000000 0.000000 0.050297 0.000000
# 6 0.000000 0.000000 0.000000 0.000000 0.000000 0.036036
#
#
# Mechanical properties :
#
#
# Convention : Reuss Voigt Hill
#
# Bulk Modulus (GPa) = 35.34453 46.28614 40.81533
# Shear Modulus (GPa) = 25.26624 28.92854 27.09739
#
# Velocity S-wave (km/s) = 3.51313 3.75913 3.63821
# Velocity P-wave (km/s) = 5.80701 6.43828 6.13077
#
# Compressibility (1/GPa) = 0.02829293
#
# Stress axis : x y z
#
# Youngs Moduli (GPa) = 39.97201 115.35771 99.02093
#
# Poissons Ratio (x) = 0.08700 0.47226
# Poissons Ratio (y) = 0.03015 0.22008
# Poissons Ratio (z) = 0.19064 0.25639
#
# Static dielectric constant tensor:
#      x y z
#    x 1.745560 0.000000 0.000000 
#    y 0.000000 1.753750 0.000000 
#    z 0.000000 0.000000 1.807620 
# 
# From -- ./inp_files/21952.got.cif
#   From: 2010.05.17/outbox.cif.g08.bks.cpg/sg50_11_cif.got.tgz:21952.got - 2010.06.03 11:33:33.
