data_PCOD9397244
_publ_section_title
;
Structure prediction by ZEFSAII (Michael W. Deem and Ramdas Pophale) SiO2 
 PCOD9397244
Probable space group: P B A N
;
_chemical_formula_sum "Si O2"
_cell_formula_units_Z 44
_cell_length_a 17.212380
_cell_length_b 8.802524
_cell_length_c 14.401502
_cell_angle_alpha 90.000000
_cell_angle_beta 90.000000
_cell_angle_gamma 90.000000
_cell_volume 2182.005959
_symmetry_space_group_name_H-M "P B A N"
_symmetry_group_IT_number 50
_space_group.IT_coordinate_system_code '2'
_symmetry_cell_setting 'orthorhombic'
loop_
_space_group_symop_operation_xyz
x,y,z
1/2-x,1/2-y,z
x,1/2-y,-z
1/2-x,y,-z
-x,-y,-z
1/2+x,1/2+y,-z
-x,1/2+y,z
1/2+x,-y,z
loop_
_atom_site_type_symbol
_atom_site_label
_atom_site_fract_x
_atom_site_fract_y
_atom_site_fract_z
Si Si1 0.825358 0.646978 0.242762
Si Si2 0.485187 0.750000 0.500000
Si Si3 0.533605 0.633852 0.209796
Si Si4 0.323481 0.574520 0.068850
Si Si5 0.588052 0.343340 0.105594
Si Si6 0.426526 0.495094 0.373749
O O1 0.750000 0.750000 0.250246
O O2 0.901194 0.752905 0.245983
O O3 0.824742 0.555733 0.145328
O O4 0.842591 0.537383 0.329426
O O5 0.431994 0.630587 0.446544
O O6 0.536962 0.650444 0.572160
O O7 0.578714 0.493386 0.165034
O O8 0.482876 0.734684 0.137608
O O9 0.479140 0.558003 0.287923
O O10 0.336467 0.736228 0.120299
O O11 0.250000 0.559034 0.000000
O O12 0.397321 0.588879 0.998060
#
# Coordination Sequence:
#
# PCOD9397244 Si02
#       6
#     8   4   8   8   8   8
#     4  12  26  44  68 102 145 189 229 296 355 421
#     4  10  22  40  83 101 142 158 236 292 348 436
#     4  12  22  41  68 101 135 178 243 287 346 415
#     4  11  25  43  59  94 141 191 238 287 353 398
#     4  11  22  38  63  91 134 183 244 289 328 412
#     4  11  21  44  70 111 129 184 220 291 360 427
#
# _framework density 20.164933000000001
#
# number of rings (size 3 to 8) (size 9 to 14) (size 15 to 20)
#    0.000    0.727    5.455    2.182    0.000    9.091 
#    0.000    0.455    0.000    1.091    0.000    0.000 
#    0.000    0.000    0.000    0.000    0.000    0.000 
#
# Total GULP energy -245198.949874 kJ/mol
# GULP energy per Si atom -5572.703406 kJ/mol
# Density = 2.011904 g / cm^3
# Si number density = 20.164933 Si / 1000 Ang^3
#
#
#
# Elastic Constant Matrix: (Units=GPa)
#
#
# Indices 1 2 3 4 5 6 
#
# 1 83.8518 33.8466 55.4347 0.0000 0.0000 0.0000
# 2 33.8466 121.2886 61.7420 0.0000 0.0000 0.0000
# 3 55.4347 61.7420 117.0121 0.0000 0.0000 0.0000
# 4 0.0000 0.0000 0.0000 25.6683 0.0000 0.0000
# 5 0.0000 0.0000 0.0000 0.0000 60.3697 0.0000
# 6 0.0000 0.0000 0.0000 0.0000 0.0000 32.5629
#
#
#
# Elastic Compliance Matrix: (Units=1/GPa)
#
#
# Indices 1 2 3 4 5 6 
#
# 1 0.017436 -0.000903 -0.007784 0.000000 0.000000 0.000000
# 2 -0.000903 0.011319 -0.005545 0.000000 0.000000 0.000000
# 3 -0.007784 -0.005545 0.015159 0.000000 0.000000 0.000000
# 4 0.000000 0.000000 0.000000 0.038959 0.000000 0.000000
# 5 0.000000 0.000000 0.000000 0.000000 0.016565 0.000000
# 6 0.000000 0.000000 0.000000 0.000000 0.000000 0.030710
#
#
# Mechanical properties :
#
#
# Convention : Reuss Voigt Hill
#
# Bulk Modulus (GPa) = 64.71958 69.35543 67.03751
# Shear Modulus (GPa) = 30.53198 35.12880 32.83039
#
# Velocity S-wave (km/s) = 3.89538 4.17834 4.03934
# Velocity P-wave (km/s) = 7.23856 7.59913 7.42104
#
# Compressibility (1/GPa) = 0.01545127
#
# Stress axis : x y z
#
# Youngs Moduli (GPa) = 57.35138 88.34335 65.96541
#
# Poissons Ratio (x) = 0.07981 0.51346
# Poissons Ratio (y) = 0.05181 0.36576
# Poissons Ratio (z) = 0.44641 0.48984
#
# Static dielectric constant tensor:
#      x y z
#    x 1.725420 0.000000 0.000000 
#    y 0.000000 1.773680 0.000000 
#    z 0.000000 0.000000 1.776150 
# 
# From -- ./inp_files/26800.got.cif
#   From: 2010.05.17/outbox.cif.g08.bks.cpg/sg50_14_cif.got.tgz:26800.got - 2010.06.03 11:33:33.
