data_PCOD9397575
_publ_section_title
;
Structure prediction by ZEFSAII (Michael W. Deem and Ramdas Pophale) SiO2 
 PCOD9397575
Probable space group: P B A N
;
_chemical_formula_sum "Si O2"
_cell_formula_units_Z 56
_cell_length_a 8.890368
_cell_length_b 21.896985
_cell_length_c 13.849386
_cell_angle_alpha 90.000000
_cell_angle_beta 90.000000
_cell_angle_gamma 90.000000
_cell_volume 2696.091199
_symmetry_space_group_name_H-M "P B A N"
_symmetry_group_IT_number 50
_space_group.IT_coordinate_system_code '2'
_symmetry_cell_setting 'orthorhombic'
loop_
_space_group_symop_operation_xyz
x,y,z
1/2-x,1/2-y,z
x,1/2-y,-z
1/2-x,y,-z
-x,-y,-z
1/2+x,1/2+y,-z
-x,1/2+y,z
1/2+x,-y,z
loop_
_atom_site_type_symbol
_atom_site_label
_atom_site_fract_x
_atom_site_fract_y
_atom_site_fract_z
Si Si1 0.217065 0.429312 0.298794
Si Si2 0.565574 0.358868 0.756772
Si Si3 0.929428 0.251478 0.885253
Si Si4 0.570927 0.881616 0.144594
Si Si5 0.250000 0.126934 0.500000
Si Si6 0.750000 0.548255 0.000000
Si Si7 0.090760 0.818414 0.458153
Si Si8 0.209882 0.957813 0.818625
O O1 0.293624 0.386121 0.218812
O O2 0.270968 0.412186 0.403871
O O3 0.243224 0.499057 0.271475
O O4 0.045099 0.411051 0.282590
O O5 0.504939 0.306595 0.828558
O O6 0.611637 0.324321 0.657852
O O7 0.686372 0.398148 0.817173
O O8 0.750000 0.250000 0.866237
O O9 0.999818 0.315302 0.853418
O O10 0.952006 0.250000 0.000000
O O11 0.456030 0.931757 0.183766
O O12 0.620611 0.906496 0.039242
O O13 0.416902 0.159048 0.483169
O O14 0.780443 0.502789 0.910844
O O15 0.090490 0.750000 0.500000
O O16 0.250000 0.846789 0.500000
#
# Coordination Sequence:
#
# PCOD9397575 Si02
#       8
#     8   8   8   8   4   4   8   8
#     4  10  24  44  65 103 130 178 219 285 345 408
#     4  11  25  45  68 101 136 174 230 285 341 414
#     4  11  26  42  66  95 134 177 221 281 342 406
#     4  11  24  41  68  95 134 177 228 278 336 409
#     4  10  23  44  68  98 144 169 232 284 356 410
#     4  10  24  40  67 101 134 180 230 278 336 410
#     4  10  24  42  72 100 134 183 233 282 348 426
#     4  11  23  43  72  95 134 180 230 277 337 412
#
# _framework density 20.770810999999998
#
# number of rings (size 3 to 8) (size 9 to 14) (size 15 to 20)
#    0.000    1.429    1.429    2.357   12.000    0.571 
#    1.286    2.143    0.000    0.000    0.000    0.000 
#    0.000    0.000    0.000    0.000    0.000    0.000 
#
# Total GULP energy -312025.508714 kJ/mol
# GULP energy per Si atom -5571.884084 kJ/mol
# Density = 2.072354 g / cm^3
# Si number density = 20.770811 Si / 1000 Ang^3
#
#
#
# Elastic Constant Matrix: (Units=GPa)
#
#
# Indices 1 2 3 4 5 6 
#
# 1 70.2232 29.8096 21.7814 0.0000 0.0000 0.0000
# 2 29.8096 132.6782 46.8665 0.0000 0.0000 0.0000
# 3 21.7814 46.8665 105.1723 0.0000 0.0000 0.0000
# 4 0.0000 0.0000 0.0000 25.5798 0.0000 0.0000
# 5 0.0000 0.0000 0.0000 0.0000 3.9646 0.0000
# 6 0.0000 0.0000 0.0000 0.0000 0.0000 30.1352
#
#
#
# Elastic Compliance Matrix: (Units=1/GPa)
#
#
# Indices 1 2 3 4 5 6 
#
# 1 0.016104 -0.002896 -0.002045 0.000000 0.000000 0.000000
# 2 -0.002896 0.009466 -0.003618 0.000000 0.000000 0.000000
# 3 -0.002045 -0.003618 0.011544 0.000000 0.000000 0.000000
# 4 0.000000 0.000000 0.000000 0.039093 0.000000 0.000000
# 5 0.000000 0.000000 0.000000 0.000000 0.252234 0.000000
# 6 0.000000 0.000000 0.000000 0.000000 0.000000 0.033184
#
#
# Mechanical properties :
#
#
# Convention : Reuss Voigt Hill
#
# Bulk Modulus (GPa) = 50.01051 56.10988 53.06019
# Shear Modulus (GPa) = 12.97326 25.91032 19.44179
#
# Velocity S-wave (km/s) = 2.50189 3.53574 3.06276
# Velocity P-wave (km/s) = 5.69873 6.61370 6.17319
#
# Compressibility (1/GPa) = 0.01999580
#
# Stress axis : x y z
#
# Youngs Moduli (GPa) = 62.09713 105.64336 86.62453
#
# Poissons Ratio (x) = 0.30593 0.17712
# Poissons Ratio (y) = 0.17983 0.31344
# Poissons Ratio (z) = 0.12697 0.38226
#
# Static dielectric constant tensor:
#      x y z
#    x 1.805160 0.000000 0.000000 
#    y 0.000000 1.722120 0.000000 
#    z 0.000000 0.000000 1.742210 
# 
# From -- ./inp_files/25307.got.cif
#   From: 2010.05.17/outbox.cif.g08.bks.cpg/sg50_13_cif.got.tgz:25307.got - 2010.06.03 11:33:33.
