data_PCOD9397452
_publ_section_title
;
Structure prediction by ZEFSAII (Michael W. Deem and Ramdas Pophale) SiO2 
 PCOD9397452
Probable space group: P B A N
;
_chemical_formula_sum "Si O2"
_cell_formula_units_Z 30
_cell_length_a 5.156814
_cell_length_b 12.636133
_cell_length_c 20.428518
_cell_angle_alpha 90.000000
_cell_angle_beta 90.000000
_cell_angle_gamma 90.000000
_cell_volume 1331.166921
_symmetry_space_group_name_H-M "P B A N"
_symmetry_group_IT_number 50
_space_group.IT_coordinate_system_code '2'
_symmetry_cell_setting 'orthorhombic'
loop_
_space_group_symop_operation_xyz
x,y,z
1/2-x,1/2-y,z
x,1/2-y,-z
1/2-x,y,-z
-x,-y,-z
1/2+x,1/2+y,-z
-x,1/2+y,z
1/2+x,-y,z
loop_
_atom_site_type_symbol
_atom_site_label
_atom_site_fract_x
_atom_site_fract_y
_atom_site_fract_z
Si Si1 0.005742 0.184527 0.298967
Si Si2 0.250000 0.250000 0.500000
Si Si3 0.465818 0.564299 0.578902
Si Si4 0.760899 0.933804 0.076876
Si Si5 0.750000 0.750000 0.828956
O O1 0.250000 0.250000 0.325006
O O2 0.985967 0.081238 0.342488
O O3 0.059857 0.187396 0.221241
O O4 0.750000 0.250000 0.311933
O O5 0.430958 0.329415 0.456780
O O6 0.173084 0.528387 0.564196
O O7 0.854790 0.838970 0.122758
O O8 0.468644 0.973314 0.089113
O O9 0.750000 0.904325 0.000000
#
# Coordination Sequence:
#
# PCOD9397452 Si02
#       5
#     8   2   8   8   4
#     4  10  23  44  64  94 132 171 214 272 325 383
#     4  12  26  50  72 106 140 170 226 286 300 418
#     4  12  27  46  72 102 134 180 217 267 339 389
#     4  10  23  40  61  93 130 169 218 273 329 393
#     4  10  24  40  68  94 126 178 214 276 326 386
#
# _framework density 22.536619000000002
#
# number of rings (size 3 to 8) (size 9 to 14) (size 15 to 20)
#    0.800    0.533    1.333    2.800    3.733    3.200 
#    0.000    4.000    0.000    0.000    0.000    0.000 
#    0.000    0.000    0.000    0.000    0.000    0.000 
#
# Total GULP energy -167329.479758 kJ/mol
# GULP energy per Si atom -5577.649325 kJ/mol
# Density = 2.248532 g / cm^3
# Si number density = 22.536619 Si / 1000 Ang^3
#
#
#
# Elastic Constant Matrix: (Units=GPa)
#
#
# Indices 1 2 3 4 5 6 
#
# 1 109.2700 3.2852 1.6487 0.0000 0.0000 0.0000
# 2 3.2852 66.3086 43.4941 0.0000 0.0000 0.0000
# 3 1.6487 43.4941 111.2768 0.0000 0.0000 0.0000
# 4 0.0000 0.0000 0.0000 38.4316 0.0000 0.0000
# 5 0.0000 0.0000 0.0000 0.0000 2.2756 0.0000
# 6 0.0000 0.0000 0.0000 0.0000 0.0000 26.0658
#
#
#
# Elastic Compliance Matrix: (Units=1/GPa)
#
#
# Indices 1 2 3 4 5 6 
#
# 1 0.009166 -0.000491 0.000056 0.000000 0.000000 0.000000
# 2 -0.000491 0.020307 -0.007930 0.000000 0.000000 0.000000
# 3 0.000056 -0.007930 0.012085 0.000000 0.000000 0.000000
# 4 0.000000 0.000000 0.000000 0.026020 0.000000 0.000000
# 5 0.000000 0.000000 0.000000 0.000000 0.439437 0.000000
# 6 0.000000 0.000000 0.000000 0.000000 0.000000 0.038364
#
#
# Mechanical properties :
#
#
# Convention : Reuss Voigt Hill
#
# Bulk Modulus (GPa) = 40.27679 42.63460 41.45570
# Shear Modulus (GPa) = 8.76601 29.24977 19.00789
#
# Velocity S-wave (km/s) = 1.97437 3.60652 2.90732
# Velocity P-wave (km/s) = 4.80708 6.02508 5.45021
#
# Compressibility (1/GPa) = 0.02482819
#
# Stress axis : x y z
#
# Youngs Moduli (GPa) = 109.10414 49.24450 82.74519
#
# Poissons Ratio (x) = 0.02417 -0.00464
# Poissons Ratio (y) = 0.05356 0.65616
# Poissons Ratio (z) = -0.00612 0.39051
#
# Static dielectric constant tensor:
#      x y z
#    x 1.776630 0.000000 0.000000 
#    y 0.000000 1.817380 0.000000 
#    z 0.000000 0.000000 1.897860 
# 
# From -- ./inp_files/30171.got.cif
#   From: 2010.05.17/outbox.cif.g08.bks.cpg/sg50_16_cif.got.tgz:30171.got - 2010.06.03 11:33:33.
