data_PCOD9397820
_publ_section_title
;
Structure prediction by ZEFSAII (Michael W. Deem and Ramdas Pophale) SiO2 
 PCOD9397820
Probable space group: P B A N
;
_chemical_formula_sum "Si O2"
_cell_formula_units_Z 32
_cell_length_a 19.084072
_cell_length_b 9.744904
_cell_length_c 8.899715
_cell_angle_alpha 90.000000
_cell_angle_beta 90.000000
_cell_angle_gamma 90.000000
_cell_volume 1655.101799
_symmetry_space_group_name_H-M "P B A N"
_symmetry_group_IT_number 50
_space_group.IT_coordinate_system_code '2'
_symmetry_cell_setting 'orthorhombic'
loop_
_space_group_symop_operation_xyz
x,y,z
1/2-x,1/2-y,z
x,1/2-y,-z
1/2-x,y,-z
-x,-y,-z
1/2+x,1/2+y,-z
-x,1/2+y,z
1/2+x,-y,z
loop_
_atom_site_type_symbol
_atom_site_label
_atom_site_fract_x
_atom_site_fract_y
_atom_site_fract_z
Si Si1 0.037440 0.541237 0.343784
Si Si2 0.966491 0.778592 0.172480
Si Si3 0.328859 0.191162 0.667652
Si Si4 0.167123 0.588001 0.513612
O O1 0.018439 0.434217 0.215699
O O2 0.119809 0.531328 0.378542
O O3 0.000000 0.500000 0.500000
O O4 0.012658 0.687473 0.285904
O O5 0.886168 0.742858 0.214809
O O6 0.981499 0.750000 0.000000
O O7 0.250000 0.250000 0.699804
O O8 0.344511 0.250000 0.500000
O O9 0.340934 0.025354 0.647753
O O10 0.147258 0.750000 0.500000
O O11 0.250000 0.585529 0.500000
#
# Coordination Sequence:
#
# PCOD9397820 Si02
#       4
#     8   8   8   8
#     4  12  22  41  64  90 119 166 216 259 306 376
#     4  12  25  39  59  93 131 166 205 263 329 378
#     4  11  19  39  63  89 121 163 217 265 303 374
#     4  11  21  35  62  95 118 151 211 273 308 355
#
# _framework density 19.334157999999999
#
# number of rings (size 3 to 8) (size 9 to 14) (size 15 to 20)
#    0.000    0.500    7.500    3.000    0.000    0.500 
#    0.000    0.000    0.000    0.000    0.000    0.000 
#    0.000    0.000    0.000    0.000    0.000    0.000 
#
# Total GULP energy -178208.497538 kJ/mol
# GULP energy per Si atom -5569.015548 kJ/mol
# Density = 1.929015 g / cm^3
# Si number density = 19.334158 Si / 1000 Ang^3
#
#
#
# Elastic Constant Matrix: (Units=GPa)
#
#
# Indices 1 2 3 4 5 6 
#
# 1 79.1936 9.1617 25.7989 0.0000 0.0000 0.0000
# 2 9.1617 75.9946 -22.6307 0.0000 0.0000 0.0000
# 3 25.7989 -22.6307 55.5105 0.0000 0.0000 0.0000
# 4 0.0000 0.0000 0.0000 24.5244 0.0000 0.0000
# 5 0.0000 0.0000 0.0000 0.0000 19.2814 0.0000
# 6 0.0000 0.0000 0.0000 0.0000 0.0000 26.7138
#
#
#
# Elastic Compliance Matrix: (Units=1/GPa)
#
#
# Indices 1 2 3 4 5 6 
#
# 1 0.016286 -0.004800 -0.009526 0.000000 0.000000 0.000000
# 2 -0.004800 0.016392 0.008914 0.000000 0.000000 0.000000
# 3 -0.009526 0.008914 0.026076 0.000000 0.000000 0.000000
# 4 0.000000 0.000000 0.000000 0.040776 0.000000 0.000000
# 5 0.000000 0.000000 0.000000 0.000000 0.051863 0.000000
# 6 0.000000 0.000000 0.000000 0.000000 0.000000 0.037434
#
#
# Mechanical properties :
#
#
# Convention : Reuss Voigt Hill
#
# Bulk Modulus (GPa) = 20.86430 26.15095 23.50762
# Shear Modulus (GPa) = 23.18813 27.32852 25.25832
#
# Velocity S-wave (km/s) = 3.46690 3.76371 3.61835
# Velocity P-wave (km/s) = 5.18080 5.69583 5.44441
#
# Compressibility (1/GPa) = 0.04792876
#
# Stress axis : x y z
#
# Youngs Moduli (GPa) = 61.40303 61.00554 38.34977
#
# Poissons Ratio (x) = 0.29284 0.36532
# Poissons Ratio (y) = 0.29474 -0.34184
# Poissons Ratio (z) = 0.58492 -0.54378
#
# Static dielectric constant tensor:
#      x y z
#    x 1.705140 0.000000 0.000000 
#    y 0.000000 1.791640 0.000000 
#    z 0.000000 0.000000 1.669720 
# 
# From -- ./inp_files/9104.got.cif
#   From: 2010.05.17/outbox.cif.g08.bks.cpg/sg50_5_cif.got.tgz:9104.got - 2010.06.03 11:33:33.
