data_PCOD9397922
_publ_section_title
;
Structure prediction by ZEFSAII (Michael W. Deem and Ramdas Pophale) SiO2 
 PCOD9397922
Probable space group: P B A N
;
_chemical_formula_sum "Si O2"
_cell_formula_units_Z 56
_cell_length_a 11.515715
_cell_length_b 14.339134
_cell_length_c 15.736259
_cell_angle_alpha 90.000000
_cell_angle_beta 90.000000
_cell_angle_gamma 90.000000
_cell_volume 2598.455755
_symmetry_space_group_name_H-M "P B A N"
_symmetry_group_IT_number 50
_space_group.IT_coordinate_system_code '2'
_symmetry_cell_setting 'orthorhombic'
loop_
_space_group_symop_operation_xyz
x,y,z
1/2-x,1/2-y,z
x,1/2-y,-z
1/2-x,y,-z
-x,-y,-z
1/2+x,1/2+y,-z
-x,1/2+y,z
1/2+x,-y,z
loop_
_atom_site_type_symbol
_atom_site_label
_atom_site_fract_x
_atom_site_fract_y
_atom_site_fract_z
Si Si1 0.882097 0.285035 0.731954
Si Si2 0.069308 0.843837 0.544081
Si Si3 0.141002 0.058390 0.556172
Si Si4 0.381919 0.361667 0.010227
Si Si5 0.531152 0.924980 0.194590
Si Si6 0.260737 0.145920 0.280123
Si Si7 0.973361 0.629578 0.831840
O O1 0.750000 0.250000 0.721547
O O2 0.940733 0.305340 0.640468
O O3 0.906330 0.381095 0.781748
O O4 0.951331 0.211301 0.790247
O O5 0.118687 0.750000 0.500000
O O6 0.961993 0.879979 0.485397
O O7 0.130236 0.945473 0.552184
O O8 0.250000 0.084800 0.500000
O O9 0.169441 0.085594 0.652057
O O10 0.432522 0.392449 0.100467
O O11 0.375389 0.250000 0.000000
O O12 0.250000 0.398845 0.000000
O O13 0.466806 0.386846 0.932546
O O14 0.634242 0.890436 0.256044
O O15 0.521994 0.034405 0.204993
O O16 0.250000 0.250000 0.315139
O O17 0.341024 0.149365 0.196551
#
# Coordination Sequence:
#
# PCOD9397922 Si02
#       7
#     8   8   8   8   8   8   8
#     4  12  28  46  71 103 147 193 235 296 368 438
#     4  11  27  49  70 102 144 192 239 294 369 437
#     4  11  27  44  72 108 138 183 245 306 359 429
#     4  11  21  44  75 106 144 186 241 300 359 434
#     4  12  26  46  73 110 147 185 247 300 361 434
#     4  12  24  47  76 107 145 192 247 309 364 429
#     4  12  26  45  72 110 143 192 240 296 365 433
#
# _framework density 21.551261
#
# number of rings (size 3 to 8) (size 9 to 14) (size 15 to 20)
#    0.000    0.429    4.286    3.000    8.000    2.286 
#    0.000    1.429    0.000    0.000    0.000    0.000 
#    0.000    0.000    0.000    0.000    0.000    0.000 
#
# Total GULP energy -312577.519822 kJ/mol
# GULP energy per Si atom -5581.741425 kJ/mol
# Density = 2.150221 g / cm^3
# Si number density = 21.551261 Si / 1000 Ang^3
#
#
#
# Elastic Constant Matrix: (Units=GPa)
#
#
# Indices 1 2 3 4 5 6 
#
# 1 80.9720 28.0779 36.5190 0.0000 0.0000 0.0000
# 2 28.0779 100.5379 11.0961 0.0000 0.0000 0.0000
# 3 36.5190 11.0961 123.6983 0.0000 0.0000 0.0000
# 4 0.0000 0.0000 0.0000 30.7925 0.0000 0.0000
# 5 0.0000 0.0000 0.0000 0.0000 -81.2309 0.0000
# 6 0.0000 0.0000 0.0000 0.0000 0.0000 37.6855
#
#
#
# Elastic Compliance Matrix: (Units=1/GPa)
#
#
# Indices 1 2 3 4 5 6 
#
# 1 0.015622 -0.003892 -0.004263 0.000000 0.000000 0.000000
# 2 -0.003892 0.011016 0.000161 0.000000 0.000000 0.000000
# 3 -0.004263 0.000161 0.009328 0.000000 0.000000 0.000000
# 4 0.000000 0.000000 0.000000 0.032475 0.000000 0.000000
# 5 0.000000 0.000000 0.000000 0.000000 -0.012311 0.000000
# 6 0.000000 0.000000 0.000000 0.000000 0.000000 0.026535
#
#
# Mechanical properties :
#
#
# Convention : Reuss Voigt Hill
#
# Bulk Modulus (GPa) = 50.05611 50.73270 50.39441
# Shear Modulus (GPa) = 47.47676 12.75043 30.11360
#
# Velocity S-wave (km/s) = 4.69867 2.43499 3.74210
# Velocity P-wave (km/s) = 7.26042 5.61223 6.48887
#
# Compressibility (1/GPa) = 0.01997758
#
# Stress axis : x y z
#
# Youngs Moduli (GPa) = 64.01096 90.77868 107.20097
#
# Poissons Ratio (x) = 0.35335 0.45699
# Poissons Ratio (y) = 0.24916 -0.01726
# Poissons Ratio (z) = 0.27288 -0.01462
#
# Static dielectric constant tensor:
#      x y z
#    x 1.776610 0.000000 0.000000 
#    y 0.000000 1.937690 0.000000 
#    z 0.000000 0.000000 2.759120 
# 
# From -- ./inp_files/25943.got.cif
#   From: 2010.05.17/outbox.cif.g08.bks.cpg/sg50_13_cif.got.tgz:25943.got - 2010.06.03 11:33:33.
