data_PCOD9397346
_publ_section_title
;
Structure prediction by ZEFSAII (Michael W. Deem and Ramdas Pophale) SiO2 
 PCOD9397346
Probable space group: P B A N
;
_chemical_formula_sum "Si O2"
_cell_formula_units_Z 48
_cell_length_a 10.057914
_cell_length_b 28.375111
_cell_length_c 8.338922
_cell_angle_alpha 90.000000
_cell_angle_beta 90.000000
_cell_angle_gamma 90.000000
_cell_volume 2379.881859
_symmetry_space_group_name_H-M "P B A N"
_symmetry_group_IT_number 50
_space_group.IT_coordinate_system_code '2'
_symmetry_cell_setting 'orthorhombic'
loop_
_space_group_symop_operation_xyz
x,y,z
1/2-x,1/2-y,z
x,1/2-y,-z
1/2-x,y,-z
-x,-y,-z
1/2+x,1/2+y,-z
-x,1/2+y,z
1/2+x,-y,z
loop_
_atom_site_type_symbol
_atom_site_label
_atom_site_fract_x
_atom_site_fract_y
_atom_site_fract_z
Si Si1 0.127738 0.008709 0.893491
Si Si2 0.367080 0.645800 0.873525
Si Si3 0.594990 0.875533 0.545101
Si Si4 0.381028 0.379579 0.911631
Si Si5 0.889344 0.301119 0.577912
Si Si6 0.623842 0.437004 0.385882
O O1 0.142807 0.064708 0.880758
O O2 0.109578 0.983113 0.724212
O O3 0.250000 0.989514 0.000000
O O4 0.000000 0.000000 0.000000
O O5 0.374445 0.693627 0.769197
O O6 0.346689 0.604715 0.741746
O O7 0.250000 0.647506 0.000000
O O8 0.498776 0.631525 0.969769
O O9 0.750000 0.881046 0.500000
O O10 0.588569 0.862987 0.732785
O O11 0.517432 0.832732 0.460611
O O12 0.506244 0.920456 0.486532
O O13 0.250000 0.360700 0.000000
O O14 0.906068 0.250000 0.500000
O O15 0.750000 0.319625 0.500000
O O16 0.750000 0.442530 0.500000
#
# Coordination Sequence:
#
# PCOD9397346 Si02
#       6
#     8   8   8   8   8   8
#     4  11  25  41  61  88 128 171 217 272 319 364
#     4  11  20  38  67  94 124 167 210 255 314 380
#     4  11  24  41  65  94 127 169 215 263 322 386
#     4  11  23  40  62  87 127 168 214 263 320 375
#     4  10  22  43  67  96 132 163 203 259 318 382
#     4  11  23  40  62  91 127 172 220 266 320 375
#
# _framework density 20.169067999999999
#
# number of rings (size 3 to 8) (size 9 to 14) (size 15 to 20)
#    0.000    1.167    1.667    6.500    4.667    1.667 
#    0.000    5.833    0.000    1.000    0.000    0.000 
#    0.000    0.000    0.000    0.000    0.000    0.000 
#
# Total GULP energy -268040.113802 kJ/mol
# GULP energy per Si atom -5584.169038 kJ/mol
# Density = 2.012316 g / cm^3
# Si number density = 20.169068 Si / 1000 Ang^3
#
#
#
# Elastic Constant Matrix: (Units=GPa)
#
#
# Indices 1 2 3 4 5 6 
#
# 1 178.0506 33.3354 76.3225 0.0000 0.0000 0.0000
# 2 33.3354 51.8922 29.8324 0.0000 0.0000 0.0000
# 3 76.3225 29.8324 161.5476 0.0000 0.0000 0.0000
# 4 0.0000 0.0000 0.0000 33.4448 0.0000 0.0000
# 5 0.0000 0.0000 0.0000 0.0000 48.0571 0.0000
# 6 0.0000 0.0000 0.0000 0.0000 0.0000 21.6380
#
#
#
# Elastic Compliance Matrix: (Units=1/GPa)
#
#
# Indices 1 2 3 4 5 6 
#
# 1 0.007462 -0.003096 -0.002954 0.000000 0.000000 0.000000
# 2 -0.003096 0.022844 -0.002756 0.000000 0.000000 0.000000
# 3 -0.002954 -0.002756 0.008095 0.000000 0.000000 0.000000
# 4 0.000000 0.000000 0.000000 0.029900 0.000000 0.000000
# 5 0.000000 0.000000 0.000000 0.000000 0.020809 0.000000
# 6 0.000000 0.000000 0.000000 0.000000 0.000000 0.046215
#
#
# Mechanical properties :
#
#
# Convention : Reuss Voigt Hill
#
# Bulk Modulus (GPa) = 48.10066 74.49679 61.29873
# Shear Modulus (GPa) = 31.27649 37.42798 34.35224
#
# Velocity S-wave (km/s) = 3.94218 4.31247 4.13148
# Velocity P-wave (km/s) = 6.67994 7.86212 7.29501
#
# Compressibility (1/GPa) = 0.02078973
#
# Stress axis : x y z
#
# Youngs Moduli (GPa) = 134.01047 43.77576 123.53954
#
# Poissons Ratio (x) = 0.13551 0.36491
# Poissons Ratio (y) = 0.41483 0.34047
# Poissons Ratio (z) = 0.39584 0.12065
#
# Static dielectric constant tensor:
#      x y z
#    x 1.697560 0.000000 0.000000 
#    y 0.000000 1.730180 0.000000 
#    z 0.000000 0.000000 1.729380 
# 
# From -- ./inp_files/10101.got.cif
#   From: 2010.05.17/outbox.cif.g08.bks.cpg/sg50_6_cif.got.tgz:10101.got - 2010.06.03 11:33:33.
