data_PCOD9397251
_publ_section_title
;
Structure prediction by ZEFSAII (Michael W. Deem and Ramdas Pophale) SiO2 
 PCOD9397251
Probable space group: P B A N
;
_chemical_formula_sum "Si O2"
_cell_formula_units_Z 48
_cell_length_a 9.113713
_cell_length_b 22.656154
_cell_length_c 10.866169
_cell_angle_alpha 90.000000
_cell_angle_beta 90.000000
_cell_angle_gamma 90.000000
_cell_volume 2243.664887
_symmetry_space_group_name_H-M "P B A N"
_symmetry_group_IT_number 50
_space_group.IT_coordinate_system_code '2'
_symmetry_cell_setting 'orthorhombic'
loop_
_space_group_symop_operation_xyz
x,y,z
1/2-x,1/2-y,z
x,1/2-y,-z
1/2-x,y,-z
-x,-y,-z
1/2+x,1/2+y,-z
-x,1/2+y,z
1/2+x,-y,z
loop_
_atom_site_type_symbol
_atom_site_label
_atom_site_fract_x
_atom_site_fract_y
_atom_site_fract_z
Si Si1 0.974276 0.661009 0.750098
Si Si2 0.229611 0.893110 0.637854
Si Si3 0.584339 0.159591 0.977907
Si Si4 0.055162 0.540489 0.156966
Si Si5 0.088892 0.720723 0.272448
Si Si6 0.770618 0.575929 0.861300
O O1 0.113319 0.624476 0.697450
O O2 0.983910 0.725580 0.688942
O O3 0.828322 0.621969 0.759552
O O4 0.004113 0.671655 0.895509
O O5 0.250000 0.914163 0.500000
O O6 0.146472 0.938781 0.724486
O O7 0.128517 0.833591 0.638531
O O8 0.589436 0.090299 0.945174
O O9 0.531255 0.191607 0.854234
O O10 0.750000 0.179185 0.000000
O O11 0.109961 0.475894 0.123522
O O12 0.882049 0.546354 0.177292
O O13 0.250000 0.750000 0.250753
O O14 0.750000 0.601754 0.000000
#
# Coordination Sequence:
#
# PCOD9397251 Si02
#       6
#     8   8   8   8   8   8
#     4  11  21  34  57  92 126 160 210 254 315 381
#     4  10  22  41  64  90 121 165 217 269 313 367
#     4  11  17  31  56  88 124 158 198 257 320 375
#     4  11  23  39  60  90 127 166 215 261 318 379
#     4   9  18  30  57  88 122 155 200 256 308 374
#     4  12  24  38  62  94 131 170 206 259 329 396
#
# _framework density 21.393568999999999
#
# number of rings (size 3 to 8) (size 9 to 14) (size 15 to 20)
#    0.000    1.333    6.667    2.500    0.000    3.000 
#    0.000    7.500    0.000    0.000    0.000   11.667 
#    0.000    0.000    0.000    0.000    0.000    0.000 
#
# Total GULP energy -268000.075695 kJ/mol
# GULP energy per Si atom -5583.334910 kJ/mol
# Density = 2.134488 g / cm^3
# Si number density = 21.393569 Si / 1000 Ang^3
#
#
#
# Elastic Constant Matrix: (Units=GPa)
#
#
# Indices 1 2 3 4 5 6 
#
# 1 91.8941 18.4703 13.2269 0.0000 0.0000 0.0000
# 2 18.4703 68.7395 6.7689 0.0000 0.0000 0.0000
# 3 13.2269 6.7689 50.8211 0.0000 0.0000 0.0000
# 4 0.0000 0.0000 0.0000 2.3968 0.0000 0.0000
# 5 0.0000 0.0000 0.0000 0.0000 10.5231 0.0000
# 6 0.0000 0.0000 0.0000 0.0000 0.0000 28.0900
#
#
#
# Elastic Compliance Matrix: (Units=1/GPa)
#
#
# Indices 1 2 3 4 5 6 
#
# 1 0.011857 -0.002920 -0.002697 0.000000 0.000000 0.000000
# 2 -0.002920 0.015460 -0.001299 0.000000 0.000000 0.000000
# 3 -0.002697 -0.001299 0.020552 0.000000 0.000000 0.000000
# 4 0.000000 0.000000 0.000000 0.417231 0.000000 0.000000
# 5 0.000000 0.000000 0.000000 0.000000 0.095029 0.000000
# 6 0.000000 0.000000 0.000000 0.000000 0.000000 0.035600
#
#
# Mechanical properties :
#
#
# Convention : Reuss Voigt Hill
#
# Bulk Modulus (GPa) = 29.38044 32.04300 30.71172
# Shear Modulus (GPa) = 8.05273 19.73454 13.89363
#
# Velocity S-wave (km/s) = 1.94223 3.04048 2.55116
# Velocity P-wave (km/s) = 4.33507 5.22843 4.80256
#
# Compressibility (1/GPa) = 0.03403625
#
# Stress axis : x y z
#
# Youngs Moduli (GPa) = 84.33631 64.68165 48.65747
#
# Poissons Ratio (x) = 0.18890 0.13123
# Poissons Ratio (y) = 0.24630 0.06321
# Poissons Ratio (z) = 0.22746 0.08403
#
# Static dielectric constant tensor:
#      x y z
#    x 1.819570 0.000000 0.000000 
#    y 0.000000 1.843200 0.000000 
#    z 0.000000 0.000000 1.756530 
# 
# From -- ./inp_files/19152.got.cif
#   From: 2010.05.17/outbox.cif.g08.bks.cpg/sg50_10_cif.got.tgz:19152.got - 2010.06.03 11:33:33.
