data_PCOD9397600
_publ_section_title
;
Structure prediction by ZEFSAII (Michael W. Deem and Ramdas Pophale) SiO2 
 PCOD9397600
Probable space group: P B A N
;
_chemical_formula_sum "Si O2"
_cell_formula_units_Z 56
_cell_length_a 14.406876
_cell_length_b 13.407544
_cell_length_c 13.793105
_cell_angle_alpha 90.000000
_cell_angle_beta 90.000000
_cell_angle_gamma 90.000000
_cell_volume 2664.287526
_symmetry_space_group_name_H-M "P B A N"
_symmetry_group_IT_number 50
_space_group.IT_coordinate_system_code '2'
_symmetry_cell_setting 'orthorhombic'
loop_
_space_group_symop_operation_xyz
x,y,z
1/2-x,1/2-y,z
x,1/2-y,-z
1/2-x,y,-z
-x,-y,-z
1/2+x,1/2+y,-z
-x,1/2+y,z
1/2+x,-y,z
loop_
_atom_site_type_symbol
_atom_site_label
_atom_site_fract_x
_atom_site_fract_y
_atom_site_fract_z
Si Si1 0.366107 0.481695 0.647380
Si Si2 0.820995 0.942835 0.735722
Si Si3 0.405059 0.692037 0.587487
Si Si4 0.049491 0.874829 0.275788
Si Si5 0.109017 0.142025 0.461369
Si Si6 0.037755 0.647739 0.950826
Si Si7 0.645785 0.942070 0.041001
O O1 0.288678 0.441780 0.720292
O O2 0.356514 0.600415 0.639450
O O3 0.464803 0.442315 0.685116
O O4 0.354836 0.437655 0.538961
O O5 0.860616 0.876407 0.648371
O O6 0.851004 0.916517 0.844324
O O7 0.861146 0.053770 0.717704
O O8 0.355844 0.750000 0.500000
O O9 0.438084 0.775627 0.662254
O O10 0.497093 0.642212 0.539832
O O11 0.032976 0.845565 0.164897
O O12 0.138157 0.250000 0.500000
O O13 0.107672 0.555574 0.971779
O O14 0.069684 0.750000 0.000000
O O15 0.934960 0.622153 0.990716
O O16 0.750000 0.931064 0.000000
#
# Coordination Sequence:
#
# PCOD9397600 Si02
#       7
#     8   8   8   8   8   8   8
#     4  12  23  41  65  90 132 173 206 256 323 367
#     4  11  25  40  66  96 126 165 216 262 311 391
#     4  11  22  39  67  88 129 173 209 260 312 381
#     4  11  23  42  63  96 126 164 216 261 321 373
#     4  11  22  41  62  95 126 168 208 259 307 379
#     4  10  24  41  69  96 126 169 216 271 328 388
#     4  10  23  46  66  94 131 167 216 270 330 381
#
# _framework density 21.018753
#
# number of rings (size 3 to 8) (size 9 to 14) (size 15 to 20)
#    0.000    1.143    4.286    2.571    2.000    4.571 
#    0.000    5.000    0.000    0.000    0.000    0.000 
#    0.000    0.000    0.000    0.000    0.000    0.000 
#
# Total GULP energy -313069.764708 kJ/mol
# GULP energy per Si atom -5590.531513 kJ/mol
# Density = 2.097091 g / cm^3
# Si number density = 21.018753 Si / 1000 Ang^3
#
#
#
# Elastic Constant Matrix: (Units=GPa)
#
#
# Indices 1 2 3 4 5 6 
#
# 1 71.1705 -2.8690 16.6000 0.0000 0.0000 0.0000
# 2 -2.8690 82.3889 54.0556 0.0000 0.0000 0.0000
# 3 16.6000 54.0556 120.4725 0.0000 0.0000 0.0000
# 4 0.0000 0.0000 0.0000 33.7507 0.0000 0.0000
# 5 0.0000 0.0000 0.0000 0.0000 26.6518 0.0000
# 6 0.0000 0.0000 0.0000 0.0000 0.0000 -3.8274
#
#
#
# Elastic Compliance Matrix: (Units=1/GPa)
#
#
# Indices 1 2 3 4 5 6 
#
# 1 0.014914 0.002647 -0.003243 0.000000 0.000000 0.000000
# 2 0.002647 0.017671 -0.008294 0.000000 0.000000 0.000000
# 3 -0.003243 -0.008294 0.012469 0.000000 0.000000 0.000000
# 4 0.000000 0.000000 0.000000 0.029629 0.000000 0.000000
# 5 0.000000 0.000000 0.000000 0.000000 0.037521 0.000000
# 6 0.000000 0.000000 0.000000 0.000000 0.000000 -0.261277
#
#
# Mechanical properties :
#
#
# Convention : Reuss Voigt Hill
#
# Bulk Modulus (GPa) = 36.66387 45.51167 41.08777
# Shear Modulus (GPa) = -40.91572 25.06472 -7.92550
#
# Velocity S-wave (km/s) = -4.41685 3.45700 -1.94393
# Velocity P-wave (km/s) = 2.92064 6.13468 3.81472
#
# Compressibility (1/GPa) = 0.02727481
#
# Stress axis : x y z
#
# Youngs Moduli (GPa) = 67.05212 56.58897 80.20000
#
# Poissons Ratio (x) = -0.14978 0.26006
# Poissons Ratio (y) = -0.17747 0.66516
# Poissons Ratio (z) = 0.21742 0.46933
#
# Static dielectric constant tensor:
#      x y z
#    x 1.757900 0.000000 0.000000 
#    y 0.000000 1.755620 0.000000 
#    z 0.000000 0.000000 1.738370 
# 
# From -- ./inp_files/26506.got.cif
#   From: 2010.05.17/outbox.cif.g08.bks.cpg/sg50_14_cif.got.tgz:26506.got - 2010.06.03 11:33:33.
