data_PCOD9397357
_publ_section_title
;
Structure prediction by ZEFSAII (Michael W. Deem and Ramdas Pophale) SiO2 
 PCOD9397357
Probable space group: P B A N
;
_chemical_formula_sum "Si O2"
_cell_formula_units_Z 54
_cell_length_a 11.116575
_cell_length_b 13.910090
_cell_length_c 15.771714
_cell_angle_alpha 90.000000
_cell_angle_beta 90.000000
_cell_angle_gamma 90.000000
_cell_volume 2438.820492
_symmetry_space_group_name_H-M "P B A N"
_symmetry_group_IT_number 50
_space_group.IT_coordinate_system_code '2'
_symmetry_cell_setting 'orthorhombic'
loop_
_space_group_symop_operation_xyz
x,y,z
1/2-x,1/2-y,z
x,1/2-y,-z
1/2-x,y,-z
-x,-y,-z
1/2+x,1/2+y,-z
-x,1/2+y,z
1/2+x,-y,z
loop_
_atom_site_type_symbol
_atom_site_label
_atom_site_fract_x
_atom_site_fract_y
_atom_site_fract_z
Si Si1 0.250000 0.750000 0.500000
Si Si2 0.846487 0.882389 0.323672
Si Si3 0.456650 0.250000 0.000000
Si Si4 0.047740 0.607006 0.128347
Si Si5 0.573193 0.824676 0.297889
Si Si6 0.712649 0.142637 0.225979
Si Si7 0.457029 0.107739 0.142650
Si Si8 0.155431 0.917598 0.619238
O O1 0.177604 0.829606 0.555008
O O2 0.706799 0.855727 0.321295
O O3 0.928275 0.786127 0.329946
O O4 0.877854 0.911726 0.226743
O O5 0.862117 0.967307 0.392659
O O6 0.537325 0.173380 0.952144
O O7 0.399451 0.317533 0.925204
O O8 0.182797 0.609354 0.163167
O O9 0.957311 0.653969 0.198827
O O10 0.016453 0.497836 0.107087
O O11 0.469707 0.887130 0.339238
O O12 0.750000 0.250000 0.250646
O O13 0.585016 0.143146 0.180404
O O14 0.732799 0.085239 0.313401
#
# Coordination Sequence:
#
# PCOD9397357 Si02
#       8
#     2   8   4   8   8   8   8   8
#     4  12  28  44  72 120 148 158 216 284 358 390
#     4  11  22  41  72  96 131 180 232 274 331 410
#     4  12  24  41  53  90 142 174 219 301 354 382
#     4  11  23  38  61  91 127 177 225 288 341 397
#     4  10  22  43  69  99 130 178 239 273 322 416
#     4  11  20  40  70  88 120 172 235 269 322 408
#     4  12  23  38  65  96 127 175 234 284 337 400
#     4  11  24  43  72 103 134 176 218 285 335 408
#
# _framework density 22.141850000000002
#
# number of rings (size 3 to 8) (size 9 to 14) (size 15 to 20)
#    0.000    0.889    6.667    2.222    0.000    1.185 
#    0.000    4.444    0.000    1.778    0.000    0.000 
#    0.000    0.000    0.000    0.000    0.000    0.000 
#
# Total GULP energy -300820.117513 kJ/mol
# GULP energy per Si atom -5570.742917 kJ/mol
# Density = 2.209145 g / cm^3
# Si number density = 22.141850 Si / 1000 Ang^3
#
#
#
# Elastic Constant Matrix: (Units=GPa)
#
#
# Indices 1 2 3 4 5 6 
#
# 1 48.8518 11.6417 8.0168 0.0000 0.0000 0.0000
# 2 11.6417 162.2641 12.1390 0.0000 0.0000 0.0000
# 3 8.0168 12.1390 28.6755 0.0000 0.0000 0.0000
# 4 0.0000 0.0000 0.0000 35.0940 0.0000 0.0000
# 5 0.0000 0.0000 0.0000 0.0000 3.1443 0.0000
# 6 0.0000 0.0000 0.0000 0.0000 0.0000 29.1883
#
#
#
# Elastic Compliance Matrix: (Units=1/GPa)
#
#
# Indices 1 2 3 4 5 6 
#
# 1 0.021656 -0.001137 -0.005573 0.000000 0.000000 0.000000
# 2 -0.001137 0.006424 -0.002402 0.000000 0.000000 0.000000
# 3 -0.005573 -0.002402 0.037448 0.000000 0.000000 0.000000
# 4 0.000000 0.000000 0.000000 0.028495 0.000000 0.000000
# 5 0.000000 0.000000 0.000000 0.000000 0.318038 0.000000
# 6 0.000000 0.000000 0.000000 0.000000 0.000000 0.034260
#
#
# Mechanical properties :
#
#
# Convention : Reuss Voigt Hill
#
# Bulk Modulus (GPa) = 21.13967 33.70961 27.42464
# Shear Modulus (GPa) = 10.40992 27.35157 18.88074
#
# Velocity S-wave (km/s) = 2.17064 3.51848 2.92330
# Velocity P-wave (km/s) = 3.98125 5.63593 4.87924
#
# Compressibility (1/GPa) = 0.04730443
#
# Stress axis : x y z
#
# Youngs Moduli (GPa) = 46.17753 155.66588 26.70388
#
# Poissons Ratio (x) = 0.17696 0.14882
# Poissons Ratio (y) = 0.05249 0.06413
# Poissons Ratio (z) = 0.25735 0.37385
#
# Static dielectric constant tensor:
#      x y z
#    x 1.783060 0.000000 0.000000 
#    y 0.000000 1.955760 0.000000 
#    z 0.000000 0.000000 1.904580 
# 
# From -- ./inp_files/25985.got.cif
#   From: 2010.05.17/outbox.cif.g08.bks.cpg/sg50_13_cif.got.tgz:25985.got - 2010.06.03 11:33:33.
