data_PCOD9397382
_publ_section_title
;
Structure prediction by ZEFSAII (Michael W. Deem and Ramdas Pophale) SiO2 
 PCOD9397382
Probable space group: P B A N
;
_chemical_formula_sum "Si O2"
_cell_formula_units_Z 48
_cell_length_a 24.200295
_cell_length_b 6.308483
_cell_length_c 14.762366
_cell_angle_alpha 90.000000
_cell_angle_beta 90.000000
_cell_angle_gamma 90.000000
_cell_volume 2253.728339
_symmetry_space_group_name_H-M "P B A N"
_symmetry_group_IT_number 50
_space_group.IT_coordinate_system_code '2'
_symmetry_cell_setting 'orthorhombic'
loop_
_space_group_symop_operation_xyz
x,y,z
1/2-x,1/2-y,z
x,1/2-y,-z
1/2-x,y,-z
-x,-y,-z
1/2+x,1/2+y,-z
-x,1/2+y,z
1/2+x,-y,z
loop_
_atom_site_type_symbol
_atom_site_label
_atom_site_fract_x
_atom_site_fract_y
_atom_site_fract_z
Si Si1 0.833900 0.685495 0.403742
Si Si2 0.492925 0.126850 0.248240
Si Si3 0.193639 0.617268 0.750694
Si Si4 0.868065 0.509602 0.741766
Si Si5 0.815826 0.733465 0.101940
Si Si6 0.053409 0.935273 0.438494
O O1 0.811167 0.750000 0.500000
O O2 0.801802 0.520303 0.340224
O O3 0.835564 0.891623 0.341342
O O4 0.896744 0.598470 0.420603
O O5 0.496753 0.376812 0.208986
O O6 0.428355 0.102175 0.264939
O O7 0.527227 0.131496 0.342059
O O8 0.250000 0.750000 0.765242
O O9 0.177983 0.477053 0.837955
O O10 0.140177 0.762357 0.736536
O O11 0.841266 0.584102 0.835979
O O12 0.750000 0.750000 0.096267
O O13 0.838223 0.750000 0.000000
O O14 0.079365 0.750000 0.500000
O O15 0.000000 0.000000 0.500000
#
# Coordination Sequence:
#
# PCOD9397382 Si02
#       6
#     8   8   8   8   8   8
#     4  11  25  40  61  91 133 187 236 283 336 396
#     4  12  24  39  62  98 135 187 231 286 356 412
#     4  11  24  44  69  94 133 177 225 281 350 429
#     4  11  23  42  67  98 140 177 225 284 347 423
#     4  10  22  44  73 106 132 160 216 294 363 423
#     4  12  21  35  60  90 127 170 243 305 339 383
#
# _framework density 21.29804
#
# number of rings (size 3 to 8) (size 9 to 14) (size 15 to 20)
#    0.000    0.833    5.000    2.500    4.667    0.667 
#    0.000    2.500    0.000    1.000    0.000    0.000 
#    0.000    0.000    0.000    0.000    0.000    0.000 
#
# Total GULP energy -267473.255912 kJ/mol
# GULP energy per Si atom -5572.359498 kJ/mol
# Density = 2.124956 g / cm^3
# Si number density = 21.298040 Si / 1000 Ang^3
#
#
#
# Elastic Constant Matrix: (Units=GPa)
#
#
# Indices 1 2 3 4 5 6 
#
# 1 72.0008 12.0403 26.0498 0.0000 0.0000 0.0000
# 2 12.0403 117.7641 47.7544 0.0000 0.0000 0.0000
# 3 26.0498 47.7544 143.3872 0.0000 0.0000 0.0000
# 4 0.0000 0.0000 0.0000 -2.2139 0.0000 0.0000
# 5 0.0000 0.0000 0.0000 0.0000 19.5092 0.0000
# 6 0.0000 0.0000 0.0000 0.0000 0.0000 48.0846
#
#
#
# Elastic Compliance Matrix: (Units=1/GPa)
#
#
# Indices 1 2 3 4 5 6 
#
# 1 0.014890 -0.000492 -0.002541 0.000000 0.000000 0.000000
# 2 -0.000492 0.009834 -0.003186 0.000000 0.000000 0.000000
# 3 -0.002541 -0.003186 0.008497 0.000000 0.000000 0.000000
# 4 0.000000 0.000000 0.000000 -0.451701 0.000000 0.000000
# 5 0.000000 0.000000 0.000000 0.000000 0.051258 0.000000
# 6 0.000000 0.000000 0.000000 0.000000 0.000000 0.020797
#
#
# Mechanical properties :
#
#
# Convention : Reuss Voigt Hill
#
# Bulk Modulus (GPa) = 48.11616 56.09344 52.10480
# Shear Modulus (GPa) = -15.28772 29.56316 7.13772
#
# Velocity S-wave (km/s) = -2.68208 3.72972 1.83266
# Velocity P-wave (km/s) = 3.61240 6.70390 5.38478
#
# Compressibility (1/GPa) = 0.02078304
#
# Stress axis : x y z
#
# Youngs Moduli (GPa) = 67.15710 101.69148 117.69120
#
# Poissons Ratio (x) = 0.05002 0.29910
# Poissons Ratio (y) = 0.03303 0.37493
# Poissons Ratio (z) = 0.17067 0.32396
#
# Static dielectric constant tensor:
#      x y z
#    x 1.787470 0.000000 0.000000 
#    y 0.000000 1.911260 0.000000 
#    z 0.000000 0.000000 1.722020 
# 
# From -- ./inp_files/27613.got.cif
#   From: 2010.05.17/outbox.cif.g08.bks.cpg/sg50_14_cif.got.tgz:27613.got - 2010.06.03 11:33:33.
