data_PCOD9397683
_publ_section_title
;
Structure prediction by ZEFSAII (Michael W. Deem and Ramdas Pophale) SiO2 
 PCOD9397683
Probable space group: P B A N
;
_chemical_formula_sum "Si O2"
_cell_formula_units_Z 24
_cell_length_a 10.529385
_cell_length_b 17.655315
_cell_length_c 6.161679
_cell_angle_alpha 90.000000
_cell_angle_beta 90.000000
_cell_angle_gamma 90.000000
_cell_volume 1145.453716
_symmetry_space_group_name_H-M "P B A N"
_symmetry_group_IT_number 50
_space_group.IT_coordinate_system_code '2'
_symmetry_cell_setting 'orthorhombic'
loop_
_space_group_symop_operation_xyz
x,y,z
1/2-x,1/2-y,z
x,1/2-y,-z
1/2-x,y,-z
-x,-y,-z
1/2+x,1/2+y,-z
-x,1/2+y,z
1/2+x,-y,z
loop_
_atom_site_type_symbol
_atom_site_label
_atom_site_fract_x
_atom_site_fract_y
_atom_site_fract_z
Si Si1 0.250000 0.750000 0.500000
Si Si2 0.250000 0.250000 0.000000
Si Si3 0.148574 0.621793 0.810845
Si Si4 0.135310 0.106606 0.845112
Si Si5 0.750000 0.992912 0.500000
O O1 0.164114 0.694687 0.651625
O O2 0.169007 0.304563 0.153628
O O3 0.183188 0.548709 0.668549
O O4 0.010569 0.605619 0.913271
O O5 0.250000 0.632074 0.000000
O O6 0.152001 0.061810 0.622973
O O7 0.250000 0.076590 0.000000
#
# Coordination Sequence:
#
# PCOD9397683 Si02
#       5
#     2   2   8   8   4
#     4  10  26  40  68  98 132 178 214 280 328 394
#     4   8  24  42  62  96 122 178 210 266 328 376
#     4  11  25  43  69  98 135 172 223 271 331 389
#     4  10  24  44  67  97 134 173 220 274 328 384
#     4  11  24  42  66 101 132 176 220 267 328 396
#
# _framework density 20.952397999999999
#
# number of rings (size 3 to 8) (size 9 to 14) (size 15 to 20)
#    1.000    0.667    0.000    2.500    4.667   14.000 
#    0.000    0.000    0.000    0.000    0.000    0.000 
#    0.000    0.000    0.000    0.000    0.000    0.000 
#
# Total GULP energy -133747.666593 kJ/mol
# GULP energy per Si atom -5572.819441 kJ/mol
# Density = 2.090471 g / cm^3
# Si number density = 20.952398 Si / 1000 Ang^3
#
#
#
# Elastic Constant Matrix: (Units=GPa)
#
#
# Indices 1 2 3 4 5 6 
#
# 1 165.1825 26.5854 50.5172 0.0000 0.0000 0.0000
# 2 26.5854 131.8489 49.8906 0.0000 0.0000 0.0000
# 3 50.5172 49.8906 88.6575 0.0000 0.0000 0.0000
# 4 0.0000 0.0000 0.0000 35.7397 0.0000 0.0000
# 5 0.0000 0.0000 0.0000 0.0000 25.9969 0.0000
# 6 0.0000 0.0000 0.0000 0.0000 0.0000 -25.9969
#
#
#
# Elastic Compliance Matrix: (Units=1/GPa)
#
#
# Indices 1 2 3 4 5 6 
#
# 1 0.007333 0.000130 -0.004252 0.000000 0.000000 0.000000
# 2 0.000130 0.009639 -0.005498 0.000000 0.000000 0.000000
# 3 -0.004252 -0.005498 0.016796 0.000000 0.000000 0.000000
# 4 0.000000 0.000000 0.000000 0.027980 0.000000 0.000000
# 5 0.000000 0.000000 0.000000 0.000000 0.038466 0.000000
# 6 0.000000 0.000000 0.000000 0.000000 0.000000 -0.038466
#
#
# Mechanical properties :
#
#
# Convention : Reuss Voigt Hill
#
# Bulk Modulus (GPa) = 68.83053 71.07504 69.95279
# Shear Modulus (GPa) = 58.25440 24.39432 41.32436
#
# Velocity S-wave (km/s) = 5.27860 3.41585 4.44587
# Velocity P-wave (km/s) = 8.37100 7.03940 7.73391
#
# Compressibility (1/GPa) = 0.01452844
#
# Stress axis : x y z
#
# Youngs Moduli (GPa) = 136.36495 103.74891 59.53781
#
# Poissons Ratio (x) = -0.01351 0.25314
# Poissons Ratio (y) = -0.01775 0.32735
# Poissons Ratio (z) = 0.57979 0.57043
#
# Static dielectric constant tensor:
#      x y z
#    x 1.930580 0.000000 0.000000 
#    y 0.000000 1.759740 0.000000 
#    z 0.000000 0.000000 1.771490 
# 
# From -- ./inp_files/1734.got.cif
#   From: 2010.05.17/outbox.cif.g08.bks.cpg/sg50_1_cif.got.tgz:1734.got - 2010.06.03 11:33:33.
