data_PCOD9397238
_publ_section_title
;
Structure prediction by ZEFSAII (Michael W. Deem and Ramdas Pophale) SiO2 
 PCOD9397238
Probable space group: P B A N
;
_chemical_formula_sum "Si O2"
_cell_formula_units_Z 64
_cell_length_a 13.630313
_cell_length_b 24.130421
_cell_length_c 9.175917
_cell_angle_alpha 90.000000
_cell_angle_beta 90.000000
_cell_angle_gamma 90.000000
_cell_volume 3018.006734
_symmetry_space_group_name_H-M "P B A N"
_symmetry_group_IT_number 50
_space_group.IT_coordinate_system_code '2'
_symmetry_cell_setting 'orthorhombic'
loop_
_space_group_symop_operation_xyz
x,y,z
1/2-x,1/2-y,z
x,1/2-y,-z
1/2-x,y,-z
-x,-y,-z
1/2+x,1/2+y,-z
-x,1/2+y,z
1/2+x,-y,z
loop_
_atom_site_type_symbol
_atom_site_label
_atom_site_fract_x
_atom_site_fract_y
_atom_site_fract_z
Si Si1 0.656282 0.111477 0.040075
Si Si2 0.140577 0.402445 0.668502
Si Si3 0.351992 0.719122 0.854265
Si Si4 0.142540 0.075045 0.758037
Si Si5 0.358526 0.991335 0.469213
Si Si6 0.435255 0.889483 0.644761
Si Si7 0.954810 0.941335 0.958843
Si Si8 0.005350 0.695349 0.414935
O O1 0.637600 0.115885 0.215731
O O2 0.750000 0.072734 0.000000
O O3 0.676447 0.159968 0.920317
O O4 0.547928 0.096581 0.987678
O O5 0.255384 0.397916 0.708280
O O6 0.135901 0.448322 0.542957
O O7 0.084472 0.432815 0.799058
O O8 0.082781 0.346198 0.631125
O O9 0.250000 0.750000 0.812669
O O10 0.428885 0.713134 0.724033
O O11 0.392592 0.750000 0.000000
O O12 0.046058 0.108419 0.706567
O O13 0.132385 0.011297 0.697222
O O14 0.132252 0.072423 0.930618
O O15 0.250000 0.969080 0.500000
O O16 0.423682 0.946378 0.551431
O O17 0.428475 0.839863 0.529210
O O18 0.000000 0.000000 0.000000
O O19 0.970468 0.750000 0.500000
#
# Coordination Sequence:
#
# PCOD9397238 Si02
#       8
#     8   8   8   8   8   8   8   8
#     4  11  23  42  66  98 135 187 225 280 356 425
#     4  11  22  44  68 103 140 186 242 292 360 427
#     4  11  23  46  71  94 136 183 229 290 359 424
#     4  10  22  40  71  98 139 191 232 287 359 425
#     4  10  22  41  67 101 144 188 221 287 356 432
#     4  11  24  43  68 106 143 180 239 288 360 432
#     4  11  24  39  66 104 144 186 234 291 354 443
#     4  12  27  44  70 105 138 184 243 304 359 428
#
# _framework density 21.206050000000001
#
# number of rings (size 3 to 8) (size 9 to 14) (size 15 to 20)
#    0.000    1.125    3.750    3.000    1.750    4.250 
#    0.000    1.250    0.000    0.000    0.000    0.000 
#    0.000    0.000    0.000    0.000    0.000    0.000 
#
# Total GULP energy -356858.267771 kJ/mol
# GULP energy per Si atom -5575.910434 kJ/mol
# Density = 2.115778 g / cm^3
# Si number density = 21.206050 Si / 1000 Ang^3
#
#
#
# Elastic Constant Matrix: (Units=GPa)
#
#
# Indices 1 2 3 4 5 6 
#
# 1 139.7253 36.3247 56.0988 0.0000 0.0000 0.0000
# 2 36.3247 77.5071 16.0265 0.0000 0.0000 0.0000
# 3 56.0988 16.0265 85.0002 0.0000 0.0000 0.0000
# 4 0.0000 0.0000 0.0000 23.2873 0.0000 0.0000
# 5 0.0000 0.0000 0.0000 0.0000 44.7055 0.0000
# 6 0.0000 0.0000 0.0000 0.0000 0.0000 16.7463
#
#
#
# Elastic Compliance Matrix: (Units=1/GPa)
#
#
# Indices 1 2 3 4 5 6 
#
# 1 0.010661 -0.003685 -0.006341 0.000000 0.000000 0.000000
# 2 -0.003685 0.014699 -0.000339 0.000000 0.000000 0.000000
# 3 -0.006341 -0.000339 0.016014 0.000000 0.000000 0.000000
# 4 0.000000 0.000000 0.000000 0.042942 0.000000 0.000000
# 5 0.000000 0.000000 0.000000 0.000000 0.022369 0.000000
# 6 0.000000 0.000000 0.000000 0.000000 0.000000 0.059715
#
#
# Mechanical properties :
#
#
# Convention : Reuss Voigt Hill
#
# Bulk Modulus (GPa) = 48.44371 57.68141 53.06256
# Shear Modulus (GPa) = 25.77171 29.86668 27.81920
#
# Velocity S-wave (km/s) = 3.48990 3.75694 3.62588
# Velocity P-wave (km/s) = 6.25564 6.78815 6.52733
#
# Compressibility (1/GPa) = 0.02064251
#
# Stress axis : x y z
#
# Youngs Moduli (GPa) = 93.80082 68.03042 62.44632
#
# Poissons Ratio (x) = 0.25070 0.39598
# Poissons Ratio (y) = 0.34567 0.02119
# Poissons Ratio (z) = 0.59481 0.02309
#
# Static dielectric constant tensor:
#      x y z
#    x 1.822690 0.000000 0.000000 
#    y 0.000000 -30.821870 0.000000 
#    z 0.000000 0.000000 1.842690 
# 
# From -- ./inp_files/13468.got.cif
#   From: 2010.05.17/outbox.cif.g08.bks.cpg/sg50_7_cif.got.tgz:13468.got - 2010.06.03 11:33:33.
