data_PCOD9397135
_publ_section_title
;
Structure prediction by ZEFSAII (Michael W. Deem and Ramdas Pophale) SiO2 
 PCOD9397135
Probable space group: P B A N
;
_chemical_formula_sum "Si O2"
_cell_formula_units_Z 58
_cell_length_a 19.924585
_cell_length_b 15.935655
_cell_length_c 9.457864
_cell_angle_alpha 90.000000
_cell_angle_beta 90.000000
_cell_angle_gamma 90.000000
_cell_volume 3002.978813
_symmetry_space_group_name_H-M "P B A N"
_symmetry_group_IT_number 50
_space_group.IT_coordinate_system_code '2'
_symmetry_cell_setting 'orthorhombic'
loop_
_space_group_symop_operation_xyz
x,y,z
1/2-x,1/2-y,z
x,1/2-y,-z
1/2-x,y,-z
-x,-y,-z
1/2+x,1/2+y,-z
-x,1/2+y,z
1/2+x,-y,z
loop_
_atom_site_type_symbol
_atom_site_label
_atom_site_fract_x
_atom_site_fract_y
_atom_site_fract_z
Si Si1 0.930199 0.847420 0.756519
Si Si2 0.310263 0.914900 0.401889
Si Si3 0.925347 0.533172 0.508894
Si Si4 0.681597 0.432247 0.067311
Si Si5 0.750000 0.250000 0.500000
Si Si6 0.826633 0.626844 0.004464
Si Si7 0.435207 0.156155 0.230765
Si Si8 0.961673 0.149001 0.007346
O O1 0.915869 0.909343 0.628485
O O2 0.864605 0.847461 0.854273
O O3 0.946664 0.751138 0.715242
O O4 0.991647 0.876210 0.858914
O O5 0.250000 0.950382 0.500000
O O6 0.309271 0.936621 0.236695
O O7 0.297466 0.814466 0.414344
O O8 0.376362 0.954091 0.470779
O O9 0.919029 0.592715 0.644942
O O10 0.000000 0.500000 0.500000
O O11 0.613154 0.384624 0.027109
O O12 0.750000 0.395522 0.000000
O O13 0.673643 0.526011 0.007799
O O14 0.750000 0.654646 0.000000
O O15 0.872710 0.658874 0.876777
O O16 0.498379 0.124524 0.135795
O O17 0.960992 0.250000 0.000000
#
# Coordination Sequence:
#
# PCOD9397135 Si02
#       8
#     8   8   8   8   2   8   8   8
#     4  10  23  40  64  93 130 167 212 260 329 384
#     4  10  24  47  65  93 133 172 219 268 333 391
#     4  12  25  40  66  95 130 173 220 273 324 397
#     4  11  23  38  65  97 124 164 222 269 320 388
#     4   8  24  48  74  84 138 180 216 268 336 396
#     4  10  22  38  65  93 123 164 208 263 320 388
#     4  10  22  43  62  93 130 166 213 266 321 392
#     4   9  21  41  62  90 129 167 208 274 324 386
#
# _framework density 19.314155
#
# number of rings (size 3 to 8) (size 9 to 14) (size 15 to 20)
#    0.414    1.379    1.379    2.483    5.793    3.586 
#    7.448    0.000    0.000    2.483    0.000    0.000 
#    0.000    0.000    0.000    0.000    0.000    0.000 
#
# Total GULP energy -323620.848904 kJ/mol
# GULP energy per Si atom -5579.669809 kJ/mol
# Density = 1.927019 g / cm^3
# Si number density = 19.314155 Si / 1000 Ang^3
#
#
#
# Elastic Constant Matrix: (Units=GPa)
#
#
# Indices 1 2 3 4 5 6 
#
# 1 161.6563 29.6227 54.6698 0.0000 0.0000 0.0000
# 2 29.6227 70.2459 35.9587 0.0000 0.0000 0.0000
# 3 54.6698 35.9587 103.9615 0.0000 0.0000 0.0000
# 4 0.0000 0.0000 0.0000 12.2004 0.0000 0.0000
# 5 0.0000 0.0000 0.0000 0.0000 15.2673 0.0000
# 6 0.0000 0.0000 0.0000 0.0000 0.0000 31.3069
#
#
#
# Elastic Compliance Matrix: (Units=1/GPa)
#
#
# Indices 1 2 3 4 5 6 
#
# 1 0.007638 -0.001416 -0.003527 0.000000 0.000000 0.000000
# 2 -0.001416 0.017561 -0.005330 0.000000 0.000000 0.000000
# 3 -0.003527 -0.005330 0.013317 0.000000 0.000000 0.000000
# 4 0.000000 0.000000 0.000000 0.081964 0.000000 0.000000
# 5 0.000000 0.000000 0.000000 0.000000 0.065499 0.000000
# 6 0.000000 0.000000 0.000000 0.000000 0.000000 0.031942
#
#
# Mechanical properties :
#
#
# Convention : Reuss Voigt Hill
#
# Bulk Modulus (GPa) = 55.64301 64.04070 59.84185
# Shear Modulus (GPa) = 20.45351 26.12908 23.29130
#
# Velocity S-wave (km/s) = 3.25774 3.68210 3.47640
# Velocity P-wave (km/s) = 6.55916 7.16285 6.86764
#
# Compressibility (1/GPa) = 0.01797171
#
# Stress axis : x y z
#
# Youngs Moduli (GPa) = 130.92186 56.94479 75.09119
#
# Poissons Ratio (x) = 0.08061 0.26485
# Poissons Ratio (y) = 0.18532 0.40021
# Poissons Ratio (z) = 0.46177 0.30350
#
# Static dielectric constant tensor:
#      x y z
#    x 1.665560 0.000000 0.000000 
#    y 0.000000 1.663990 0.000000 
#    z 0.000000 0.000000 1.650100 
# 
# From -- ./inp_files/14472.got.cif
#   From: 2010.05.17/outbox.cif.g08.bks.cpg/sg50_8_cif.got.tgz:14472.got - 2010.06.03 11:33:33.
