data_PCOD9397787
_publ_section_title
;
Structure prediction by ZEFSAII (Michael W. Deem and Ramdas Pophale) SiO2 
 PCOD9397787
Probable space group: P B A N
;
_chemical_formula_sum "Si O2"
_cell_formula_units_Z 32
_cell_length_a 5.460444
_cell_length_b 13.853604
_cell_length_c 15.977016
_cell_angle_alpha 90.000000
_cell_angle_beta 90.000000
_cell_angle_gamma 90.000000
_cell_volume 1208.610595
_symmetry_space_group_name_H-M "P B A N"
_symmetry_group_IT_number 50
_space_group.IT_coordinate_system_code '2'
_symmetry_cell_setting 'orthorhombic'
loop_
_space_group_symop_operation_xyz
x,y,z
1/2-x,1/2-y,z
x,1/2-y,-z
1/2-x,y,-z
-x,-y,-z
1/2+x,1/2+y,-z
-x,1/2+y,z
1/2+x,-y,z
loop_
_atom_site_type_symbol
_atom_site_label
_atom_site_fract_x
_atom_site_fract_y
_atom_site_fract_z
Si Si1 0.074562 0.094560 0.688486
Si Si2 0.750000 0.750000 0.500000
Si Si3 0.099056 0.662330 0.856850
Si Si4 0.930964 0.126012 0.372908
Si Si5 0.750000 0.750000 0.000000
Si Si6 0.750000 0.055888 0.000000
O O1 0.996886 0.092069 0.785110
O O2 0.852814 0.152578 0.643383
O O3 0.342161 0.143279 0.690624
O O4 0.094664 0.991978 0.639790
O O5 0.936804 0.824754 0.547459
O O6 0.250000 0.750000 0.816197
O O7 0.295349 0.612928 0.914843
O O8 0.912033 0.692112 0.931252
O O9 0.500000 0.000000 0.000000
#
# Coordination Sequence:
#
# PCOD9397787 Si02
#       6
#     8   2   8   8   2   4
#     4  10  26  47  75 106 155 200 248 311 381 459
#     4  12  28  48  88 114 154 192 240 326 376 488
#     4  12  27  47  74 107 157 210 266 334 373 462
#     4  10  26  49  73 115 147 194 249 301 398 460
#     4  12  24  50  72 116 160 208 282 328 396 428
#     4  12  28  44  71 111 148 206 260 316 402 437
#
# _framework density 26.476682
#
# number of rings (size 3 to 8) (size 9 to 14) (size 15 to 20)
#    0.000    1.000    2.500    0.750   14.000    6.000 
#    0.000    0.000    0.000    0.000    0.000    0.000 
#    0.000    0.000    0.000    0.000    0.000    0.000 
#
# Total GULP energy -178199.209801 kJ/mol
# GULP energy per Si atom -5568.725306 kJ/mol
# Density = 2.641642 g / cm^3
# Si number density = 26.476682 Si / 1000 Ang^3
#
#
#
# Elastic Constant Matrix: (Units=GPa)
#
#
# Indices 1 2 3 4 5 6 
#
# 1 163.1873 5.9499 7.7729 0.0000 0.0000 0.0000
# 2 5.9499 87.7229 31.7371 0.0000 0.0000 0.0000
# 3 7.7729 31.7371 128.1049 0.0000 0.0000 0.0000
# 4 0.0000 0.0000 0.0000 -40.4268 0.0000 0.0000
# 5 0.0000 0.0000 0.0000 0.0000 36.6657 0.0000
# 6 0.0000 0.0000 0.0000 0.0000 0.0000 16.0890
#
#
#
# Elastic Compliance Matrix: (Units=1/GPa)
#
#
# Indices 1 2 3 4 5 6 
#
# 1 0.006153 -0.000310 -0.000297 0.000000 0.000000 0.000000
# 2 -0.000310 0.012537 -0.003087 0.000000 0.000000 0.000000
# 3 -0.000297 -0.003087 0.008589 0.000000 0.000000 0.000000
# 4 0.000000 0.000000 0.000000 -0.024736 0.000000 0.000000
# 5 0.000000 0.000000 0.000000 0.000000 0.027273 0.000000
# 6 0.000000 0.000000 0.000000 0.000000 0.000000 0.062154
#
#
# Mechanical properties :
#
#
# Convention : Reuss Voigt Hill
#
# Bulk Modulus (GPa) = 50.27136 52.21499 51.24317
# Shear Modulus (GPa) = 47.17437 24.70261 35.93849
#
# Velocity S-wave (km/s) = 4.22564 3.05781 3.68824
# Velocity P-wave (km/s) = 6.54494 5.67722 6.12646
#
# Compressibility (1/GPa) = 0.01989204
#
# Stress axis : x y z
#
# Youngs Moduli (GPa) = 162.51292 79.76076 116.42882
#
# Poissons Ratio (x) = 0.02473 0.03453
# Poissons Ratio (y) = 0.05039 0.35945
# Poissons Ratio (z) = 0.04819 0.24624
#
# Static dielectric constant tensor:
#      x y z
#    x 2.161510 0.000000 0.000000 
#    y 0.000000 1.921050 0.000000 
#    z 0.000000 0.000000 1.910550 
# 
# From -- ./inp_files/23753.got.cif
#   From: 2010.05.17/outbox.cif.g08.bks.cpg/sg50_12_cif.got.tgz:23753.got - 2010.06.03 11:33:33.
