data_PCOD9397681
_publ_section_title
;
Structure prediction by ZEFSAII (Michael W. Deem and Ramdas Pophale) SiO2 
 PCOD9397681
Probable space group: P B A N
;
_chemical_formula_sum "Si O2"
_cell_formula_units_Z 40
_cell_length_a 9.296529
_cell_length_b 24.308216
_cell_length_c 7.865216
_cell_angle_alpha 90.000000
_cell_angle_beta 90.000000
_cell_angle_gamma 90.000000
_cell_volume 1777.397517
_symmetry_space_group_name_H-M "P B A N"
_symmetry_group_IT_number 50
_space_group.IT_coordinate_system_code '2'
_symmetry_cell_setting 'orthorhombic'
loop_
_space_group_symop_operation_xyz
x,y,z
1/2-x,1/2-y,z
x,1/2-y,-z
1/2-x,y,-z
-x,-y,-z
1/2+x,1/2+y,-z
-x,1/2+y,z
1/2+x,-y,z
loop_
_atom_site_type_symbol
_atom_site_label
_atom_site_fract_x
_atom_site_fract_y
_atom_site_fract_z
Si Si1 0.444504 0.933876 0.663519
Si Si2 0.119550 0.384717 0.634266
Si Si3 0.235426 0.017551 0.805282
Si Si4 0.332713 0.675864 0.177291
Si Si5 0.949821 0.220972 0.319216
O O1 0.495419 0.914385 0.477611
O O2 0.575009 0.967830 0.748184
O O3 0.414602 0.878434 0.768404
O O4 0.306325 0.972175 0.683886
O O5 0.250000 0.376773 0.500000
O O6 0.174202 0.426431 0.776774
O O7 0.065734 0.326723 0.704562
O O8 0.250000 0.999287 0.000000
O O9 0.204177 0.690321 0.308322
O O10 0.436378 0.728772 0.187281
O O11 0.250000 0.670197 0.000000
O O12 0.973073 0.250000 0.500000
#
# Coordination Sequence:
#
# PCOD9397681 Si02
#       5
#     8   8   8   8   8
#     4  11  24  44  67  97 137 176 228 278 342 410
#     4  10  24  44  66  97 135 178 228 281 338 417
#     4  11  25  44  67 100 132 181 224 282 352 406
#     4  11  24  41  66 104 133 172 226 284 337 407
#     4  11  22  42  67  95 130 176 227 270 341 399
#
# _framework density 22.504815000000001
#
# number of rings (size 3 to 8) (size 9 to 14) (size 15 to 20)
#    0.000    1.200    2.000    4.200    5.600    0.400 
#    0.000    0.000    0.000    1.200    0.000    0.000 
#    0.000    0.000    0.000    0.000    0.000    0.000 
#
# Total GULP energy -223866.224982 kJ/mol
# GULP energy per Si atom -5596.655625 kJ/mol
# Density = 2.245359 g / cm^3
# Si number density = 22.504815 Si / 1000 Ang^3
#
#
#
# Elastic Constant Matrix: (Units=GPa)
#
#
# Indices 1 2 3 4 5 6 
#
# 1 85.8142 74.5256 22.3578 0.0000 0.0000 0.0000
# 2 74.5256 125.9647 13.3084 0.0000 0.0000 0.0000
# 3 22.3578 13.3084 63.9659 0.0000 0.0000 0.0000
# 4 0.0000 0.0000 0.0000 17.0327 0.0000 0.0000
# 5 0.0000 0.0000 0.0000 0.0000 18.4335 0.0000
# 6 0.0000 0.0000 0.0000 0.0000 0.0000 50.8733
#
#
#
# Elastic Compliance Matrix: (Units=1/GPa)
#
#
# Indices 1 2 3 4 5 6 
#
# 1 0.026063 -0.014782 -0.006034 0.000000 0.000000 0.000000
# 2 -0.014782 0.016501 0.001734 0.000000 0.000000 0.000000
# 3 -0.006034 0.001734 0.017382 0.000000 0.000000 0.000000
# 4 0.000000 0.000000 0.000000 0.058711 0.000000 0.000000
# 5 0.000000 0.000000 0.000000 0.000000 0.054249 0.000000
# 6 0.000000 0.000000 0.000000 0.000000 0.000000 0.019657
#
#
# Mechanical properties :
#
#
# Convention : Reuss Voigt Hill
#
# Bulk Modulus (GPa) = 45.91294 55.12535 50.51914
# Shear Modulus (GPa) = 21.00942 28.30476 24.65709
#
# Velocity S-wave (km/s) = 3.05872 3.55028 3.31363
# Velocity P-wave (km/s) = 5.73760 6.43072 6.09402
#
# Compressibility (1/GPa) = 0.02178035
#
# Stress axis : x y z
#
# Youngs Moduli (GPa) = 38.36858 60.60100 57.53156
#
# Poissons Ratio (x) = 0.89583 0.34716
# Poissons Ratio (y) = 0.56718 -0.09974
# Poissons Ratio (z) = 0.23152 -0.10506
#
# Static dielectric constant tensor:
#      x y z
#    x 1.846760 0.000000 0.000000 
#    y 0.000000 1.817730 0.000000 
#    z 0.000000 0.000000 0.779280 
# 
# From -- ./inp_files/9493.got.cif
#   From: 2010.05.17/outbox.cif.g08.bks.cpg/sg50_5_cif.got.tgz:9493.got - 2010.06.03 11:33:33.
