data_PCOD9397703
_publ_section_title
;
Structure prediction by ZEFSAII (Michael W. Deem and Ramdas Pophale) SiO2 
 PCOD9397703
Probable space group: P B A N
;
_chemical_formula_sum "Si O2"
_cell_formula_units_Z 40
_cell_length_a 9.034271
_cell_length_b 23.965561
_cell_length_c 7.324055
_cell_angle_alpha 90.000000
_cell_angle_beta 90.000000
_cell_angle_gamma 90.000000
_cell_volume 1585.741202
_symmetry_space_group_name_H-M "P B A N"
_symmetry_group_IT_number 50
_space_group.IT_coordinate_system_code '2'
_symmetry_cell_setting 'orthorhombic'
loop_
_space_group_symop_operation_xyz
x,y,z
1/2-x,1/2-y,z
x,1/2-y,-z
1/2-x,y,-z
-x,-y,-z
1/2+x,1/2+y,-z
-x,1/2+y,z
1/2+x,-y,z
loop_
_atom_site_type_symbol
_atom_site_label
_atom_site_fract_x
_atom_site_fract_y
_atom_site_fract_z
Si Si1 0.384446 0.631227 0.641077
Si Si2 0.706527 0.667081 0.213636
Si Si3 0.433260 0.438317 0.637037
Si Si4 0.252380 0.533271 0.799865
Si Si5 0.509970 0.737997 0.781944
O O1 0.250000 0.627031 0.500000
O O2 0.518984 0.597146 0.542844
O O3 0.341442 0.591743 0.810559
O O4 0.389767 0.695734 0.705040
O O5 0.674448 0.604550 0.261350
O O6 0.558325 0.700284 0.277081
O O7 0.847669 0.700979 0.282917
O O8 0.750000 0.670950 0.000000
O O9 0.341273 0.495552 0.654022
O O10 0.586327 0.453225 0.737873
O O11 0.250000 0.506561 0.000000
O O12 0.492800 0.750000 0.000000
#
# Coordination Sequence:
#
# PCOD9397703 Si02
#       5
#     8   8   8   8   8
#     4  10  24  45  68 104 146 186 245 303 370 439
#     4   9  20  39  70 105 136 178 239 298 352 434
#     4  11  24  43  67 105 150 187 242 306 362 432
#     4  11  25  42  69 101 144 198 250 294 367 440
#     4   9  20  41  73 102 136 182 241 294 364 437
#
# _framework density 25.224796999999999
#
# number of rings (size 3 to 8) (size 9 to 14) (size 15 to 20)
#    0.000    2.000    0.000    3.000    8.400    1.600 
#    0.000    9.000    0.000    0.000    0.000    0.000 
#    0.000    0.000    0.000    0.000    0.000    0.000 
#
# Total GULP energy -222947.749890 kJ/mol
# GULP energy per Si atom -5573.693747 kJ/mol
# Density = 2.516738 g / cm^3
# Si number density = 25.224797 Si / 1000 Ang^3
#
#
#
# Elastic Constant Matrix: (Units=GPa)
#
#
# Indices 1 2 3 4 5 6 
#
# 1 76.1688 18.1549 37.0834 0.0000 0.0000 0.0000
# 2 18.1549 123.9326 29.4667 0.0000 0.0000 0.0000
# 3 37.0834 29.4667 101.2065 0.0000 0.0000 0.0000
# 4 0.0000 0.0000 0.0000 36.0653 0.0000 0.0000
# 5 0.0000 0.0000 0.0000 0.0000 13.2040 0.0000
# 6 0.0000 0.0000 0.0000 0.0000 0.0000 42.0293
#
#
#
# Elastic Compliance Matrix: (Units=1/GPa)
#
#
# Indices 1 2 3 4 5 6 
#
# 1 0.016100 -0.001027 -0.005600 0.000000 0.000000 0.000000
# 2 -0.001027 0.008735 -0.002167 0.000000 0.000000 0.000000
# 3 -0.005600 -0.002167 0.012564 0.000000 0.000000 0.000000
# 4 0.000000 0.000000 0.000000 0.027728 0.000000 0.000000
# 5 0.000000 0.000000 0.000000 0.000000 0.075735 0.000000
# 6 0.000000 0.000000 0.000000 0.000000 0.000000 0.023793
#
#
# Mechanical properties :
#
#
# Convention : Reuss Voigt Hill
#
# Bulk Modulus (GPa) = 50.47907 52.30200 51.39054
# Shear Modulus (GPa) = 26.47675 32.69990 29.58832
#
# Velocity S-wave (km/s) = 3.24332 3.60438 3.42860
# Velocity P-wave (km/s) = 5.83786 6.17263 6.00758
#
# Compressibility (1/GPa) = 0.01981019
#
# Stress axis : x y z
#
# Youngs Moduli (GPa) = 62.11159 114.48816 79.59450
#
# Poissons Ratio (x) = 0.11757 0.44575
# Poissons Ratio (y) = 0.06379 0.17247
# Poissons Ratio (z) = 0.34784 0.24807
#
# Static dielectric constant tensor:
#      x y z
#    x 2.079360 0.000000 0.000000 
#    y 0.000000 2.026520 0.000000 
#    z 0.000000 0.000000 2.013610 
# 
# From -- ./inp_files/9477.got.cif
#   From: 2010.05.17/outbox.cif.g08.bks.cpg/sg50_5_cif.got.tgz:9477.got - 2010.06.03 11:33:33.
