data_PCOD9397492
_publ_section_title
;
Structure prediction by ZEFSAII (Michael W. Deem and Ramdas Pophale) SiO2 
 PCOD9397492
Probable space group: P B A N
;
_chemical_formula_sum "Si O2"
_cell_formula_units_Z 58
_cell_length_a 9.607924
_cell_length_b 27.925267
_cell_length_c 10.851219
_cell_angle_alpha 90.000000
_cell_angle_beta 90.000000
_cell_angle_gamma 90.000000
_cell_volume 2911.423759
_symmetry_space_group_name_H-M "P B A N"
_symmetry_group_IT_number 50
_space_group.IT_coordinate_system_code '2'
_symmetry_cell_setting 'orthorhombic'
loop_
_space_group_symop_operation_xyz
x,y,z
1/2-x,1/2-y,z
x,1/2-y,-z
1/2-x,y,-z
-x,-y,-z
1/2+x,1/2+y,-z
-x,1/2+y,z
1/2+x,-y,z
loop_
_atom_site_type_symbol
_atom_site_label
_atom_site_fract_x
_atom_site_fract_y
_atom_site_fract_z
Si Si1 0.186121 0.532044 0.283392
Si Si2 0.993196 0.938887 0.275909
Si Si3 0.077528 0.811687 0.689817
Si Si4 0.086679 0.261302 0.137061
Si Si5 0.598591 0.632908 0.063845
Si Si6 0.910382 0.393208 0.521643
Si Si7 0.855361 0.380852 0.887865
Si Si8 0.750000 0.250000 0.500000
O O1 0.353803 0.536004 0.275248
O O2 0.121253 0.558223 0.403051
O O3 0.138154 0.566666 0.171798
O O4 0.124868 0.479249 0.284043
O O5 0.009482 0.904756 0.395835
O O6 0.955769 0.909157 0.153189
O O7 0.011442 0.855464 0.610465
O O8 0.177276 0.841487 0.783279
O O9 0.156799 0.781206 0.589599
O O10 0.986639 0.773674 0.766030
O O11 0.250000 0.250000 0.138902
O O12 0.079186 0.318721 0.143831
O O13 0.030613 0.250000 0.000000
O O14 0.750000 0.628839 0.000000
O O15 0.500735 0.634304 0.944822
O O16 0.750000 0.375510 0.500000
O O17 0.750000 0.380011 0.000000
#
# Coordination Sequence:
#
# PCOD9397492 Si02
#       8
#     8   8   8   8   8   8   8   2
#     4  10  23  41  67  94 134 176 223 277 336 407
#     4  11  24  42  68  97 132 179 225 280 341 403
#     4  11  24  39  68  97 136 170 221 276 336 407
#     4  11  22  45  70  94 133 178 223 272 335 400
#     4  12  25  42  69  97 133 180 224 281 340 403
#     4   9  20  43  66  94 135 175 217 279 338 399
#     4  11  23  42  64  97 134 173 221 276 339 405
#     4  12  28  36  64 104 132 168 220 276 336 400
#
# _framework density 19.921524999999999
#
# number of rings (size 3 to 8) (size 9 to 14) (size 15 to 20)
#    0.000    1.241    4.828    0.414    5.793    1.103 
#    0.000    0.345    3.034    0.000    0.000    0.000 
#    0.000    0.000    0.000    0.000    0.000    0.000 
#
# Total GULP energy -323401.729342 kJ/mol
# GULP energy per Si atom -5575.891885 kJ/mol
# Density = 1.987618 g / cm^3
# Si number density = 19.921525 Si / 1000 Ang^3
#
#
#
# Elastic Constant Matrix: (Units=GPa)
#
#
# Indices 1 2 3 4 5 6 
#
# 1 62.6554 31.8269 39.2781 0.0000 0.0000 0.0000
# 2 31.8269 92.5142 53.9766 0.0000 0.0000 0.0000
# 3 39.2781 53.9766 131.2746 0.0000 0.0000 0.0000
# 4 0.0000 0.0000 0.0000 34.8273 0.0000 0.0000
# 5 0.0000 0.0000 0.0000 0.0000 16.1089 0.0000
# 6 0.0000 0.0000 0.0000 0.0000 0.0000 -7.6837
#
#
#
# Elastic Compliance Matrix: (Units=1/GPa)
#
#
# Indices 1 2 3 4 5 6 
#
# 1 0.021093 -0.004702 -0.004378 0.000000 0.000000 0.000000
# 2 -0.004702 0.015269 -0.004871 0.000000 0.000000 0.000000
# 3 -0.004378 -0.004871 0.010930 0.000000 0.000000 0.000000
# 4 0.000000 0.000000 0.000000 0.028713 0.000000 0.000000
# 5 0.000000 0.000000 0.000000 0.000000 0.062078 0.000000
# 6 0.000000 0.000000 0.000000 0.000000 0.000000 -0.130146
#
#
# Mechanical properties :
#
#
# Convention : Reuss Voigt Hill
#
# Bulk Modulus (GPa) = 51.57308 59.62304 55.59806
# Shear Modulus (GPa) = 118.19533 19.40802 68.80168
#
# Velocity S-wave (km/s) = 7.71098 3.12464 5.88314
# Velocity P-wave (km/s) = 10.25784 6.55834 8.60916
#
# Compressibility (1/GPa) = 0.01938996
#
# Stress axis : x y z
#
# Youngs Moduli (GPa) = 47.40832 65.49252 91.48824
#
# Poissons Ratio (x) = 0.30797 0.40051
# Poissons Ratio (y) = 0.22293 0.44566
# Poissons Ratio (z) = 0.20754 0.31903
#
# Static dielectric constant tensor:
#      x y z
#    x 1.720770 0.000000 0.000000 
#    y 0.000000 1.716730 0.000000 
#    z 0.000000 0.000000 1.722840 
# 
# From -- ./inp_files/19396.got.cif
#   From: 2010.05.17/outbox.cif.g08.bks.cpg/sg50_10_cif.got.tgz:19396.got - 2010.06.03 11:33:33.
