data_PCOD9397664
_publ_section_title
;
Structure prediction by ZEFSAII (Michael W. Deem and Ramdas Pophale) SiO2 
 PCOD9397664
Probable space group: P B A N
;
_chemical_formula_sum "Si O2"
_cell_formula_units_Z 32
_cell_length_a 11.064699
_cell_length_b 8.701605
_cell_length_c 14.972747
_cell_angle_alpha 90.000000
_cell_angle_beta 90.000000
_cell_angle_gamma 90.000000
_cell_volume 1441.585666
_symmetry_space_group_name_H-M "P B A N"
_symmetry_group_IT_number 50
_space_group.IT_coordinate_system_code '2'
_symmetry_cell_setting 'orthorhombic'
loop_
_space_group_symop_operation_xyz
x,y,z
1/2-x,1/2-y,z
x,1/2-y,-z
1/2-x,y,-z
-x,-y,-z
1/2+x,1/2+y,-z
-x,1/2+y,z
1/2+x,-y,z
loop_
_atom_site_type_symbol
_atom_site_label
_atom_site_fract_x
_atom_site_fract_y
_atom_site_fract_z
Si Si1 0.495292 0.641836 0.066479
Si Si2 0.152840 0.957380 0.422938
Si Si3 0.811268 0.085619 0.784268
Si Si4 0.750000 0.750000 0.140310
Si Si5 0.946199 0.750000 0.500000
O O1 0.436126 0.598006 0.160591
O O2 0.623553 0.722128 0.088544
O O3 0.418057 0.750000 0.000000
O O4 0.500000 0.500000 0.000000
O O5 0.250000 0.919159 0.500000
O O6 0.187540 0.918689 0.322823
O O7 0.031662 0.862717 0.443743
O O8 0.127754 0.138360 0.435631
O O9 0.750000 0.250000 0.808566
O O10 0.761257 0.916443 0.810889
#
# Coordination Sequence:
#
# PCOD9397664 Si02
#       5
#     8   8   8   4   4
#     4  12  26  48  77 109 157 207 264 328 400 467
#     4  11  25  46  72 109 147 197 252 325 391 475
#     4  12  29  47  78 115 156 206 270 323 401 483
#     4  12  29  48  79 114 156 208 269 330 396 475
#     4  10  24  42  74 100 148 194 244 310 406 458
#
# _framework density 22.197776999999999
#
# number of rings (size 3 to 8) (size 9 to 14) (size 15 to 20)
#    0.000    0.500    2.500    4.125    7.000    4.500 
#    0.000    0.000    0.000    0.000    0.000    0.000 
#    0.000    0.000    0.000    0.000    0.000    0.000 
#
# Total GULP energy -178328.781427 kJ/mol
# GULP energy per Si atom -5572.774420 kJ/mol
# Density = 2.214725 g / cm^3
# Si number density = 22.197777 Si / 1000 Ang^3
#
#
#
# Elastic Constant Matrix: (Units=GPa)
#
#
# Indices 1 2 3 4 5 6 
#
# 1 78.3283 39.4377 56.1722 0.0000 0.0000 0.0000
# 2 39.4377 194.2278 51.6210 0.0000 0.0000 0.0000
# 3 56.1722 51.6210 163.6356 0.0000 0.0000 0.0000
# 4 0.0000 0.0000 0.0000 38.7166 0.0000 0.0000
# 5 0.0000 0.0000 0.0000 0.0000 21.1082 0.0000
# 6 0.0000 0.0000 0.0000 0.0000 0.0000 46.6286
#
#
#
# Elastic Compliance Matrix: (Units=1/GPa)
#
#
# Indices 1 2 3 4 5 6 
#
# 1 0.017732 -0.002164 -0.005404 0.000000 0.000000 0.000000
# 2 -0.002164 0.005884 -0.001113 0.000000 0.000000 0.000000
# 3 -0.005404 -0.001113 0.008317 0.000000 0.000000 0.000000
# 4 0.000000 0.000000 0.000000 0.025829 0.000000 0.000000
# 5 0.000000 0.000000 0.000000 0.000000 0.047375 0.000000
# 6 0.000000 0.000000 0.000000 0.000000 0.000000 0.021446
#
#
# Mechanical properties :
#
#
# Convention : Reuss Voigt Hill
#
# Bulk Modulus (GPa) = 68.63386 81.18369 74.90878
# Shear Modulus (GPa) = 33.60146 40.55474 37.07810
#
# Velocity S-wave (km/s) = 3.89489 4.27895 4.09143
# Velocity P-wave (km/s) = 7.15634 7.81440 7.49260
#
# Compressibility (1/GPa) = 0.01457007
#
# Stress axis : x y z
#
# Youngs Moduli (GPa) = 56.39525 169.95546 120.22866
#
# Poissons Ratio (x) = 0.36781 0.64975
# Poissons Ratio (y) = 0.12205 0.13385
# Poissons Ratio (z) = 0.30477 0.18920
#
# Static dielectric constant tensor:
#      x y z
#    x 1.865960 0.000000 0.000000 
#    y 0.000000 1.943390 0.000000 
#    z 0.000000 0.000000 1.832670 
# 
# From -- ./inp_files/24443.got.cif
#   From: 2010.05.17/outbox.cif.g08.bks.cpg/sg50_13_cif.got.tgz:24443.got - 2010.06.03 11:33:33.
