data_PCOD9397289
_publ_section_title
;
Structure prediction by ZEFSAII (Michael W. Deem and Ramdas Pophale) SiO2 
 PCOD9397289
Probable space group: P B A N
;
_chemical_formula_sum "Si O2"
_cell_formula_units_Z 28
_cell_length_a 9.350959
_cell_length_b 23.194347
_cell_length_c 5.168929
_cell_angle_alpha 90.000000
_cell_angle_beta 90.000000
_cell_angle_gamma 90.000000
_cell_volume 1121.085847
_symmetry_space_group_name_H-M "P B A N"
_symmetry_group_IT_number 50
_space_group.IT_coordinate_system_code '2'
_symmetry_cell_setting 'orthorhombic'
loop_
_space_group_symop_operation_xyz
x,y,z
1/2-x,1/2-y,z
x,1/2-y,-z
1/2-x,y,-z
-x,-y,-z
1/2+x,1/2+y,-z
-x,1/2+y,z
1/2+x,-y,z
loop_
_atom_site_type_symbol
_atom_site_label
_atom_site_fract_x
_atom_site_fract_y
_atom_site_fract_z
Si Si1 0.250000 0.250000 0.500000
Si Si2 0.851281 0.045974 0.751008
Si Si3 0.250000 0.750000 0.500000
Si Si4 0.090794 0.417623 0.614174
Si Si5 0.999512 0.304156 0.806500
O O1 0.355587 0.210982 0.658844
O O2 0.750000 0.048179 0.500000
O O3 0.986545 0.081802 0.637774
O O4 0.905021 0.979498 0.756510
O O5 0.750000 0.059154 0.000000
O O6 0.146395 0.707545 0.345223
O O7 0.250000 0.407418 0.500000
O O8 0.025665 0.372165 0.821242
O O9 0.993455 0.250000 0.000000
#
# Coordination Sequence:
#
# PCOD9397289 Si02
#       5
#     2   8   2   8   8
#     4  10  22  42  60 102 144 182 254 310 392 458
#     4  10  24  48  75 117 161 208 273 326 409 487
#     4  10  26  46  68 102 144 190 274 318 386 480
#     4  10  23  45  77 112 157 208 263 340 402 483
#     4  11  23  46  73 104 147 201 261 325 393 481
#
# _framework density 24.975785999999999
#
# number of rings (size 3 to 8) (size 9 to 14) (size 15 to 20)
#    0.000    1.714    1.429    0.857    2.000   12.571 
#   15.429    0.000    0.000    0.000    0.000    0.000 
#    0.000    0.000    0.000    0.000    0.000    0.000 
#
# Total GULP energy -156134.413183 kJ/mol
# GULP energy per Si atom -5576.229042 kJ/mol
# Density = 2.491894 g / cm^3
# Si number density = 24.975786 Si / 1000 Ang^3
#
#
#
# Elastic Constant Matrix: (Units=GPa)
#
#
# Indices 1 2 3 4 5 6 
#
# 1 200.3362 54.8503 72.5891 0.0000 0.0000 0.0000
# 2 54.8503 101.4620 45.3615 0.0000 0.0000 0.0000
# 3 72.5891 45.3615 140.7475 0.0000 0.0000 0.0000
# 4 0.0000 0.0000 0.0000 7.6610 0.0000 0.0000
# 5 0.0000 0.0000 0.0000 0.0000 22.2849 0.0000
# 6 0.0000 0.0000 0.0000 0.0000 0.0000 49.1094
#
#
#
# Elastic Compliance Matrix: (Units=1/GPa)
#
#
# Indices 1 2 3 4 5 6 
#
# 1 0.006600 -0.002391 -0.002634 0.000000 0.000000 0.000000
# 2 -0.002391 0.012381 -0.002757 0.000000 0.000000 0.000000
# 3 -0.002634 -0.002757 0.009352 0.000000 0.000000 0.000000
# 4 0.000000 0.000000 0.000000 0.130531 0.000000 0.000000
# 5 0.000000 0.000000 0.000000 0.000000 0.044873 0.000000
# 6 0.000000 0.000000 0.000000 0.000000 0.000000 0.020363
#
#
# Mechanical properties :
#
#
# Convention : Reuss Voigt Hill
#
# Bulk Modulus (GPa) = 78.30823 87.57195 82.94009
# Shear Modulus (GPa) = 20.49851 33.79404 27.14628
#
# Velocity S-wave (km/s) = 2.86796 3.68240 3.30040
# Velocity P-wave (km/s) = 6.51065 7.29513 6.91403
#
# Compressibility (1/GPa) = 0.01277005
#
# Stress axis : x y z
#
# Youngs Moduli (GPa) = 151.50541 80.76841 106.93117
#
# Poissons Ratio (x) = 0.19310 0.28161
# Poissons Ratio (y) = 0.36221 0.29484
# Poissons Ratio (z) = 0.39900 0.22270
#
# Static dielectric constant tensor:
#      x y z
#    x 1.947440 0.000000 0.000000 
#    y 0.000000 2.405590 0.000000 
#    z 0.000000 0.000000 1.997470 
# 
# From -- ./inp_files/1034.got.cif
#   From: 2010.05.17/outbox.cif.g08.bks.cpg/sg50_1_cif.got.tgz:1034.got - 2010.06.03 11:33:33.
