data_PCOD9397059
_publ_section_title
;
Structure prediction by ZEFSAII (Michael W. Deem and Ramdas Pophale) SiO2 
 PCOD9397059
Probable space group: P B A N
;
_chemical_formula_sum "Si O2"
_cell_formula_units_Z 48
_cell_length_a 27.460207
_cell_length_b 13.623167
_cell_length_c 6.030396
_cell_angle_alpha 90.000000
_cell_angle_beta 90.000000
_cell_angle_gamma 90.000000
_cell_volume 2255.940906
_symmetry_space_group_name_H-M "P B A N"
_symmetry_group_IT_number 50
_space_group.IT_coordinate_system_code '2'
_symmetry_cell_setting 'orthorhombic'
loop_
_space_group_symop_operation_xyz
x,y,z
1/2-x,1/2-y,z
x,1/2-y,-z
1/2-x,y,-z
-x,-y,-z
1/2+x,1/2+y,-z
-x,1/2+y,z
1/2+x,-y,z
loop_
_atom_site_type_symbol
_atom_site_label
_atom_site_fract_x
_atom_site_fract_y
_atom_site_fract_z
Si Si1 0.298634 0.645765 0.382424
Si Si2 0.664316 0.929031 0.797512
Si Si3 0.100205 0.552671 0.512169
Si Si4 0.409363 0.384369 0.159500
Si Si5 0.750000 0.058228 0.000000
Si Si6 0.858433 0.750000 0.500000
Si Si7 0.011999 0.250000 0.000000
Si Si8 0.537588 0.250000 0.500000
O O1 0.306344 0.750000 0.500000
O O2 0.250000 0.605695 0.500000
O O3 0.346918 0.585039 0.403601
O O4 0.284584 0.633753 0.129579
O O5 0.670505 0.837858 0.626065
O O6 0.618689 0.993637 0.703275
O O7 0.640974 0.894632 0.026609
O O8 0.713336 0.988844 0.857297
O O9 0.078209 0.479338 0.694085
O O10 0.068710 0.649582 0.481452
O O11 0.395022 0.299013 0.327838
O O12 0.453685 0.346107 0.013881
O O13 0.986761 0.245459 0.751753
#
# Coordination Sequence:
#
# PCOD9397059 Si02
#       8
#     8   8   8   8   4   4   4   4
#     4  11  23  43  67 102 141 191 235 286 356 442
#     4  11  23  42  75 104 145 193 244 307 369 454
#     4  11  25  46  74 103 150 187 246 308 376 445
#     4  11  23  45  78 103 138 195 245 304 387 450
#     4  12  24  41  71 112 142 188 252 303 357 454
#     4  10  21  44  73 103 140 199 244 298 382 438
#     4  12  28  50  76 107 151 190 260 314 392 468
#     4  12  31  50  73 115 150 194 252 324 379 460
#
# _framework density 21.277152999999998
#
# number of rings (size 3 to 8) (size 9 to 14) (size 15 to 20)
#    0.000    0.833    5.833    0.500    4.667    2.667 
#    0.000    2.500    0.000    0.000    0.000    0.000 
#    0.000    0.000    0.000    0.000    0.000    0.000 
#
# Total GULP energy -267222.530482 kJ/mol
# GULP energy per Si atom -5567.136052 kJ/mol
# Density = 2.122873 g / cm^3
# Si number density = 21.277153 Si / 1000 Ang^3
#
#
#
# Elastic Constant Matrix: (Units=GPa)
#
#
# Indices 1 2 3 4 5 6 
#
# 1 49.0381 30.4976 19.3859 0.0000 0.0000 0.0000
# 2 30.4976 121.9949 44.1133 0.0000 0.0000 0.0000
# 3 19.3859 44.1133 83.5821 0.0000 0.0000 0.0000
# 4 0.0000 0.0000 0.0000 34.3341 0.0000 0.0000
# 5 0.0000 0.0000 0.0000 0.0000 34.9716 0.0000
# 6 0.0000 0.0000 0.0000 0.0000 0.0000 30.2006
#
#
#
# Elastic Compliance Matrix: (Units=1/GPa)
#
#
# Indices 1 2 3 4 5 6 
#
# 1 0.024764 -0.005084 -0.003060 0.000000 0.000000 0.000000
# 2 -0.005084 0.011174 -0.004718 0.000000 0.000000 0.000000
# 3 -0.003060 -0.004718 0.015164 0.000000 0.000000 0.000000
# 4 0.000000 0.000000 0.000000 0.029126 0.000000 0.000000
# 5 0.000000 0.000000 0.000000 0.000000 0.028595 0.000000
# 6 0.000000 0.000000 0.000000 0.000000 0.000000 0.033112
#
#
# Mechanical properties :
#
#
# Convention : Reuss Voigt Hill
#
# Bulk Modulus (GPa) = 39.40599 49.17873 44.29236
# Shear Modulus (GPa) = 28.38981 30.60915 29.49948
#
# Velocity S-wave (km/s) = 3.65675 3.79699 3.72753
# Velocity P-wave (km/s) = 6.03238 6.51049 6.27599
#
# Compressibility (1/GPa) = 0.02537685
#
# Stress axis : x y z
#
# Youngs Moduli (GPa) = 40.38106 89.49183 65.94399
#
# Poissons Ratio (x) = 0.45499 0.20182
# Poissons Ratio (y) = 0.20530 0.31115
# Poissons Ratio (z) = 0.12358 0.42225
#
# Static dielectric constant tensor:
#      x y z
#    x 1.735940 0.000000 0.000000 
#    y 0.000000 1.818740 0.000000 
#    z 0.000000 0.000000 1.840520 
# 
# From -- ./inp_files/6671.got.cif
#   From: 2010.05.17/outbox.cif.g08.bks.cpg/sg50_4_cif.got.tgz:6671.got - 2010.06.03 11:33:33.
