data_PCOD9397833
_publ_section_title
;
Structure prediction by ZEFSAII (Michael W. Deem and Ramdas Pophale) SiO2 
 PCOD9397833
Probable space group: P B A N
;
_chemical_formula_sum "Si O2"
_cell_formula_units_Z 64
_cell_length_a 16.164620
_cell_length_b 12.133897
_cell_length_c 14.658455
_cell_angle_alpha 90.000000
_cell_angle_beta 90.000000
_cell_angle_gamma 90.000000
_cell_volume 2875.106932
_symmetry_space_group_name_H-M "P B A N"
_symmetry_group_IT_number 50
_space_group.IT_coordinate_system_code '2'
_symmetry_cell_setting 'orthorhombic'
loop_
_space_group_symop_operation_xyz
x,y,z
1/2-x,1/2-y,z
x,1/2-y,-z
1/2-x,y,-z
-x,-y,-z
1/2+x,1/2+y,-z
-x,1/2+y,z
1/2+x,-y,z
loop_
_atom_site_type_symbol
_atom_site_label
_atom_site_fract_x
_atom_site_fract_y
_atom_site_fract_z
Si Si1 0.596091 0.089256 0.986717
Si Si2 0.196740 0.041639 0.708846
Si Si3 0.612791 0.955804 0.332828
Si Si4 0.955179 0.364572 0.197000
Si Si5 0.908448 0.866269 0.952272
Si Si6 0.128042 0.250413 0.218672
Si Si7 0.667124 0.319448 0.186300
Si Si8 0.650051 0.878645 0.516970
O O1 0.580032 0.112542 0.094231
O O2 0.627681 0.964230 0.988011
O O3 0.505200 0.100847 0.940008
O O4 0.653451 0.160837 0.922029
O O5 0.291063 0.013412 0.684015
O O6 0.196174 0.157908 0.761869
O O7 0.143404 0.072352 0.618773
O O8 0.165349 0.938525 0.766628
O O9 0.606088 0.827741 0.303273
O O10 0.603592 0.953293 0.441924
O O11 0.560054 0.035615 0.267223
O O12 0.904745 0.256796 0.226617
O O13 0.049349 0.326306 0.191809
O O14 0.861538 0.841056 0.859733
O O15 0.908672 0.750000 0.000000
O O16 0.750000 0.250000 0.200541
O O17 0.627425 0.750000 0.500000
O O18 0.750000 0.881973 0.500000
#
# Coordination Sequence:
#
# PCOD9397833 Si02
#       8
#     8   8   8   8   8   8   8   8
#     4  11  23  39  62  90 130 183 237 253 322 406
#     4  11  24  43  72 103 128 176 227 283 343 404
#     4  11  23  45  69 101 131 170 230 279 339 407
#     4  12  25  42  63  99 136 185 221 275 330 411
#     4  11  20  36  59  92 124 168 225 278 310 390
#     4  12  23  38  70  96 137 169 224 285 337 386
#     4  12  25  44  65  97 140 179 227 278 334 398
#     4   9  18  40  73  99 126 168 217 270 339 414
#
# _framework density 22.26004
#
# number of rings (size 3 to 8) (size 9 to 14) (size 15 to 20)
#    0.000    0.875    6.250    1.500    3.500    1.000 
#    0.000    1.250    2.750    0.750    0.000    0.000 
#    0.000    0.000    0.000    0.000    0.000    0.000 
#
# Total GULP energy -357423.293566 kJ/mol
# GULP energy per Si atom -5584.738962 kJ/mol
# Density = 2.220938 g / cm^3
# Si number density = 22.260040 Si / 1000 Ang^3
#
#
#
# Elastic Constant Matrix: (Units=GPa)
#
#
# Indices 1 2 3 4 5 6 
#
# 1 20.0952 2.3226 15.4364 0.0000 0.0000 0.0000
# 2 2.3226 130.5886 49.0803 0.0000 0.0000 0.0000
# 3 15.4364 49.0803 129.7932 0.0000 0.0000 0.0000
# 4 0.0000 0.0000 0.0000 28.3735 0.0000 0.0000
# 5 0.0000 0.0000 0.0000 0.0000 20.3330 0.0000
# 6 0.0000 0.0000 0.0000 0.0000 0.0000 26.9484
#
#
#
# Elastic Compliance Matrix: (Units=1/GPa)
#
#
# Indices 1 2 3 4 5 6 
#
# 1 0.055099 0.001729 -0.007207 0.000000 0.000000 0.000000
# 2 0.001729 0.008980 -0.003601 0.000000 0.000000 0.000000
# 3 -0.007207 -0.003601 0.009924 0.000000 0.000000 0.000000
# 4 0.000000 0.000000 0.000000 0.035244 0.000000 0.000000
# 5 0.000000 0.000000 0.000000 0.000000 0.049181 0.000000
# 6 0.000000 0.000000 0.000000 0.000000 0.000000 0.037108
#
#
# Mechanical properties :
#
#
# Convention : Reuss Voigt Hill
#
# Bulk Modulus (GPa) = 17.90697 46.01725 31.96211
# Shear Modulus (GPa) = 21.52294 29.37350 25.44822
#
# Velocity S-wave (km/s) = 3.11285 3.63652 3.38483
# Velocity P-wave (km/s) = 4.58058 6.19272 5.44663
#
# Compressibility (1/GPa) = 0.05584417
#
# Stress axis : x y z
#
# Youngs Moduli (GPa) = 18.14907 111.35277 100.77067
#
# Poissons Ratio (x) = -0.19248 0.72622
# Poissons Ratio (y) = -0.03137 0.36292
# Poissons Ratio (z) = 0.13079 0.40103
#
# Static dielectric constant tensor:
#      x y z
#    x 1.983350 0.000000 0.000000 
#    y 0.000000 1.835150 0.000000 
#    z 0.000000 0.000000 1.929920 
# 
# From -- ./inp_files/27010.got.cif
#   From: 2010.05.17/outbox.cif.g08.bks.cpg/sg50_14_cif.got.tgz:27010.got - 2010.06.03 11:33:33.
