data_PCOD9397068
_publ_section_title
;
Structure prediction by ZEFSAII (Michael W. Deem and Ramdas Pophale) SiO2 
 PCOD9397068
Probable space group: P B A N
;
_chemical_formula_sum "Si O2"
_cell_formula_units_Z 48
_cell_length_a 16.395084
_cell_length_b 10.184678
_cell_length_c 13.159493
_cell_angle_alpha 90.000000
_cell_angle_beta 90.000000
_cell_angle_gamma 90.000000
_cell_volume 2197.354393
_symmetry_space_group_name_H-M "P B A N"
_symmetry_group_IT_number 50
_space_group.IT_coordinate_system_code '2'
_symmetry_cell_setting 'orthorhombic'
loop_
_space_group_symop_operation_xyz
x,y,z
1/2-x,1/2-y,z
x,1/2-y,-z
1/2-x,y,-z
-x,-y,-z
1/2+x,1/2+y,-z
-x,1/2+y,z
1/2+x,-y,z
loop_
_atom_site_type_symbol
_atom_site_label
_atom_site_fract_x
_atom_site_fract_y
_atom_site_fract_z
Si Si1 0.035077 0.515781 0.887652
Si Si2 0.750000 0.750000 0.000000
Si Si3 0.012263 0.271238 0.758358
Si Si4 0.250000 0.750000 0.785998
Si Si5 0.231594 0.477615 0.857614
Si Si6 0.250000 0.250000 0.500000
Si Si7 0.843429 0.596411 0.337458
Si Si8 0.616295 0.194573 0.387485
O O1 0.012011 0.652227 0.832738
O O2 0.134042 0.490403 0.887497
O O3 0.993458 0.404052 0.818940
O O4 0.000000 0.500000 0.000000
O O5 0.722113 0.636939 0.081207
O O6 0.967511 0.256085 0.650996
O O7 0.105041 0.297294 0.725819
O O8 0.264704 0.624898 0.858356
O O9 0.323593 0.767050 0.705779
O O10 0.228508 0.444326 0.738833
O O11 0.193086 0.340132 0.565571
O O12 0.888807 0.463382 0.373589
O O13 0.638464 0.250000 0.500000
#
# Coordination Sequence:
#
# PCOD9397068 Si02
#       8
#     8   2   8   4   8   2   8   8
#     4  11  24  44  71 100 133 184 234 285 358 414
#     4  12  26  42  68  94 144 182 214 310 348 416
#     4  11  22  47  67 101 142 169 232 299 327 421
#     4  10  21  47  66  98 142 178 235 289 334 420
#     4  10  24  46  64 102 137 179 236 282 353 418
#     4  12  26  44  70  98 140 194 226 282 352 426
#     4  10  25  45  65 102 138 177 239 279 347 420
#     4  11  24  42  70 101 138 183 233 282 353 412
#
# _framework density 21.844450999999999
#
# number of rings (size 3 to 8) (size 9 to 14) (size 15 to 20)
#    0.000    1.333    5.000    1.250   10.500    3.667 
#    3.000    0.000    0.000    0.000    0.000    0.000 
#    0.000    0.000    0.000    0.000    0.000    0.000 
#
# Total GULP energy -267336.592693 kJ/mol
# GULP energy per Si atom -5569.512348 kJ/mol
# Density = 2.179473 g / cm^3
# Si number density = 21.844451 Si / 1000 Ang^3
#
#
#
# Elastic Constant Matrix: (Units=GPa)
#
#
# Indices 1 2 3 4 5 6 
#
# 1 29.2488 22.7745 0.3403 0.0000 0.0000 0.0000
# 2 22.7745 136.3534 40.2921 0.0000 0.0000 0.0000
# 3 0.3403 40.2921 106.2695 0.0000 0.0000 0.0000
# 4 0.0000 0.0000 0.0000 30.4894 0.0000 0.0000
# 5 0.0000 0.0000 0.0000 0.0000 40.4997 0.0000
# 6 0.0000 0.0000 0.0000 0.0000 0.0000 20.3805
#
#
#
# Elastic Compliance Matrix: (Units=1/GPa)
#
#
# Indices 1 2 3 4 5 6 
#
# 1 0.039980 -0.007478 0.002707 0.000000 0.000000 0.000000
# 2 -0.007478 0.009658 -0.003638 0.000000 0.000000 0.000000
# 3 0.002707 -0.003638 0.010781 0.000000 0.000000 0.000000
# 4 0.000000 0.000000 0.000000 0.032798 0.000000 0.000000
# 5 0.000000 0.000000 0.000000 0.000000 0.024692 0.000000
# 6 0.000000 0.000000 0.000000 0.000000 0.000000 0.049066
#
#
# Mechanical properties :
#
#
# Convention : Reuss Voigt Hill
#
# Bulk Modulus (GPa) = 22.93462 44.29836 33.61649
# Shear Modulus (GPa) = 25.21101 32.17157 28.69129
#
# Velocity S-wave (km/s) = 3.40091 3.84182 3.62807
# Velocity P-wave (km/s) = 5.09347 6.32475 5.74221
#
# Compressibility (1/GPa) = 0.04360221
#
# Stress axis : x y z
#
# Youngs Moduli (GPa) = 25.01220 103.54299 92.75876
#
# Poissons Ratio (x) = 0.77427 -0.25111
# Poissons Ratio (y) = 0.18703 0.33744
# Poissons Ratio (z) = -0.06771 0.37667
#
# Static dielectric constant tensor:
#      x y z
#    x 1.955890 0.000000 0.000000 
#    y 0.000000 1.816320 0.000000 
#    z 0.000000 0.000000 1.768000 
# 
# From -- ./inp_files/26914.got.cif
#   From: 2010.05.17/outbox.cif.g08.bks.cpg/sg50_14_cif.got.tgz:26914.got - 2010.06.03 11:33:33.
