data_PCOD9397009
_publ_section_title
;
Structure prediction by ZEFSAII (Michael W. Deem and Ramdas Pophale) SiO2 
 PCOD9397009
Probable space group: P B A N
;
_chemical_formula_sum "Si O2"
_cell_formula_units_Z 48
_cell_length_a 9.020628
_cell_length_b 29.854167
_cell_length_c 8.993638
_cell_angle_alpha 90.000000
_cell_angle_beta 90.000000
_cell_angle_gamma 90.000000
_cell_volume 2422.016705
_symmetry_space_group_name_H-M "P B A N"
_symmetry_group_IT_number 50
_space_group.IT_coordinate_system_code '2'
_symmetry_cell_setting 'orthorhombic'
loop_
_space_group_symop_operation_xyz
x,y,z
1/2-x,1/2-y,z
x,1/2-y,-z
1/2-x,y,-z
-x,-y,-z
1/2+x,1/2+y,-z
-x,1/2+y,z
1/2+x,-y,z
loop_
_atom_site_type_symbol
_atom_site_label
_atom_site_fract_x
_atom_site_fract_y
_atom_site_fract_z
Si Si1 0.911799 0.291320 0.419647
Si Si2 0.911122 0.617269 0.567606
Si Si3 0.404885 0.276625 0.852123
Si Si4 0.410055 0.960272 0.421988
Si Si5 0.912555 0.457305 0.935007
Si Si6 0.394864 0.115896 0.090084
O O1 0.989464 0.250000 0.500000
O O2 0.750000 0.295455 0.500000
O O3 0.998015 0.337036 0.435779
O O4 0.947576 0.277178 0.250574
O O5 0.750000 0.624354 0.500000
O O6 0.900704 0.600278 0.738041
O O7 0.000100 0.583498 0.466439
O O8 0.250000 0.250000 0.798005
O O9 0.385263 0.329623 0.892270
O O10 0.439514 0.250000 0.000000
O O11 0.250000 0.958989 0.500000
O O12 0.406234 0.961883 0.243609
O O13 0.500000 0.000000 0.500000
O O14 0.750000 0.460358 0.000000
O O15 0.000000 0.500000 0.000000
O O16 0.978531 0.409966 0.996820
O O17 0.250000 0.101846 0.000000
#
# Coordination Sequence:
#
# PCOD9397009 Si02
#       6
#     8   8   8   8   8   8
#     4  10  24  41  63  96 138 177 224 286 349 413
#     4  11  24  40  66  99 131 180 228 280 342 414
#     4  10  21  41  71 101 135 182 243 292 350 422
#     4  12  25  45  70  97 138 180 229 287 349 420
#     4  12  26  45  69 100 139 182 229 286 349 421
#     4  11  22  41  67 102 134 177 229 289 346 415
#
# _framework density 19.818197000000001
#
# number of rings (size 3 to 8) (size 9 to 14) (size 15 to 20)
#    0.000    1.000    1.667    5.500    4.667    2.667 
#    0.000    5.000    0.000    0.000    0.000    0.000 
#    0.000    0.000    0.000    0.000    0.000    0.000 
#
# Total GULP energy -267366.471111 kJ/mol
# GULP energy per Si atom -5570.134815 kJ/mol
# Density = 1.977309 g / cm^3
# Si number density = 19.818197 Si / 1000 Ang^3
#
#
#
# Elastic Constant Matrix: (Units=GPa)
#
#
# Indices 1 2 3 4 5 6 
#
# 1 151.1029 40.6023 78.3966 0.0000 0.0000 0.0000
# 2 40.6023 82.8797 40.0621 0.0000 0.0000 0.0000
# 3 78.3966 40.0621 195.1689 0.0000 0.0000 0.0000
# 4 0.0000 0.0000 0.0000 12.2066 0.0000 0.0000
# 5 0.0000 0.0000 0.0000 0.0000 29.5413 0.0000
# 6 0.0000 0.0000 0.0000 0.0000 0.0000 8.0181
#
#
#
# Elastic Compliance Matrix: (Units=1/GPa)
#
#
# Indices 1 2 3 4 5 6 
#
# 1 0.008963 -0.002943 -0.002996 0.000000 0.000000 0.000000
# 2 -0.002943 0.014361 -0.001766 0.000000 0.000000 0.000000
# 3 -0.002996 -0.001766 0.006690 0.000000 0.000000 0.000000
# 4 0.000000 0.000000 0.000000 0.081923 0.000000 0.000000
# 5 0.000000 0.000000 0.000000 0.000000 0.033851 0.000000
# 6 0.000000 0.000000 0.000000 0.000000 0.000000 0.124718
#
#
# Mechanical properties :
#
#
# Convention : Reuss Voigt Hill
#
# Bulk Modulus (GPa) = 68.47330 83.03040 75.75185
# Shear Modulus (GPa) = 17.19491 27.95921 22.57706
#
# Velocity S-wave (km/s) = 2.94876 3.76012 3.37888
# Velocity P-wave (km/s) = 6.79848 7.79989 7.31634
#
# Compressibility (1/GPa) = 0.01460423
#
# Stress axis : x y z
#
# Youngs Moduli (GPa) = 111.56537 69.63380 149.48024
#
# Poissons Ratio (x) = 0.20491 0.44790
# Poissons Ratio (y) = 0.32830 0.26395
# Poissons Ratio (z) = 0.33430 0.12296
#
# Static dielectric constant tensor:
#      x y z
#    x 1.768270 0.000000 0.000000 
#    y 0.000000 1.761100 0.000000 
#    z 0.000000 0.000000 1.761590 
# 
# From -- ./inp_files/10061.got.cif
#   From: 2010.05.17/outbox.cif.g08.bks.cpg/sg50_6_cif.got.tgz:10061.got - 2010.06.03 11:33:33.
