data_PCOD9397831
_publ_section_title
;
Structure prediction by ZEFSAII (Michael W. Deem and Ramdas Pophale) SiO2 
 PCOD9397831
Probable space group: P B A N
;
_chemical_formula_sum "Si O2"
_cell_formula_units_Z 48
_cell_length_a 13.063039
_cell_length_b 14.068866
_cell_length_c 13.094654
_cell_angle_alpha 90.000000
_cell_angle_beta 90.000000
_cell_angle_gamma 90.000000
_cell_volume 2406.563603
_symmetry_space_group_name_H-M "P B A N"
_symmetry_group_IT_number 50
_space_group.IT_coordinate_system_code '2'
_symmetry_cell_setting 'orthorhombic'
loop_
_space_group_symop_operation_xyz
x,y,z
1/2-x,1/2-y,z
x,1/2-y,-z
1/2-x,y,-z
-x,-y,-z
1/2+x,1/2+y,-z
-x,1/2+y,z
1/2+x,-y,z
loop_
_atom_site_type_symbol
_atom_site_label
_atom_site_fract_x
_atom_site_fract_y
_atom_site_fract_z
Si Si1 0.364009 0.015421 0.747781
Si Si2 0.459549 0.844069 0.256748
Si Si3 0.196014 0.409906 0.093096
Si Si4 0.367206 0.612667 0.968324
Si Si5 0.507326 0.349169 0.833391
Si Si6 0.235468 0.638511 0.378930
O O1 0.452583 0.950129 0.795735
O O2 0.307968 0.942801 0.669951
O O3 0.430080 0.108934 0.721444
O O4 0.277004 0.045545 0.828487
O O5 0.409928 0.863441 0.144002
O O6 0.466768 0.730415 0.249336
O O7 0.379110 0.881457 0.339472
O O8 0.136785 0.497723 0.037385
O O9 0.113021 0.347978 0.149581
O O10 0.250000 0.358196 0.000000
O O11 0.250000 0.639344 0.000000
O O12 0.436829 0.657122 0.056755
O O13 0.250000 0.750000 0.345732
O O14 0.250000 0.635930 0.500000
#
# Coordination Sequence:
#
# PCOD9397831 Si02
#       6
#     8   8   8   8   8   8
#     4  12  22  41  65  89 130 163 210 266 317 388
#     4  12  25  39  63  96 120 171 210 256 331 374
#     4  11  21  36  61  88 131 181 217 256 309 370
#     4  11  20  35  58  88 125 168 213 258 301 365
#     4  12  22  38  59  90 132 167 215 260 304 381
#     4  11  24  44  70  96 122 158 214 275 328 388
#
# _framework density 19.945450999999998
#
# number of rings (size 3 to 8) (size 9 to 14) (size 15 to 20)
#    0.000    0.500    8.333    2.000    0.000    2.000 
#    0.000    0.833    0.000    0.000    0.000    1.167 
#    0.000    0.000    0.000    0.000    0.000    0.000 
#
# Total GULP energy -267668.900064 kJ/mol
# GULP energy per Si atom -5576.435418 kJ/mol
# Density = 1.990005 g / cm^3
# Si number density = 19.945451 Si / 1000 Ang^3
#
#
#
# Elastic Constant Matrix: (Units=GPa)
#
#
# Indices 1 2 3 4 5 6 
#
# 1 104.2836 23.2265 36.5193 0.0000 0.0000 0.0000
# 2 23.2265 57.5485 15.6274 0.0000 0.0000 0.0000
# 3 36.5193 15.6274 70.3297 0.0000 0.0000 0.0000
# 4 0.0000 0.0000 0.0000 -10.6042 0.0000 0.0000
# 5 0.0000 0.0000 0.0000 0.0000 4.9779 0.0000
# 6 0.0000 0.0000 0.0000 0.0000 0.0000 42.5445
#
#
#
# Elastic Compliance Matrix: (Units=1/GPa)
#
#
# Indices 1 2 3 4 5 6 
#
# 1 0.012331 -0.003446 -0.005637 0.000000 0.000000 0.000000
# 2 -0.003446 0.019455 -0.002534 0.000000 0.000000 0.000000
# 3 -0.005637 -0.002534 0.017709 0.000000 0.000000 0.000000
# 4 0.000000 0.000000 0.000000 -0.094303 0.000000 0.000000
# 5 0.000000 0.000000 0.000000 0.000000 0.200887 0.000000
# 6 0.000000 0.000000 0.000000 0.000000 0.000000 0.023505
#
#
# Mechanical properties :
#
#
# Convention : Reuss Voigt Hill
#
# Bulk Modulus (GPa) = 38.07854 42.54535 40.31195
# Shear Modulus (GPa) = 23.63266 17.83623 20.73445
#
# Velocity S-wave (km/s) = 3.44592 2.99365 3.22771
# Velocity P-wave (km/s) = 5.91314 5.77290 5.84344
#
# Compressibility (1/GPa) = 0.02626151
#
# Stress axis : x y z
#
# Youngs Moduli (GPa) = 81.09760 51.39950 56.46879
#
# Poissons Ratio (x) = 0.17712 0.31833
# Poissons Ratio (y) = 0.27945 0.14308
# Poissons Ratio (z) = 0.45716 0.13023
#
# Static dielectric constant tensor:
#      x y z
#    x 1.743730 0.000000 0.000000 
#    y 0.000000 1.761190 0.000000 
#    z 0.000000 0.000000 1.688840 
# 
# From -- ./inp_files/25876.got.cif
#   From: 2010.05.17/outbox.cif.g08.bks.cpg/sg50_13_cif.got.tgz:25876.got - 2010.06.03 11:33:33.
