data_PCOD9397746
_publ_section_title
;
Structure prediction by ZEFSAII (Michael W. Deem and Ramdas Pophale) SiO2 
 PCOD9397746
Probable space group: P B A N
;
_chemical_formula_sum "Si O2"
_cell_formula_units_Z 56
_cell_length_a 9.372305
_cell_length_b 20.566359
_cell_length_c 13.231746
_cell_angle_alpha 90.000000
_cell_angle_beta 90.000000
_cell_angle_gamma 90.000000
_cell_volume 2550.474473
_symmetry_space_group_name_H-M "P B A N"
_symmetry_group_IT_number 50
_space_group.IT_coordinate_system_code '2'
_symmetry_cell_setting 'orthorhombic'
loop_
_space_group_symop_operation_xyz
x,y,z
1/2-x,1/2-y,z
x,1/2-y,-z
1/2-x,y,-z
-x,-y,-z
1/2+x,1/2+y,-z
-x,1/2+y,z
1/2+x,-y,z
loop_
_atom_site_type_symbol
_atom_site_label
_atom_site_fract_x
_atom_site_fract_y
_atom_site_fract_z
Si Si1 0.160885 0.869728 0.403423
Si Si2 0.863473 0.702870 0.294695
Si Si3 0.801705 0.576926 0.392758
Si Si4 0.750000 0.966300 0.000000
Si Si5 0.028087 0.009003 0.662545
Si Si6 0.012858 0.250000 0.500000
Si Si7 0.833243 0.314464 0.791271
Si Si8 0.531225 0.058757 0.879163
O O1 0.250000 0.895578 0.500000
O O2 0.051843 0.923030 0.358872
O O3 0.255950 0.843796 0.309253
O O4 0.080478 0.807384 0.450931
O O5 0.750000 0.750000 0.246906
O O6 0.806520 0.630213 0.305652
O O7 0.894240 0.722227 0.409878
O O8 0.012783 0.710013 0.242259
O O9 0.750000 0.602882 0.500000
O O10 0.956364 0.545795 0.407108
O O11 0.693079 0.520972 0.358928
O O12 0.874362 0.930614 0.931866
O O13 0.642427 0.011878 0.936609
O O14 0.004904 0.979243 0.773553
O O15 0.750000 0.250000 0.828541
O O16 0.877958 0.375095 0.861685
#
# Coordination Sequence:
#
# PCOD9397746 Si02
#       8
#     8   8   8   4   8   4   8   8
#     4  12  22  38  63  96 144 203 251 284 334 395
#     4  12  24  40  57  91 134 193 250 297 329 394
#     4  12  25  39  57  92 142 191 237 292 341 390
#     4  10  24  50  83 104 139 168 212 290 388 476
#     4  12  25  40  66  99 138 178 237 299 347 413
#     4  12  22  42  58  88 142 210 262 282 330 400
#     4  12  24  42  70 100 143 188 243 293 343 424
#     4  11  24  48  74 110 133 175 227 292 379 452
#
# _framework density 21.956696999999998
#
# number of rings (size 3 to 8) (size 9 to 14) (size 15 to 20)
#    0.000    0.286    4.286    6.429    0.000    0.000 
#    0.000    0.357    0.000    0.000    0.000    1.000 
#    0.000    0.000    0.000    0.000    0.000    0.000 
#
# Total GULP energy -313002.010806 kJ/mol
# GULP energy per Si atom -5589.321622 kJ/mol
# Density = 2.190672 g / cm^3
# Si number density = 21.956697 Si / 1000 Ang^3
#
#
#
# Elastic Constant Matrix: (Units=GPa)
#
#
# Indices 1 2 3 4 5 6 
#
# 1 113.9350 46.1123 27.2048 0.0000 0.0000 0.0000
# 2 46.1123 121.5222 31.4615 0.0000 0.0000 0.0000
# 3 27.2048 31.4615 56.6485 0.0000 0.0000 0.0000
# 4 0.0000 0.0000 0.0000 8.8564 0.0000 0.0000
# 5 0.0000 0.0000 0.0000 0.0000 51.6084 0.0000
# 6 0.0000 0.0000 0.0000 0.0000 0.0000 51.1424
#
#
#
# Elastic Compliance Matrix: (Units=1/GPa)
#
#
# Indices 1 2 3 4 5 6 
#
# 1 0.010913 -0.003252 -0.003435 0.000000 0.000000 0.000000
# 2 -0.003252 0.010580 -0.004314 0.000000 0.000000 0.000000
# 3 -0.003435 -0.004314 0.021698 0.000000 0.000000 0.000000
# 4 0.000000 0.000000 0.000000 0.112913 0.000000 0.000000
# 5 0.000000 0.000000 0.000000 0.000000 0.019377 0.000000
# 6 0.000000 0.000000 0.000000 0.000000 0.000000 0.019553
#
#
# Mechanical properties :
#
#
# Convention : Reuss Voigt Hill
#
# Bulk Modulus (GPa) = 47.19325 55.74030 51.46678
# Shear Modulus (GPa) = 22.31154 34.80991 28.56073
#
# Velocity S-wave (km/s) = 3.19119 3.98601 3.61054
# Velocity P-wave (km/s) = 5.92610 6.82832 6.39315
#
# Compressibility (1/GPa) = 0.02118947
#
# Stress axis : x y z
#
# Youngs Moduli (GPa) = 91.63224 94.52000 46.08651
#
# Poissons Ratio (x) = 0.30736 0.15831
# Poissons Ratio (y) = 0.29797 0.19883
# Poissons Ratio (z) = 0.31475 0.40778
#
# Static dielectric constant tensor:
#      x y z
#    x 1.810450 0.000000 0.000000 
#    y 0.000000 1.763080 0.000000 
#    z 0.000000 0.000000 1.814600 
# 
# From -- ./inp_files/25309.got.cif
#   From: 2010.05.17/outbox.cif.g08.bks.cpg/sg50_13_cif.got.tgz:25309.got - 2010.06.03 11:33:33.
