data_PCOD9397841
_publ_section_title
;
Structure prediction by ZEFSAII (Michael W. Deem and Ramdas Pophale) SiO2 
 PCOD9397841
Probable space group: P B A N
;
_chemical_formula_sum "Si O2"
_cell_formula_units_Z 48
_cell_length_a 14.428480
_cell_length_b 15.405270
_cell_length_c 11.322397
_cell_angle_alpha 90.000000
_cell_angle_beta 90.000000
_cell_angle_gamma 90.000000
_cell_volume 2516.681605
_symmetry_space_group_name_H-M "P B A N"
_symmetry_group_IT_number 50
_space_group.IT_coordinate_system_code '2'
_symmetry_cell_setting 'orthorhombic'
loop_
_space_group_symop_operation_xyz
x,y,z
1/2-x,1/2-y,z
x,1/2-y,-z
1/2-x,y,-z
-x,-y,-z
1/2+x,1/2+y,-z
-x,1/2+y,z
1/2+x,-y,z
loop_
_atom_site_type_symbol
_atom_site_label
_atom_site_fract_x
_atom_site_fract_y
_atom_site_fract_z
Si Si1 0.514571 0.341049 0.021816
Si Si2 0.913398 0.576089 0.239982
Si Si3 0.776220 0.985759 0.141043
Si Si4 0.997321 0.233579 0.361689
Si Si5 0.024323 0.088837 0.780842
Si Si6 0.171845 0.678503 0.204066
O O1 0.459187 0.399239 0.113753
O O2 0.607543 0.315790 0.088921
O O3 0.462275 0.250000 0.000000
O O4 0.532140 0.388668 0.900045
O O5 0.807184 0.557871 0.212814
O O6 0.931490 0.657793 0.324245
O O7 0.971311 0.491276 0.280306
O O8 0.874072 0.938880 0.171244
O O9 0.786913 0.082580 0.193307
O O10 0.750000 0.986570 0.000000
O O11 0.994039 0.250000 0.500000
O O12 0.899208 0.197957 0.310921
O O13 0.022788 0.323682 0.295911
O O14 0.250000 0.750000 0.205095
#
# Coordination Sequence:
#
# PCOD9397841 Si02
#       6
#     8   8   8   8   8   8
#     4  11  20  38  63  95 139 173 205 266 335 413
#     4  11  23  42  63 101 135 172 219 271 342 399
#     4  12  24  35  68 105 138 173 209 271 346 421
#     4  11  26  48  70  87 128 187 231 284 329 382
#     4  12  22  43  65  98 140 173 222 272 332 410
#     4  11  24  39  64 104 132 167 224 272 345 401
#
# _framework density 19.072734000000001
#
# number of rings (size 3 to 8) (size 9 to 14) (size 15 to 20)
#    0.000    0.667    8.333    2.500    2.333    1.667 
#    0.000    3.333    0.000    0.000    0.000    0.000 
#    0.000    0.000    0.000    0.000    0.000    0.000 
#
# Total GULP energy -268080.196085 kJ/mol
# GULP energy per Si atom -5585.004085 kJ/mol
# Density = 1.902932 g / cm^3
# Si number density = 19.072734 Si / 1000 Ang^3
#
#
#
# Elastic Constant Matrix: (Units=GPa)
#
#
# Indices 1 2 3 4 5 6 
#
# 1 104.3682 38.3095 49.9984 0.0000 0.0000 0.0000
# 2 38.3095 134.2203 67.3654 0.0000 0.0000 0.0000
# 3 49.9984 67.3654 120.6413 0.0000 0.0000 0.0000
# 4 0.0000 0.0000 0.0000 3.1988 0.0000 0.0000
# 5 0.0000 0.0000 0.0000 0.0000 -0.9280 0.0000
# 6 0.0000 0.0000 0.0000 0.0000 0.0000 33.2391
#
#
#
# Elastic Compliance Matrix: (Units=1/GPa)
#
#
# Indices 1 2 3 4 5 6 
#
# 1 0.012117 -0.001303 -0.004294 0.000000 0.000000 0.000000
# 2 -0.001303 0.010492 -0.005318 0.000000 0.000000 0.000000
# 3 -0.004294 -0.005318 0.013038 0.000000 0.000000 0.000000
# 4 0.000000 0.000000 0.000000 0.312615 0.000000 0.000000
# 5 0.000000 0.000000 0.000000 0.000000 -1.077548 0.000000
# 6 0.000000 0.000000 0.000000 0.000000 0.000000 0.030085
#
#
# Mechanical properties :
#
#
# Convention : Reuss Voigt Hill
#
# Bulk Modulus (GPa) = 72.38125 74.50848 73.44486
# Shear Modulus (GPa) = -7.43202 20.67242 6.62020
#
# Velocity S-wave (km/s) = -1.97614 3.29579 1.86509
# Velocity P-wave (km/s) = 5.72937 7.32347 6.57491
#
# Compressibility (1/GPa) = 0.01381573
#
# Stress axis : x y z
#
# Youngs Moduli (GPa) = 82.52933 95.31313 76.69666
#
# Poissons Ratio (x) = 0.12422 0.32933
# Poissons Ratio (y) = 0.10756 0.40790
# Poissons Ratio (z) = 0.35438 0.50691
#
# Static dielectric constant tensor:
#      x y z
#    x 1.721890 0.000000 0.000000 
#    y 0.000000 1.764680 0.000000 
#    z 0.000000 0.000000 1.500240 
# 
# From -- ./inp_files/21077.got.cif
#   From: 2010.05.17/outbox.cif.g08.bks.cpg/sg50_11_cif.got.tgz:21077.got - 2010.06.03 11:33:33.
