data_PCOD9397636
_publ_section_title
;
Structure prediction by ZEFSAII (Michael W. Deem and Ramdas Pophale) SiO2 
 PCOD9397636
Probable space group: P B A N
;
_chemical_formula_sum "Si O2"
_cell_formula_units_Z 46
_cell_length_a 10.260354
_cell_length_b 9.508687
_cell_length_c 22.367208
_cell_angle_alpha 90.000000
_cell_angle_beta 90.000000
_cell_angle_gamma 90.000000
_cell_volume 2182.200612
_symmetry_space_group_name_H-M "P B A N"
_symmetry_group_IT_number 50
_space_group.IT_coordinate_system_code '2'
_symmetry_cell_setting 'orthorhombic'
loop_
_space_group_symop_operation_xyz
x,y,z
1/2-x,1/2-y,z
x,1/2-y,-z
1/2-x,y,-z
-x,-y,-z
1/2+x,1/2+y,-z
-x,1/2+y,z
1/2+x,-y,z
loop_
_atom_site_type_symbol
_atom_site_label
_atom_site_fract_x
_atom_site_fract_y
_atom_site_fract_z
Si Si1 0.250000 0.750000 0.500000
Si Si2 0.400896 0.280228 0.639635
Si Si3 0.419216 0.943881 0.840151
Si Si4 0.250000 0.750000 0.000000
Si Si5 0.906816 0.720096 0.225726
Si Si6 0.750000 0.750000 0.000000
Si Si7 0.948740 0.444289 0.563359
Si Si8 0.340331 0.989158 0.081369
O O1 0.173980 0.647565 0.455645
O O2 0.250000 0.250000 0.644555
O O3 0.448455 0.264361 0.707557
O O4 0.456363 0.163368 0.595558
O O5 0.424299 0.429275 0.608701
O O6 0.419338 0.054428 0.785729
O O7 0.520025 0.001626 0.888769
O O8 0.491642 0.802245 0.817583
O O9 0.276372 0.953151 0.871008
O O10 0.337440 0.644178 0.962133
O O11 0.750000 0.750000 0.215346
O O12 0.683314 0.635828 0.045426
O O13 0.000000 0.500000 0.500000
#
# Coordination Sequence:
#
# PCOD9397636 Si02
#       8
#     2   8   8   2   8   2   8   8
#     4  12  24  40  68  98 136 172 234 274 332 418
#     4  11  25  43  68  98 135 177 223 286 340 401
#     4  12  23  45  70  98 130 189 221 277 338 409
#     4  10  24  40  56 106 128 168 224 276 322 404
#     4  11  24  45  68  98 137 171 230 286 338 397
#     4  10  24  44  64 104 140 180 212 288 338 400
#     4  12  23  44  67  98 134 180 222 275 341 415
#     4  11  24  40  69  95 139 174 222 274 338 399
#
# _framework density 21.079639
#
# number of rings (size 3 to 8) (size 9 to 14) (size 15 to 20)
#    0.000    0.696    3.478    4.174    0.000    4.870 
#    0.000    0.000    0.000    0.000    0.000    0.000 
#    0.000    0.000    0.000    0.000    0.000    0.000 
#
# Total GULP energy -256876.620531 kJ/mol
# GULP energy per Si atom -5584.274359 kJ/mol
# Density = 2.103166 g / cm^3
# Si number density = 21.079639 Si / 1000 Ang^3
#
#
#
# Elastic Constant Matrix: (Units=GPa)
#
#
# Indices 1 2 3 4 5 6 
#
# 1 13.2764 -3.2429 -10.9270 0.0000 0.0000 0.0000
# 2 -3.2429 127.5401 29.7389 0.0000 0.0000 0.0000
# 3 -10.9270 29.7389 82.7362 0.0000 0.0000 0.0000
# 4 0.0000 0.0000 0.0000 36.4422 0.0000 0.0000
# 5 0.0000 0.0000 0.0000 0.0000 6.7240 0.0000
# 6 0.0000 0.0000 0.0000 0.0000 0.0000 34.1181
#
#
#
# Elastic Compliance Matrix: (Units=1/GPa)
#
#
# Indices 1 2 3 4 5 6 
#
# 1 0.084536 -0.000495 0.011343 0.000000 0.000000 0.000000
# 2 -0.000495 0.008561 -0.003143 0.000000 0.000000 0.000000
# 3 0.011343 -0.003143 0.014714 0.000000 0.000000 0.000000
# 4 0.000000 0.000000 0.000000 0.027441 0.000000 0.000000
# 5 0.000000 0.000000 0.000000 0.000000 0.148721 0.000000
# 6 0.000000 0.000000 0.000000 0.000000 0.000000 0.029310
#
#
# Mechanical properties :
#
#
# Convention : Reuss Voigt Hill
#
# Bulk Modulus (GPa) = 8.11554 28.29898 18.20726
# Shear Modulus (GPa) = 14.75162 29.32246 22.03704
#
# Velocity S-wave (km/s) = 2.64825 3.73370 3.23680
# Velocity P-wave (km/s) = 3.63446 5.66050 4.75660
#
# Compressibility (1/GPa) = 0.12322040
#
# Stress axis : x y z
#
# Youngs Moduli (GPa) = 11.82931 116.81110 67.96154
#
# Poissons Ratio (x) = 0.05786 -0.77087
# Poissons Ratio (y) = 0.00586 0.21357
# Poissons Ratio (z) = -0.13418 0.36708
#
# Static dielectric constant tensor:
#      x y z
#    x 1.719570 0.000000 0.000000 
#    y 0.000000 1.750330 0.000000 
#    z 0.000000 0.000000 1.420020 
# 
# From -- ./inp_files/31679.got.cif
#   From: 2010.05.17/outbox.cif.g08.bks.cpg/sg50_16_cif.got.tgz:31679.got - 2010.06.03 11:33:33.
