data_PCOD9397508
_publ_section_title
;
Structure prediction by ZEFSAII (Michael W. Deem and Ramdas Pophale) SiO2 
 PCOD9397508
Probable space group: P B A N
;
_chemical_formula_sum "Si O2"
_cell_formula_units_Z 32
_cell_length_a 5.059495
_cell_length_b 12.068341
_cell_length_c 22.927848
_cell_angle_alpha 90.000000
_cell_angle_beta 90.000000
_cell_angle_gamma 90.000000
_cell_volume 1399.967772
_symmetry_space_group_name_H-M "P B A N"
_symmetry_group_IT_number 50
_space_group.IT_coordinate_system_code '2'
_symmetry_cell_setting 'orthorhombic'
loop_
_space_group_symop_operation_xyz
x,y,z
1/2-x,1/2-y,z
x,1/2-y,-z
1/2-x,y,-z
-x,-y,-z
1/2+x,1/2+y,-z
-x,1/2+y,z
1/2+x,-y,z
loop_
_atom_site_type_symbol
_atom_site_label
_atom_site_fract_x
_atom_site_fract_y
_atom_site_fract_z
Si Si1 0.035329 0.923546 0.283063
Si Si2 0.750000 0.250000 0.500000
Si Si3 0.028076 0.072411 0.579675
Si Si4 0.750000 0.750000 0.792007
Si Si5 0.750000 0.750000 0.000000
Si Si6 0.244951 0.078935 0.105686
O O1 0.964953 0.811553 0.248556
O O2 0.008047 0.899411 0.352021
O O3 0.816016 0.019319 0.270469
O O4 0.931925 0.172906 0.540496
O O5 0.824263 0.970355 0.569048
O O6 0.814506 0.847258 0.837435
O O7 0.697851 0.657081 0.050410
O O8 0.496651 0.000897 0.105042
#
# Coordination Sequence:
#
# PCOD9397508 Si02
#       6
#     8   2   8   4   2   8
#     4  10  23  42  63  91 127 165 211 265 318 386
#     4  12  24  42  72  96 128 174 216 268 340 404
#     4  10  24  43  63  93 128 162 210 267 320 386
#     4  11  24  41  70  97 128 177 220 264 336 397
#     4  10  24  42  72  96 132 188 228 264 332 394
#     4  11  25  43  65 100 138 173 222 280 326 383
#
# _framework density 22.857668
#
# number of rings (size 3 to 8) (size 9 to 14) (size 15 to 20)
#    0.000    1.500    0.000    3.000    0.000   16.000 
#    0.000    0.000    0.000    0.000    0.000    0.000 
#    0.000    0.000    0.000    0.000    0.000    0.000 
#
# Total GULP energy -178617.524782 kJ/mol
# GULP energy per Si atom -5581.797649 kJ/mol
# Density = 2.280564 g / cm^3
# Si number density = 22.857668 Si / 1000 Ang^3
#
#
#
# Elastic Constant Matrix: (Units=GPa)
#
#
# Indices 1 2 3 4 5 6 
#
# 1 120.6899 59.8895 32.5070 0.0000 0.0000 0.0000
# 2 59.8895 177.5595 107.4537 0.0000 0.0000 0.0000
# 3 32.5070 107.4537 173.0128 0.0000 0.0000 0.0000
# 4 0.0000 0.0000 0.0000 66.7998 0.0000 0.0000
# 5 0.0000 0.0000 0.0000 0.0000 -145.9357 0.0000
# 6 0.0000 0.0000 0.0000 0.0000 0.0000 3.9644
#
#
#
# Elastic Compliance Matrix: (Units=1/GPa)
#
#
# Indices 1 2 3 4 5 6 
#
# 1 0.009964 -0.003569 0.000345 0.000000 0.000000 0.000000
# 2 -0.003569 0.010302 -0.005728 0.000000 0.000000 0.000000
# 3 0.000345 -0.005728 0.009272 0.000000 0.000000 0.000000
# 4 0.000000 0.000000 0.000000 0.014970 0.000000 0.000000
# 5 0.000000 0.000000 0.000000 0.000000 -0.006852 0.000000
# 6 0.000000 0.000000 0.000000 0.000000 0.000000 0.252247
#
#
# Mechanical properties :
#
#
# Convention : Reuss Voigt Hill
#
# Bulk Modulus (GPa) = 85.95592 96.77360 91.36476
# Shear Modulus (GPa) = 16.04180 3.05982 9.55081
#
# Velocity S-wave (km/s) = 2.65205 1.15825 2.04633
# Velocity P-wave (km/s) = 6.86034 6.64967 6.75583
#
# Compressibility (1/GPa) = 0.01163387
#
# Stress axis : x y z
#
# Youngs Moduli (GPa) = 100.36039 97.06752 107.84608
#
# Poissons Ratio (x) = 0.34648 -0.03718
# Poissons Ratio (y) = 0.35823 0.61771
# Poissons Ratio (z) = -0.03460 0.55597
#
# Static dielectric constant tensor:
#      x y z
#    x 1.822000 0.000000 0.000000 
#    y 0.000000 3.044370 0.000000 
#    z 0.000000 0.000000 1.848700 
# 
# From -- ./inp_files/31334.got.cif
#   From: 2010.05.17/outbox.cif.g08.bks.cpg/sg50_16_cif.got.tgz:31334.got - 2010.06.03 11:33:33.
