data_PCOD9397210
_publ_section_title
;
Structure prediction by ZEFSAII (Michael W. Deem and Ramdas Pophale) SiO2 
 PCOD9397210
Probable space group: P B A N
;
_chemical_formula_sum "Si O2"
_cell_formula_units_Z 48
_cell_length_a 8.629885
_cell_length_b 12.039249
_cell_length_c 20.173520
_cell_angle_alpha 90.000000
_cell_angle_beta 90.000000
_cell_angle_gamma 90.000000
_cell_volume 2095.974953
_symmetry_space_group_name_H-M "P B A N"
_symmetry_group_IT_number 50
_space_group.IT_coordinate_system_code '2'
_symmetry_cell_setting 'orthorhombic'
loop_
_space_group_symop_operation_xyz
x,y,z
1/2-x,1/2-y,z
x,1/2-y,-z
1/2-x,y,-z
-x,-y,-z
1/2+x,1/2+y,-z
-x,1/2+y,z
1/2+x,-y,z
loop_
_atom_site_type_symbol
_atom_site_label
_atom_site_fract_x
_atom_site_fract_y
_atom_site_fract_z
Si Si1 0.573481 0.769745 0.667848
Si Si2 0.684372 0.124748 0.637089
Si Si3 0.365174 0.906127 0.763872
Si Si4 0.412375 0.555137 0.848219
Si Si5 0.291654 0.375589 0.076793
Si Si6 0.123828 0.436865 0.454315
O O1 0.750000 0.750000 0.684857
O O2 0.495718 0.653556 0.646634
O O3 0.479343 0.814243 0.732029
O O4 0.565733 0.857311 0.605828
O O5 0.750000 0.250000 0.628789
O O6 0.759690 0.066721 0.700470
O O7 0.710306 0.041094 0.578804
O O8 0.230922 0.875748 0.817148
O O9 0.471966 0.003355 0.793026
O O10 0.320584 0.453871 0.881373
O O11 0.529427 0.606794 0.902019
O O12 0.250000 0.250000 0.092116
O O13 0.250000 0.396430 0.000000
O O14 0.250000 0.376074 0.500000
O O15 0.000000 0.500000 0.500000
#
# Coordination Sequence:
#
# PCOD9397210 Si02
#       6
#     8   8   8   8   8   8
#     4  11  25  42  63  91 129 168 208 273 344 405
#     4  10  23  42  61  86 123 161 204 265 329 389
#     4  10  22  40  64  93 124 167 213 264 331 393
#     4  10  22  41  68  99 135 172 224 280 322 390
#     4  10  22  41  67 100 139 184 225 270 331 393
#     4  12  25  40  62  89 117 160 217 267 328 410
#
# _framework density 22.901038
#
# number of rings (size 3 to 8) (size 9 to 14) (size 15 to 20)
#    0.000    1.500    0.000    4.500    0.000   14.000 
#    0.000    2.500    0.000    9.000    0.000    0.000 
#    0.000    0.000    0.000    0.000    0.000    0.000 
#
# Total GULP energy -268082.604634 kJ/mol
# GULP energy per Si atom -5585.054263 kJ/mol
# Density = 2.284891 g / cm^3
# Si number density = 22.901038 Si / 1000 Ang^3
#
#
#
# Elastic Constant Matrix: (Units=GPa)
#
#
# Indices 1 2 3 4 5 6 
#
# 1 189.5229 50.6476 60.6459 0.0000 0.0000 0.0000
# 2 50.6476 94.4161 48.3486 0.0000 0.0000 0.0000
# 3 60.6459 48.3486 135.0486 0.0000 0.0000 0.0000
# 4 0.0000 0.0000 0.0000 15.2995 0.0000 0.0000
# 5 0.0000 0.0000 0.0000 0.0000 33.4521 0.0000
# 6 0.0000 0.0000 0.0000 0.0000 0.0000 24.4747
#
#
#
# Elastic Compliance Matrix: (Units=1/GPa)
#
#
# Indices 1 2 3 4 5 6 
#
# 1 0.006604 -0.002478 -0.002078 0.000000 0.000000 0.000000
# 2 -0.002478 0.013899 -0.003863 0.000000 0.000000 0.000000
# 3 -0.002078 -0.003863 0.009721 0.000000 0.000000 0.000000
# 4 0.000000 0.000000 0.000000 0.065362 0.000000 0.000000
# 5 0.000000 0.000000 0.000000 0.000000 0.029893 0.000000
# 6 0.000000 0.000000 0.000000 0.000000 0.000000 0.040859
#
#
# Mechanical properties :
#
#
# Convention : Reuss Voigt Hill
#
# Bulk Modulus (GPa) = 74.71261 82.03020 78.37140
# Shear Modulus (GPa) = 26.64701 31.93495 29.29098
#
# Velocity S-wave (km/s) = 3.41482 3.73832 3.58022
# Velocity P-wave (km/s) = 6.94571 7.38448 7.16845
#
# Compressibility (1/GPa) = 0.01338462
#
# Stress axis : x y z
#
# Youngs Moduli (GPa) = 151.43018 71.94770 102.86943
#
# Poissons Ratio (x) = 0.17830 0.21379
# Poissons Ratio (y) = 0.37527 0.39740
# Poissons Ratio (z) = 0.31472 0.27794
#
# Static dielectric constant tensor:
#      x y z
#    x 2.014340 0.000000 0.000000 
#    y 0.000000 1.842850 0.000000 
#    z 0.000000 0.000000 1.880160 
# 
# From -- ./inp_files/28743.got.cif
#   From: 2010.05.17/outbox.cif.g08.bks.cpg/sg50_15_cif.got.tgz:28743.got - 2010.06.03 11:33:33.
