data_PCOD9397348
_publ_section_title
;
Structure prediction by ZEFSAII (Michael W. Deem and Ramdas Pophale) SiO2 
 PCOD9397348
Probable space group: P B A N
;
_chemical_formula_sum "Si O2"
_cell_formula_units_Z 40
_cell_length_a 14.287101
_cell_length_b 9.497645
_cell_length_c 14.818463
_cell_angle_alpha 90.000000
_cell_angle_beta 90.000000
_cell_angle_gamma 90.000000
_cell_volume 2010.773753
_symmetry_space_group_name_H-M "P B A N"
_symmetry_group_IT_number 50
_space_group.IT_coordinate_system_code '2'
_symmetry_cell_setting 'orthorhombic'
loop_
_space_group_symop_operation_xyz
x,y,z
1/2-x,1/2-y,z
x,1/2-y,-z
1/2-x,y,-z
-x,-y,-z
1/2+x,1/2+y,-z
-x,1/2+y,z
1/2+x,-y,z
loop_
_atom_site_type_symbol
_atom_site_label
_atom_site_fract_x
_atom_site_fract_y
_atom_site_fract_z
Si Si1 0.476387 0.528710 0.645331
Si Si2 0.506139 0.770798 0.771225
Si Si3 0.345368 0.329902 0.089463
Si Si4 0.861318 0.916824 0.516074
Si Si5 0.577859 0.102234 0.049799
O O1 0.452300 0.656705 0.711526
O O2 0.460283 0.387379 0.701394
O O3 0.584077 0.546235 0.609520
O O4 0.412397 0.514689 0.557535
O O5 0.586747 0.689944 0.826318
O O6 0.453183 0.852393 0.850458
O O7 0.250000 0.250000 0.109342
O O8 0.337586 0.492760 0.063603
O O9 0.383730 0.250000 0.000000
O O10 0.880975 0.750000 0.500000
O O11 0.750000 0.934887 0.500000
O O12 0.596194 0.250000 0.000000
O O13 0.500000 0.000000 0.000000
#
# Coordination Sequence:
#
# PCOD9397348 Si02
#       5
#     8   8   8   8   8
#     4  11  23  39  66 100 127 165 219 276 328 406
#     4  12  21  38  66  95 128 164 221 271 325 391
#     4  11  24  41  63  92 135 175 223 275 330 392
#     4  10  22  43  68  91 126 173 214 265 342 415
#     4  12  20  39  70  95 127 182 224 265 335 404
#
# _framework density 19.89284
#
# number of rings (size 3 to 8) (size 9 to 14) (size 15 to 20)
#    0.000    0.800    8.000    0.000    0.000    1.600 
#    0.000    4.000    0.000    0.000    0.000    0.000 
#    0.000    0.000    0.000    0.000    0.000    0.000 
#
# Total GULP energy -222948.882928 kJ/mol
# GULP energy per Si atom -5573.722073 kJ/mol
# Density = 1.984756 g / cm^3
# Si number density = 19.892840 Si / 1000 Ang^3
#
#
#
# Elastic Constant Matrix: (Units=GPa)
#
#
# Indices 1 2 3 4 5 6 
#
# 1 67.4916 28.7181 17.7179 0.0000 0.0000 0.0000
# 2 28.7181 145.5151 31.5234 0.0000 0.0000 0.0000
# 3 17.7179 31.5234 104.5729 0.0000 0.0000 0.0000
# 4 0.0000 0.0000 0.0000 40.0744 0.0000 0.0000
# 5 0.0000 0.0000 0.0000 0.0000 5.1280 0.0000
# 6 0.0000 0.0000 0.0000 0.0000 0.0000 6.0753
#
#
#
# Elastic Compliance Matrix: (Units=1/GPa)
#
#
# Indices 1 2 3 4 5 6 
#
# 1 0.016537 -0.002842 -0.001945 0.000000 0.000000 0.000000
# 2 -0.002842 0.007841 -0.001882 0.000000 0.000000 0.000000
# 3 -0.001945 -0.001882 0.010460 0.000000 0.000000 0.000000
# 4 0.000000 0.000000 0.000000 0.024954 0.000000 0.000000
# 5 0.000000 0.000000 0.000000 0.000000 0.195008 0.000000
# 6 0.000000 0.000000 0.000000 0.000000 0.000000 0.164602
#
#
# Mechanical properties :
#
#
# Convention : Reuss Voigt Hill
#
# Bulk Modulus (GPa) = 46.51500 52.61093 49.56297
# Shear Modulus (GPa) = 11.36608 26.23020 18.79814
#
# Velocity S-wave (km/s) = 2.39292 3.63516 3.07737
# Velocity P-wave (km/s) = 5.57389 6.64257 6.13156
#
# Compressibility (1/GPa) = 0.02149844
#
# Stress axis : x y z
#
# Youngs Moduli (GPa) = 60.47168 127.53832 95.60597
#
# Poissons Ratio (x) = 0.36249 0.18596
# Poissons Ratio (y) = 0.17187 0.17993
# Poissons Ratio (z) = 0.11762 0.24003
#
# Static dielectric constant tensor:
#      x y z
#    x 1.771770 0.000000 0.000000 
#    y 0.000000 1.757380 0.000000 
#    z 0.000000 0.000000 1.717470 
# 
# From -- ./inp_files/24633.got.cif
#   From: 2010.05.17/outbox.cif.g08.bks.cpg/sg50_13_cif.got.tgz:24633.got - 2010.06.03 11:33:33.
