data_PCOD9397639
_publ_section_title
;
Structure prediction by ZEFSAII (Michael W. Deem and Ramdas Pophale) SiO2 
 PCOD9397639
Probable space group: P B A N
;
_chemical_formula_sum "Si O2"
_cell_formula_units_Z 38
_cell_length_a 9.108989
_cell_length_b 17.853316
_cell_length_c 11.040468
_cell_angle_alpha 90.000000
_cell_angle_beta 90.000000
_cell_angle_gamma 90.000000
_cell_volume 1795.463385
_symmetry_space_group_name_H-M "P B A N"
_symmetry_group_IT_number 50
_space_group.IT_coordinate_system_code '2'
_symmetry_cell_setting 'orthorhombic'
loop_
_space_group_symop_operation_xyz
x,y,z
1/2-x,1/2-y,z
x,1/2-y,-z
1/2-x,y,-z
-x,-y,-z
1/2+x,1/2+y,-z
-x,1/2+y,z
1/2+x,-y,z
loop_
_atom_site_type_symbol
_atom_site_label
_atom_site_fract_x
_atom_site_fract_y
_atom_site_fract_z
Si Si1 0.750000 0.250000 0.500000
Si Si2 0.545878 0.551332 0.117304
Si Si3 0.656613 0.558280 0.746596
Si Si4 0.400308 0.629453 0.655592
Si Si5 0.696006 0.162915 0.130956
Si Si6 0.750000 0.011762 0.500000
O O1 0.644175 0.296283 0.413413
O O2 0.716918 0.558538 0.152113
O O3 0.465580 0.503553 0.221142
O O4 0.471635 0.633993 0.124879
O O5 0.500000 0.500000 0.000000
O O6 0.555125 0.630669 0.723901
O O7 0.718478 0.538055 0.615964
O O8 0.277650 0.620158 0.760389
O O9 0.377793 0.566946 0.551002
O O10 0.750000 0.250000 0.140760
O O11 0.750000 0.136336 0.000000
#
# Coordination Sequence:
#
# PCOD9397639 Si02
#       6
#     2   8   8   8   8   4
#     4  10  24  40  70  90 144 186 250 276 352 446
#     4  12  24  42  67 104 134 173 229 298 352 419
#     4  12  23  38  68  98 137 171 226 292 353 410
#     4  11  22  42  67  97 133 186 229 286 352 424
#     4  11  23  43  68  93 131 181 228 277 351 428
#     4  11  22  39  64  97 138 167 228 286 360 411
#
# _framework density 21.164453000000002
#
# number of rings (size 3 to 8) (size 9 to 14) (size 15 to 20)
#    0.000    0.632    5.263    3.789    0.000    0.000 
#    0.000    1.053    0.000    2.526    0.000    0.000 
#    0.000    0.000    0.000    0.000    0.000    0.000 
#
# Total GULP energy -211714.789755 kJ/mol
# GULP energy per Si atom -5571.441836 kJ/mol
# Density = 2.111628 g / cm^3
# Si number density = 21.164453 Si / 1000 Ang^3
#
#
#
# Elastic Constant Matrix: (Units=GPa)
#
#
# Indices 1 2 3 4 5 6 
#
# 1 143.4741 43.8582 29.0293 0.0000 0.0000 0.0000
# 2 43.8582 72.5692 11.7220 0.0000 0.0000 0.0000
# 3 29.0293 11.7220 121.0609 0.0000 0.0000 0.0000
# 4 0.0000 0.0000 0.0000 1.6103 0.0000 0.0000
# 5 0.0000 0.0000 0.0000 0.0000 38.2606 0.0000
# 6 0.0000 0.0000 0.0000 0.0000 0.0000 19.5949
#
#
#
# Elastic Compliance Matrix: (Units=1/GPa)
#
#
# Indices 1 2 3 4 5 6 
#
# 1 0.008855 -0.005088 -0.001631 0.000000 0.000000 0.000000
# 2 -0.005088 0.016923 -0.000418 0.000000 0.000000 0.000000
# 3 -0.001631 -0.000418 0.008692 0.000000 0.000000 0.000000
# 4 0.000000 0.000000 0.000000 0.620997 0.000000 0.000000
# 5 0.000000 0.000000 0.000000 0.000000 0.026137 0.000000
# 6 0.000000 0.000000 0.000000 0.000000 0.000000 0.051034
#
#
# Mechanical properties :
#
#
# Convention : Reuss Voigt Hill
#
# Bulk Modulus (GPa) = 49.51767 56.25813 52.88790
# Shear Modulus (GPa) = 6.63443 28.72613 17.68028
#
# Velocity S-wave (km/s) = 1.77243 3.68813 2.89342
# Velocity P-wave (km/s) = 5.25700 6.69145 6.01713
#
# Compressibility (1/GPa) = 0.02019481
#
# Stress axis : x y z
#
# Youngs Moduli (GPa) = 112.92657 59.09188 115.05024
#
# Poissons Ratio (x) = 0.30068 0.18762
# Poissons Ratio (y) = 0.57462 0.04814
# Poissons Ratio (z) = 0.18415 0.02473
#
# Static dielectric constant tensor:
#      x y z
#    x 1.776870 0.000000 0.000000 
#    y 0.000000 1.864220 0.000000 
#    z 0.000000 0.000000 1.784850 
# 
# From -- ./inp_files/18779.got.cif
#   From: 2010.05.17/outbox.cif.g08.bks.cpg/sg50_10_cif.got.tgz:18779.got - 2010.06.03 11:33:33.
