data_PCOD9397003
_publ_section_title
;
Structure prediction by ZEFSAII (Michael W. Deem and Ramdas Pophale) SiO2 
 PCOD9397003
Probable space group: P B A N
;
_chemical_formula_sum "Si O2"
_cell_formula_units_Z 18
_cell_length_a 13.081262
_cell_length_b 5.353356
_cell_length_c 10.915733
_cell_angle_alpha 90.000000
_cell_angle_beta 90.000000
_cell_angle_gamma 90.000000
_cell_volume 764.414072
_symmetry_space_group_name_H-M "P B A N"
_symmetry_group_IT_number 50
_space_group.IT_coordinate_system_code '2'
_symmetry_cell_setting 'orthorhombic'
loop_
_space_group_symop_operation_xyz
x,y,z
1/2-x,1/2-y,z
x,1/2-y,-z
1/2-x,y,-z
-x,-y,-z
1/2+x,1/2+y,-z
-x,1/2+y,z
1/2+x,-y,z
loop_
_atom_site_type_symbol
_atom_site_label
_atom_site_fract_x
_atom_site_fract_y
_atom_site_fract_z
Si Si1 0.071037 0.027683 0.662899
Si Si2 0.863782 0.998501 0.056347
Si Si3 0.250000 0.250000 0.500000
O O1 0.118636 0.013038 0.799238
O O2 0.170291 0.078709 0.577584
O O3 0.994872 0.270089 0.647093
O O4 0.906693 0.750000 0.000000
O O5 0.750000 0.997850 0.000000
O O6 0.904147 0.250000 0.000000
#
# Coordination Sequence:
#
# PCOD9397003 Si02
#       3
#     8   8   2
#     4  12  28  48  75 110 147 196 253 308 370 445
#     4  10  21  41  69 104 144 190 238 296 372 440
#     4  12  28  54  78 104 156 202 256 316 372 436
#
# _framework density 23.547449
#
# number of rings (size 3 to 8) (size 9 to 14) (size 15 to 20)
#    0.000    0.889    0.000    6.667    0.000   12.444 
#    0.000    0.000    0.000    0.000    0.000    0.000 
#    0.000    0.000    0.000    0.000    0.000    0.000 
#
# Total GULP energy -100417.395088 kJ/mol
# GULP energy per Si atom -5578.744172 kJ/mol
# Density = 2.349385 g / cm^3
# Si number density = 23.547449 Si / 1000 Ang^3
#
#
#
# Elastic Constant Matrix: (Units=GPa)
#
#
# Indices 1 2 3 4 5 6 
#
# 1 257.9595 80.4726 86.4612 0.0000 0.0000 0.0000
# 2 80.4726 243.4357 66.9746 0.0000 0.0000 0.0000
# 3 86.4612 66.9746 209.4958 0.0000 0.0000 0.0000
# 4 0.0000 0.0000 0.0000 32.8313 0.0000 0.0000
# 5 0.0000 0.0000 0.0000 0.0000 62.8911 0.0000
# 6 0.0000 0.0000 0.0000 0.0000 0.0000 592.8231
#
#
#
# Elastic Compliance Matrix: (Units=1/GPa)
#
#
# Indices 1 2 3 4 5 6 
#
# 1 0.004769 -0.001135 -0.001605 0.000000 0.000000 0.000000
# 2 -0.001135 0.004774 -0.001058 0.000000 0.000000 0.000000
# 3 -0.001605 -0.001058 0.005774 0.000000 0.000000 0.000000
# 4 0.000000 0.000000 0.000000 0.030459 0.000000 0.000000
# 5 0.000000 0.000000 0.000000 0.000000 0.015900 0.000000
# 6 0.000000 0.000000 0.000000 0.000000 0.000000 0.001687
#
#
# Mechanical properties :
#
#
# Convention : Reuss Voigt Hill
#
# Bulk Modulus (GPa) = 129.51895 130.96755 130.24325
# Shear Modulus (GPa) = 67.99736 169.50794 118.75265
#
# Velocity S-wave (km/s) = 5.37954 8.49364 7.10920
# Velocity P-wave (km/s) = 9.68033 12.32593 11.08236
#
# Compressibility (1/GPa) = 0.00772088
#
# Stress axis : x y z
#
# Youngs Moduli (GPa) = 209.70464 209.46715 173.18716
#
# Poissons Ratio (x) = 0.23768 0.27802
# Poissons Ratio (y) = 0.23795 0.18322
# Poissons Ratio (z) = 0.33664 0.22160
#
# Static dielectric constant tensor:
#      x y z
#    x 1.817180 0.000000 0.000000 
#    y 0.000000 1.884410 0.000000 
#    z 0.000000 0.000000 1.943660 
# 
# From -- ./inp_files/17254.got.cif
#   From: 2010.05.17/outbox.cif.g08.bks.cpg/sg50_9_cif.got.tgz:17254.got - 2010.06.03 11:33:33.
