data_PCOD9397727
_publ_section_title
;
Structure prediction by ZEFSAII (Michael W. Deem and Ramdas Pophale) SiO2 
 PCOD9397727
Probable space group: P B A N
;
_chemical_formula_sum "Si O2"
_cell_formula_units_Z 32
_cell_length_a 11.235581
_cell_length_b 22.598371
_cell_length_c 4.872943
_cell_angle_alpha 90.000000
_cell_angle_beta 90.000000
_cell_angle_gamma 90.000000
_cell_volume 1237.268626
_symmetry_space_group_name_H-M "P B A N"
_symmetry_group_IT_number 50
_space_group.IT_coordinate_system_code '2'
_symmetry_cell_setting 'orthorhombic'
loop_
_space_group_symop_operation_xyz
x,y,z
1/2-x,1/2-y,z
x,1/2-y,-z
1/2-x,y,-z
-x,-y,-z
1/2+x,1/2+y,-z
-x,1/2+y,z
1/2+x,-y,z
loop_
_atom_site_type_symbol
_atom_site_label
_atom_site_fract_x
_atom_site_fract_y
_atom_site_fract_z
Si Si1 0.085687 0.848954 0.063205
Si Si2 0.569129 0.652775 0.563459
Si Si3 0.877973 0.524803 0.622618
Si Si4 0.250000 0.951096 0.000000
Si Si5 0.250000 0.250000 0.500000
Si Si6 0.250000 0.750000 0.000000
O O1 0.172255 0.901269 0.165026
O O2 0.994069 0.871122 0.835495
O O3 0.156816 0.798540 0.892474
O O4 0.020590 0.823095 0.329366
O O5 0.621443 0.595144 0.410282
O O6 0.662159 0.703601 0.648587
O O7 0.750000 0.503479 0.500000
O O8 0.000000 0.500000 0.500000
O O9 0.855672 0.495591 0.915688
#
# Coordination Sequence:
#
# PCOD9397727 Si02
#       6
#     8   8   8   4   2   2
#     4  11  26  47  73 111 149 202 256 333 389 476
#     4  12  27  47  73 109 154 201 260 321 397 475
#     4  12  26  47  75 113 155 206 258 323 394 474
#     4  11  26  43  80 109 160 201 266 326 402 477
#     4  12  28  50  76 108 152 210 264 320 406 482
#     4  10  24  46  76 104 144 196 264 316 402 452
#
# _framework density 25.863422
#
# number of rings (size 3 to 8) (size 9 to 14) (size 15 to 20)
#    0.000    0.500    3.750    3.000    3.500    8.000 
#    0.000    0.000    0.000    0.000    0.000    0.000 
#    0.000    0.000    0.000    0.000    0.000    0.000 
#
# Total GULP energy -178194.399636 kJ/mol
# GULP energy per Si atom -5568.574989 kJ/mol
# Density = 2.580456 g / cm^3
# Si number density = 25.863422 Si / 1000 Ang^3
#
#
#
# Elastic Constant Matrix: (Units=GPa)
#
#
# Indices 1 2 3 4 5 6 
#
# 1 140.7423 64.3347 42.3189 0.0000 0.0000 0.0000
# 2 64.3347 197.2814 18.1778 0.0000 0.0000 0.0000
# 3 42.3189 18.1778 81.2858 0.0000 0.0000 0.0000
# 4 0.0000 0.0000 0.0000 16.6101 0.0000 0.0000
# 5 0.0000 0.0000 0.0000 0.0000 22.1074 0.0000
# 6 0.0000 0.0000 0.0000 0.0000 0.0000 40.7129
#
#
#
# Elastic Compliance Matrix: (Units=1/GPa)
#
#
# Indices 1 2 3 4 5 6 
#
# 1 0.009697 -0.002754 -0.004432 0.000000 0.000000 0.000000
# 2 -0.002754 0.005958 0.000101 0.000000 0.000000 0.000000
# 3 -0.004432 0.000101 0.014587 0.000000 0.000000 0.000000
# 4 0.000000 0.000000 0.000000 0.060204 0.000000 0.000000
# 5 0.000000 0.000000 0.000000 0.000000 0.045234 0.000000
# 6 0.000000 0.000000 0.000000 0.000000 0.000000 0.024562
#
#
# Mechanical properties :
#
#
# Convention : Reuss Voigt Hill
#
# Bulk Modulus (GPa) = 62.22069 74.33025 68.27547
# Shear Modulus (GPa) = 27.81349 35.51795 31.66572
#
# Velocity S-wave (km/s) = 3.28288 3.70981 3.50286
# Velocity P-wave (km/s) = 6.20318 6.86675 6.54338
#
# Compressibility (1/GPa) = 0.01607182
#
# Stress axis : x y z
#
# Youngs Moduli (GPa) = 103.12760 167.85355 68.55304
#
# Poissons Ratio (x) = 0.46223 0.30386
# Poissons Ratio (y) = 0.28399 -0.00695
# Poissons Ratio (z) = 0.45711 -0.01702
#
# Static dielectric constant tensor:
#      x y z
#    x 2.325620 0.000000 0.000000 
#    y 0.000000 1.943790 0.000000 
#    z 0.000000 0.000000 6.093600 
# 
# From -- ./inp_files/2210.got.cif
#   From: 2010.05.17/outbox.cif.g08.bks.cpg/sg50_2_cif.got.tgz:2210.got - 2010.06.03 11:33:33.
