data_PCOD9397704
_publ_section_title
;
Structure prediction by ZEFSAII (Michael W. Deem and Ramdas Pophale) SiO2 
 PCOD9397704
Probable space group: P B A N
;
_chemical_formula_sum "Si O2"
_cell_formula_units_Z 56
_cell_length_a 8.754290
_cell_length_b 20.075700
_cell_length_c 14.397132
_cell_angle_alpha 90.000000
_cell_angle_beta 90.000000
_cell_angle_gamma 90.000000
_cell_volume 2530.274350
_symmetry_space_group_name_H-M "P B A N"
_symmetry_group_IT_number 50
_space_group.IT_coordinate_system_code '2'
_symmetry_cell_setting 'orthorhombic'
loop_
_space_group_symop_operation_xyz
x,y,z
1/2-x,1/2-y,z
x,1/2-y,-z
1/2-x,y,-z
-x,-y,-z
1/2+x,1/2+y,-z
-x,1/2+y,z
1/2+x,-y,z
loop_
_atom_site_type_symbol
_atom_site_label
_atom_site_fract_x
_atom_site_fract_y
_atom_site_fract_z
Si Si1 0.857840 0.192427 0.829346
Si Si2 0.317095 0.580207 0.306908
Si Si3 0.379885 0.032970 0.229159
Si Si4 0.579919 0.907732 0.173654
Si Si5 0.432246 0.329170 0.994170
Si Si6 0.491337 0.250000 0.500000
Si Si7 0.409267 0.221483 0.708352
Si Si8 0.250000 0.858691 0.500000
O O1 0.750000 0.250000 0.871532
O O2 0.772781 0.135755 0.769709
O O3 0.959489 0.234294 0.755831
O O4 0.965343 0.155497 0.904044
O O5 0.240001 0.509567 0.288676
O O6 0.500431 0.574159 0.291864
O O7 0.254498 0.600756 0.405951
O O8 0.261410 0.074214 0.166060
O O9 0.484869 0.976210 0.181674
O O10 0.515278 0.868364 0.085113
O O11 0.574330 0.855412 0.260022
O O12 0.452380 0.250000 0.000000
O O13 0.250000 0.339129 0.000000
O O14 0.410861 0.234808 0.597995
O O15 0.602433 0.187332 0.489547
O O16 0.250000 0.250000 0.747755
#
# Coordination Sequence:
#
# PCOD9397704 Si02
#       8
#     8   8   8   8   8   4   8   4
#     4  12  24  43  71 104 142 180 227 294 362 423
#     4  11  23  43  65  97 130 189 233 286 348 416
#     4  10  24  45  68  93 137 190 237 279 343 410
#     4  11  23  45  71  99 140 182 235 287 343 426
#     4  11  23  41  68 105 139 176 226 287 358 421
#     4  11  23  38  62 110 140 176 224 294 384 426
#     4  12  23  41  69 103 143 180 227 301 365 427
#     4  11  22  38  68  94 144 176 233 294 358 422
#
# _framework density 22.131988
#
# number of rings (size 3 to 8) (size 9 to 14) (size 15 to 20)
#    0.000    0.857    2.857    5.357    0.000    0.857 
#    0.000    7.857    0.000    0.000    0.000    0.000 
#    0.000    0.000    0.000    0.000    0.000    0.000 
#
# Total GULP energy -312704.889056 kJ/mol
# GULP energy per Si atom -5584.015876 kJ/mol
# Density = 2.208161 g / cm^3
# Si number density = 22.131988 Si / 1000 Ang^3
#
#
#
# Elastic Constant Matrix: (Units=GPa)
#
#
# Indices 1 2 3 4 5 6 
#
# 1 91.5699 24.5342 25.8952 0.0000 0.0000 0.0000
# 2 24.5342 92.2140 46.5233 0.0000 0.0000 0.0000
# 3 25.8952 46.5233 135.2810 0.0000 0.0000 0.0000
# 4 0.0000 0.0000 0.0000 -3.1962 0.0000 0.0000
# 5 0.0000 0.0000 0.0000 0.0000 33.7158 0.0000
# 6 0.0000 0.0000 0.0000 0.0000 0.0000 33.9965
#
#
#
# Elastic Compliance Matrix: (Units=1/GPa)
#
#
# Indices 1 2 3 4 5 6 
#
# 1 0.011989 -0.002459 -0.001449 0.000000 0.000000 0.000000
# 2 -0.002459 0.013625 -0.004215 0.000000 0.000000 0.000000
# 3 -0.001449 -0.004215 0.009119 0.000000 0.000000 0.000000
# 4 0.000000 0.000000 0.000000 -0.312875 0.000000 0.000000
# 5 0.000000 0.000000 0.000000 0.000000 0.029660 0.000000
# 6 0.000000 0.000000 0.000000 0.000000 0.000000 0.029415
#
#
# Mechanical properties :
#
#
# Convention : Reuss Voigt Hill
#
# Bulk Modulus (GPa) = 54.09157 56.99669 55.54413
# Shear Modulus (GPa) = -25.42480 27.71072 1.14296
#
# Velocity S-wave (km/s) = -3.39304 3.54229 0.71941
# Velocity P-wave (km/s) = 3.02377 6.52223 5.08344
#
# Compressibility (1/GPa) = 0.01848717
#
# Stress axis : x y z
#
# Youngs Moduli (GPa) = 83.40825 73.39451 109.66082
#
# Poissons Ratio (x) = 0.18044 0.15895
# Poissons Ratio (y) = 0.20506 0.46222
# Poissons Ratio (z) = 0.12090 0.30936
#
# Static dielectric constant tensor:
#      x y z
#    x 1.877090 0.000000 0.000000 
#    y 0.000000 1.826390 0.000000 
#    z 0.000000 0.000000 1.845670 
# 
# From -- ./inp_files/25314.got.cif
#   From: 2010.05.17/outbox.cif.g08.bks.cpg/sg50_13_cif.got.tgz:25314.got - 2010.06.03 11:33:33.
