data_PCOD9397356
_publ_section_title
;
Structure prediction by ZEFSAII (Michael W. Deem and Ramdas Pophale) SiO2 
 PCOD9397356
Probable space group: P B A N
;
_chemical_formula_sum "Si O2"
_cell_formula_units_Z 52
_cell_length_a 9.113807
_cell_length_b 12.861052
_cell_length_c 21.909748
_cell_angle_alpha 90.000000
_cell_angle_beta 90.000000
_cell_angle_gamma 90.000000
_cell_volume 2568.110486
_symmetry_space_group_name_H-M "P B A N"
_symmetry_group_IT_number 50
_space_group.IT_coordinate_system_code '2'
_symmetry_cell_setting 'orthorhombic'
loop_
_space_group_symop_operation_xyz
x,y,z
1/2-x,1/2-y,z
x,1/2-y,-z
1/2-x,y,-z
-x,-y,-z
1/2+x,1/2+y,-z
-x,1/2+y,z
1/2+x,-y,z
loop_
_atom_site_type_symbol
_atom_site_label
_atom_site_fract_x
_atom_site_fract_y
_atom_site_fract_z
Si Si1 0.977086 0.022479 0.860871
Si Si2 0.472320 0.212416 0.373871
Si Si3 0.732137 0.055093 0.772732
Si Si4 0.393163 0.573535 0.461072
Si Si5 0.750000 0.250000 0.297839
Si Si6 0.194512 0.426307 0.652812
Si Si7 0.741684 0.627922 0.072893
O O1 0.082739 0.083970 0.906821
O O2 0.857468 0.084555 0.821528
O O3 0.095120 0.986817 0.810430
O O4 0.875783 0.935018 0.894412
O O5 0.621091 0.202487 0.336871
O O6 0.353884 0.126576 0.354297
O O7 0.411615 0.327630 0.360652
O O8 0.518695 0.176337 0.441086
O O9 0.680494 0.158666 0.740503
O O10 0.798917 0.978408 0.720334
O O11 0.250000 0.598650 0.500000
O O12 0.500000 0.500000 0.500000
O O13 0.341004 0.508665 0.400750
O O14 0.750000 0.750000 0.088938
O O15 0.750000 0.616622 0.000000
#
# Coordination Sequence:
#
# PCOD9397356 Si02
#       7
#     8   8   8   8   4   8   8
#     4  10  23  41  66 103 136 180 231 284 336 397
#     4  11  26  44  69  93 122 172 218 264 344 416
#     4  11  23  41  67  96 140 170 217 284 337 409
#     4  12  26  47  69  93 127 165 221 284 329 409
#     4  12  24  38  69  98 125 174 220 266 340 416
#     4  11  25  49  64  94 135 171 211 271 359 404
#     4  10  22  43  69  98 142 191 235 282 339 399
#
# _framework density 20.248349999999999
#
# number of rings (size 3 to 8) (size 9 to 14) (size 15 to 20)
#    0.000    1.077    3.077    2.308    6.462    0.615 
#   11.077    0.000    0.000    4.615    0.000    0.000 
#    0.000    0.000    0.000    0.000    0.000    0.000 
#
# Total GULP energy -290149.270223 kJ/mol
# GULP energy per Si atom -5579.793658 kJ/mol
# Density = 2.020226 g / cm^3
# Si number density = 20.248350 Si / 1000 Ang^3
#
#
#
# Elastic Constant Matrix: (Units=GPa)
#
#
# Indices 1 2 3 4 5 6 
#
# 1 112.4767 31.5165 40.5472 0.0000 0.0000 0.0000
# 2 31.5165 101.7317 54.4477 0.0000 0.0000 0.0000
# 3 40.5472 54.4477 105.8959 0.0000 0.0000 0.0000
# 4 0.0000 0.0000 0.0000 -37.9339 0.0000 0.0000
# 5 0.0000 0.0000 0.0000 0.0000 35.1120 0.0000
# 6 0.0000 0.0000 0.0000 0.0000 0.0000 13.8427
#
#
#
# Elastic Compliance Matrix: (Units=1/GPa)
#
#
# Indices 1 2 3 4 5 6 
#
# 1 0.010481 -0.001516 -0.003234 0.000000 0.000000 0.000000
# 2 -0.001516 0.013781 -0.006505 0.000000 0.000000 0.000000
# 3 -0.003234 -0.006505 0.014026 0.000000 0.000000 0.000000
# 4 0.000000 0.000000 0.000000 -0.026362 0.000000 0.000000
# 5 0.000000 0.000000 0.000000 0.000000 0.028480 0.000000
# 6 0.000000 0.000000 0.000000 0.000000 0.000000 0.072240
#
#
# Mechanical properties :
#
#
# Convention : Reuss Voigt Hill
#
# Bulk Modulus (GPa) = 63.37836 63.68078 63.52957
# Shear Modulus (GPa) = 35.60817 15.11035 25.35926
#
# Velocity S-wave (km/s) = 4.19808 2.73472 3.54278
# Velocity P-wave (km/s) = 7.40722 6.44125 6.94106
#
# Compressibility (1/GPa) = 0.01577826
#
# Stress axis : x y z
#
# Youngs Moduli (GPa) = 95.40769 72.56272 71.29599
#
# Poissons Ratio (x) = 0.11004 0.23054
# Poissons Ratio (y) = 0.14469 0.46379
# Poissons Ratio (z) = 0.30851 0.47203
#
# Static dielectric constant tensor:
#      x y z
#    x 1.682610 0.000000 0.000000 
#    y 0.000000 1.724040 0.000000 
#    z 0.000000 0.000000 1.753810 
# 
# From -- ./inp_files/30609.got.cif
#   From: 2010.05.17/outbox.cif.g08.bks.cpg/sg50_16_cif.got.tgz:30609.got - 2010.06.03 11:33:33.
