data_PCOD9397776
_publ_section_title
;
Structure prediction by ZEFSAII (Michael W. Deem and Ramdas Pophale) SiO2 
 PCOD9397776
Probable space group: P B A N
;
_chemical_formula_sum "Si O2"
_cell_formula_units_Z 22
_cell_length_a 30.259901
_cell_length_b 5.553118
_cell_length_c 4.871874
_cell_angle_alpha 90.000000
_cell_angle_beta 90.000000
_cell_angle_gamma 90.000000
_cell_volume 818.654121
_symmetry_space_group_name_H-M "P B A N"
_symmetry_group_IT_number 50
_space_group.IT_coordinate_system_code '2'
_symmetry_cell_setting 'orthorhombic'
loop_
_space_group_symop_operation_xyz
x,y,z
1/2-x,1/2-y,z
x,1/2-y,-z
1/2-x,y,-z
-x,-y,-z
1/2+x,1/2+y,-z
-x,1/2+y,z
1/2+x,-y,z
loop_
_atom_site_type_symbol
_atom_site_label
_atom_site_fract_x
_atom_site_fract_y
_atom_site_fract_z
Si Si1 0.750000 0.250000 0.000000
Si Si2 0.324766 0.071946 0.749829
Si Si3 0.597397 0.250000 0.500000
Si Si4 0.950255 0.503867 0.117432
O O1 0.782087 0.415665 0.179037
O O2 0.316699 0.250000 0.500000
O O3 0.365031 0.894207 0.679114
O O4 0.334596 0.250000 0.000000
O O5 0.559668 0.038002 0.439363
O O6 0.931078 0.250000 0.000000
O O7 0.000000 0.500000 0.000000
O O8 0.930909 0.750000 0.000000
#
# Coordination Sequence:
#
# PCOD9397776 Si02
#       4
#     2   8   4   8
#     4  12  30  58  84 128 164 230 282 362 446 550
#     4  12  30  52  83 122 169 221 284 362 445 542
#     4  12  28  45  80 116 170 220 294 360 449 516
#     4  10  25  47  75 113 162 223 291 362 432 514
#
# _framework density 26.873376
#
# number of rings (size 3 to 8) (size 9 to 14) (size 15 to 20)
#    0.000    0.727    0.000    3.818   12.727   16.727 
#    0.000    0.000    0.000    0.000    0.000    0.000 
#    0.000    0.000    0.000    0.000    0.000    0.000 
#
# Total GULP energy -122591.118610 kJ/mol
# GULP energy per Si atom -5572.323573 kJ/mol
# Density = 2.681221 g / cm^3
# Si number density = 26.873376 Si / 1000 Ang^3
#
#
#
# Elastic Constant Matrix: (Units=GPa)
#
#
# Indices 1 2 3 4 5 6 
#
# 1 258.7554 96.6304 81.1104 0.0000 0.0000 0.0000
# 2 96.6304 263.6811 126.7934 0.0000 0.0000 0.0000
# 3 81.1104 126.7934 167.1005 0.0000 0.0000 0.0000
# 4 0.0000 0.0000 0.0000 84.8763 0.0000 0.0000
# 5 0.0000 0.0000 0.0000 0.0000 27.4480 0.0000
# 6 0.0000 0.0000 0.0000 0.0000 0.0000 20.3067
#
#
#
# Elastic Compliance Matrix: (Units=1/GPa)
#
#
# Indices 1 2 3 4 5 6 
#
# 1 0.004716 -0.000988 -0.001540 0.000000 0.000000 0.000000
# 2 -0.000988 0.006178 -0.004208 0.000000 0.000000 0.000000
# 3 -0.001540 -0.004208 0.009925 0.000000 0.000000 0.000000
# 4 0.000000 0.000000 0.000000 0.011782 0.000000 0.000000
# 5 0.000000 0.000000 0.000000 0.000000 0.036432 0.000000
# 6 0.000000 0.000000 0.000000 0.000000 0.000000 0.049245
#
#
# Mechanical properties :
#
#
# Convention : Reuss Voigt Hill
#
# Bulk Modulus (GPa) = 136.10022 144.28951 140.19487
# Shear Modulus (GPa) = 37.25804 52.19307 44.72556
#
# Velocity S-wave (km/s) = 3.72752 4.41180 4.08402
# Velocity P-wave (km/s) = 8.32351 8.93090 8.63255
#
# Compressibility (1/GPa) = 0.00734753
#
# Stress axis : x y z
#
# Youngs Moduli (GPa) = 212.03428 161.86116 100.75670
#
# Poissons Ratio (x) = 0.15992 0.15512
# Poissons Ratio (y) = 0.20950 0.42401
# Poissons Ratio (z) = 0.32644 0.68116
#
# Static dielectric constant tensor:
#      x y z
#    x 2.092210 0.000000 0.000000 
#    y 0.000000 2.041120 0.000000 
#    z 0.000000 0.000000 0.527190 
# 
# From -- ./inp_files/6896.got.cif
#   From: 2010.05.17/outbox.cif.g08.bks.cpg/sg50_4_cif.got.tgz:6896.got - 2010.06.03 11:33:33.
