data_PCOD9397119
_publ_section_title
;
Structure prediction by ZEFSAII (Michael W. Deem and Ramdas Pophale) SiO2 
 PCOD9397119
Probable space group: P B A N
;
_chemical_formula_sum "Si O2"
_cell_formula_units_Z 34
_cell_length_a 16.374979
_cell_length_b 5.127822
_cell_length_c 20.158230
_cell_angle_alpha 90.000000
_cell_angle_beta 90.000000
_cell_angle_gamma 90.000000
_cell_volume 1692.645804
_symmetry_space_group_name_H-M "P B A N"
_symmetry_group_IT_number 50
_space_group.IT_coordinate_system_code '2'
_symmetry_cell_setting 'orthorhombic'
loop_
_space_group_symop_operation_xyz
x,y,z
1/2-x,1/2-y,z
x,1/2-y,-z
1/2-x,y,-z
-x,-y,-z
1/2+x,1/2+y,-z
-x,1/2+y,z
1/2+x,-y,z
loop_
_atom_site_type_symbol
_atom_site_label
_atom_site_fract_x
_atom_site_fract_y
_atom_site_fract_z
Si Si1 0.169411 0.901329 0.109774
Si Si2 0.056642 0.750000 0.000000
Si Si3 0.945122 0.620608 0.363115
Si Si4 0.056203 0.325480 0.785568
Si Si5 0.250000 0.250000 0.000000
Si Si6 0.440371 0.250000 0.500000
O O1 0.250000 0.750000 0.134779
O O2 0.124542 0.079141 0.163466
O O3 0.106754 0.721374 0.069061
O O4 0.197453 0.076925 0.048476
O O5 0.000000 0.500000 0.000000
O O6 0.909906 0.658133 0.289832
O O7 0.896165 0.707824 0.429229
O O8 0.977865 0.323563 0.365570
O O9 0.982869 0.538836 0.792963
O O10 0.500000 0.500000 0.500000
#
# Coordination Sequence:
#
# PCOD9397119 Si02
#       6
#     8   4   8   8   2   4
#     4  12  25  41  59  81 109 149 187 243 291 351
#     4  12  24  40  61  83 104 134 188 244 298 348
#     4   8  14  26  44  71 107 142 174 213 262 317
#     4  10  22  38  57  83 112 149 186 233 286 339
#     4  12  24  44  60  76 112 140 198 238 290 342
#     4   8  12  20  40  68 102 145 169 204 258 310
#
# _framework density 20.086894000000001
#
# number of rings (size 3 to 8) (size 9 to 14) (size 15 to 20)
#    0.000    1.882    2.353    2.118    3.294    0.000 
#    0.000    0.000    0.000    0.000    0.000    0.000 
#    0.000    0.941    8.941    0.000    0.000    0.000 
#
# Total GULP energy -189475.630427 kJ/mol
# GULP energy per Si atom -5572.812660 kJ/mol
# Density = 2.004118 g / cm^3
# Si number density = 20.086894 Si / 1000 Ang^3
#
#
#
# Elastic Constant Matrix: (Units=GPa)
#
#
# Indices 1 2 3 4 5 6 
#
# 1 43.7803 10.2663 34.2207 0.0000 0.0000 0.0000
# 2 10.2663 96.8063 5.1579 0.0000 0.0000 0.0000
# 3 34.2207 5.1579 178.9883 0.0000 0.0000 0.0000
# 4 0.0000 0.0000 0.0000 34.3058 0.0000 0.0000
# 5 0.0000 0.0000 0.0000 0.0000 8.1037 0.0000
# 6 0.0000 0.0000 0.0000 0.0000 0.0000 -3.9669
#
#
#
# Elastic Compliance Matrix: (Units=1/GPa)
#
#
# Indices 1 2 3 4 5 6 
#
# 1 0.027513 -0.002642 -0.005184 0.000000 0.000000 0.000000
# 2 -0.002642 0.010599 0.000200 0.000000 0.000000 0.000000
# 3 -0.005184 0.000200 0.006572 0.000000 0.000000 0.000000
# 4 0.000000 0.000000 0.000000 0.029150 0.000000 0.000000
# 5 0.000000 0.000000 0.000000 0.000000 0.123401 0.000000
# 6 0.000000 0.000000 0.000000 0.000000 0.000000 -0.252085
#
#
# Mechanical properties :
#
#
# Convention : Reuss Voigt Hill
#
# Bulk Modulus (GPa) = 33.97594 46.54053 40.25824
# Shear Modulus (GPa) = -167.85924 25.68385 -71.08770
#
# Velocity S-wave (km/s) = -9.15139 3.57968 -5.95541
# Velocity P-wave (km/s) = 9.73205 6.34865 5.21571
#
# Compressibility (1/GPa) = 0.02943259
#
# Stress axis : x y z
#
# Youngs Moduli (GPa) = 36.34670 94.34486 152.15282
#
# Poissons Ratio (x) = 0.24922 0.78877
# Poissons Ratio (y) = 0.09601 -0.03037
# Poissons Ratio (z) = 0.18842 -0.01883
#
# Static dielectric constant tensor:
#      x y z
#    x 1.410580 0.000000 0.000000 
#    y 0.000000 1.742700 0.000000 
#    z 0.000000 0.000000 1.811900 
# 
# From -- ./inp_files/30247.got.cif
#   From: 2010.05.17/outbox.cif.g08.bks.cpg/sg50_16_cif.got.tgz:30247.got - 2010.06.03 11:33:33.
