data_PCOD9397490
_publ_section_title
;
Structure prediction by ZEFSAII (Michael W. Deem and Ramdas Pophale) SiO2 
 PCOD9397490
Probable space group: P B A N
;
_chemical_formula_sum "Si O2"
_cell_formula_units_Z 38
_cell_length_a 10.177235
_cell_length_b 13.764655
_cell_length_c 10.712637
_cell_angle_alpha 90.000000
_cell_angle_beta 90.000000
_cell_angle_gamma 90.000000
_cell_volume 1500.691845
_symmetry_space_group_name_H-M "P B A N"
_symmetry_group_IT_number 50
_space_group.IT_coordinate_system_code '2'
_symmetry_cell_setting 'orthorhombic'
loop_
_space_group_symop_operation_xyz
x,y,z
1/2-x,1/2-y,z
x,1/2-y,-z
1/2-x,y,-z
-x,-y,-z
1/2+x,1/2+y,-z
-x,1/2+y,z
1/2+x,-y,z
loop_
_atom_site_type_symbol
_atom_site_label
_atom_site_fract_x
_atom_site_fract_y
_atom_site_fract_z
Si Si1 0.750000 0.250000 0.163198
Si Si2 0.213411 0.910286 0.633036
Si Si3 0.406029 0.255118 0.357916
Si Si4 0.750000 0.750000 0.000000
Si Si5 0.010927 0.138233 0.865812
Si Si6 0.956403 0.966181 0.723228
O O1 0.803578 0.167967 0.257635
O O2 0.627555 0.191178 0.098882
O O3 0.250000 0.867273 0.500000
O O4 0.327224 0.982980 0.672772
O O5 0.078979 0.969752 0.629400
O O6 0.250000 0.250000 0.366616
O O7 0.457560 0.250000 0.500000
O O8 0.470006 0.170089 0.278552
O O9 0.426466 0.352074 0.275702
O O10 0.856686 0.679142 0.930499
O O11 0.994841 0.021886 0.851377
#
# Coordination Sequence:
#
# PCOD9397490 Si02
#       6
#     4   8   8   2   8   8
#     4  10  23  41  66 100 146 184 239 315 382 444
#     4  11  23  36  63 103 152 196 234 287 366 467
#     4  11  24  41  72 109 154 200 244 307 381 467
#     4  12  28  54  82 100 140 212 272 330 396 458
#     4  11  25  47  74 106 147 199 262 321 384 461
#     4  11  25  40  67 106 152 193 253 305 372 458
#
# _framework density 25.321653999999999
#
# number of rings (size 3 to 8) (size 9 to 14) (size 15 to 20)
#    0.000    1.053    3.158    2.211   11.789    0.421 
#    0.000    1.053    0.000    0.000    0.000    0.000 
#    0.000    0.000    0.000    0.000    0.000    0.000 
#
# Total GULP energy -212251.544672 kJ/mol
# GULP energy per Si atom -5585.566965 kJ/mol
# Density = 2.526402 g / cm^3
# Si number density = 25.321654 Si / 1000 Ang^3
#
#
#
# Elastic Constant Matrix: (Units=GPa)
#
#
# Indices 1 2 3 4 5 6 
#
# 1 171.9338 26.0994 -4.5009 0.0000 0.0000 0.0000
# 2 26.0994 133.1230 13.9540 0.0000 0.0000 0.0000
# 3 -4.5009 13.9540 56.5797 0.0000 0.0000 0.0000
# 4 0.0000 0.0000 0.0000 26.7975 0.0000 0.0000
# 5 0.0000 0.0000 0.0000 0.0000 -5.9463 0.0000
# 6 0.0000 0.0000 0.0000 0.0000 0.0000 30.8140
#
#
#
# Elastic Compliance Matrix: (Units=1/GPa)
#
#
# Indices 1 2 3 4 5 6 
#
# 1 0.006029 -0.001265 0.000792 0.000000 0.000000 0.000000
# 2 -0.001265 0.007977 -0.002068 0.000000 0.000000 0.000000
# 3 0.000792 -0.002068 0.018247 0.000000 0.000000 0.000000
# 4 0.000000 0.000000 0.000000 0.037317 0.000000 0.000000
# 5 0.000000 0.000000 0.000000 0.000000 -0.168172 0.000000
# 6 0.000000 0.000000 0.000000 0.000000 0.000000 0.032453
#
#
# Mechanical properties :
#
#
# Convention : Reuss Voigt Hill
#
# Bulk Modulus (GPa) = 36.80509 48.08240 42.44375
# Shear Modulus (GPa) = -96.13485 32.07196 -32.03144
#
# Velocity S-wave (km/s) = -6.16830 3.56277 -3.56052
# Velocity P-wave (km/s) = 6.01365 5.99619 0.32376
#
# Compressibility (1/GPa) = 0.02717015
#
# Stress axis : x y z
#
# Youngs Moduli (GPa) = 165.86670 125.36660 54.80312
#
# Poissons Ratio (x) = 0.15859 -0.04338
# Poissons Ratio (y) = 0.20982 0.11333
# Poissons Ratio (z) = -0.13130 0.25924
#
# Static dielectric constant tensor:
#      x y z
#    x 2.005470 0.000000 0.000000 
#    y 0.000000 2.173890 0.000000 
#    z 0.000000 0.000000 2.068320 
# 
# From -- ./inp_files/20046.got.cif
#   From: 2010.05.17/outbox.cif.g08.bks.cpg/sg50_11_cif.got.tgz:20046.got - 2010.06.03 11:33:33.
