data_PCOD9397964
_publ_section_title
;
Structure prediction by ZEFSAII (Michael W. Deem and Ramdas Pophale) SiO2 
 PCOD9397964
Probable space group: P B A N
;
_chemical_formula_sum "Si O2"
_cell_formula_units_Z 64
_cell_length_a 24.385160
_cell_length_b 8.213505
_cell_length_c 14.586996
_cell_angle_alpha 90.000000
_cell_angle_beta 90.000000
_cell_angle_gamma 90.000000
_cell_volume 2921.594910
_symmetry_space_group_name_H-M "P B A N"
_symmetry_group_IT_number 50
_space_group.IT_coordinate_system_code '2'
_symmetry_cell_setting 'orthorhombic'
loop_
_space_group_symop_operation_xyz
x,y,z
1/2-x,1/2-y,z
x,1/2-y,-z
1/2-x,y,-z
-x,-y,-z
1/2+x,1/2+y,-z
-x,1/2+y,z
1/2+x,-y,z
loop_
_atom_site_type_symbol
_atom_site_label
_atom_site_fract_x
_atom_site_fract_y
_atom_site_fract_z
Si Si1 0.243005 0.009628 0.891704
Si Si2 0.842099 0.290464 0.106330
Si Si3 0.247128 0.450986 0.605424
Si Si4 0.062210 0.552446 0.479718
Si Si5 0.556223 0.470227 0.267984
Si Si6 0.167760 0.095772 0.744841
Si Si7 0.947288 0.118910 0.777614
Si Si8 0.370742 0.422906 0.354571
O O1 0.201530 0.855992 0.874621
O O2 0.304207 0.947866 0.868800
O O3 0.209637 0.134712 0.827435
O O4 0.250000 0.048502 0.000000
O O5 0.901975 0.328480 0.148087
O O6 0.852091 0.250000 0.000000
O O7 0.250000 0.250000 0.606829
O O8 0.250000 0.500229 0.500000
O O9 0.296466 0.504320 0.670536
O O10 0.188720 0.508051 0.643270
O O11 0.069550 0.750000 0.500000
O O12 0.067619 0.492648 0.374734
O O13 0.103783 0.450000 0.544382
O O14 0.000000 0.500000 0.500000
O O15 0.614116 0.503078 0.220531
O O16 0.540801 0.283072 0.276371
O O17 0.507812 0.548617 0.208059
O O18 0.144321 0.250392 0.690007
O O19 0.915986 0.997862 0.710899
#
# Coordination Sequence:
#
# PCOD9397964 Si02
#       8
#     8   8   8   8   8   8   8   8
#     4   9  18  38  72 106 135 172 222 280 362 439
#     4   9  19  39  71 103 133 172 222 288 361 439
#     4   9  19  37  57  88 127 170 215 271 346 415
#     4  12  24  41  60  90 136 187 246 296 342 410
#     4  12  24  39  62  93 134 181 233 292 344 419
#     4  11  22  39  66 101 134 179 226 286 359 422
#     4  12  23  42  62  96 132 179 237 288 352 424
#     4  11  23  38  65  91 137 180 230 292 351 414
#
# _framework density 21.905843999999998
#
# number of rings (size 3 to 8) (size 9 to 14) (size 15 to 20)
#    0.000    1.375    3.750    3.000    1.750    1.000 
#    0.000    0.625    0.000   19.875    0.000    0.000 
#    0.000    0.000    0.000    0.000    0.000    0.000 
#
# Total GULP energy -356286.742460 kJ/mol
# GULP energy per Si atom -5566.980351 kJ/mol
# Density = 2.185599 g / cm^3
# Si number density = 21.905844 Si / 1000 Ang^3
#
#
#
# Elastic Constant Matrix: (Units=GPa)
#
#
# Indices 1 2 3 4 5 6 
#
# 1 180.2382 33.2584 56.5195 0.0000 0.0000 0.0000
# 2 33.2584 49.7282 17.8379 0.0000 0.0000 0.0000
# 3 56.5195 17.8379 87.0573 0.0000 0.0000 0.0000
# 4 0.0000 0.0000 0.0000 13.2001 0.0000 0.0000
# 5 0.0000 0.0000 0.0000 0.0000 39.0470 0.0000
# 6 0.0000 0.0000 0.0000 0.0000 0.0000 94.4091
#
#
#
# Elastic Compliance Matrix: (Units=1/GPa)
#
#
# Indices 1 2 3 4 5 6 
#
# 1 0.007499 -0.003528 -0.004146 0.000000 0.000000 0.000000
# 2 -0.003528 0.023365 -0.002497 0.000000 0.000000 0.000000
# 3 -0.004146 -0.002497 0.014690 0.000000 0.000000 0.000000
# 4 0.000000 0.000000 0.000000 0.075757 0.000000 0.000000
# 5 0.000000 0.000000 0.000000 0.000000 0.025610 0.000000
# 6 0.000000 0.000000 0.000000 0.000000 0.000000 0.010592
#
#
# Mechanical properties :
#
#
# Convention : Reuss Voigt Hill
#
# Bulk Modulus (GPa) = 39.66351 59.13947 49.40149
# Shear Modulus (GPa) = 26.84435 43.29176 35.06805
#
# Velocity S-wave (km/s) = 3.50443 4.45034 4.00541
# Velocity P-wave (km/s) = 5.87540 7.31185 6.63263
#
# Compressibility (1/GPa) = 0.02521209
#
# Stress axis : x y z
#
# Youngs Moduli (GPa) = 133.34511 42.79958 68.07461
#
# Poissons Ratio (x) = 0.15102 0.28222
# Poissons Ratio (y) = 0.47050 0.16996
# Poissons Ratio (z) = 0.55282 0.10686
#
# Static dielectric constant tensor:
#      x y z
#    x 1.760760 0.000000 0.000000 
#    y 0.000000 1.862000 0.000000 
#    z 0.000000 0.000000 1.858940 
# 
# From -- ./inp_files/27513.got.cif
#   From: 2010.05.17/outbox.cif.g08.bks.cpg/sg50_14_cif.got.tgz:27513.got - 2010.06.03 11:33:33.
