data_PCOD9397234
_publ_section_title
;
Structure prediction by ZEFSAII (Michael W. Deem and Ramdas Pophale) SiO2 
 PCOD9397234
Probable space group: P B A N
;
_chemical_formula_sum "Si O2"
_cell_formula_units_Z 58
_cell_length_a 11.616306
_cell_length_b 26.542209
_cell_length_c 9.222836
_cell_angle_alpha 90.000000
_cell_angle_beta 90.000000
_cell_angle_gamma 90.000000
_cell_volume 2843.607130
_symmetry_space_group_name_H-M "P B A N"
_symmetry_group_IT_number 50
_space_group.IT_coordinate_system_code '2'
_symmetry_cell_setting 'orthorhombic'
loop_
_space_group_symop_operation_xyz
x,y,z
1/2-x,1/2-y,z
x,1/2-y,-z
1/2-x,y,-z
-x,-y,-z
1/2+x,1/2+y,-z
-x,1/2+y,z
1/2+x,-y,z
loop_
_atom_site_type_symbol
_atom_site_label
_atom_site_fract_x
_atom_site_fract_y
_atom_site_fract_z
Si Si1 0.256986 0.597498 0.172766
Si Si2 0.750000 0.750000 0.000000
Si Si3 0.818899 0.660829 0.804309
Si Si4 0.510366 0.930039 0.874887
Si Si5 0.792055 0.306334 0.337440
Si Si6 0.032172 0.959077 0.787392
Si Si7 0.542123 0.806854 0.553188
Si Si8 0.646446 0.894661 0.377736
O O1 0.386604 0.579389 0.199575
O O2 0.243801 0.654589 0.223535
O O3 0.154813 0.566365 0.245476
O O4 0.250000 0.593236 0.000000
O O5 0.819975 0.790736 0.092982
O O6 0.909655 0.618214 0.849566
O O7 0.847341 0.685605 0.651095
O O8 0.703418 0.629881 0.767127
O O9 0.553460 0.981346 0.800930
O O10 0.500060 0.940747 0.047872
O O11 0.750000 0.250000 0.306716
O O12 0.750000 0.318598 0.500000
O O13 0.929018 0.311910 0.348154
O O14 0.931751 0.941368 0.677178
O O15 0.536827 0.750000 0.500000
O O16 0.558514 0.851986 0.439020
O O17 0.750000 0.904815 0.500000
#
# Coordination Sequence:
#
# PCOD9397234 Si02
#       8
#     8   2   8   8   8   8   8   8
#     4  10  22  42  63  95 130 166 213 261 324 388
#     4  12  24  40  62 100 126 172 216 262 338 382
#     4  11  23  41  63  93 130 161 214 268 317 386
#     4  10  22  41  65  96 126 168 210 268 318 388
#     4  11  21  37  62  92 122 167 213 253 317 382
#     4  10  22  40  68  92 127 171 213 260 327 386
#     4  11  21  39  62  87 121 167 210 262 319 384
#     4  10  23  41  65  93 126 169 219 271 323 386
#
# _framework density 20.396629000000001
#
# number of rings (size 3 to 8) (size 9 to 14) (size 15 to 20)
#    0.000    1.517    2.759    2.483    1.931    2.207 
#    3.724    3.448    0.000    0.000    0.000    0.000 
#    0.000    0.000    0.000    0.000    0.000    0.000 
#
# Total GULP energy -323245.305513 kJ/mol
# GULP energy per Si atom -5573.194923 kJ/mol
# Density = 2.035021 g / cm^3
# Si number density = 20.396629 Si / 1000 Ang^3
#
#
#
# Elastic Constant Matrix: (Units=GPa)
#
#
# Indices 1 2 3 4 5 6 
#
# 1 89.9199 56.8533 13.7180 0.0000 0.0000 0.0000
# 2 56.8533 128.0934 34.1700 0.0000 0.0000 0.0000
# 3 13.7180 34.1700 24.8898 0.0000 0.0000 0.0000
# 4 0.0000 0.0000 0.0000 35.4879 0.0000 0.0000
# 5 0.0000 0.0000 0.0000 0.0000 33.0554 0.0000
# 6 0.0000 0.0000 0.0000 0.0000 0.0000 17.6617
#
#
#
# Elastic Compliance Matrix: (Units=1/GPa)
#
#
# Indices 1 2 3 4 5 6 
#
# 1 0.015491 -0.007255 0.001422 0.000000 0.000000 0.000000
# 2 -0.007255 0.015716 -0.017577 0.000000 0.000000 0.000000
# 3 0.001422 -0.017577 0.063524 0.000000 0.000000 0.000000
# 4 0.000000 0.000000 0.000000 0.028179 0.000000 0.000000
# 5 0.000000 0.000000 0.000000 0.000000 0.030252 0.000000
# 6 0.000000 0.000000 0.000000 0.000000 0.000000 0.056620
#
#
# Mechanical properties :
#
#
# Convention : Reuss Voigt Hill
#
# Bulk Modulus (GPa) = 20.87193 50.26508 35.56851
# Shear Modulus (GPa) = 18.34389 26.45179 22.39784
#
# Velocity S-wave (km/s) = 3.00218 3.60512 3.31738
# Velocity P-wave (km/s) = 4.71940 6.48278 5.67006
#
# Compressibility (1/GPa) = 0.04791123
#
# Stress axis : x y z
#
# Youngs Moduli (GPa) = 64.55307 63.63107 15.74220
#
# Poissons Ratio (x) = 0.46164 -0.02239
# Poissons Ratio (y) = 0.46833 0.27670
# Poissons Ratio (z) = -0.09180 1.11842
#
# Static dielectric constant tensor:
#      x y z
#    x 2.106360 0.000000 0.000000 
#    y 0.000000 1.481140 0.000000 
#    z 0.000000 0.000000 1.940860 
# 
# From -- ./inp_files/11753.got.cif
#   From: 2010.05.17/outbox.cif.g08.bks.cpg/sg50_6_cif.got.tgz:11753.got - 2010.06.03 11:33:33.
