data_PCOD9397378
_publ_section_title
;
Structure prediction by ZEFSAII (Michael W. Deem and Ramdas Pophale) SiO2 
 PCOD9397378
Probable space group: P B A N
;
_chemical_formula_sum "Si O2"
_cell_formula_units_Z 44
_cell_length_a 8.461263
_cell_length_b 14.356407
_cell_length_c 16.634887
_cell_angle_alpha 90.000000
_cell_angle_beta 90.000000
_cell_angle_gamma 90.000000
_cell_volume 2020.695207
_symmetry_space_group_name_H-M "P B A N"
_symmetry_group_IT_number 50
_space_group.IT_coordinate_system_code '2'
_symmetry_cell_setting 'orthorhombic'
loop_
_space_group_symop_operation_xyz
x,y,z
1/2-x,1/2-y,z
x,1/2-y,-z
1/2-x,y,-z
-x,-y,-z
1/2+x,1/2+y,-z
-x,1/2+y,z
1/2+x,-y,z
loop_
_atom_site_type_symbol
_atom_site_label
_atom_site_fract_x
_atom_site_fract_y
_atom_site_fract_z
Si Si1 0.545648 0.605903 0.905897
Si Si2 0.250000 0.250000 0.500000
Si Si3 0.796553 0.534694 0.652556
Si Si4 0.018926 0.702075 0.619133
Si Si5 0.750000 0.413424 0.500000
Si Si6 0.521396 0.120035 0.719819
Si Si7 0.250000 0.250000 0.000000
Si Si8 0.750000 0.045495 0.000000
O O1 0.536016 0.619389 0.810940
O O2 0.640072 0.689912 0.943646
O O3 0.373099 0.600784 0.945498
O O4 0.644385 0.516725 0.938564
O O5 0.112219 0.243030 0.432127
O O6 0.923197 0.617353 0.659970
O O7 0.821301 0.486056 0.565118
O O8 0.622538 0.574854 0.667699
O O9 0.833621 0.451419 0.713026
O O10 0.070803 0.780238 0.682899
O O11 0.140884 0.653043 0.556337
#
# Coordination Sequence:
#
# PCOD9397378 Si02
#       8
#     8   2   8   8   4   8   2   4
#     4  10  22  44  70 107 136 185 226 294 342 455
#     4  12  22  40  66  88 124 186 226 276 338 412
#     4  12  25  46  67 102 133 187 235 297 354 412
#     4  12  26  45  67  98 133 186 235 296 354 411
#     4  12  27  49  66  94 142 184 250 286 340 436
#     4  12  26  44  72 103 143 177 235 294 371 405
#     4  10  24  40  72 106 140 178 236 266 368 436
#     4   9  20  46  76  97 140 186 234 269 370 428
#
# _framework density 21.774685999999999
#
# number of rings (size 3 to 8) (size 9 to 14) (size 15 to 20)
#    0.000    0.727    3.636    3.273    2.545    3.636 
#    0.000    1.818    0.000    0.000    0.000    0.000 
#    0.000    0.000    0.000    0.000    0.000    0.000 
#
# Total GULP energy -245329.570458 kJ/mol
# GULP energy per Si atom -5575.672056 kJ/mol
# Density = 2.172513 g / cm^3
# Si number density = 21.774686 Si / 1000 Ang^3
#
#
#
# Elastic Constant Matrix: (Units=GPa)
#
#
# Indices 1 2 3 4 5 6 
#
# 1 109.8234 45.9736 35.1275 0.0000 0.0000 0.0000
# 2 45.9736 139.4667 47.9651 0.0000 0.0000 0.0000
# 3 35.1275 47.9651 142.6135 0.0000 0.0000 0.0000
# 4 0.0000 0.0000 0.0000 38.7194 0.0000 0.0000
# 5 0.0000 0.0000 0.0000 0.0000 -111.2484 0.0000
# 6 0.0000 0.0000 0.0000 0.0000 0.0000 -16.8213
#
#
#
# Elastic Compliance Matrix: (Units=1/GPa)
#
#
# Indices 1 2 3 4 5 6 
#
# 1 0.010904 -0.003020 -0.001670 0.000000 0.000000 0.000000
# 2 -0.003020 0.008944 -0.002264 0.000000 0.000000 0.000000
# 3 -0.001670 -0.002264 0.008185 0.000000 0.000000 0.000000
# 4 0.000000 0.000000 0.000000 0.025827 0.000000 0.000000
# 5 0.000000 0.000000 0.000000 0.000000 -0.008989 0.000000
# 6 0.000000 0.000000 0.000000 0.000000 0.000000 -0.059448
#
#
# Mechanical properties :
#
#
# Convention : Reuss Voigt Hill
#
# Bulk Modulus (GPa) = 70.79981 72.22622 71.51302
# Shear Modulus (GPa) = 1237.69173 -0.34757 618.67208
#
# Velocity S-wave (km/s) = 23.86718 -0.39996 16.87428
# Velocity P-wave (km/s) = 28.14442 5.74705 20.31178
#
# Compressibility (1/GPa) = 0.01412433
#
# Stress axis : x y z
#
# Youngs Moduli (GPa) = 91.71018 111.80115 122.17611
#
# Poissons Ratio (x) = 0.33764 0.20404
# Poissons Ratio (y) = 0.27696 0.27666
# Poissons Ratio (z) = 0.15316 0.25316
#
# Static dielectric constant tensor:
#      x y z
#    x 1.810970 0.000000 0.000000 
#    y 0.000000 1.829920 0.000000 
#    z 0.000000 0.000000 1.016890 
# 
# From -- ./inp_files/28677.got.cif
#   From: 2010.05.17/outbox.cif.g08.bks.cpg/sg50_15_cif.got.tgz:28677.got - 2010.06.03 11:33:33.
