data_PCOD9397601
_publ_section_title
;
Structure prediction by ZEFSAII (Michael W. Deem and Ramdas Pophale) SiO2 
 PCOD9397601
Probable space group: P B A N
;
_chemical_formula_sum "Si O2"
_cell_formula_units_Z 58
_cell_length_a 12.340743
_cell_length_b 25.838725
_cell_length_c 8.060438
_cell_angle_alpha 90.000000
_cell_angle_beta 90.000000
_cell_angle_gamma 90.000000
_cell_volume 2570.224326
_symmetry_space_group_name_H-M "P B A N"
_symmetry_group_IT_number 50
_space_group.IT_coordinate_system_code '2'
_symmetry_cell_setting 'orthorhombic'
loop_
_space_group_symop_operation_xyz
x,y,z
1/2-x,1/2-y,z
x,1/2-y,-z
1/2-x,y,-z
-x,-y,-z
1/2+x,1/2+y,-z
-x,1/2+y,z
1/2+x,-y,z
loop_
_atom_site_type_symbol
_atom_site_label
_atom_site_fract_x
_atom_site_fract_y
_atom_site_fract_z
Si Si1 0.902933 0.957772 0.358876
Si Si2 0.856075 0.726730 0.816182
Si Si3 0.250000 0.750000 0.500000
Si Si4 0.753678 0.616947 0.184078
Si Si5 0.556992 0.190120 0.326272
Si Si6 0.031992 0.120748 0.381185
Si Si7 0.600880 0.413625 0.848800
Si Si8 0.657418 0.068215 0.770614
O O1 0.800408 0.923439 0.306237
O O2 0.936814 0.934776 0.536218
O O3 0.002488 0.943930 0.236145
O O4 0.870878 0.016441 0.329092
O O5 0.750000 0.750000 0.727560
O O6 0.824329 0.666535 0.827711
O O7 0.972389 0.733250 0.734774
O O8 0.860918 0.750000 0.000000
O O9 0.331846 0.785549 0.607966
O O10 0.871889 0.632685 0.252179
O O11 0.750000 0.593439 0.000000
O O12 0.488937 0.160387 0.469804
O O13 0.577321 0.147384 0.182127
O O14 0.915163 0.114278 0.299861
O O15 0.715015 0.423114 0.758382
O O16 0.620860 0.432737 0.036151
#
# Coordination Sequence:
#
# PCOD9397601 Si02
#       8
#     8   8   2   8   8   8   8   8
#     4  11  24  42  65 103 141 182 234 280 341 419
#     4  11  24  45  72 105 134 175 232 297 364 433
#     4  12  28  48  72 108 132 192 246 314 344 440
#     4  12  24  43  71 101 143 177 225 291 356 416
#     4  11  26  51  71 100 144 182 242 292 367 419
#     4  11  25  44  71 100 143 190 217 291 352 422
#     4  10  23  46  66  97 143 184 230 295 339 412
#     4  11  24  40  71 102 135 191 238 275 338 412
#
# _framework density 22.566123000000001
#
# number of rings (size 3 to 8) (size 9 to 14) (size 15 to 20)
#    0.000    0.966    4.138    2.897    5.793    1.655 
#    9.931    0.000    0.000    0.000    0.000    0.000 
#    0.000    0.000    0.000    0.000    0.000    0.000 
#
# Total GULP energy -324289.027566 kJ/mol
# GULP energy per Si atom -5591.190130 kJ/mol
# Density = 2.251476 g / cm^3
# Si number density = 22.566123 Si / 1000 Ang^3
#
#
#
# Elastic Constant Matrix: (Units=GPa)
#
#
# Indices 1 2 3 4 5 6 
#
# 1 137.7663 20.5066 20.0513 0.0000 0.0000 0.0000
# 2 20.5066 53.3912 10.0180 0.0000 0.0000 0.0000
# 3 20.0513 10.0180 50.9037 0.0000 0.0000 0.0000
# 4 0.0000 0.0000 0.0000 19.0741 0.0000 0.0000
# 5 0.0000 0.0000 0.0000 0.0000 38.7777 0.0000
# 6 0.0000 0.0000 0.0000 0.0000 0.0000 41.8421
#
#
#
# Elastic Compliance Matrix: (Units=1/GPa)
#
#
# Indices 1 2 3 4 5 6 
#
# 1 0.008030 -0.002586 -0.002654 0.000000 0.000000 0.000000
# 2 -0.002586 0.020281 -0.002973 0.000000 0.000000 0.000000
# 3 -0.002654 -0.002973 0.021275 0.000000 0.000000 0.000000
# 4 0.000000 0.000000 0.000000 0.052427 0.000000 0.000000
# 5 0.000000 0.000000 0.000000 0.000000 0.025788 0.000000
# 6 0.000000 0.000000 0.000000 0.000000 0.000000 0.023899
#
#
# Mechanical properties :
#
#
# Convention : Reuss Voigt Hill
#
# Bulk Modulus (GPa) = 30.15647 38.13478 34.14562
# Shear Modulus (GPa) = 27.90494 32.70445 30.30470
#
# Velocity S-wave (km/s) = 3.52033 3.81106 3.66857
# Velocity P-wave (km/s) = 5.46957 6.02506 5.75402
#
# Compressibility (1/GPa) = 0.03316039
#
# Stress axis : x y z
#
# Youngs Moduli (GPa) = 124.53441 49.30788 47.00267
#
# Poissons Ratio (x) = 0.12752 0.12475
# Poissons Ratio (y) = 0.32207 0.13972
# Poissons Ratio (z) = 0.33052 0.14657
#
# Static dielectric constant tensor:
#      x y z
#    x 1.827800 0.000000 0.000000 
#    y 0.000000 1.838030 0.000000 
#    z 0.000000 0.000000 1.873230 
# 
# From -- ./inp_files/11779.got.cif
#   From: 2010.05.17/outbox.cif.g08.bks.cpg/sg50_6_cif.got.tgz:11779.got - 2010.06.03 11:33:33.
