data_PCOD9397700
_publ_section_title
;
Structure prediction by ZEFSAII (Michael W. Deem and Ramdas Pophale) SiO2 
 PCOD9397700
Probable space group: P B A N
;
_chemical_formula_sum "Si O2"
_cell_formula_units_Z 34
_cell_length_a 7.882157
_cell_length_b 9.729380
_cell_length_c 17.287635
_cell_angle_alpha 90.000000
_cell_angle_beta 90.000000
_cell_angle_gamma 90.000000
_cell_volume 1325.762808
_symmetry_space_group_name_H-M "P B A N"
_symmetry_group_IT_number 50
_space_group.IT_coordinate_system_code '2'
_symmetry_cell_setting 'orthorhombic'
loop_
_space_group_symop_operation_xyz
x,y,z
1/2-x,1/2-y,z
x,1/2-y,-z
1/2-x,y,-z
-x,-y,-z
1/2+x,1/2+y,-z
-x,1/2+y,z
1/2+x,-y,z
loop_
_atom_site_type_symbol
_atom_site_label
_atom_site_fract_x
_atom_site_fract_y
_atom_site_fract_z
Si Si1 0.750000 0.250000 0.000000
Si Si2 0.943191 0.877468 0.555972
Si Si3 0.527845 0.417573 0.788188
Si Si4 0.782938 0.449715 0.667747
Si Si5 0.569713 0.672991 0.895687
O O1 0.603436 0.166757 0.950044
O O2 0.919630 0.750000 0.500000
O O3 0.097938 0.860087 0.614474
O O4 0.792498 0.931172 0.611496
O O5 0.000000 0.000000 0.500000
O O6 0.633573 0.378109 0.712589
O O7 0.374509 0.488585 0.743101
O O8 0.592982 0.524365 0.854893
O O9 0.484831 0.278143 0.829865
O O10 0.750000 0.750000 0.921763
#
# Coordination Sequence:
#
# PCOD9397700 Si02
#       5
#     2   8   8   8   8
#     4  12  30  48  80 120 164 220 244 314 404 482
#     4  11  26  43  65 102 151 191 249 314 393 472
#     4  11  24  49  79 112 147 200 265 325 380 460
#     4  10  24  44  75 106 143 200 257 320 390 451
#     4  12  27  52  78 117 164 203 263 323 390 469
#
# _framework density 25.645612
#
# number of rings (size 3 to 8) (size 9 to 14) (size 15 to 20)
#    0.000    0.941    2.353    2.471    0.000   16.000 
#    0.000    3.529    0.000    0.000    0.000    0.000 
#    0.000    0.000    0.000    0.000    0.000    0.000 
#
# Total GULP energy -189676.307575 kJ/mol
# GULP energy per Si atom -5578.714929 kJ/mol
# Density = 2.558724 g / cm^3
# Si number density = 25.645612 Si / 1000 Ang^3
#
#
#
# Elastic Constant Matrix: (Units=GPa)
#
#
# Indices 1 2 3 4 5 6 
#
# 1 122.6827 33.1033 55.7984 0.0000 0.0000 0.0000
# 2 33.1033 96.9622 43.4684 0.0000 0.0000 0.0000
# 3 55.7984 43.4684 136.3505 0.0000 0.0000 0.0000
# 4 0.0000 0.0000 0.0000 10.0202 0.0000 0.0000
# 5 0.0000 0.0000 0.0000 0.0000 60.7053 0.0000
# 6 0.0000 0.0000 0.0000 0.0000 0.0000 17.1011
#
#
#
# Elastic Compliance Matrix: (Units=1/GPa)
#
#
# Indices 1 2 3 4 5 6 
#
# 1 0.010306 -0.001899 -0.003612 0.000000 0.000000 0.000000
# 2 -0.001899 0.012383 -0.003170 0.000000 0.000000 0.000000
# 3 -0.003612 -0.003170 0.009823 0.000000 0.000000 0.000000
# 4 0.000000 0.000000 0.000000 0.099798 0.000000 0.000000
# 5 0.000000 0.000000 0.000000 0.000000 0.016473 0.000000
# 6 0.000000 0.000000 0.000000 0.000000 0.000000 0.058476
#
#
# Mechanical properties :
#
#
# Convention : Reuss Voigt Hill
#
# Bulk Modulus (GPa) = 66.01272 68.97061 67.49167
# Shear Modulus (GPa) = 21.77008 32.47369 27.12188
#
# Velocity S-wave (km/s) = 2.91672 3.56230 3.25555
# Velocity P-wave (km/s) = 6.09420 6.62360 6.36440
#
# Compressibility (1/GPa) = 0.01514860
#
# Stress axis : x y z
#
# Youngs Moduli (GPa) = 97.02620 80.75555 101.80197
#
# Poissons Ratio (x) = 0.15338 0.36773
# Poissons Ratio (y) = 0.18428 0.32276
# Poissons Ratio (z) = 0.35048 0.25603
#
# Static dielectric constant tensor:
#      x y z
#    x 2.029230 0.000000 0.000000 
#    y 0.000000 1.850200 0.000000 
#    z 0.000000 0.000000 1.900740 
# 
# From -- ./inp_files/28471.got.cif
#   From: 2010.05.17/outbox.cif.g08.bks.cpg/sg50_15_cif.got.tgz:28471.got - 2010.06.03 11:33:33.
