data_PCOD9397708
_publ_section_title
;
Structure prediction by ZEFSAII (Michael W. Deem and Ramdas Pophale) SiO2 
 PCOD9397708
Probable space group: P B A N
;
_chemical_formula_sum "Si O2"
_cell_formula_units_Z 26
_cell_length_a 11.507327
_cell_length_b 8.744878
_cell_length_c 11.576595
_cell_angle_alpha 90.000000
_cell_angle_beta 90.000000
_cell_angle_gamma 90.000000
_cell_volume 1164.954731
_symmetry_space_group_name_H-M "P B A N"
_symmetry_group_IT_number 50
_space_group.IT_coordinate_system_code '2'
_symmetry_cell_setting 'orthorhombic'
loop_
_space_group_symop_operation_xyz
x,y,z
1/2-x,1/2-y,z
x,1/2-y,-z
1/2-x,y,-z
-x,-y,-z
1/2+x,1/2+y,-z
-x,1/2+y,z
1/2+x,-y,z
loop_
_atom_site_type_symbol
_atom_site_label
_atom_site_fract_x
_atom_site_fract_y
_atom_site_fract_z
Si Si1 0.164458 0.535600 0.392312
Si Si2 0.349553 0.054987 0.796475
Si Si3 0.250000 0.250000 0.000000
Si Si4 0.986508 0.304201 0.316221
O O1 0.250000 0.518816 0.500000
O O2 0.234606 0.487611 0.276340
O O3 0.055650 0.419608 0.398735
O O4 0.114602 0.705204 0.374361
O O5 0.320761 0.134346 0.917250
O O6 0.420485 0.183559 0.728094
O O7 0.430245 0.904684 0.786962
#
# Coordination Sequence:
#
# PCOD9397708 Si02
#       4
#     8   8   2   8
#     4  11  24  45  72 106 148 182 235 288 349 428
#     4  11  24  45  70 102 142 180 241 289 350 414
#     4  12  24  48  72 100 142 188 234 310 340 408
#     4  10  24  45  71 108 138 193 230 283 361 422
#
# _framework density 22.318462
#
# number of rings (size 3 to 8) (size 9 to 14) (size 15 to 20)
#    0.000    1.231    3.077    0.923    0.000   13.538 
#    0.000    6.154    0.000    0.000    0.000    0.000 
#    0.000    0.000    0.000    0.000    0.000    0.000 
#
# Total GULP energy -145515.243291 kJ/mol
# GULP energy per Si atom -5596.740127 kJ/mol
# Density = 2.226766 g / cm^3
# Si number density = 22.318462 Si / 1000 Ang^3
#
#
#
# Elastic Constant Matrix: (Units=GPa)
#
#
# Indices 1 2 3 4 5 6 
#
# 1 122.2353 67.9663 53.1740 0.0000 0.0000 0.0000
# 2 67.9663 153.1822 52.1111 0.0000 0.0000 0.0000
# 3 53.1740 52.1111 118.6348 0.0000 0.0000 0.0000
# 4 0.0000 0.0000 0.0000 111.7720 0.0000 0.0000
# 5 0.0000 0.0000 0.0000 0.0000 19.4577 0.0000
# 6 0.0000 0.0000 0.0000 0.0000 0.0000 60.9401
#
#
#
# Elastic Compliance Matrix: (Units=1/GPa)
#
#
# Indices 1 2 3 4 5 6 
#
# 1 0.012030 -0.004119 -0.003583 0.000000 0.000000 0.000000
# 2 -0.004119 0.009085 -0.002145 0.000000 0.000000 0.000000
# 3 -0.003583 -0.002145 0.010977 0.000000 0.000000 0.000000
# 4 0.000000 0.000000 0.000000 0.008947 0.000000 0.000000
# 5 0.000000 0.000000 0.000000 0.000000 0.051394 0.000000
# 6 0.000000 0.000000 0.000000 0.000000 0.000000 0.016410
#
#
# Mechanical properties :
#
#
# Convention : Reuss Voigt Hill
#
# Bulk Modulus (GPa) = 80.64648 82.28392 81.46520
# Shear Modulus (GPa) = 37.68828 53.15401 45.42114
#
# Velocity S-wave (km/s) = 4.11379 4.88547 4.51614
# Velocity P-wave (km/s) = 7.66663 8.29289 7.98590
#
# Compressibility (1/GPa) = 0.01239980
#
# Stress axis : x y z
#
# Youngs Moduli (GPa) = 83.12855 110.06893 91.09860
#
# Poissons Ratio (x) = 0.45334 0.32638
# Poissons Ratio (y) = 0.34238 0.19538
# Poissons Ratio (z) = 0.29782 0.23606
#
# Static dielectric constant tensor:
#      x y z
#    x 1.871580 0.000000 0.000000 
#    y 0.000000 1.831140 0.000000 
#    z 0.000000 0.000000 1.800410 
# 
# From -- ./inp_files/18167.got.cif
#   From: 2010.05.17/outbox.cif.g08.bks.cpg/sg50_10_cif.got.tgz:18167.got - 2010.06.03 11:33:33.
