data_PCOD9397092
_publ_section_title
;
Structure prediction by ZEFSAII (Michael W. Deem and Ramdas Pophale) SiO2 
 PCOD9397092
Probable space group: P B A N
;
_chemical_formula_sum "Si O2"
_cell_formula_units_Z 24
_cell_length_a 5.234424
_cell_length_b 19.993513
_cell_length_c 10.592470
_cell_angle_alpha 90.000000
_cell_angle_beta 90.000000
_cell_angle_gamma 90.000000
_cell_volume 1108.549909
_symmetry_space_group_name_H-M "P B A N"
_symmetry_group_IT_number 50
_space_group.IT_coordinate_system_code '2'
_symmetry_cell_setting 'orthorhombic'
loop_
_space_group_symop_operation_xyz
x,y,z
1/2-x,1/2-y,z
x,1/2-y,-z
1/2-x,y,-z
-x,-y,-z
1/2+x,1/2+y,-z
-x,1/2+y,z
1/2+x,-y,z
loop_
_atom_site_type_symbol
_atom_site_label
_atom_site_fract_x
_atom_site_fract_y
_atom_site_fract_z
Si Si1 0.250000 0.250000 0.247488
Si Si2 0.576935 0.147802 0.874887
Si Si3 0.750000 0.953182 0.000000
Si Si4 0.354307 0.672991 0.368401
O O1 0.462154 0.279392 0.154289
O O2 0.350875 0.190204 0.337416
O O3 0.335208 0.098608 0.890926
O O4 0.743333 0.133229 0.750694
O O5 0.750000 0.144650 0.000000
O O6 0.500000 0.000000 0.000000
O O7 0.250000 0.750000 0.367811
O O8 0.250000 0.644802 0.500000
#
# Coordination Sequence:
#
# PCOD9397092 Si02
#       4
#     4   8   4   8
#     4  10  22  36  64  98 140 166 212 256 336 382
#     4  11  23  39  62  98 128 165 210 269 320 386
#     4  12  26  45  66  89 126 170 226 272 326 378
#     4   9  20  36  57  91 132 170 205 249 319 395
#
# _framework density 21.649905
#
# number of rings (size 3 to 8) (size 9 to 14) (size 15 to 20)
#    0.000    1.667    1.667    2.000    0.000   26.667 
#    0.000    0.000    0.000    2.000    0.000    0.000 
#    0.000    0.000    0.000    0.000    0.000    0.000 
#
# Total GULP energy -133601.798172 kJ/mol
# GULP energy per Si atom -5566.741590 kJ/mol
# Density = 2.160063 g / cm^3
# Si number density = 21.649905 Si / 1000 Ang^3
#
#
#
# Elastic Constant Matrix: (Units=GPa)
#
#
# Indices 1 2 3 4 5 6 
#
# 1 129.6135 25.6002 70.4356 0.0000 0.0000 0.0000
# 2 25.6002 35.2542 34.2444 0.0000 0.0000 0.0000
# 3 70.4356 34.2444 202.1919 0.0000 0.0000 0.0000
# 4 0.0000 0.0000 0.0000 0.8026 0.0000 0.0000
# 5 0.0000 0.0000 0.0000 0.0000 19.3637 0.0000
# 6 0.0000 0.0000 0.0000 0.0000 0.0000 32.0720
#
#
#
# Elastic Compliance Matrix: (Units=1/GPa)
#
#
# Indices 1 2 3 4 5 6 
#
# 1 0.010128 -0.004701 -0.002732 0.000000 0.000000 0.000000
# 2 -0.004701 0.036133 -0.004482 0.000000 0.000000 0.000000
# 3 -0.002732 -0.004482 0.006657 0.000000 0.000000 0.000000
# 4 0.000000 0.000000 0.000000 1.245930 0.000000 0.000000
# 5 0.000000 0.000000 0.000000 0.000000 0.051643 0.000000
# 6 0.000000 0.000000 0.000000 0.000000 0.000000 0.031180
#
#
# Mechanical properties :
#
#
# Convention : Reuss Voigt Hill
#
# Bulk Modulus (GPa) = 34.37902 69.73554 52.05728
# Shear Modulus (GPa) = 3.53308 26.23297 14.88302
#
# Velocity S-wave (km/s) = 1.27885 3.48471 2.62475
# Velocity P-wave (km/s) = 4.25378 6.96214 5.76914
#
# Compressibility (1/GPa) = 0.02908751
#
# Stress axis : x y z
#
# Youngs Moduli (GPa) = 98.73146 27.67579 150.22520
#
# Poissons Ratio (x) = 0.13010 0.41044
# Poissons Ratio (y) = 0.46414 0.67331
# Poissons Ratio (z) = 0.26975 0.12404
#
# Static dielectric constant tensor:
#      x y z
#    x 2.060890 0.000000 0.000000 
#    y 0.000000 1.841530 0.000000 
#    z 0.000000 0.000000 1.845580 
# 
# From -- ./inp_files/7677.got.cif
#   From: 2010.05.17/outbox.cif.g08.bks.cpg/sg50_4_cif.got.tgz:7677.got - 2010.06.03 11:33:33.
