data_PCOD9397458
_publ_section_title
;
Structure prediction by ZEFSAII (Michael W. Deem and Ramdas Pophale) SiO2 
 PCOD9397458
Probable space group: P B A N
;
_chemical_formula_sum "Si O2"
_cell_formula_units_Z 36
_cell_length_a 23.652297
_cell_length_b 13.501704
_cell_length_c 5.499668
_cell_angle_alpha 90.000000
_cell_angle_beta 90.000000
_cell_angle_gamma 90.000000
_cell_volume 1756.298699
_symmetry_space_group_name_H-M "P B A N"
_symmetry_group_IT_number 50
_space_group.IT_coordinate_system_code '2'
_symmetry_cell_setting 'orthorhombic'
loop_
_space_group_symop_operation_xyz
x,y,z
1/2-x,1/2-y,z
x,1/2-y,-z
1/2-x,y,-z
-x,-y,-z
1/2+x,1/2+y,-z
-x,1/2+y,z
1/2+x,-y,z
loop_
_atom_site_type_symbol
_atom_site_label
_atom_site_fract_x
_atom_site_fract_y
_atom_site_fract_z
Si Si1 0.806512 0.028447 0.373917
Si Si2 0.100725 0.685687 0.249653
Si Si3 0.477355 0.312560 0.246950
Si Si4 0.352136 0.347617 0.329135
Si Si5 0.750000 0.619617 0.000000
O O1 0.750000 0.071873 0.500000
O O2 0.848408 0.108817 0.266529
O O3 0.838505 0.953975 0.554847
O O4 0.784821 0.952449 0.173754
O O5 0.103453 0.750000 0.500000
O O6 0.038416 0.633752 0.253078
O O7 0.105301 0.750000 0.000000
O O8 0.476379 0.250000 0.500000
O O9 0.415406 0.360114 0.225734
O O10 0.481349 0.250000 0.000000
O O11 0.353867 0.250000 0.500000
O O12 0.298132 0.327861 0.158621
#
# Coordination Sequence:
#
# PCOD9397458 Si02
#       5
#     8   8   8   8   4
#     4  10  24  42  60  95 129 165 217 269 314 396
#     4  10  23  44  70  93 127 170 215 272 330 375
#     4   9  20  40  63  95 126 162 219 268 312 389
#     4  10  23  40  63  92 129 173 212 262 328 385
#     4  10  24  41  59  90 136 162 217 268 307 394
#
# _framework density 20.497651000000001
#
# number of rings (size 3 to 8) (size 9 to 14) (size 15 to 20)
#    0.000    2.222    0.000    0.000   12.444    6.222 
#    0.000    1.111    0.000    0.000    0.000    0.000 
#    0.000    0.000    0.000    0.000    0.000    0.000 
#
# Total GULP energy -200499.689702 kJ/mol
# GULP energy per Si atom -5569.435825 kJ/mol
# Density = 2.045100 g / cm^3
# Si number density = 20.497651 Si / 1000 Ang^3
#
#
#
# Elastic Constant Matrix: (Units=GPa)
#
#
# Indices 1 2 3 4 5 6 
#
# 1 223.2820 69.4446 41.8394 0.0000 0.0000 0.0000
# 2 69.4446 51.7448 21.3560 0.0000 0.0000 0.0000
# 3 41.8394 21.3560 94.9462 0.0000 0.0000 0.0000
# 4 0.0000 0.0000 0.0000 34.7950 0.0000 0.0000
# 5 0.0000 0.0000 0.0000 0.0000 195.6373 0.0000
# 6 0.0000 0.0000 0.0000 0.0000 0.0000 43.3481
#
#
#
# Elastic Compliance Matrix: (Units=1/GPa)
#
#
# Indices 1 2 3 4 5 6 
#
# 1 0.007808 -0.009986 -0.001195 0.000000 0.000000 0.000000
# 2 -0.009986 0.034075 -0.003264 0.000000 0.000000 0.000000
# 3 -0.001195 -0.003264 0.011793 0.000000 0.000000 0.000000
# 4 0.000000 0.000000 0.000000 0.028740 0.000000 0.000000
# 5 0.000000 0.000000 0.000000 0.000000 0.005111 0.000000
# 6 0.000000 0.000000 0.000000 0.000000 0.000000 0.023069
#
#
# Mechanical properties :
#
#
# Convention : Reuss Voigt Hill
#
# Bulk Modulus (GPa) = 40.34440 70.58368 55.46404
# Shear Modulus (GPa) = 33.84137 70.57829 52.20983
#
# Velocity S-wave (km/s) = 4.06764 5.87428 5.05237
# Velocity P-wave (km/s) = 6.46422 8.97325 7.82002
#
# Compressibility (1/GPa) = 0.02478659
#
# Stress axis : x y z
#
# Youngs Moduli (GPa) = 128.06676 29.34714 84.79716
#
# Poissons Ratio (x) = 0.29307 0.10131
# Poissons Ratio (y) = 1.27891 0.27676
# Poissons Ratio (z) = 0.15300 0.09578
#
# Static dielectric constant tensor:
#      x y z
#    x 1.634310 0.000000 0.000000 
#    y 0.000000 1.708470 0.000000 
#    z 0.000000 0.000000 1.749710 
# 
# From -- ./inp_files/5022.got.cif
#   From: 2010.05.17/outbox.cif.g08.bks.cpg/sg50_3_cif.got.tgz:5022.got - 2010.06.03 11:33:33.
