data_PCOD9397207
_publ_section_title
;
Structure prediction by ZEFSAII (Michael W. Deem and Ramdas Pophale) SiO2 
 PCOD9397207
Probable space group: P B A N
;
_chemical_formula_sum "Si O2"
_cell_formula_units_Z 34
_cell_length_a 5.086307
_cell_length_b 31.705718
_cell_length_c 8.312789
_cell_angle_alpha 90.000000
_cell_angle_beta 90.000000
_cell_angle_gamma 90.000000
_cell_volume 1340.562046
_symmetry_space_group_name_H-M "P B A N"
_symmetry_group_IT_number 50
_space_group.IT_coordinate_system_code '2'
_symmetry_cell_setting 'orthorhombic'
loop_
_space_group_symop_operation_xyz
x,y,z
1/2-x,1/2-y,z
x,1/2-y,-z
1/2-x,y,-z
-x,-y,-z
1/2+x,1/2+y,-z
-x,1/2+y,z
1/2+x,-y,z
loop_
_atom_site_type_symbol
_atom_site_label
_atom_site_fract_x
_atom_site_fract_y
_atom_site_fract_z
Si Si1 0.552382 0.325593 0.349490
Si Si2 0.785777 0.026004 0.690912
Si Si3 0.673732 0.593531 0.326017
Si Si4 0.750000 0.342544 0.000000
Si Si5 0.750000 0.599910 0.000000
Si Si6 0.750000 0.750000 0.500000
O O1 0.750000 0.337360 0.500000
O O2 0.313454 0.359910 0.335637
O O3 0.428503 0.280936 0.395076
O O4 0.687378 0.321544 0.173754
O O5 0.750000 0.021863 0.500000
O O6 0.876622 0.075687 0.703251
O O7 0.534114 0.000735 0.752984
O O8 0.750000 0.575327 0.500000
O O9 0.811561 0.576981 0.164335
O O10 0.496288 0.370563 0.963707
#
# Coordination Sequence:
#
# PCOD9397207 Si02
#       6
#     8   8   8   4   4   2
#     4  11  25  48  75 108 148 196 246 312 369 461
#     4  10  22  40  64 104 147 188 249 308 363 440
#     4  11  22  42  72 101 137 194 240 293 373 428
#     4  10  24  44  75  99 148 189 240 297 370 429
#     4  10  24  42  66 112 138 181 252 303 338 456
#     4  12  26  52  74 114 156 178 266 312 380 460
#
# _framework density 25.362499
#
# number of rings (size 3 to 8) (size 9 to 14) (size 15 to 20)
#    0.000    1.412    1.176    3.882    3.294   10.353 
#    0.000    4.706    0.000    0.000    0.000    1.647 
#    0.000    0.000    0.000    0.000    0.000    0.000 
#
# Total GULP energy -189345.838834 kJ/mol
# GULP energy per Si atom -5568.995260 kJ/mol
# Density = 2.530477 g / cm^3
# Si number density = 25.362499 Si / 1000 Ang^3
#
#
#
# Elastic Constant Matrix: (Units=GPa)
#
#
# Indices 1 2 3 4 5 6 
#
# 1 179.3024 78.7086 37.8677 0.0000 0.0000 0.0000
# 2 78.7086 173.8823 59.2018 0.0000 0.0000 0.0000
# 3 37.8677 59.2018 225.0155 0.0000 0.0000 0.0000
# 4 0.0000 0.0000 0.0000 58.0614 0.0000 0.0000
# 5 0.0000 0.0000 0.0000 0.0000 42.1472 0.0000
# 6 0.0000 0.0000 0.0000 0.0000 0.0000 67.8892
#
#
#
# Elastic Compliance Matrix: (Units=1/GPa)
#
#
# Indices 1 2 3 4 5 6 
#
# 1 0.006989 -0.003035 -0.000378 0.000000 0.000000 0.000000
# 2 -0.003035 0.007635 -0.001498 0.000000 0.000000 0.000000
# 3 -0.000378 -0.001498 0.004902 0.000000 0.000000 0.000000
# 4 0.000000 0.000000 0.000000 0.017223 0.000000 0.000000
# 5 0.000000 0.000000 0.000000 0.000000 0.023726 0.000000
# 6 0.000000 0.000000 0.000000 0.000000 0.000000 0.014730
#
#
# Mechanical properties :
#
#
# Convention : Reuss Voigt Hill
#
# Bulk Modulus (GPa) = 103.04577 103.30628 103.17603
# Shear Modulus (GPa) = 56.64967 60.44768 58.54867
#
# Velocity S-wave (km/s) = 4.73122 4.88725 4.80987
# Velocity P-wave (km/s) = 8.40020 8.52451 8.46258
#
# Compressibility (1/GPa) = 0.00970443
#
# Stress axis : x y z
#
# Youngs Moduli (GPa) = 143.07647 130.97745 204.00610
#
# Poissons Ratio (x) = 0.39753 0.07705
# Poissons Ratio (y) = 0.43426 0.30560
# Poissons Ratio (z) = 0.05404 0.19620
#
# Static dielectric constant tensor:
#      x y z
#    x 2.059710 0.000000 0.000000 
#    y 0.000000 1.993540 0.000000 
#    z 0.000000 0.000000 2.087170 
# 
# From -- ./inp_files/8036.got.cif
#   From: 2010.05.17/outbox.cif.g08.bks.cpg/sg50_5_cif.got.tgz:8036.got - 2010.06.03 11:33:33.
