data_PCOD9397772
_publ_section_title
;
Structure prediction by ZEFSAII (Michael W. Deem and Ramdas Pophale) SiO2 
 PCOD9397772
Probable space group: P B A N
;
_chemical_formula_sum "Si O2"
_cell_formula_units_Z 58
_cell_length_a 10.881495
_cell_length_b 28.174319
_cell_length_c 9.227180
_cell_angle_alpha 90.000000
_cell_angle_beta 90.000000
_cell_angle_gamma 90.000000
_cell_volume 2828.856954
_symmetry_space_group_name_H-M "P B A N"
_symmetry_group_IT_number 50
_space_group.IT_coordinate_system_code '2'
_symmetry_cell_setting 'orthorhombic'
loop_
_space_group_symop_operation_xyz
x,y,z
1/2-x,1/2-y,z
x,1/2-y,-z
1/2-x,y,-z
-x,-y,-z
1/2+x,1/2+y,-z
-x,1/2+y,z
1/2+x,-y,z
loop_
_atom_site_type_symbol
_atom_site_label
_atom_site_fract_x
_atom_site_fract_y
_atom_site_fract_z
Si Si1 0.350128 0.061442 0.797758
Si Si2 0.076754 0.083329 0.893993
Si Si3 0.892125 0.743567 0.325821
Si Si4 0.933646 0.473079 0.363656
Si Si5 0.865961 0.370985 0.417107
Si Si6 0.250000 0.750000 0.000000
Si Si7 0.615331 0.855527 0.419246
Si Si8 0.057247 0.819302 0.154071
O O1 0.218410 0.081237 0.845995
O O2 0.392921 0.096846 0.672410
O O3 0.349025 0.010507 0.721135
O O4 0.431138 0.061301 0.944367
O O5 0.014173 0.052084 0.765445
O O6 0.028787 0.137853 0.906239
O O7 0.750000 0.750000 0.288807
O O8 0.906809 0.750000 0.500000
O O9 0.912437 0.687570 0.309587
O O10 0.973267 0.780699 0.238879
O O11 0.864730 0.427502 0.425148
O O12 0.000000 0.500000 0.500000
O O13 0.750000 0.350349 0.500000
O O14 0.856872 0.350574 0.258112
O O15 0.002369 0.356448 0.469515
O O16 0.152038 0.786919 0.068162
O O17 0.750000 0.850834 0.500000
#
# Coordination Sequence:
#
# PCOD9397772 Si02
#       8
#     8   8   8   8   8   2   8   8
#     4  11  24  40  74  97 143 189 231 294 363 426
#     4  10  25  47  64 104 142 185 239 292 359 428
#     4  11  20  38  70 105 133 171 225 296 368 415
#     4  11  23  42  68 103 139 185 237 295 347 430
#     4  11  25  41  66 106 138 176 233 299 357 413
#     4  12  32  48  72  88 136 212 236 280 364 448
#     4  12  22  39  68 104 137 181 230 298 363 426
#     4  11  26  49  66  98 144 182 242 288 349 448
#
# _framework density 20.502979
#
# number of rings (size 3 to 8) (size 9 to 14) (size 15 to 20)
#    0.000    0.966    4.138    2.897    5.793    0.000 
#    0.000    5.517    0.000    0.000    0.000    0.000 
#    0.000    0.000    0.000    0.000    0.000    0.000 
#
# Total GULP energy -323012.041628 kJ/mol
# GULP energy per Si atom -5569.173132 kJ/mol
# Density = 2.045631 g / cm^3
# Si number density = 20.502979 Si / 1000 Ang^3
#
#
#
# Elastic Constant Matrix: (Units=GPa)
#
#
# Indices 1 2 3 4 5 6 
#
# 1 103.2554 44.1707 43.6840 0.0000 0.0000 0.0000
# 2 44.1707 141.7364 24.4868 0.0000 0.0000 0.0000
# 3 43.6840 24.4868 53.7135 0.0000 0.0000 0.0000
# 4 0.0000 0.0000 0.0000 28.8912 0.0000 0.0000
# 5 0.0000 0.0000 0.0000 0.0000 24.6680 0.0000
# 6 0.0000 0.0000 0.0000 0.0000 0.0000 15.5468
#
#
#
# Elastic Compliance Matrix: (Units=1/GPa)
#
#
# Indices 1 2 3 4 5 6 
#
# 1 0.015817 -0.002938 -0.011524 0.000000 0.000000 0.000000
# 2 -0.002938 0.008204 -0.001351 0.000000 0.000000 0.000000
# 3 -0.011524 -0.001351 0.028605 0.000000 0.000000 0.000000
# 4 0.000000 0.000000 0.000000 0.034613 0.000000 0.000000
# 5 0.000000 0.000000 0.000000 0.000000 0.040538 0.000000
# 6 0.000000 0.000000 0.000000 0.000000 0.000000 0.064322
#
#
# Mechanical properties :
#
#
# Convention : Reuss Voigt Hill
#
# Bulk Modulus (GPa) = 47.61732 58.15426 52.88579
# Shear Modulus (GPa) = 21.67069 26.24544 23.95806
#
# Velocity S-wave (km/s) = 3.25461 3.58170 3.42207
# Velocity P-wave (km/s) = 6.11542 6.74760 6.43927
#
# Compressibility (1/GPa) = 0.02100076
#
# Stress axis : x y z
#
# Youngs Moduli (GPa) = 63.22213 121.88627 34.95836
#
# Poissons Ratio (x) = 0.35814 0.40287
# Poissons Ratio (y) = 0.18577 0.04721
# Poissons Ratio (z) = 0.72859 0.16461
#
# Static dielectric constant tensor:
#      x y z
#    x 1.681740 0.000000 0.000000 
#    y 0.000000 1.326190 0.000000 
#    z 0.000000 0.000000 1.787330 
# 
# From -- ./inp_files/11776.got.cif
#   From: 2010.05.17/outbox.cif.g08.bks.cpg/sg50_6_cif.got.tgz:11776.got - 2010.06.03 11:33:33.
