data_PCOD9397077
_publ_section_title
;
Structure prediction by ZEFSAII (Michael W. Deem and Ramdas Pophale) SiO2 
 PCOD9397077
Probable space group: P B A N
;
_chemical_formula_sum "Si O2"
_cell_formula_units_Z 40
_cell_length_a 24.983403
_cell_length_b 7.801270
_cell_length_c 9.766783
_cell_angle_alpha 90.000000
_cell_angle_beta 90.000000
_cell_angle_gamma 90.000000
_cell_volume 1903.568200
_symmetry_space_group_name_H-M "P B A N"
_symmetry_group_IT_number 50
_space_group.IT_coordinate_system_code '2'
_symmetry_cell_setting 'orthorhombic'
loop_
_space_group_symop_operation_xyz
x,y,z
1/2-x,1/2-y,z
x,1/2-y,-z
1/2-x,y,-z
-x,-y,-z
1/2+x,1/2+y,-z
-x,1/2+y,z
1/2+x,-y,z
loop_
_atom_site_type_symbol
_atom_site_label
_atom_site_fract_x
_atom_site_fract_y
_atom_site_fract_z
Si Si1 0.313380 0.958677 0.127963
Si Si2 0.882519 0.059706 0.565561
Si Si3 0.085005 0.441136 0.289231
Si Si4 0.197679 0.951578 0.184028
Si Si5 0.980834 0.643612 0.356672
O O1 0.258897 0.012937 0.206164
O O2 0.308640 0.753091 0.153268
O O3 0.369933 0.015681 0.183285
O O4 0.313059 0.017196 0.969857
O O5 0.874945 0.250000 0.500000
O O6 0.840536 0.018593 0.685928
O O7 0.882855 0.936723 0.433311
O O8 0.942124 0.021005 0.623608
O O9 0.052563 0.268991 0.259940
O O10 0.038652 0.583859 0.307828
O O11 0.983174 0.750000 0.500000
#
# Coordination Sequence:
#
# PCOD9397077 Si02
#       5
#     8   8   8   8   8
#     4   9  19  36  59  84 117 148 186 240 289 340
#     4  11  19  34  59  86 112 149 192 233 279 343
#     4  11  20  36  59  84 114 153 191 234 286 340
#     4   9  19  36  58  87 114 147 188 237 292 339
#     4  10  22  35  56  85 120 151 188 236 290 342
#
# _framework density 21.013168
#
# number of rings (size 3 to 8) (size 9 to 14) (size 15 to 20)
#    0.000    2.000    2.000    5.400    0.000    0.800 
#    0.000    3.000    0.000    6.000    0.000    0.000 
#    0.000    0.000    0.000    0.000    0.000    0.000 
#
# Total GULP energy -222738.686018 kJ/mol
# GULP energy per Si atom -5568.467150 kJ/mol
# Density = 2.096534 g / cm^3
# Si number density = 21.013168 Si / 1000 Ang^3
#
#
#
# Elastic Constant Matrix: (Units=GPa)
#
#
# Indices 1 2 3 4 5 6 
#
# 1 192.4571 35.4266 82.2017 0.0000 0.0000 0.0000
# 2 35.4266 61.0969 9.0105 0.0000 0.0000 0.0000
# 3 82.2017 9.0105 66.7218 0.0000 0.0000 0.0000
# 4 0.0000 0.0000 0.0000 8.2858 0.0000 0.0000
# 5 0.0000 0.0000 0.0000 0.0000 27.8152 0.0000
# 6 0.0000 0.0000 0.0000 0.0000 0.0000 -1.0265
#
#
#
# Elastic Compliance Matrix: (Units=1/GPa)
#
#
# Indices 1 2 3 4 5 6 
#
# 1 0.012300 -0.004997 -0.014479 0.000000 0.000000 0.000000
# 2 -0.004997 0.018730 0.003627 0.000000 0.000000 0.000000
# 3 -0.014479 0.003627 0.032336 0.000000 0.000000 0.000000
# 4 0.000000 0.000000 0.000000 0.120689 0.000000 0.000000
# 5 0.000000 0.000000 0.000000 0.000000 0.035952 0.000000
# 6 0.000000 0.000000 0.000000 0.000000 0.000000 -0.974200
#
#
# Mechanical properties :
#
#
# Convention : Reuss Voigt Hill
#
# Bulk Modulus (GPa) = 31.57786 63.72815 47.65301
# Shear Modulus (GPa) = -7.02305 19.92404 6.45049
#
# Velocity S-wave (km/s) = -1.83016 3.08258 1.75397
# Velocity P-wave (km/s) = 3.25489 6.56226 5.17965
#
# Compressibility (1/GPa) = 0.03166775
#
# Stress axis : x y z
#
# Youngs Moduli (GPa) = 81.30210 53.39064 30.92561
#
# Poissons Ratio (x) = 0.26677 0.44776
# Poissons Ratio (y) = 0.40624 -0.11215
# Poissons Ratio (z) = 1.17715 -0.19362
#
# Static dielectric constant tensor:
#      x y z
#    x 1.763810 0.000000 0.000000 
#    y 0.000000 1.899040 0.000000 
#    z 0.000000 0.000000 1.770250 
# 
# From -- ./inp_files/22232.got.cif
#   From: 2010.05.17/outbox.cif.g08.bks.cpg/sg50_12_cif.got.tgz:22232.got - 2010.06.03 11:33:33.
