data_PCOD9397843
_publ_section_title
;
Structure prediction by ZEFSAII (Michael W. Deem and Ramdas Pophale) SiO2 
 PCOD9397843
Probable space group: P B A N
;
_chemical_formula_sum "Si O2"
_cell_formula_units_Z 48
_cell_length_a 22.737007
_cell_length_b 10.278144
_cell_length_c 10.937489
_cell_angle_alpha 90.000000
_cell_angle_beta 90.000000
_cell_angle_gamma 90.000000
_cell_volume 2556.028093
_symmetry_space_group_name_H-M "P B A N"
_symmetry_group_IT_number 50
_space_group.IT_coordinate_system_code '2'
_symmetry_cell_setting 'orthorhombic'
loop_
_space_group_symop_operation_xyz
x,y,z
1/2-x,1/2-y,z
x,1/2-y,-z
1/2-x,y,-z
-x,-y,-z
1/2+x,1/2+y,-z
-x,1/2+y,z
1/2+x,-y,z
loop_
_atom_site_type_symbol
_atom_site_label
_atom_site_fract_x
_atom_site_fract_y
_atom_site_fract_z
Si Si1 0.124566 0.476829 0.747859
Si Si2 0.048318 0.250001 0.640787
Si Si3 0.916880 0.250000 0.648938
Si Si4 0.750000 0.905830 0.643089
Si Si5 0.059835 0.409766 1.000000
Si Si6 0.624566 0.976828 0.747859
O O1 0.085668 0.376388 0.669936
O O2 0.111995 0.621329 0.702626
O O3 0.192140 0.447447 0.717246
O O4 0.099636 0.447919 0.882919
O O5 0.035244 0.250000 0.500000
O O6 0.085669 0.123614 0.669936
O O7 0.984081 0.250000 0.699167
O O8 0.913065 0.250000 0.500000
O O9 0.888006 0.378672 0.702625
O O10 0.750000 0.750000 0.636654
O O11 0.750000 0.952842 0.500000
O O12 0.692140 0.947447 0.717247
O O13 0.049140 0.250000 0.000000
O O14 0.099636 0.447919 0.117081
O O15 0.000000 0.500000 0.000000
#
# Coordination Sequence:
#
# PCOD9397843 Si02
#       6
#     8   8   8   8   8   8
#     4  12  25  41  66  99 134 179 231 274 335 409
#     4  11  20  38  64  93 128 170 222 283 344 399
#     4  11  24  40  64  99 138 174 220 293 354 401
#     4  11  22  42  70  97 134 181 229 284 339 404
#     4  12  26  45  71 100 138 183 229 284 339 403
#     4  12  25  41  66  99 134 179 231 274 335 409
#
# _framework density 18.779136999999999
#
# number of rings (size 3 to 8) (size 9 to 14) (size 15 to 20)
#    0.000    0.500    3.333    6.000    2.333    4.000 
#    0.000    3.333    0.000    2.000    0.000    0.000 
#    0.000    0.000    0.000    0.000    0.000    0.000 
#
# Total GULP energy -267980.980429 kJ/mol
# GULP energy per Si atom -5582.937092 kJ/mol
# Density = 1.873640 g / cm^3
# Si number density = 18.779137 Si / 1000 Ang^3
#
#
#
# Elastic Constant Matrix: (Units=GPa)
#
#
# Indices 1 2 3 4 5 6 
#
# 1 198.8155 76.5626 66.8098 0.0000 0.0000 0.0000
# 2 76.5626 185.5818 55.3091 0.0000 0.0000 0.0000
# 3 66.8098 55.3091 113.9358 0.0000 0.0000 0.0000
# 4 0.0000 0.0000 0.0000 20.8778 0.0000 0.0000
# 5 0.0000 0.0000 0.0000 0.0000 33.5448 0.0000
# 6 0.0000 0.0000 0.0000 0.0000 0.0000 48.2536
#
#
#
# Elastic Compliance Matrix: (Units=1/GPa)
#
#
# Indices 1 2 3 4 5 6 
#
# 1 0.006786 -0.001887 -0.003063 0.000000 0.000000 0.000000
# 2 -0.001887 0.006824 -0.002207 0.000000 0.000000 0.000000
# 3 -0.003063 -0.002207 0.011644 0.000000 0.000000 0.000000
# 4 0.000000 0.000000 0.000000 0.047898 0.000000 0.000000
# 5 0.000000 0.000000 0.000000 0.000000 0.029811 0.000000
# 6 0.000000 0.000000 0.000000 0.000000 0.000000 0.020724
#
#
# Mechanical properties :
#
#
# Convention : Reuss Voigt Hill
#
# Bulk Modulus (GPa) = 91.39399 99.52179 95.45789
# Shear Modulus (GPa) = 35.29916 40.51203 37.90560
#
# Velocity S-wave (km/s) = 4.34026 4.64970 4.49764
# Velocity P-wave (km/s) = 8.59596 9.05192 8.82689
#
# Compressibility (1/GPa) = 0.01094164
#
# Stress axis : x y z
#
# Youngs Moduli (GPa) = 147.37054 146.53316 85.87940
#
# Poissons Ratio (x) = 0.27644 0.26306
# Poissons Ratio (y) = 0.27802 0.18950
# Poissons Ratio (z) = 0.45142 0.32334
#
# Static dielectric constant tensor:
#      x y z
#    x 1.648080 0.000000 0.000000 
#    y 0.000000 1.522110 0.000000 
#    z 0.000000 0.000000 1.711290 
# 
# From -- ./inp_files/22780.got.cif
#   From: 2010.05.17/outbox.cif.g08.bks.cpg/sg50_12_cif.got.tgz:22780.got - 2010.06.03 11:33:33.
