data_PCOD9397906
_publ_section_title
;
Structure prediction by ZEFSAII (Michael W. Deem and Ramdas Pophale) SiO2 
 PCOD9397906
Probable space group: P B A N
;
_chemical_formula_sum "Si O2"
_cell_formula_units_Z 54
_cell_length_a 11.508367
_cell_length_b 21.924561
_cell_length_c 10.692135
_cell_angle_alpha 90.000000
_cell_angle_beta 90.000000
_cell_angle_gamma 90.000000
_cell_volume 2697.795605
_symmetry_space_group_name_H-M "P B A N"
_symmetry_group_IT_number 50
_space_group.IT_coordinate_system_code '2'
_symmetry_cell_setting 'orthorhombic'
loop_
_space_group_symop_operation_xyz
x,y,z
1/2-x,1/2-y,z
x,1/2-y,-z
1/2-x,y,-z
-x,-y,-z
1/2+x,1/2+y,-z
-x,1/2+y,z
1/2+x,-y,z
loop_
_atom_site_type_symbol
_atom_site_label
_atom_site_fract_x
_atom_site_fract_y
_atom_site_fract_z
Si Si1 0.363999 0.071050 0.215119
Si Si2 0.250000 0.750000 0.500000
Si Si3 0.328523 0.848641 0.313463
Si Si4 0.750000 0.000170 0.000000
Si Si5 0.214652 0.181967 0.145543
Si Si6 0.043648 0.685609 0.068471
Si Si7 0.378310 0.600798 0.160495
Si Si8 0.378117 0.525340 0.567981
O O1 0.282480 0.130277 0.220949
O O2 0.497669 0.088292 0.218714
O O3 0.347785 0.022565 0.323395
O O4 0.337170 0.040681 0.080508
O O5 0.323757 0.795559 0.414592
O O6 0.371767 0.818532 0.185020
O O7 0.202281 0.872240 0.268937
O O8 0.396282 0.907741 0.368020
O O9 0.816837 0.041925 0.899920
O O10 0.250000 0.250000 0.189201
O O11 0.078464 0.169342 0.133479
O O12 0.250000 0.178951 0.000000
O O13 0.028208 0.750000 0.000000
O O14 0.093977 0.642728 0.959932
O O15 0.250000 0.531157 0.500000
O O16 0.500000 0.500000 0.500000
#
# Coordination Sequence:
#
# PCOD9397906 Si02
#       8
#     8   2   8   4   8   8   8   8
#     4  12  24  40  73  98 139 184 222 292 362 418
#     4  12  28  48  66  92 138 188 246 286 350 412
#     4  12  26  46  70  99 137 185 237 296 350 424
#     4  12  22  38  62 106 140 170 222 280 366 434
#     4  11  21  41  62 101 142 178 215 268 350 439
#     4  12  22  40  70 102 140 177 223 284 361 436
#     4  12  22  41  64 106 138 168 224 289 362 432
#     4  12  28  51  74 100 141 193 257 304 351 420
#
# _framework density 20.016342999999999
#
# number of rings (size 3 to 8) (size 9 to 14) (size 15 to 20)
#    0.000    0.148    7.407    2.222    2.074    0.593 
#    0.000    0.000    0.000    0.444    0.000    0.000 
#    0.000    0.000    0.000    0.000    0.000    0.000 
#
# Total GULP energy -301375.213144 kJ/mol
# GULP energy per Si atom -5581.022466 kJ/mol
# Density = 1.997078 g / cm^3
# Si number density = 20.016343 Si / 1000 Ang^3
#
#
#
# Elastic Constant Matrix: (Units=GPa)
#
#
# Indices 1 2 3 4 5 6 
#
# 1 108.0998 32.1905 14.5950 0.0000 0.0000 0.0000
# 2 32.1905 121.4120 38.7215 0.0000 0.0000 0.0000
# 3 14.5950 38.7215 67.7119 0.0000 0.0000 0.0000
# 4 0.0000 0.0000 0.0000 14.8754 0.0000 0.0000
# 5 0.0000 0.0000 0.0000 0.0000 5.0353 0.0000
# 6 0.0000 0.0000 0.0000 0.0000 0.0000 -19.3363
#
#
#
# Elastic Compliance Matrix: (Units=1/GPa)
#
#
# Indices 1 2 3 4 5 6 
#
# 1 0.010078 -0.002421 -0.000788 0.000000 0.000000 0.000000
# 2 -0.002421 0.010655 -0.005571 0.000000 0.000000 0.000000
# 3 -0.000788 -0.005571 0.018124 0.000000 0.000000 0.000000
# 4 0.000000 0.000000 0.000000 0.067225 0.000000 0.000000
# 5 0.000000 0.000000 0.000000 0.000000 0.198599 0.000000
# 6 0.000000 0.000000 0.000000 0.000000 0.000000 -0.051716
#
#
# Mechanical properties :
#
#
# Convention : Reuss Voigt Hill
#
# Bulk Modulus (GPa) = 46.95449 52.02642 49.49045
# Shear Modulus (GPa) = 18.00993 14.22930 16.11961
#
# Velocity S-wave (km/s) = 3.00286 2.66913 2.84090
# Velocity P-wave (km/s) = 5.96086 5.96217 5.96151
#
# Compressibility (1/GPa) = 0.02129722
#
# Stress axis : x y z
#
# Youngs Moduli (GPa) = 99.22653 93.85172 55.17441
#
# Poissons Ratio (x) = 0.22719 0.04348
# Poissons Ratio (y) = 0.24020 0.30740
# Poissons Ratio (z) = 0.07819 0.52289
#
# Static dielectric constant tensor:
#      x y z
#    x 1.911550 0.000000 0.000000 
#    y 0.000000 1.733890 0.000000 
#    z 0.000000 0.000000 1.702220 
# 
# From -- ./inp_files/20410.got.cif
#   From: 2010.05.17/outbox.cif.g08.bks.cpg/sg50_11_cif.got.tgz:20410.got - 2010.06.03 11:33:33.
