data_PCOD9397624
_publ_section_title
;
Structure prediction by ZEFSAII (Michael W. Deem and Ramdas Pophale) SiO2 
 PCOD9397624
Probable space group: P B A N
;
_chemical_formula_sum "Si O2"
_cell_formula_units_Z 52
_cell_length_a 7.985339
_cell_length_b 23.204152
_cell_length_c 13.810487
_cell_angle_alpha 90.000000
_cell_angle_beta 90.000000
_cell_angle_gamma 90.000000
_cell_volume 2558.986843
_symmetry_space_group_name_H-M "P B A N"
_symmetry_group_IT_number 50
_space_group.IT_coordinate_system_code '2'
_symmetry_cell_setting 'orthorhombic'
loop_
_space_group_symop_operation_xyz
x,y,z
1/2-x,1/2-y,z
x,1/2-y,-z
1/2-x,y,-z
-x,-y,-z
1/2+x,1/2+y,-z
-x,1/2+y,z
1/2+x,-y,z
loop_
_atom_site_type_symbol
_atom_site_label
_atom_site_fract_x
_atom_site_fract_y
_atom_site_fract_z
Si Si1 0.750000 0.373456 0.000000
Si Si2 0.024081 0.287259 0.091846
Si Si3 0.742530 0.684765 0.730097
Si Si4 0.179088 0.080468 0.606272
Si Si5 0.137949 0.702575 0.251424
Si Si6 0.961384 0.502594 0.298659
Si Si7 0.739277 0.419684 0.199307
O O1 0.602004 0.334345 0.954220
O O2 0.813005 0.412211 0.911721
O O3 0.922046 0.242096 0.159961
O O4 0.169565 0.312711 0.162752
O O5 0.080621 0.250000 0.000000
O O6 0.750000 0.750000 0.693023
O O7 0.839736 0.639962 0.663677
O O8 0.542596 0.674479 0.722953
O O9 0.250000 0.090104 0.500000
O O10 0.017981 0.039352 0.613790
O O11 0.314225 0.043614 0.666320
O O12 0.250000 0.750000 0.309155
O O13 0.250972 0.646199 0.235855
O O14 0.904965 0.457502 0.215579
O O15 0.103171 0.544777 0.259269
#
# Coordination Sequence:
#
# PCOD9397624 Si02
#       7
#     4   8   8   8   8   8   8
#     4  12  21  36  66  90 126 174 211 262 298 378
#     4  11  20  36  58  97 126 164 217 246 309 372
#     4  10  24  38  61  96 130 161 203 266 327 375
#     4  11  22  43  69  94 120 161 214 268 324 389
#     4  11  20  37  62  89 119 168 205 261 308 374
#     4  10  24  42  63  91 123 166 209 264 319 378
#     4  11  22  40  62  87 130 164 215 257 313 374
#
# _framework density 20.320543000000001
#
# number of rings (size 3 to 8) (size 9 to 14) (size 15 to 20)
#    0.000    1.231    4.615    1.615    2.154    3.692 
#    0.000    0.000    0.000    0.000    0.000    0.000 
#    0.000    0.000    0.000    0.000    0.000    0.000 
#
# Total GULP energy -289563.203118 kJ/mol
# GULP energy per Si atom -5568.523137 kJ/mol
# Density = 2.027429 g / cm^3
# Si number density = 20.320543 Si / 1000 Ang^3
#
#
#
# Elastic Constant Matrix: (Units=GPa)
#
#
# Indices 1 2 3 4 5 6 
#
# 1 44.7982 15.4814 -10.2550 0.0000 0.0000 0.0000
# 2 15.4814 120.7650 40.5737 0.0000 0.0000 0.0000
# 3 -10.2550 40.5737 51.1554 0.0000 0.0000 0.0000
# 4 0.0000 0.0000 0.0000 28.1197 0.0000 0.0000
# 5 0.0000 0.0000 0.0000 0.0000 17.2778 0.0000
# 6 0.0000 0.0000 0.0000 0.0000 0.0000 55.0428
#
#
#
# Elastic Compliance Matrix: (Units=1/GPa)
#
#
# Indices 1 2 3 4 5 6 
#
# 1 0.027437 -0.007314 0.011302 0.000000 0.000000 0.000000
# 2 -0.007314 0.013239 -0.011966 0.000000 0.000000 0.000000
# 3 0.011302 -0.011966 0.031305 0.000000 0.000000 0.000000
# 4 0.000000 0.000000 0.000000 0.035562 0.000000 0.000000
# 5 0.000000 0.000000 0.000000 0.000000 0.057878 0.000000
# 6 0.000000 0.000000 0.000000 0.000000 0.000000 0.018168
#
#
# Mechanical properties :
#
#
# Convention : Reuss Voigt Hill
#
# Bulk Modulus (GPa) = 17.85003 34.25768 26.05385
# Shear Modulus (GPa) = 22.91258 31.48261 27.19760
#
# Velocity S-wave (km/s) = 3.36156 3.94038 3.66242
# Velocity P-wave (km/s) = 4.88570 6.13167 5.54380
#
# Compressibility (1/GPa) = 0.05602232
#
# Stress axis : x y z
#
# Youngs Moduli (GPa) = 36.44699 75.53676 31.94380
#
# Poissons Ratio (x) = 0.55250 -0.36101
# Poissons Ratio (y) = 0.26658 0.38225
# Poissons Ratio (z) = -0.41191 0.90390
#
# Static dielectric constant tensor:
#      x y z
#    x 1.883090 0.000000 0.000000 
#    y 0.000000 1.710190 0.000000 
#    z 0.000000 0.000000 1.735480 
# 
# From -- ./inp_files/25184.got.cif
#   From: 2010.05.17/outbox.cif.g08.bks.cpg/sg50_13_cif.got.tgz:25184.got - 2010.06.03 11:33:33.
