data_PCOD9397607
_publ_section_title
;
Structure prediction by ZEFSAII (Michael W. Deem and Ramdas Pophale) SiO2 
 PCOD9397607
Probable space group: P B A N
;
_chemical_formula_sum "Si O2"
_cell_formula_units_Z 32
_cell_length_a 12.071230
_cell_length_b 19.714542
_cell_length_c 4.957743
_cell_angle_alpha 90.000000
_cell_angle_beta 90.000000
_cell_angle_gamma 90.000000
_cell_volume 1179.837585
_symmetry_space_group_name_H-M "P B A N"
_symmetry_group_IT_number 50
_space_group.IT_coordinate_system_code '2'
_symmetry_cell_setting 'orthorhombic'
loop_
_space_group_symop_operation_xyz
x,y,z
1/2-x,1/2-y,z
x,1/2-y,-z
1/2-x,y,-z
-x,-y,-z
1/2+x,1/2+y,-z
-x,1/2+y,z
1/2+x,-y,z
loop_
_atom_site_type_symbol
_atom_site_label
_atom_site_fract_x
_atom_site_fract_y
_atom_site_fract_z
Si Si1 0.593919 0.750000 0.500000
Si Si2 0.107654 0.592564 0.623863
Si Si3 0.250000 0.494389 0.000000
Si Si4 0.909710 0.183937 0.137862
Si Si5 0.364913 0.101822 0.353644
O O1 0.518971 0.712828 0.721400
O O2 0.644212 0.815619 0.652823
O O3 0.193532 0.540637 0.764219
O O4 0.147168 0.641278 0.377421
O O5 0.981541 0.575636 0.522677
O O6 0.073076 0.636126 0.885256
O O7 0.348166 0.443985 0.909921
O O8 0.857419 0.250000 0.000000
O O9 0.250000 0.084099 0.500000
#
# Coordination Sequence:
#
# PCOD9397607 Si02
#       5
#     4   8   4   8   8
#     4  10  23  46  76 117 160 212 279 354 443 494
#     4  11  27  47  81 114 167 220 289 344 438 537
#     4  12  30  50  74 120 172 236 278 354 444 530
#     4  11  20  46  84 113 155 213 277 362 422 500
#     4  11  26  46  76 117 161 222 282 363 429 527
#
# _framework density 27.122377
#
# number of rings (size 3 to 8) (size 9 to 14) (size 15 to 20)
#    0.000    1.000    5.000    1.125   10.500    1.000 
#    4.500    0.625    5.500    0.000    0.000    0.000 
#    0.000    0.000    0.000    0.000    0.000    1.000 
#
# Total GULP energy -178377.846358 kJ/mol
# GULP energy per Si atom -5574.307699 kJ/mol
# Density = 2.706065 g / cm^3
# Si number density = 27.122377 Si / 1000 Ang^3
#
#
#
# Elastic Constant Matrix: (Units=GPa)
#
#
# Indices 1 2 3 4 5 6 
#
# 1 111.6205 65.6177 31.4016 0.0000 0.0000 0.0000
# 2 65.6177 232.8667 77.8794 0.0000 0.0000 0.0000
# 3 31.4016 77.8794 169.1293 0.0000 0.0000 0.0000
# 4 0.0000 0.0000 0.0000 52.2379 0.0000 0.0000
# 5 0.0000 0.0000 0.0000 0.0000 14.3863 0.0000
# 6 0.0000 0.0000 0.0000 0.0000 0.0000 23.2819
#
#
#
# Elastic Compliance Matrix: (Units=1/GPa)
#
#
# Indices 1 2 3 4 5 6 
#
# 1 0.010810 -0.002807 -0.000714 0.000000 0.000000 0.000000
# 2 -0.002807 0.005805 -0.002152 0.000000 0.000000 0.000000
# 3 -0.000714 -0.002152 0.007036 0.000000 0.000000 0.000000
# 4 0.000000 0.000000 0.000000 0.019143 0.000000 0.000000
# 5 0.000000 0.000000 0.000000 0.000000 0.069511 0.000000
# 6 0.000000 0.000000 0.000000 0.000000 0.000000 0.042952
#
#
# Mechanical properties :
#
#
# Convention : Reuss Voigt Hill
#
# Bulk Modulus (GPa) = 81.27205 95.93488 88.60346
# Shear Modulus (GPa) = 29.29023 40.56240 34.92632
#
# Velocity S-wave (km/s) = 3.28979 3.87141 3.59239
# Velocity P-wave (km/s) = 6.66786 7.44524 7.06725
#
# Compressibility (1/GPa) = 0.01230435
#
# Stress axis : x y z
#
# Youngs Moduli (GPa) = 92.50561 172.26631 142.12326
#
# Poissons Ratio (x) = 0.48358 0.10154
# Poissons Ratio (y) = 0.25968 0.30583
# Poissons Ratio (z) = 0.06609 0.37069
#
# Static dielectric constant tensor:
#      x y z
#    x 2.375740 0.000000 0.000000 
#    y 0.000000 2.123920 0.000000 
#    z 0.000000 0.000000 2.107870 
# 
# From -- ./inp_files/2952.got.cif
#   From: 2010.05.17/outbox.cif.g08.bks.cpg/sg50_2_cif.got.tgz:2952.got - 2010.06.03 11:33:33.
