data_PCOD9397358
_publ_section_title
;
Structure prediction by ZEFSAII (Michael W. Deem and Ramdas Pophale) SiO2 
 PCOD9397358
Probable space group: P B A N
;
_chemical_formula_sum "Si O2"
_cell_formula_units_Z 26
_cell_length_a 8.862955
_cell_length_b 20.973863
_cell_length_c 5.815993
_cell_angle_alpha 90.000000
_cell_angle_beta 90.000000
_cell_angle_gamma 90.000000
_cell_volume 1081.137288
_symmetry_space_group_name_H-M "P B A N"
_symmetry_group_IT_number 50
_space_group.IT_coordinate_system_code '2'
_symmetry_cell_setting 'orthorhombic'
loop_
_space_group_symop_operation_xyz
x,y,z
1/2-x,1/2-y,z
x,1/2-y,-z
1/2-x,y,-z
-x,-y,-z
1/2+x,1/2+y,-z
-x,1/2+y,z
1/2+x,-y,z
loop_
_atom_site_type_symbol
_atom_site_label
_atom_site_fract_x
_atom_site_fract_y
_atom_site_fract_z
Si Si1 0.250000 0.558105 0.000000
Si Si2 0.250000 0.388819 0.000000
Si Si3 0.042116 0.847075 0.272078
Si Si4 0.989634 0.559151 0.332850
Si Si5 0.750000 0.250000 0.000000
O O1 0.345069 0.599404 0.180886
O O2 0.114431 0.535843 0.154266
O O3 0.382458 0.350884 0.864957
O O4 0.164144 0.430572 0.807950
O O5 0.016301 0.872653 0.534071
O O6 0.135399 0.786090 0.178184
O O7 0.000000 0.500000 0.500000
#
# Coordination Sequence:
#
# PCOD9397358 Si02
#       5
#     4   4   8   8   2
#     4   9  22  42  64 102 142 183 244 292 360 456
#     4  10  24  43  66 106 146 186 252 303 372 470
#     4  10  22  43  71 103 142 187 239 307 380 438
#     4  11  24  43  72 106 152 201 244 311 385 455
#     4  10  24  48  78 110 140 188 262 322 368 462
#
# _framework density 24.048749000000001
#
# number of rings (size 3 to 8) (size 9 to 14) (size 15 to 20)
#    0.000    1.846    0.000    1.846    0.000   14.154 
#    0.000   32.308    0.000   18.462    0.000    0.000 
#    0.000    0.000    0.000    0.000    0.000    0.000 
#
# Total GULP energy -144839.947462 kJ/mol
# GULP energy per Si atom -5570.767210 kJ/mol
# Density = 2.399401 g / cm^3
# Si number density = 24.048749 Si / 1000 Ang^3
#
#
#
# Elastic Constant Matrix: (Units=GPa)
#
#
# Indices 1 2 3 4 5 6 
#
# 1 225.8434 67.2286 67.3197 0.0000 0.0000 0.0000
# 2 67.2286 91.2798 51.9103 0.0000 0.0000 0.0000
# 3 67.3197 51.9103 82.4107 0.0000 0.0000 0.0000
# 4 0.0000 0.0000 0.0000 21.9213 0.0000 0.0000
# 5 0.0000 0.0000 0.0000 0.0000 9.7937 0.0000
# 6 0.0000 0.0000 0.0000 0.0000 0.0000 52.0501
#
#
#
# Elastic Compliance Matrix: (Units=1/GPa)
#
#
# Indices 1 2 3 4 5 6 
#
# 1 0.006237 -0.002643 -0.003430 0.000000 0.000000 0.000000
# 2 -0.002643 0.018190 -0.009299 0.000000 0.000000 0.000000
# 3 -0.003430 -0.009299 0.020794 0.000000 0.000000 0.000000
# 4 0.000000 0.000000 0.000000 0.045618 0.000000 0.000000
# 5 0.000000 0.000000 0.000000 0.000000 0.102106 0.000000
# 6 0.000000 0.000000 0.000000 0.000000 0.000000 0.019212
#
#
# Mechanical properties :
#
#
# Convention : Reuss Voigt Hill
#
# Bulk Modulus (GPa) = 69.07576 85.82790 77.45183
# Shear Modulus (GPa) = 20.18349 30.95804 25.57076
#
# Velocity S-wave (km/s) = 2.90017 3.59179 3.26435
# Velocity P-wave (km/s) = 6.32457 7.27791 6.81792
#
# Compressibility (1/GPa) = 0.01447686
#
# Stress axis : x y z
#
# Youngs Moduli (GPa) = 160.33210 54.97469 48.09132
#
# Poissons Ratio (x) = 0.14530 0.16496
# Poissons Ratio (y) = 0.42375 0.44720
# Poissons Ratio (z) = 0.54996 0.51121
#
# Static dielectric constant tensor:
#      x y z
#    x 1.855880 0.000000 0.000000 
#    y 0.000000 2.114990 0.000000 
#    z 0.000000 0.000000 1.574160 
# 
# From -- ./inp_files/866.got.cif
#   From: 2010.05.17/outbox.cif.g08.bks.cpg/sg50_1_cif.got.tgz:866.got - 2010.06.03 11:33:33.
