data_PCOD9397971
_publ_section_title
;
Structure prediction by ZEFSAII (Michael W. Deem and Ramdas Pophale) SiO2 
 PCOD9397971
Probable space group: P B A N
;
_chemical_formula_sum "Si O2"
_cell_formula_units_Z 64
_cell_length_a 9.707814
_cell_length_b 23.084240
_cell_length_c 14.421365
_cell_angle_alpha 90.000000
_cell_angle_beta 90.000000
_cell_angle_gamma 90.000000
_cell_volume 3231.791962
_symmetry_space_group_name_H-M "P B A N"
_symmetry_group_IT_number 50
_space_group.IT_coordinate_system_code '2'
_symmetry_cell_setting 'orthorhombic'
loop_
_space_group_symop_operation_xyz
x,y,z
1/2-x,1/2-y,z
x,1/2-y,-z
1/2-x,y,-z
-x,-y,-z
1/2+x,1/2+y,-z
-x,1/2+y,z
1/2+x,-y,z
loop_
_atom_site_type_symbol
_atom_site_label
_atom_site_fract_x
_atom_site_fract_y
_atom_site_fract_z
Si Si1 0.766970 0.814068 0.610939
Si Si2 0.505987 0.378163 0.618222
Si Si3 0.740351 0.499894 0.784460
Si Si4 0.598885 0.949560 0.951013
Si Si5 0.227023 0.681806 0.731853
Si Si6 0.951858 0.129999 0.408173
Si Si7 0.506899 0.488452 0.335844
Si Si8 0.835927 0.387584 0.093910
O O1 0.750000 0.750000 0.651770
O O2 0.750000 0.808855 0.500000
O O3 0.653687 0.862331 0.632726
O O4 0.918977 0.834852 0.630093
O O5 0.581511 0.339906 0.694123
O O6 0.563014 0.357297 0.517694
O O7 0.527993 0.446529 0.633011
O O8 0.847200 0.533689 0.849324
O O9 0.599914 0.527747 0.746680
O O10 0.695907 0.444302 0.843753
O O11 0.835379 0.486090 0.697051
O O12 0.495871 0.895200 0.937088
O O13 0.750000 0.942395 0.000000
O O14 0.500000 0.000000 0.000000
O O15 0.250000 0.750000 0.720792
O O16 0.331210 0.646781 0.663145
O O17 0.220105 0.663304 0.839716
O O18 0.998895 0.062920 0.408988
O O19 0.750000 0.389948 0.000000
#
# Coordination Sequence:
#
# PCOD9397971 Si02
#       8
#     8   8   8   8   8   8   8   8
#     4   9  19  36  57  83 115 157 210 260 305 359
#     4  11  22  40  61  92 129 166 214 267 319 385
#     4  12  20  35  58  88 133 165 199 247 312 391
#     4  12  20  34  62  97 128 166 204 261 325 398
#     4  12  26  44  65  92 126 172 226 276 325 386
#     4  11  23  38  64  91 125 172 213 262 324 387
#     4  12  22  36  58  93 133 168 199 255 325 389
#     4  12  24  42  63  91 128 165 218 270 330 397
#
# _framework density 19.803256000000001
#
# number of rings (size 3 to 8) (size 9 to 14) (size 15 to 20)
#    0.000    0.625    6.250    2.250    0.000    2.250 
#    0.000    3.750    0.000    0.000    0.000    2.625 
#    0.000    0.000    0.000    0.000    0.000    0.000 
#
# Total GULP energy -356646.902860 kJ/mol
# GULP energy per Si atom -5572.607857 kJ/mol
# Density = 1.975818 g / cm^3
# Si number density = 19.803256 Si / 1000 Ang^3
#
#
#
# Elastic Constant Matrix: (Units=GPa)
#
#
# Indices 1 2 3 4 5 6 
#
# 1 100.8831 3.5569 14.4575 0.0000 0.0000 0.0000
# 2 3.5569 78.2248 6.8022 0.0000 0.0000 0.0000
# 3 14.4575 6.8022 54.9824 0.0000 0.0000 0.0000
# 4 0.0000 0.0000 0.0000 9.0521 0.0000 0.0000
# 5 0.0000 0.0000 0.0000 0.0000 25.5979 0.0000
# 6 0.0000 0.0000 0.0000 0.0000 0.0000 17.7947
#
#
#
# Elastic Compliance Matrix: (Units=1/GPa)
#
#
# Indices 1 2 3 4 5 6 
#
# 1 0.010305 -0.000235 -0.002681 0.000000 0.000000 0.000000
# 2 -0.000235 0.012928 -0.001537 0.000000 0.000000 0.000000
# 3 -0.002681 -0.001537 0.019083 0.000000 0.000000 0.000000
# 4 0.000000 0.000000 0.000000 0.110471 0.000000 0.000000
# 5 0.000000 0.000000 0.000000 0.000000 0.039066 0.000000
# 6 0.000000 0.000000 0.000000 0.000000 0.000000 0.056196
#
#
# Mechanical properties :
#
#
# Convention : Reuss Voigt Hill
#
# Bulk Modulus (GPa) = 29.93234 31.52484 30.72859
# Shear Modulus (GPa) = 18.65030 24.44053 21.54541
#
# Velocity S-wave (km/s) = 3.07217 3.51688 3.30202
# Velocity P-wave (km/s) = 5.26612 5.69604 5.48529
#
# Compressibility (1/GPa) = 0.03340868
#
# Stress axis : x y z
#
# Youngs Moduli (GPa) = 97.04112 77.35103 52.40352
#
# Poissons Ratio (x) = 0.01821 0.14047
# Poissons Ratio (y) = 0.02285 0.08057
# Poissons Ratio (z) = 0.26012 0.11893
#
# Static dielectric constant tensor:
#      x y z
#    x 1.539870 0.000000 0.000000 
#    y 0.000000 1.739090 0.000000 
#    z 0.000000 0.000000 1.730580 
# 
# From -- ./inp_files/25410.got.cif
#   From: 2010.05.17/outbox.cif.g08.bks.cpg/sg50_13_cif.got.tgz:25410.got - 2010.06.03 11:33:33.
