data_PCOD9397403
_publ_section_title
;
Structure prediction by ZEFSAII (Michael W. Deem and Ramdas Pophale) SiO2 
 PCOD9397403
Probable space group: P B A N
;
_chemical_formula_sum "Si O2"
_cell_formula_units_Z 28
_cell_length_a 17.689650
_cell_length_b 5.204743
_cell_length_c 10.958993
_cell_angle_alpha 90.000000
_cell_angle_beta 90.000000
_cell_angle_gamma 90.000000
_cell_volume 1008.995384
_symmetry_space_group_name_H-M "P B A N"
_symmetry_group_IT_number 50
_space_group.IT_coordinate_system_code '2'
_symmetry_cell_setting 'orthorhombic'
loop_
_space_group_symop_operation_xyz
x,y,z
1/2-x,1/2-y,z
x,1/2-y,-z
1/2-x,y,-z
-x,-y,-z
1/2+x,1/2+y,-z
-x,1/2+y,z
1/2+x,-y,z
loop_
_atom_site_type_symbol
_atom_site_label
_atom_site_fract_x
_atom_site_fract_y
_atom_site_fract_z
Si Si1 0.834615 0.996585 0.943999
Si Si2 0.168648 0.857176 0.324912
Si Si3 0.039231 0.030079 0.746240
Si Si4 0.578882 0.750000 0.500000
O O1 0.824175 0.980986 0.799780
O O2 0.873228 0.750000 0.000000
O O3 0.750000 0.001085 0.000000
O O4 0.872174 0.250000 0.000000
O O5 0.250000 0.750000 0.360718
O O6 0.118593 0.617986 0.272743
O O7 0.131100 0.037386 0.428397
O O8 0.983518 0.810370 0.798246
O O9 0.029872 0.113883 0.604112
#
# Coordination Sequence:
#
# PCOD9397403 Si02
#       4
#     8   8   8   4
#     4  10  22  45  75 105 141 200 258 310 376 460
#     4  12  28  48  79 121 157 198 262 331 391 460
#     4  12  27  51  76 108 159 220 259 302 387 486
#     4  12  28  47  74 114 169 198 266 308 405 462
#
# _framework density 27.750373
#
# number of rings (size 3 to 8) (size 9 to 14) (size 15 to 20)
#    0.000    0.571    5.714    1.714    4.000    4.571 
#    0.000    0.000    0.000    5.143    0.000    0.000 
#    0.000    0.000    0.000    0.000    0.000    0.000 
#
# Total GULP energy -156526.622961 kJ/mol
# GULP energy per Si atom -5590.236534 kJ/mol
# Density = 2.768721 g / cm^3
# Si number density = 27.750373 Si / 1000 Ang^3
#
#
#
# Elastic Constant Matrix: (Units=GPa)
#
#
# Indices 1 2 3 4 5 6 
#
# 1 160.5121 49.2969 16.5388 0.0000 0.0000 0.0000
# 2 49.2969 256.6522 33.8055 0.0000 0.0000 0.0000
# 3 16.5388 33.8055 128.7450 0.0000 0.0000 0.0000
# 4 0.0000 0.0000 0.0000 38.5936 0.0000 0.0000
# 5 0.0000 0.0000 0.0000 0.0000 47.5044 0.0000
# 6 0.0000 0.0000 0.0000 0.0000 0.0000 37.4996
#
#
#
# Elastic Compliance Matrix: (Units=1/GPa)
#
#
# Indices 1 2 3 4 5 6 
#
# 1 0.006656 -0.001208 -0.000538 0.000000 0.000000 0.000000
# 2 -0.001208 0.004255 -0.000962 0.000000 0.000000 0.000000
# 3 -0.000538 -0.000962 0.008089 0.000000 0.000000 0.000000
# 4 0.000000 0.000000 0.000000 0.025911 0.000000 0.000000
# 5 0.000000 0.000000 0.000000 0.000000 0.021051 0.000000
# 6 0.000000 0.000000 0.000000 0.000000 0.000000 0.026667
#
#
# Mechanical properties :
#
#
# Convention : Reuss Voigt Hill
#
# Bulk Modulus (GPa) = 73.61131 82.79908 78.20519
# Shear Modulus (GPa) = 48.74578 54.47073 51.60825
#
# Velocity S-wave (km/s) = 4.19571 4.43525 4.31714
# Velocity P-wave (km/s) = 7.07501 7.49203 7.28650
#
# Compressibility (1/GPa) = 0.01358487
#
# Stress axis : x y z
#
# Youngs Moduli (GPa) = 150.23143 235.01660 123.62412
#
# Poissons Ratio (x) = 0.28382 0.06651
# Poissons Ratio (y) = 0.18143 0.11894
# Poissons Ratio (z) = 0.08082 0.22612
#
# Static dielectric constant tensor:
#      x y z
#    x 2.004870 0.000000 0.000000 
#    y 0.000000 2.311000 0.000000 
#    z 0.000000 0.000000 2.253340 
# 
# From -- ./inp_files/22069.got.cif
#   From: 2010.05.17/outbox.cif.g08.bks.cpg/sg50_12_cif.got.tgz:22069.got - 2010.06.03 11:33:33.
