data_PCOD9397978
_publ_section_title
;
Structure prediction by ZEFSAII (Michael W. Deem and Ramdas Pophale) SiO2 
 PCOD9397978
Probable space group: P B A N
;
_chemical_formula_sum "Si O2"
_cell_formula_units_Z 38
_cell_length_a 13.737920
_cell_length_b 8.869497
_cell_length_c 14.669873
_cell_angle_alpha 90.000000
_cell_angle_beta 90.000000
_cell_angle_gamma 90.000000
_cell_volume 1787.501143
_symmetry_space_group_name_H-M "P B A N"
_symmetry_group_IT_number 50
_space_group.IT_coordinate_system_code '2'
_symmetry_cell_setting 'orthorhombic'
loop_
_space_group_symop_operation_xyz
x,y,z
1/2-x,1/2-y,z
x,1/2-y,-z
1/2-x,y,-z
-x,-y,-z
1/2+x,1/2+y,-z
-x,1/2+y,z
1/2+x,-y,z
loop_
_atom_site_type_symbol
_atom_site_label
_atom_site_fract_x
_atom_site_fract_y
_atom_site_fract_z
Si Si1 0.392682 0.275540 0.849338
Si Si2 0.381074 0.366316 0.650468
Si Si3 0.073699 0.946175 0.081732
Si Si4 0.750000 0.750000 0.500000
Si Si5 0.750000 0.750000 0.000000
Si Si6 0.750000 0.250000 0.000000
Si Si7 0.961738 0.365931 0.567170
O O1 0.353009 0.321437 0.751581
O O2 0.501431 0.339740 0.860538
O O3 0.322739 0.334586 0.930873
O O4 0.397191 0.096713 0.864621
O O5 0.303342 0.358296 0.570351
O O6 0.457438 0.240382 0.613706
O O7 0.415494 0.538581 0.647961
O O8 0.171489 0.856396 0.053301
O O9 0.000000 0.000000 0.000000
O O10 0.905804 0.250000 0.500000
O O11 0.000000 0.500000 0.500000
#
# Coordination Sequence:
#
# PCOD9397978 Si02
#       7
#     8   8   8   2   2   2   8
#     4  12  25  41  67 101 135 194 247 296 377 447
#     4  11  22  40  68  95 131 175 236 282 363 441
#     4  12  23  45  68 100 141 194 246 311 380 443
#     4  12  22  40  62  98 132 170 220 308 364 422
#     4  12  22  40  60  90 142 184 236 302 358 440
#     4  12  24  44  78  94 146 202 260 316 386 458
#     4   9  17  38  67  87 122 175 209 274 351 427
#
# _framework density 21.258728999999999
#
# number of rings (size 3 to 8) (size 9 to 14) (size 15 to 20)
#    0.000    0.842    7.368    2.526    0.000    0.000 
#    0.000    0.526    0.000    0.000    5.474    0.000 
#    0.000    0.000    0.000    0.000    0.000    0.000 
#
# Total GULP energy -211730.884834 kJ/mol
# GULP energy per Si atom -5571.865390 kJ/mol
# Density = 2.121034 g / cm^3
# Si number density = 21.258729 Si / 1000 Ang^3
#
#
#
# Elastic Constant Matrix: (Units=GPa)
#
#
# Indices 1 2 3 4 5 6 
#
# 1 113.8776 41.7392 49.6933 0.0000 0.0000 0.0000
# 2 41.7392 146.7888 49.8298 0.0000 0.0000 0.0000
# 3 49.6933 49.8298 167.3119 0.0000 0.0000 0.0000
# 4 0.0000 0.0000 0.0000 32.3137 0.0000 0.0000
# 5 0.0000 0.0000 0.0000 0.0000 95.0320 0.0000
# 6 0.0000 0.0000 0.0000 0.0000 0.0000 20.5970
#
#
#
# Elastic Compliance Matrix: (Units=1/GPa)
#
#
# Indices 1 2 3 4 5 6 
#
# 1 0.010682 -0.002181 -0.002523 0.000000 0.000000 0.000000
# 2 -0.002181 0.008024 -0.001742 0.000000 0.000000 0.000000
# 3 -0.002523 -0.001742 0.007245 0.000000 0.000000 0.000000
# 4 0.000000 0.000000 0.000000 0.030947 0.000000 0.000000
# 5 0.000000 0.000000 0.000000 0.000000 0.010523 0.000000
# 6 0.000000 0.000000 0.000000 0.000000 0.000000 0.048551
#
#
# Mechanical properties :
#
#
# Convention : Reuss Voigt Hill
#
# Bulk Modulus (GPa) = 76.57613 78.94477 77.76045
# Shear Modulus (GPa) = 37.53311 48.70294 43.11802
#
# Velocity S-wave (km/s) = 4.20639 4.79159 4.50850
# Velocity P-wave (km/s) = 7.72599 8.23579 7.98496
#
# Compressibility (1/GPa) = 0.01305890
#
# Stress axis : x y z
#
# Youngs Moduli (GPa) = 93.61813 124.62638 138.02516
#
# Poissons Ratio (x) = 0.27179 0.34825
# Poissons Ratio (y) = 0.20417 0.24044
# Poissons Ratio (z) = 0.23620 0.21710
#
# Static dielectric constant tensor:
#      x y z
#    x 2.328150 0.000000 0.000000 
#    y 0.000000 1.770090 0.000000 
#    z 0.000000 0.000000 1.797710 
# 
# From -- ./inp_files/26262.got.cif
#   From: 2010.05.17/outbox.cif.g08.bks.cpg/sg50_14_cif.got.tgz:26262.got - 2010.06.03 11:33:33.
