data_PCOD9397898
_publ_section_title
;
Structure prediction by ZEFSAII (Michael W. Deem and Ramdas Pophale) SiO2 
 PCOD9397898
Probable space group: P B A N
;
_chemical_formula_sum "Si O2"
_cell_formula_units_Z 40
_cell_length_a 10.904695
_cell_length_b 18.605776
_cell_length_c 8.411299
_cell_angle_alpha 90.000000
_cell_angle_beta 90.000000
_cell_angle_gamma 90.000000
_cell_volume 1706.571083
_symmetry_space_group_name_H-M "P B A N"
_symmetry_group_IT_number 50
_space_group.IT_coordinate_system_code '2'
_symmetry_cell_setting 'orthorhombic'
loop_
_space_group_symop_operation_xyz
x,y,z
1/2-x,1/2-y,z
x,1/2-y,-z
1/2-x,y,-z
-x,-y,-z
1/2+x,1/2+y,-z
-x,1/2+y,z
1/2+x,-y,z
loop_
_atom_site_type_symbol
_atom_site_label
_atom_site_fract_x
_atom_site_fract_y
_atom_site_fract_z
Si Si1 0.999478 0.637082 0.201854
Si Si2 0.891878 0.771958 0.320901
Si Si3 0.370892 0.097282 0.104203
Si Si4 0.227012 0.560849 0.176091
Si Si5 0.122063 0.480005 0.595463
O O1 0.970783 0.720544 0.207702
O O2 0.904778 0.594817 0.315950
O O3 0.134316 0.615148 0.259282
O O4 0.976557 0.605536 0.026540
O O5 0.750000 0.750000 0.306684
O O6 0.929492 0.750000 0.500000
O O7 0.896419 0.852776 0.255756
O O8 0.343179 0.015877 0.154609
O O9 0.250000 0.121100 0.000000
O O10 0.348144 0.540481 0.272229
O O11 0.250000 0.588333 0.000000
O O12 0.250000 0.475563 0.500000
O O13 0.000000 0.500000 0.500000
#
# Coordination Sequence:
#
# PCOD9397898 Si02
#       5
#     8   8   8   8   8
#     4  12  24  40  70 104 138 188 241 299 373 432
#     4  11  24  39  62 101 144 186 236 304 373 436
#     4  11  21  40  67  97 143 179 239 302 363 433
#     4  11  24  45  69 107 140 190 245 305 371 449
#     4  12  25  41  66 106 153 185 236 302 376 432
#
# _framework density 23.438814000000001
#
# number of rings (size 3 to 8) (size 9 to 14) (size 15 to 20)
#    0.000    0.600    8.000    1.200    5.600    0.000 
#    0.000    0.000    0.000    2.400    0.000    0.000 
#    0.000    0.000    0.000    0.000    0.000    0.000 
#
# Total GULP energy -223885.054418 kJ/mol
# GULP energy per Si atom -5597.126360 kJ/mol
# Density = 2.338547 g / cm^3
# Si number density = 23.438814 Si / 1000 Ang^3
#
#
#
# Elastic Constant Matrix: (Units=GPa)
#
#
# Indices 1 2 3 4 5 6 
#
# 1 108.5306 25.6922 27.2157 0.0000 0.0000 0.0000
# 2 25.6922 59.5206 8.9471 0.0000 0.0000 0.0000
# 3 27.2157 8.9471 91.5606 0.0000 0.0000 0.0000
# 4 0.0000 0.0000 0.0000 30.2841 0.0000 0.0000
# 5 0.0000 0.0000 0.0000 0.0000 41.5570 0.0000
# 6 0.0000 0.0000 0.0000 0.0000 0.0000 28.1008
#
#
#
# Elastic Compliance Matrix: (Units=1/GPa)
#
#
# Indices 1 2 3 4 5 6 
#
# 1 0.010942 -0.004297 -0.002832 0.000000 0.000000 0.000000
# 2 -0.004297 0.018739 -0.000554 0.000000 0.000000 0.000000
# 3 -0.002832 -0.000554 0.011818 0.000000 0.000000 0.000000
# 4 0.000000 0.000000 0.000000 0.033021 0.000000 0.000000
# 5 0.000000 0.000000 0.000000 0.000000 0.024063 0.000000
# 6 0.000000 0.000000 0.000000 0.000000 0.000000 0.035586
#
#
# Mechanical properties :
#
#
# Convention : Reuss Voigt Hill
#
# Bulk Modulus (GPa) = 38.26792 42.59130 40.42961
# Shear Modulus (GPa) = 31.59642 33.17215 32.38429
#
# Velocity S-wave (km/s) = 3.67555 3.76608 3.72109
# Velocity P-wave (km/s) = 5.86302 6.09277 5.97900
#
# Compressibility (1/GPa) = 0.02613155
#
# Stress axis : x y z
#
# Youngs Moduli (GPa) = 91.39503 53.36454 84.61848
#
# Poissons Ratio (x) = 0.22932 0.23967
# Poissons Ratio (y) = 0.39274 0.04686
# Poissons Ratio (z) = 0.25886 0.02956
#
# Static dielectric constant tensor:
#      x y z
#    x 1.921560 0.000000 0.000000 
#    y 0.000000 1.835080 0.000000 
#    z 0.000000 0.000000 1.994900 
# 
# From -- ./inp_files/11047.got.cif
#   From: 2010.05.17/outbox.cif.g08.bks.cpg/sg50_6_cif.got.tgz:11047.got - 2010.06.03 11:33:33.
