data_PCOD9397204
_publ_section_title
;
Structure prediction by ZEFSAII (Michael W. Deem and Ramdas Pophale) SiO2 
 PCOD9397204
Probable space group: P B A N
;
_chemical_formula_sum "Si O2"
_cell_formula_units_Z 36
_cell_length_a 8.093063
_cell_length_b 13.432675
_cell_length_c 14.083868
_cell_angle_alpha 90.000000
_cell_angle_beta 90.000000
_cell_angle_gamma 90.000000
_cell_volume 1531.078205
_symmetry_space_group_name_H-M "P B A N"
_symmetry_group_IT_number 50
_space_group.IT_coordinate_system_code '2'
_symmetry_cell_setting 'orthorhombic'
loop_
_space_group_symop_operation_xyz
x,y,z
1/2-x,1/2-y,z
x,1/2-y,-z
1/2-x,y,-z
-x,-y,-z
1/2+x,1/2+y,-z
-x,1/2+y,z
1/2+x,-y,z
loop_
_atom_site_type_symbol
_atom_site_label
_atom_site_fract_x
_atom_site_fract_y
_atom_site_fract_z
Si Si1 0.404541 0.904636 0.124407
Si Si2 0.518771 0.375500 0.912805
Si Si3 0.750000 0.978354 0.500000
Si Si4 0.057378 0.654198 0.571041
Si Si5 0.432840 0.239476 0.748053
O O1 0.211079 0.878438 0.119516
O O2 0.494073 0.865825 0.219117
O O3 0.431023 0.021158 0.111712
O O4 0.480473 0.862141 0.025793
O O5 0.430449 0.296722 0.847373
O O6 0.686498 0.061849 0.425022
O O7 0.606240 0.906043 0.537095
O O8 0.078962 0.750000 0.500000
O O9 0.045879 0.704168 0.673234
O O10 0.250000 0.250000 0.706196
#
# Coordination Sequence:
#
# PCOD9397204 Si02
#       5
#     8   8   4   8   8
#     4  10  22  41  62  90 127 170 218 273 329 394
#     4  10  22  40  63  90 127 170 218 271 330 397
#     4  10  24  46  72  94 130 176 218 274 342 404
#     4  11  25  46  69  98 132 171 220 277 337 405
#     4  12  25  39  63  94 129 170 214 268 329 396
#
# _framework density 23.512841000000002
#
# number of rings (size 3 to 8) (size 9 to 14) (size 15 to 20)
#    0.000    1.333    0.000    4.667    0.000   16.000 
#    0.000    0.000    0.000    0.000    0.000    0.000 
#    0.000    0.000    0.000    0.000    0.000    0.000 
#
# Total GULP energy -201119.371167 kJ/mol
# GULP energy per Si atom -5586.649199 kJ/mol
# Density = 2.345933 g / cm^3
# Si number density = 23.512841 Si / 1000 Ang^3
#
#
#
# Elastic Constant Matrix: (Units=GPa)
#
#
# Indices 1 2 3 4 5 6 
#
# 1 54.3092 26.5547 15.7935 0.0000 0.0000 0.0000
# 2 26.5547 118.5151 39.2988 0.0000 0.0000 0.0000
# 3 15.7935 39.2988 61.5819 0.0000 0.0000 0.0000
# 4 0.0000 0.0000 0.0000 39.6715 0.0000 0.0000
# 5 0.0000 0.0000 0.0000 0.0000 11.5824 0.0000
# 6 0.0000 0.0000 0.0000 0.0000 0.0000 30.1313
#
#
#
# Elastic Compliance Matrix: (Units=1/GPa)
#
#
# Indices 1 2 3 4 5 6 
#
# 1 0.021118 -0.003724 -0.003040 0.000000 0.000000 0.000000
# 2 -0.003724 0.011359 -0.006294 0.000000 0.000000 0.000000
# 3 -0.003040 -0.006294 0.021035 0.000000 0.000000 0.000000
# 4 0.000000 0.000000 0.000000 0.025207 0.000000 0.000000
# 5 0.000000 0.000000 0.000000 0.000000 0.086338 0.000000
# 6 0.000000 0.000000 0.000000 0.000000 0.000000 0.033188
#
#
# Mechanical properties :
#
#
# Convention : Reuss Voigt Hill
#
# Bulk Modulus (GPa) = 36.50037 44.18891 40.34464
# Shear Modulus (GPa) = 21.41409 26.46099 23.93754
#
# Velocity S-wave (km/s) = 3.02112 3.35831 3.19417
# Velocity P-wave (km/s) = 5.26563 5.81997 5.54972
#
# Compressibility (1/GPa) = 0.02739698
#
# Stress axis : x y z
#
# Youngs Moduli (GPa) = 47.35352 88.03511 47.54082
#
# Poissons Ratio (x) = 0.32782 0.14450
# Poissons Ratio (y) = 0.17633 0.29922
# Poissons Ratio (z) = 0.14393 0.55408
#
# Static dielectric constant tensor:
#      x y z
#    x 1.985690 0.000000 0.000000 
#    y 0.000000 1.891500 0.000000 
#    z 0.000000 0.000000 1.848970 
# 
# From -- ./inp_files/24561.got.cif
#   From: 2010.05.17/outbox.cif.g08.bks.cpg/sg50_13_cif.got.tgz:24561.got - 2010.06.03 11:33:33.
