data_PCOD9397247
_publ_section_title
;
Structure prediction by ZEFSAII (Michael W. Deem and Ramdas Pophale) SiO2 
 PCOD9397247
Probable space group: P B A N
;
_chemical_formula_sum "Si O2"
_cell_formula_units_Z 58
_cell_length_a 10.478056
_cell_length_b 28.738910
_cell_length_c 9.616974
_cell_angle_alpha 90.000000
_cell_angle_beta 90.000000
_cell_angle_gamma 90.000000
_cell_volume 2895.939265
_symmetry_space_group_name_H-M "P B A N"
_symmetry_group_IT_number 50
_space_group.IT_coordinate_system_code '2'
_symmetry_cell_setting 'orthorhombic'
loop_
_space_group_symop_operation_xyz
x,y,z
1/2-x,1/2-y,z
x,1/2-y,-z
1/2-x,y,-z
-x,-y,-z
1/2+x,1/2+y,-z
-x,1/2+y,z
1/2+x,-y,z
loop_
_atom_site_type_symbol
_atom_site_label
_atom_site_fract_x
_atom_site_fract_y
_atom_site_fract_z
Si Si1 0.076097 0.443730 0.862209
Si Si2 0.853278 0.358018 0.274771
Si Si3 0.054200 0.638865 0.254733
Si Si4 0.927675 0.834929 0.466436
Si Si5 0.798406 0.927531 0.352296
Si Si6 0.250000 0.250000 0.500000
Si Si7 0.020906 0.949930 0.169442
Si Si8 0.095004 0.802834 0.010688
O O1 0.198113 0.426557 0.774302
O O2 0.965092 0.415624 0.781010
O O3 0.079812 0.499524 0.853973
O O4 0.049926 0.434458 0.025987
O O5 0.702335 0.351889 0.290425
O O6 0.921682 0.326088 0.158849
O O7 0.929706 0.342412 0.409580
O O8 0.882075 0.410291 0.221018
O O9 0.952982 0.655919 0.369821
O O10 0.035018 0.666936 0.111644
O O11 0.849357 0.876418 0.393485
O O12 0.851434 0.787406 0.435763
O O13 0.750000 0.947414 0.500000
O O14 0.917922 0.954979 0.291331
O O15 0.051491 0.750000 0.000000
O O16 0.250000 0.803388 0.000000
#
# Coordination Sequence:
#
# PCOD9397247 Si02
#       8
#     8   8   8   8   8   2   8   8
#     4  11  22  40  64  92 125 169 218 269 325 389
#     4  10  22  41  62  95 131 164 211 269 327 385
#     4  11  21  40  66  94 129 169 205 273 328 388
#     4  11  24  43  64  91 128 168 216 263 324 382
#     4  11  22  44  60  86 130 168 210 265 322 380
#     4  12  24  44  70  90 120 180 216 260 308 396
#     4  10  24  39  63  93 124 170 219 267 324 392
#     4   9  19  36  60  89 125 161 200 255 325 390
#
# _framework density 20.028044000000001
#
# number of rings (size 3 to 8) (size 9 to 14) (size 15 to 20)
#    0.000    1.517    3.448    0.828    3.862    0.552 
#    0.000    0.690    0.000    0.828    0.000    0.000 
#    0.000    0.000    0.000    0.000    0.000    0.000 
#
# Total GULP energy -322957.708182 kJ/mol
# GULP energy per Si atom -5568.236348 kJ/mol
# Density = 1.998246 g / cm^3
# Si number density = 20.028044 Si / 1000 Ang^3
#
#
#
# Elastic Constant Matrix: (Units=GPa)
#
#
# Indices 1 2 3 4 5 6 
#
# 1 59.3702 6.6662 19.0657 0.0000 0.0000 0.0000
# 2 6.6662 85.4880 18.9477 0.0000 0.0000 0.0000
# 3 19.0657 18.9477 85.2210 0.0000 0.0000 0.0000
# 4 0.0000 0.0000 0.0000 5.7148 0.0000 0.0000
# 5 0.0000 0.0000 0.0000 0.0000 26.5265 0.0000
# 6 0.0000 0.0000 0.0000 0.0000 0.0000 12.6170
#
#
#
# Elastic Compliance Matrix: (Units=1/GPa)
#
#
# Indices 1 2 3 4 5 6 
#
# 1 0.018171 -0.000543 -0.003945 0.000000 0.000000 0.000000
# 2 -0.000543 0.012320 -0.002618 0.000000 0.000000 0.000000
# 3 -0.003945 -0.002618 0.013199 0.000000 0.000000 0.000000
# 4 0.000000 0.000000 0.000000 0.174985 0.000000 0.000000
# 5 0.000000 0.000000 0.000000 0.000000 0.037698 0.000000
# 6 0.000000 0.000000 0.000000 0.000000 0.000000 0.079258
#
#
# Mechanical properties :
#
#
# Convention : Reuss Voigt Hill
#
# Bulk Modulus (GPa) = 33.92151 35.49315 34.70733
# Shear Modulus (GPa) = 13.90168 21.33161 17.61665
#
# Velocity S-wave (km/s) = 2.63746 3.26711 2.96902
# Velocity P-wave (km/s) = 5.12335 5.65616 5.39633
#
# Compressibility (1/GPa) = 0.02947982
#
# Stress axis : x y z
#
# Youngs Moduli (GPa) = 55.03229 81.16829 75.76493
#
# Poissons Ratio (x) = 0.04405 0.29886
# Poissons Ratio (y) = 0.02986 0.19834
# Poissons Ratio (z) = 0.21708 0.21248
#
# Static dielectric constant tensor:
#      x y z
#    x 1.745680 0.000000 0.000000 
#    y 0.000000 1.705390 0.000000 
#    z 0.000000 0.000000 1.759270 
# 
# From -- ./inp_files/11760.got.cif
#   From: 2010.05.17/outbox.cif.g08.bks.cpg/sg50_6_cif.got.tgz:11760.got - 2010.06.03 11:33:33.
