data_PCOD9397381
_publ_section_title
;
Structure prediction by ZEFSAII (Michael W. Deem and Ramdas Pophale) SiO2 
 PCOD9397381
Probable space group: P B A N
;
_chemical_formula_sum "Si O2"
_cell_formula_units_Z 28
_cell_length_a 10.932517
_cell_length_b 20.696586
_cell_length_c 5.065057
_cell_angle_alpha 90.000000
_cell_angle_beta 90.000000
_cell_angle_gamma 90.000000
_cell_volume 1146.049064
_symmetry_space_group_name_H-M "P B A N"
_symmetry_group_IT_number 50
_space_group.IT_coordinate_system_code '2'
_symmetry_cell_setting 'orthorhombic'
loop_
_space_group_symop_operation_xyz
x,y,z
1/2-x,1/2-y,z
x,1/2-y,-z
1/2-x,y,-z
-x,-y,-z
1/2+x,1/2+y,-z
-x,1/2+y,z
1/2+x,-y,z
loop_
_atom_site_type_symbol
_atom_site_label
_atom_site_fract_x
_atom_site_fract_y
_atom_site_fract_z
Si Si1 0.128460 0.408004 0.388727
Si Si2 0.980490 0.292629 0.257109
Si Si3 0.250000 0.637983 0.500000
Si Si4 0.083288 0.961927 0.781694
O O1 0.250000 0.376014 0.500000
O O2 0.169385 0.476059 0.272182
O O3 0.061804 0.356212 0.204454
O O4 0.023760 0.433238 0.590563
O O5 0.031986 0.250000 0.500000
O O6 0.851311 0.319190 0.357768
O O7 0.969499 0.250000 0.000000
O O8 0.317982 0.595242 0.726828
O O9 0.000000 0.000000 0.000000
#
# Coordination Sequence:
#
# PCOD9397381 Si02
#       4
#     8   8   4   8
#     4  10  23  46  69 107 145 189 247 307 384 447
#     4  11  27  50  72 108 150 202 257 305 372 461
#     4  10  23  48  74 112 151 194 256 328 386 456
#     4  10  22  44  71 110 144 185 243 315 391 456
#
# _framework density 24.431764999999999
#
# number of rings (size 3 to 8) (size 9 to 14) (size 15 to 20)
#    0.000    1.714    1.429    0.429    8.000    4.000 
#   10.286    1.429    0.000    0.000    0.000    0.000 
#    0.000    0.000    0.000    0.000    0.000    0.000 
#
# Total GULP energy -155886.658958 kJ/mol
# GULP energy per Si atom -5567.380677 kJ/mol
# Density = 2.437616 g / cm^3
# Si number density = 24.431765 Si / 1000 Ang^3
#
#
#
# Elastic Constant Matrix: (Units=GPa)
#
#
# Indices 1 2 3 4 5 6 
#
# 1 97.2448 43.9178 15.6078 0.0000 0.0000 0.0000
# 2 43.9178 165.3388 64.7817 0.0000 0.0000 0.0000
# 3 15.6078 64.7817 110.1911 0.0000 0.0000 0.0000
# 4 0.0000 0.0000 0.0000 20.9668 0.0000 0.0000
# 5 0.0000 0.0000 0.0000 0.0000 29.2054 0.0000
# 6 0.0000 0.0000 0.0000 0.0000 0.0000 184.1095
#
#
#
# Elastic Compliance Matrix: (Units=1/GPa)
#
#
# Indices 1 2 3 4 5 6 
#
# 1 0.011689 -0.003191 0.000220 0.000000 0.000000 0.000000
# 2 -0.003191 0.008730 -0.004680 0.000000 0.000000 0.000000
# 3 0.000220 -0.004680 0.011795 0.000000 0.000000 0.000000
# 4 0.000000 0.000000 0.000000 0.047694 0.000000 0.000000
# 5 0.000000 0.000000 0.000000 0.000000 0.034240 0.000000
# 6 0.000000 0.000000 0.000000 0.000000 0.000000 0.005432
#
#
# Mechanical properties :
#
#
# Convention : Reuss Voigt Hill
#
# Bulk Modulus (GPa) = 59.12865 69.04325 64.08595
# Shear Modulus (GPa) = 35.58218 63.42082 49.50150
#
# Velocity S-wave (km/s) = 3.82041 5.10046 4.50612
# Velocity P-wave (km/s) = 6.61171 7.93771 7.30486
#
# Compressibility (1/GPa) = 0.01691228
#
# Stress axis : x y z
#
# Youngs Moduli (GPa) = 85.54899 114.55266 84.77897
#
# Poissons Ratio (x) = 0.36557 -0.01869
# Poissons Ratio (y) = 0.27301 0.39678
# Poissons Ratio (z) = -0.01886 0.53612
#
# Static dielectric constant tensor:
#      x y z
#    x 2.017290 0.000000 0.000000 
#    y 0.000000 1.963610 0.000000 
#    z 0.000000 0.000000 2.206450 
# 
# From -- ./inp_files/1852.got.cif
#   From: 2010.05.17/outbox.cif.g08.bks.cpg/sg50_1_cif.got.tgz:1852.got - 2010.06.03 11:33:33.
