data_PCOD9397393
_publ_section_title
;
Structure prediction by ZEFSAII (Michael W. Deem and Ramdas Pophale) SiO2 
 PCOD9397393
Probable space group: P B A N
;
_chemical_formula_sum "Si O2"
_cell_formula_units_Z 40
_cell_length_a 20.156264
_cell_length_b 9.287999
_cell_length_c 10.687569
_cell_angle_alpha 90.000000
_cell_angle_beta 90.000000
_cell_angle_gamma 90.000000
_cell_volume 2000.834326
_symmetry_space_group_name_H-M "P B A N"
_symmetry_group_IT_number 50
_space_group.IT_coordinate_system_code '2'
_symmetry_cell_setting 'orthorhombic'
loop_
_space_group_symop_operation_xyz
x,y,z
1/2-x,1/2-y,z
x,1/2-y,-z
1/2-x,y,-z
-x,-y,-z
1/2+x,1/2+y,-z
-x,1/2+y,z
1/2+x,-y,z
loop_
_atom_site_type_symbol
_atom_site_label
_atom_site_fract_x
_atom_site_fract_y
_atom_site_fract_z
Si Si1 0.750000 0.989568 0.000000
Si Si2 0.360988 0.250000 0.000000
Si Si3 0.446834 0.154250 0.211996
Si Si4 0.431944 0.821009 0.140750
Si Si5 0.288903 0.624061 0.745746
Si Si6 0.814880 0.672554 0.633052
O O1 0.685865 0.887668 0.987818
O O2 0.748703 0.076629 0.128732
O O3 0.410161 0.241147 0.885750
O O4 0.518887 0.223419 0.224539
O O5 0.391325 0.166478 0.319557
O O6 0.451344 0.991893 0.154203
O O7 0.358824 0.823152 0.199116
O O8 0.432531 0.750000 0.000000
O O9 0.250000 0.750000 0.681155
O O10 0.295913 0.492541 0.651594
O O11 0.750000 0.750000 0.701186
O O12 0.816760 0.750000 0.500000
#
# Coordination Sequence:
#
# PCOD9397393 Si02
#       6
#     4   4   8   8   8   8
#     4  11  19  34  58  92 132 160 208 258 320 394
#     4  11  20  32  58  86 127 160 212 248 311 388
#     4  11  23  36  57  90 123 170 215 250 314 376
#     4  11  22  37  54  91 137 172 196 252 322 384
#     4  11  23  37  62  98 129 164 208 267 330 375
#     4  10  22  45  67  86 118 167 219 265 311 377
#
# _framework density 19.991661000000001
#
# number of rings (size 3 to 8) (size 9 to 14) (size 15 to 20)
#    0.000    1.200    5.000    3.300    0.000    1.600 
#    0.000    6.000    0.000    0.000    0.000    0.000 
#    0.000    0.000    0.000    0.000    0.000    0.000 
#
# Total GULP energy -222676.546310 kJ/mol
# GULP energy per Si atom -5566.913658 kJ/mol
# Density = 1.994616 g / cm^3
# Si number density = 19.991661 Si / 1000 Ang^3
#
#
#
# Elastic Constant Matrix: (Units=GPa)
#
#
# Indices 1 2 3 4 5 6 
#
# 1 89.0890 60.9711 9.0050 0.0000 0.0000 0.0000
# 2 60.9711 113.8885 43.0270 0.0000 0.0000 0.0000
# 3 9.0050 43.0270 69.1344 0.0000 0.0000 0.0000
# 4 0.0000 0.0000 0.0000 -51.7432 0.0000 0.0000
# 5 0.0000 0.0000 0.0000 0.0000 17.5100 0.0000
# 6 0.0000 0.0000 0.0000 0.0000 0.0000 41.9321
#
#
#
# Elastic Compliance Matrix: (Units=1/GPa)
#
#
# Indices 1 2 3 4 5 6 
#
# 1 0.018966 -0.012055 0.005032 0.000000 0.000000 0.000000
# 2 -0.012055 0.019142 -0.010343 0.000000 0.000000 0.000000
# 3 0.005032 -0.010343 0.020246 0.000000 0.000000 0.000000
# 4 0.000000 0.000000 0.000000 -0.019326 0.000000 0.000000
# 5 0.000000 0.000000 0.000000 0.000000 0.057110 0.000000
# 6 0.000000 0.000000 0.000000 0.000000 0.000000 0.023848
#
#
# Mechanical properties :
#
#
# Convention : Reuss Voigt Hill
#
# Bulk Modulus (GPa) = 42.33197 55.34645 48.83921
# Shear Modulus (GPa) = 30.75176 12.14703 21.44940
#
# Velocity S-wave (km/s) = 3.92628 2.46764 3.27909
# Velocity P-wave (km/s) = 6.46336 5.98864 6.23053
#
# Compressibility (1/GPa) = 0.02362281
#
# Stress axis : x y z
#
# Youngs Moduli (GPa) = 52.72523 52.24172 49.39174
#
# Poissons Ratio (x) = 0.62977 -0.24855
# Poissons Ratio (y) = 0.63560 0.51086
# Poissons Ratio (z) = -0.26532 0.54034
#
# Static dielectric constant tensor:
#      x y z
#    x 1.527350 0.000000 0.000000 
#    y 0.000000 1.719770 0.000000 
#    z 0.000000 0.000000 1.723310 
# 
# From -- ./inp_files/22252.got.cif
#   From: 2010.05.17/outbox.cif.g08.bks.cpg/sg50_12_cif.got.tgz:22252.got - 2010.06.03 11:33:33.
