data_PCOD9397303
_publ_section_title
;
Structure prediction by ZEFSAII (Michael W. Deem and Ramdas Pophale) SiO2 
 PCOD9397303
Probable space group: P B A N
;
_chemical_formula_sum "Si O2"
_cell_formula_units_Z 58
_cell_length_a 9.591793
_cell_length_b 10.482148
_cell_length_c 24.537129
_cell_angle_alpha 90.000000
_cell_angle_beta 90.000000
_cell_angle_gamma 90.000000
_cell_volume 2467.026594
_symmetry_space_group_name_H-M "P B A N"
_symmetry_group_IT_number 50
_space_group.IT_coordinate_system_code '2'
_symmetry_cell_setting 'orthorhombic'
loop_
_space_group_symop_operation_xyz
x,y,z
1/2-x,1/2-y,z
x,1/2-y,-z
1/2-x,y,-z
-x,-y,-z
1/2+x,1/2+y,-z
-x,1/2+y,z
1/2+x,-y,z
loop_
_atom_site_type_symbol
_atom_site_label
_atom_site_fract_x
_atom_site_fract_y
_atom_site_fract_z
Si Si1 0.731730 0.904578 0.301186
Si Si2 0.600545 0.283004 0.841488
Si Si3 0.750000 0.750000 0.000000
Si Si4 0.984001 0.004689 0.370418
Si Si5 0.749402 0.039492 0.923161
Si Si6 0.917347 0.256268 0.437102
Si Si7 0.972124 0.661808 0.064487
Si Si8 0.826622 0.885801 0.185410
O O1 0.750000 0.750000 0.302160
O O2 0.765760 0.947291 0.239799
O O3 0.838722 0.963450 0.344190
O O4 0.583447 0.954286 0.320764
O O5 0.750000 0.250000 0.815706
O O6 0.647682 0.356600 0.896418
O O7 0.506431 0.174018 0.870900
O O8 0.491234 0.360236 0.806522
O O9 0.879959 0.717420 0.955752
O O10 0.037266 0.884684 0.405847
O O11 0.972526 0.130553 0.407071
O O12 0.852777 0.940376 0.951365
O O13 0.694824 0.966862 0.868911
O O14 0.623212 0.109963 0.954546
O O15 0.750000 0.250000 0.436274
O O16 0.964280 0.250000 0.500000
O O17 0.750000 0.750000 0.179279
#
# Coordination Sequence:
#
# PCOD9397303 Si02
#       8
#     8   8   2   8   8   8   8   8
#     4  11  26  42  65  98 147 187 225 282 366 427
#     4  10  22  42  66  98 131 170 222 281 325 383
#     4  12  28  44  66  96 134 172 210 272 360 420
#     4  12  23  47  66  99 146 186 229 304 367 422
#     4  11  22  41  71  95 127 172 221 277 324 383
#     4  11  24  43  72 103 133 184 248 304 359 429
#     4  11  24  44  67  94 130 168 215 277 339 395
#     4  11  22  41  67 102 136 177 227 275 326 420
#
# _framework density 23.510083999999999
#
# number of rings (size 3 to 8) (size 9 to 14) (size 15 to 20)
#    0.000    0.966    5.517    1.241    1.931    0.552 
#    2.483    3.793    0.000    0.000    0.000    0.000 
#    0.000    0.000    0.000    0.000    0.000    0.000 
#
# Total GULP energy -323552.116239 kJ/mol
# GULP energy per Si atom -5578.484763 kJ/mol
# Density = 2.345657 g / cm^3
# Si number density = 23.510084 Si / 1000 Ang^3
#
#
#
# Elastic Constant Matrix: (Units=GPa)
#
#
# Indices 1 2 3 4 5 6 
#
# 1 139.6485 21.9104 19.9993 0.0000 0.0000 0.0000
# 2 21.9104 111.2710 40.0621 0.0000 0.0000 0.0000
# 3 19.9993 40.0621 98.4488 0.0000 0.0000 0.0000
# 4 0.0000 0.0000 0.0000 46.7295 0.0000 0.0000
# 5 0.0000 0.0000 0.0000 0.0000 19.3802 0.0000
# 6 0.0000 0.0000 0.0000 0.0000 0.0000 24.7381
#
#
#
# Elastic Compliance Matrix: (Units=1/GPa)
#
#
# Indices 1 2 3 4 5 6 
#
# 1 0.007486 -0.001086 -0.001079 0.000000 0.000000 0.000000
# 2 -0.001086 0.010687 -0.004128 0.000000 0.000000 0.000000
# 3 -0.001079 -0.004128 0.012057 0.000000 0.000000 0.000000
# 4 0.000000 0.000000 0.000000 0.021400 0.000000 0.000000
# 5 0.000000 0.000000 0.000000 0.000000 0.051599 0.000000
# 6 0.000000 0.000000 0.000000 0.000000 0.000000 0.040423
#
#
# Mechanical properties :
#
#
# Convention : Reuss Voigt Hill
#
# Bulk Modulus (GPa) = 56.67721 57.03465 56.85593
# Shear Modulus (GPa) = 30.84154 35.99601 33.41877
#
# Velocity S-wave (km/s) = 3.62587 3.91716 3.77432
# Velocity P-wave (km/s) = 6.45671 6.69112 6.57496
#
# Compressibility (1/GPa) = 0.01764378
#
# Stress axis : x y z
#
# Youngs Moduli (GPa) = 133.58863 93.56952 82.94107
#
# Poissons Ratio (x) = 0.10157 0.08949
# Poissons Ratio (y) = 0.14502 0.34242
# Poissons Ratio (z) = 0.14413 0.38630
#
# Static dielectric constant tensor:
#      x y z
#    x 2.067770 0.000000 0.000000 
#    y 0.000000 -0.002820 0.000000 
#    z 0.000000 0.000000 1.875750 
# 
# From -- ./inp_files/32147.got.cif
#   From: 2010.05.17/outbox.cif.g08.bks.cpg/sg50_17_cif.got.tgz:32147.got - 2010.06.03 11:33:33.
