data_PCOD9397883
_publ_section_title
;
Structure prediction by ZEFSAII (Michael W. Deem and Ramdas Pophale) SiO2 
 PCOD9397883
Probable space group: P B A N
;
_chemical_formula_sum "Si O2"
_cell_formula_units_Z 48
_cell_length_a 16.568593
_cell_length_b 13.943552
_cell_length_c 10.226603
_cell_angle_alpha 90.000000
_cell_angle_beta 90.000000
_cell_angle_gamma 90.000000
_cell_volume 2362.601347
_symmetry_space_group_name_H-M "P B A N"
_symmetry_group_IT_number 50
_space_group.IT_coordinate_system_code '2'
_symmetry_cell_setting 'orthorhombic'
loop_
_space_group_symop_operation_xyz
x,y,z
1/2-x,1/2-y,z
x,1/2-y,-z
1/2-x,y,-z
-x,-y,-z
1/2+x,1/2+y,-z
-x,1/2+y,z
1/2+x,-y,z
loop_
_atom_site_type_symbol
_atom_site_label
_atom_site_fract_x
_atom_site_fract_y
_atom_site_fract_z
Si Si1 0.870332 0.544465 0.743311
Si Si2 0.847479 0.639363 0.480093
Si Si3 0.593065 0.147075 0.875520
Si Si4 0.174719 0.824057 0.150083
Si Si5 0.317605 0.460528 0.217412
Si Si6 0.581433 0.638950 0.001720
O O1 0.885124 0.576868 0.596206
O O2 0.884958 0.433139 0.771945
O O3 0.776652 0.566233 0.776672
O O4 0.921266 0.601196 0.850997
O O5 0.871821 0.750000 0.500000
O O6 0.750000 0.636148 0.500000
O O7 0.861104 0.593827 0.337624
O O8 0.599964 0.253982 0.818611
O O9 0.505807 0.129909 0.935628
O O10 0.656015 0.145610 0.998733
O O11 0.250000 0.750000 0.169862
O O12 0.179092 0.923727 0.226011
O O13 0.357486 0.424600 0.083637
O O14 0.606310 0.750000 0.000000
#
# Coordination Sequence:
#
# PCOD9397883 Si02
#       6
#     8   8   8   8   8   8
#     4  11  22  38  63  89 120 160 212 255 309 369
#     4   9  20  41  62  85 126 167 202 255 315 365
#     4  11  22  37  59  91 128 166 196 254 320 361
#     4  11  21  38  66  90 126 163 202 251 313 366
#     4  11  23  38  65  94 117 164 215 252 309 369
#     4  12  24  36  58  93 126 159 206 259 305 368
#
# _framework density 20.316587999999999
#
# number of rings (size 3 to 8) (size 9 to 14) (size 15 to 20)
#    0.000    1.167    5.000    3.000    0.000    2.667 
#    0.000    1.667    0.000    2.000    0.000    0.000 
#    0.000    0.000    0.000    0.000    0.000    0.000 
#
# Total GULP energy -267978.444242 kJ/mol
# GULP energy per Si atom -5582.884255 kJ/mol
# Density = 2.027035 g / cm^3
# Si number density = 20.316588 Si / 1000 Ang^3
#
#
#
# Elastic Constant Matrix: (Units=GPa)
#
#
# Indices 1 2 3 4 5 6 
#
# 1 55.1762 4.8032 -3.1068 0.0000 0.0000 0.0000
# 2 4.8032 143.8029 50.0728 0.0000 0.0000 0.0000
# 3 -3.1068 50.0728 78.7219 0.0000 0.0000 0.0000
# 4 0.0000 0.0000 0.0000 33.8286 0.0000 0.0000
# 5 0.0000 0.0000 0.0000 0.0000 9.8408 0.0000
# 6 0.0000 0.0000 0.0000 0.0000 0.0000 19.0144
#
#
#
# Elastic Compliance Matrix: (Units=1/GPa)
#
#
# Indices 1 2 3 4 5 6 
#
# 1 0.018301 -0.001108 0.001427 0.000000 0.000000 0.000000
# 2 -0.001108 0.008999 -0.005768 0.000000 0.000000 0.000000
# 3 0.001427 -0.005768 0.016428 0.000000 0.000000 0.000000
# 4 0.000000 0.000000 0.000000 0.029561 0.000000 0.000000
# 5 0.000000 0.000000 0.000000 0.000000 0.101618 0.000000
# 6 0.000000 0.000000 0.000000 0.000000 0.000000 0.052592
#
#
# Mechanical properties :
#
#
# Convention : Reuss Voigt Hill
#
# Bulk Modulus (GPa) = 30.45996 42.35994 36.40995
# Shear Modulus (GPa) = 20.05294 27.59889 23.82591
#
# Velocity S-wave (km/s) = 3.14510 3.68970 3.42823
# Velocity P-wave (km/s) = 5.31169 6.24876 5.79919
#
# Compressibility (1/GPa) = 0.03282998
#
# Stress axis : x y z
#
# Youngs Moduli (GPa) = 54.64308 111.11819 60.87116
#
# Poissons Ratio (x) = 0.12314 -0.08687
# Poissons Ratio (y) = 0.06056 0.35111
# Poissons Ratio (z) = -0.07798 0.64093
#
# Static dielectric constant tensor:
#      x y z
#    x 1.776800 0.000000 0.000000 
#    y 0.000000 1.759860 0.000000 
#    z 0.000000 0.000000 1.698400 
# 
# From -- ./inp_files/14253.got.cif
#   From: 2010.05.17/outbox.cif.g08.bks.cpg/sg50_8_cif.got.tgz:14253.got - 2010.06.03 11:33:33.
