data_PCOD9397521
_publ_section_title
;
Structure prediction by ZEFSAII (Michael W. Deem and Ramdas Pophale) SiO2 
 PCOD9397521
Probable space group: P B A N
;
_chemical_formula_sum "Si O2"
_cell_formula_units_Z 32
_cell_length_a 20.051081
_cell_length_b 14.258909
_cell_length_c 4.865788
_cell_angle_alpha 90.000000
_cell_angle_beta 90.000000
_cell_angle_gamma 90.000000
_cell_volume 1391.160608
_symmetry_space_group_name_H-M "P B A N"
_symmetry_group_IT_number 50
_space_group.IT_coordinate_system_code '2'
_symmetry_cell_setting 'orthorhombic'
loop_
_space_group_symop_operation_xyz
x,y,z
1/2-x,1/2-y,z
x,1/2-y,-z
1/2-x,y,-z
-x,-y,-z
1/2+x,1/2+y,-z
-x,1/2+y,z
1/2+x,-y,z
loop_
_atom_site_type_symbol
_atom_site_label
_atom_site_fract_x
_atom_site_fract_y
_atom_site_fract_z
Si Si1 0.930877 0.144623 0.965047
Si Si2 0.562156 0.842182 0.319194
Si Si3 0.392885 0.530540 0.539133
Si Si4 0.705103 0.901095 0.264434
O O1 0.892382 0.430625 0.845009
O O2 0.005706 0.145988 0.089407
O O3 0.904876 0.250000 0.000000
O O4 0.922941 0.110875 0.655172
O O5 0.550982 0.750000 0.500000
O O6 0.637415 0.843843 0.198702
O O7 0.564056 0.935817 0.506413
O O8 0.323520 0.495435 0.409536
O O9 0.750000 0.854900 0.500000
O O10 0.750000 0.916014 0.000000
#
# Coordination Sequence:
#
# PCOD9397521 Si02
#       4
#     8   8   8   8
#     4  12  23  42  66 102 132 170 219 281 336 397
#     4  10  24  41  68 100 140 172 216 265 337 406
#     4  10  24  41  70  92 141 169 221 272 338 377
#     4  10  23  42  67  94 133 177 226 264 321 394
#
# _framework density 23.002374
#
# number of rings (size 3 to 8) (size 9 to 14) (size 15 to 20)
#    1.500    0.000    0.000    5.250    0.000    6.500 
#    0.000    1.250    0.000   11.250    0.000    0.000 
#    0.000    0.000    0.000    0.000    0.000    0.000 
#
# Total GULP energy -178935.980308 kJ/mol
# GULP energy per Si atom -5591.749385 kJ/mol
# Density = 2.295002 g / cm^3
# Si number density = 23.002374 Si / 1000 Ang^3
#
#
#
# Elastic Constant Matrix: (Units=GPa)
#
#
# Indices 1 2 3 4 5 6 
#
# 1 112.5563 -0.0434 21.3015 0.0000 0.0000 0.0000
# 2 -0.0434 112.0630 -12.9956 0.0000 0.0000 0.0000
# 3 21.3015 -12.9956 59.9204 0.0000 0.0000 0.0000
# 4 0.0000 0.0000 0.0000 -18.0816 0.0000 0.0000
# 5 0.0000 0.0000 0.0000 0.0000 27.7602 0.0000
# 6 0.0000 0.0000 0.0000 0.0000 0.0000 -6.7993
#
#
#
# Elastic Compliance Matrix: (Units=1/GPa)
#
#
# Indices 1 2 3 4 5 6 
#
# 1 0.009543 -0.000400 -0.003479 0.000000 0.000000 0.000000
# 2 -0.000400 0.009171 0.002131 0.000000 0.000000 0.000000
# 3 -0.003479 0.002131 0.018388 0.000000 0.000000 0.000000
# 4 0.000000 0.000000 0.000000 -0.055305 0.000000 0.000000
# 5 0.000000 0.000000 0.000000 0.000000 0.036023 0.000000
# 6 0.000000 0.000000 0.000000 0.000000 0.000000 -0.147075
#
#
# Mechanical properties :
#
#
# Convention : Reuss Voigt Hill
#
# Bulk Modulus (GPa) = 29.75716 33.45163 31.60440
# Shear Modulus (GPa) = -43.64593 18.99435 -12.32579
#
# Velocity S-wave (km/s) = -4.36070 2.87671 -2.31735
# Velocity P-wave (km/s) = 3.51989 5.06046 2.57085
#
# Compressibility (1/GPa) = 0.03360536
#
# Stress axis : x y z
#
# Youngs Moduli (GPa) = 104.79199 109.04498 54.38389
#
# Poissons Ratio (x) = 0.04359 0.18921
# Poissons Ratio (y) = 0.04189 -0.11589
# Poissons Ratio (z) = 0.36458 -0.23238
#
# Static dielectric constant tensor:
#      x y z
#    x 1.914410 0.000000 0.000000 
#    y 0.000000 1.859760 0.000000 
#    z 0.000000 0.000000 1.828050 
# 
# From -- ./inp_files/4040.got.cif
#   From: 2010.05.17/outbox.cif.g08.bks.cpg/sg50_3_cif.got.tgz:4040.got - 2010.06.03 11:33:33.
