data_PCOD9397372
_publ_section_title
;
Structure prediction by ZEFSAII (Michael W. Deem and Ramdas Pophale) SiO2 
 PCOD9397372
Probable space group: P B A N
;
_chemical_formula_sum "Si O2"
_cell_formula_units_Z 48
_cell_length_a 12.952007
_cell_length_b 17.205822
_cell_length_c 9.203489
_cell_angle_alpha 90.000000
_cell_angle_beta 90.000000
_cell_angle_gamma 90.000000
_cell_volume 2050.996852
_symmetry_space_group_name_H-M "P B A N"
_symmetry_group_IT_number 50
_space_group.IT_coordinate_system_code '2'
_symmetry_cell_setting 'orthorhombic'
loop_
_space_group_symop_operation_xyz
x,y,z
1/2-x,1/2-y,z
x,1/2-y,-z
1/2-x,y,-z
-x,-y,-z
1/2+x,1/2+y,-z
-x,1/2+y,z
1/2+x,-y,z
loop_
_atom_site_type_symbol
_atom_site_label
_atom_site_fract_x
_atom_site_fract_y
_atom_site_fract_z
Si Si1 0.364841 0.365840 0.663093
Si Si2 0.526332 0.133025 0.903760
Si Si3 0.811299 0.086751 0.647824
Si Si4 0.373856 0.410802 0.350376
Si Si5 0.329217 0.000078 0.121676
Si Si6 0.536051 0.211359 0.212126
O O1 0.413340 0.381734 0.505490
O O2 0.240794 0.372514 0.658553
O O3 0.383366 0.435252 0.779098
O O4 0.423188 0.288630 0.713004
O O5 0.434982 0.107160 0.796266
O O6 0.588386 0.056765 0.947208
O O7 0.580108 0.202509 0.810777
O O8 0.508594 0.174840 0.055871
O O9 0.750000 0.106237 0.500000
O O10 0.732017 0.058926 0.772525
O O11 0.885837 0.154721 0.703778
O O12 0.868061 0.003793 0.625887
O O13 0.250000 0.031459 0.000000
#
# Coordination Sequence:
#
# PCOD9397372 Si02
#       6
#     8   8   8   8   8   8
#     4  10  23  42  68  97 126 168 223 282 324 387
#     4  11  26  43  62  95 138 178 214 268 335 399
#     4  11  22  43  69  99 129 167 221 275 328 388
#     4  10  22  44  67  95 129 167 221 280 332 381
#     4  11  22  41  69  97 126 174 219 272 331 389
#     4  11  26  43  62  97 136 176 218 267 330 403
#
# _framework density 23.403254
#
# number of rings (size 3 to 8) (size 9 to 14) (size 15 to 20)
#    0.000    1.333    5.000    1.000    7.000    4.667 
#    0.000    4.167    0.000    0.000    0.000    0.000 
#    0.000    0.000    0.000    0.000    0.000    0.000 
#
# Total GULP energy -267857.228669 kJ/mol
# GULP energy per Si atom -5580.358931 kJ/mol
# Density = 2.334999 g / cm^3
# Si number density = 23.403254 Si / 1000 Ang^3
#
#
#
# Elastic Constant Matrix: (Units=GPa)
#
#
# Indices 1 2 3 4 5 6 
#
# 1 32.6986 25.9834 32.1988 0.0000 0.0000 0.0000
# 2 25.9834 62.1716 29.6368 0.0000 0.0000 0.0000
# 3 32.1988 29.6368 114.1585 0.0000 0.0000 0.0000
# 4 0.0000 0.0000 0.0000 27.7444 0.0000 0.0000
# 5 0.0000 0.0000 0.0000 0.0000 49.9716 0.0000
# 6 0.0000 0.0000 0.0000 0.0000 0.0000 -7.7872
#
#
#
# Elastic Compliance Matrix: (Units=1/GPa)
#
#
# Indices 1 2 3 4 5 6 
#
# 1 0.055819 -0.018058 -0.011056 0.000000 0.000000 0.000000
# 2 -0.018058 0.024198 -0.001189 0.000000 0.000000 0.000000
# 3 -0.011056 -0.001189 0.012187 0.000000 0.000000 0.000000
# 4 0.000000 0.000000 0.000000 0.036043 0.000000 0.000000
# 5 0.000000 0.000000 0.000000 0.000000 0.020011 0.000000
# 6 0.000000 0.000000 0.000000 0.000000 0.000000 -0.128416
#
#
# Mechanical properties :
#
#
# Convention : Reuss Voigt Hill
#
# Bulk Modulus (GPa) = 31.64722 42.74071 37.19396
# Shear Modulus (GPa) = 54.95710 22.06643 38.51177
#
# Velocity S-wave (km/s) = 4.85115 3.07396 4.06097
# Velocity P-wave (km/s) = 6.70299 5.55890 6.15758
#
# Compressibility (1/GPa) = 0.03159835
#
# Stress axis : x y z
#
# Youngs Moduli (GPa) = 17.91513 41.32536 82.05682
#
# Poissons Ratio (x) = 0.74626 0.90720
# Poissons Ratio (y) = 0.32351 0.09755
# Poissons Ratio (z) = 0.19807 0.04913
#
# Static dielectric constant tensor:
#      x y z
#    x 1.951430 0.000000 0.000000 
#    y 0.000000 1.853780 0.000000 
#    z 0.000000 0.000000 1.900360 
# 
# From -- ./inp_files/12951.got.cif
#   From: 2010.05.17/outbox.cif.g08.bks.cpg/sg50_7_cif.got.tgz:12951.got - 2010.06.03 11:33:33.
