data_PCOD9397454
_publ_section_title
;
Structure prediction by ZEFSAII (Michael W. Deem and Ramdas Pophale) SiO2 
 PCOD9397454
Probable space group: P B A N
;
_chemical_formula_sum "Si O2"
_cell_formula_units_Z 32
_cell_length_a 9.284054
_cell_length_b 21.321839
_cell_length_c 7.097269
_cell_angle_alpha 90.000000
_cell_angle_beta 90.000000
_cell_angle_gamma 90.000000
_cell_volume 1404.926433
_symmetry_space_group_name_H-M "P B A N"
_symmetry_group_IT_number 50
_space_group.IT_coordinate_system_code '2'
_symmetry_cell_setting 'orthorhombic'
loop_
_space_group_symop_operation_xyz
x,y,z
1/2-x,1/2-y,z
x,1/2-y,-z
1/2-x,y,-z
-x,-y,-z
1/2+x,1/2+y,-z
-x,1/2+y,z
1/2+x,-y,z
loop_
_atom_site_type_symbol
_atom_site_label
_atom_site_fract_x
_atom_site_fract_y
_atom_site_fract_z
Si Si1 0.429584 0.091555 0.812334
Si Si2 0.380691 0.552076 0.146219
Si Si3 0.099511 0.849036 0.459222
Si Si4 0.308856 0.314972 0.711807
O O1 0.524169 0.126289 0.651569
O O2 0.275053 0.125917 0.801759
O O3 0.422303 0.016789 0.779541
O O4 0.503753 0.089730 0.017644
O O5 0.352932 0.592739 0.328907
O O6 0.250000 0.543249 0.000000
O O7 0.250000 0.815689 0.500000
O O8 0.979618 0.814531 0.329815
O O9 0.250000 0.250000 0.795776
O O10 0.250000 0.317140 0.500000
#
# Coordination Sequence:
#
# PCOD9397454 Si02
#       4
#     8   8   8   8
#     4  10  23  40  62  93 132 174 214 267 322 398
#     4  11  23  38  63  95 136 168 217 266 333 391
#     4  11  22  40  65  96 130 168 215 270 332 392
#     4   9  21  43  68  94 126 174 227 269 328 396
#
# _framework density 22.776992
#
# number of rings (size 3 to 8) (size 9 to 14) (size 15 to 20)
#    0.000    1.750    2.500    0.750    7.000    3.000 
#    0.000   12.500    0.000    1.500    0.000    0.000 
#    0.000    0.000    0.000    0.000    0.000    0.000 
#
# Total GULP energy -178388.132680 kJ/mol
# GULP energy per Si atom -5574.629146 kJ/mol
# Density = 2.272515 g / cm^3
# Si number density = 22.776992 Si / 1000 Ang^3
#
#
#
# Elastic Constant Matrix: (Units=GPa)
#
#
# Indices 1 2 3 4 5 6 
#
# 1 198.6870 54.4733 38.1064 0.0000 0.0000 0.0000
# 2 54.4733 89.9390 66.9961 0.0000 0.0000 0.0000
# 3 38.1064 66.9961 89.1021 0.0000 0.0000 0.0000
# 4 0.0000 0.0000 0.0000 -4.2614 0.0000 0.0000
# 5 0.0000 0.0000 0.0000 0.0000 36.5445 0.0000
# 6 0.0000 0.0000 0.0000 0.0000 0.0000 -11.4384
#
#
#
# Elastic Compliance Matrix: (Units=1/GPa)
#
#
# Indices 1 2 3 4 5 6 
#
# 1 0.006041 -0.003942 0.000381 0.000000 0.000000 0.000000
# 2 -0.003942 0.027848 -0.019253 0.000000 0.000000 0.000000
# 3 0.000381 -0.019253 0.025537 0.000000 0.000000 0.000000
# 4 0.000000 0.000000 0.000000 -0.234662 0.000000 0.000000
# 5 0.000000 0.000000 0.000000 0.000000 0.027364 0.000000
# 6 0.000000 0.000000 0.000000 0.000000 0.000000 -0.087425
#
#
# Mechanical properties :
#
#
# Convention : Reuss Voigt Hill
#
# Bulk Modulus (GPa) = 72.48296 77.43108 74.95702
# Shear Modulus (GPa) = -27.01692 18.71243 -4.15225
#
# Velocity S-wave (km/s) = -3.44779 2.86938 -1.35165
# Velocity P-wave (km/s) = 4.00528 6.71170 5.52672
#
# Compressibility (1/GPa) = 0.01379635
#
# Stress axis : x y z
#
# Youngs Moduli (GPa) = 165.53844 35.90896 39.15945
#
# Poissons Ratio (x) = 0.14157 -0.01491
# Poissons Ratio (y) = 0.65263 0.75394
# Poissons Ratio (z) = -0.06304 0.69136
#
# Static dielectric constant tensor:
#      x y z
#    x 1.968530 0.000000 0.000000 
#    y 0.000000 1.866830 0.000000 
#    z 0.000000 0.000000 1.916450 
# 
# From -- ./inp_files/9058.got.cif
#   From: 2010.05.17/outbox.cif.g08.bks.cpg/sg50_5_cif.got.tgz:9058.got - 2010.06.03 11:33:33.
