data_PCOD9397107
_publ_section_title
;
Structure prediction by ZEFSAII (Michael W. Deem and Ramdas Pophale) SiO2 
 PCOD9397107
Probable space group: P B A N
;
_chemical_formula_sum "Si O2"
_cell_formula_units_Z 64
_cell_length_a 25.874363
_cell_length_b 8.646815
_cell_length_c 15.186343
_cell_angle_alpha 90.000000
_cell_angle_beta 90.000000
_cell_angle_gamma 90.000000
_cell_volume 3397.653126
_symmetry_space_group_name_H-M "P B A N"
_symmetry_group_IT_number 50
_space_group.IT_coordinate_system_code '2'
_symmetry_cell_setting 'orthorhombic'
loop_
_space_group_symop_operation_xyz
x,y,z
1/2-x,1/2-y,z
x,1/2-y,-z
1/2-x,y,-z
-x,-y,-z
1/2+x,1/2+y,-z
-x,1/2+y,z
1/2+x,-y,z
loop_
_atom_site_type_symbol
_atom_site_label
_atom_site_fract_x
_atom_site_fract_y
_atom_site_fract_z
Si Si1 0.113020 0.553233 0.671389
Si Si2 0.965035 0.845440 0.085538
Si Si3 0.521602 0.572705 0.790931
Si Si4 0.084716 0.593243 0.313573
Si Si5 0.739825 0.431249 0.098736
Si Si6 0.941458 0.935801 0.495359
Si Si7 0.701085 0.643775 0.763250
Si Si8 0.362810 0.080500 0.152354
O O1 0.068311 0.507229 0.740941
O O2 0.112434 0.740529 0.674422
O O3 0.091732 0.499798 0.576772
O O4 0.164882 0.457433 0.697386
O O5 0.960273 0.733075 0.169291
O O6 0.906901 0.907165 0.077873
O O7 0.981750 0.750000 0.000000
O O8 0.002862 0.975207 0.123764
O O9 0.473900 0.606170 0.724958
O O10 0.081728 0.500207 0.404486
O O11 0.113172 0.494172 0.239630
O O12 0.750000 0.250000 0.103884
O O13 0.773832 0.523827 0.168667
O O14 0.680886 0.466158 0.119365
O O15 0.750000 0.487613 0.000000
O O16 0.942656 0.750000 0.500000
O O17 0.000000 0.000000 0.500000
O O18 0.750000 0.750000 0.728492
O O19 0.664433 0.760380 0.818276
#
# Coordination Sequence:
#
# PCOD9397107 Si02
#       8
#     8   8   8   8   8   8   8   8
#     4  12  22  39  65  90 130 172 211 266 328 381
#     4  11  23  38  56  84 124 170 217 258 313 388
#     4  11  22  37  58  84 125 171 216 259 311 382
#     4  11  23  40  61  94 130 170 215 255 327 389
#     4  10  22  40  62  90 122 156 217 280 329 381
#     4  12  25  37  62  97 132 169 215 264 308 387
#     4  10  22  39  64  91 120 161 211 265 331 385
#     4  10  22  37  62  87 118 165 205 269 323 383
#
# _framework density 18.836531000000001
#
# number of rings (size 3 to 8) (size 9 to 14) (size 15 to 20)
#    0.000    1.125    3.750    3.000    3.500    1.750 
#    0.000    0.000    0.000    8.625    0.000   11.375 
#    0.000    0.000    0.000    0.000    0.000    0.000 
#
# Total GULP energy -357294.029314 kJ/mol
# GULP energy per Si atom -5582.719208 kJ/mol
# Density = 1.879366 g / cm^3
# Si number density = 18.836531 Si / 1000 Ang^3
#
#
#
# Elastic Constant Matrix: (Units=GPa)
#
#
# Indices 1 2 3 4 5 6 
#
# 1 98.3583 27.6820 41.7533 0.0000 0.0000 0.0000
# 2 27.6820 102.5583 33.1848 0.0000 0.0000 0.0000
# 3 41.7533 33.1848 97.8685 0.0000 0.0000 0.0000
# 4 0.0000 0.0000 0.0000 31.9059 0.0000 0.0000
# 5 0.0000 0.0000 0.0000 0.0000 13.2646 0.0000
# 6 0.0000 0.0000 0.0000 0.0000 0.0000 20.3193
#
#
#
# Elastic Compliance Matrix: (Units=1/GPa)
#
#
# Indices 1 2 3 4 5 6 
#
# 1 0.012732 -0.001886 -0.004792 0.000000 0.000000 0.000000
# 2 -0.001886 0.011232 -0.003004 0.000000 0.000000 0.000000
# 3 -0.004792 -0.003004 0.013281 0.000000 0.000000 0.000000
# 4 0.000000 0.000000 0.000000 0.031342 0.000000 0.000000
# 5 0.000000 0.000000 0.000000 0.000000 0.075389 0.000000
# 6 0.000000 0.000000 0.000000 0.000000 0.000000 0.049214
#
#
# Mechanical properties :
#
#
# Convention : Reuss Voigt Hill
#
# Bulk Modulus (GPa) = 55.92728 56.00280 55.96504
# Shear Modulus (GPa) = 22.88185 26.17562 24.52873
#
# Velocity S-wave (km/s) = 3.48912 3.73180 3.61250
# Velocity P-wave (km/s) = 6.78139 6.95442 6.86845
#
# Compressibility (1/GPa) = 0.01788036
#
# Stress axis : x y z
#
# Youngs Moduli (GPa) = 78.54202 89.03529 75.29644
#
# Poissons Ratio (x) = 0.16791 0.36085
# Poissons Ratio (y) = 0.14812 0.22617
# Poissons Ratio (z) = 0.37640 0.26744
#
# Static dielectric constant tensor:
#      x y z
#    x 1.697670 0.000000 0.000000 
#    y 0.000000 1.669690 0.000000 
#    z 0.000000 0.000000 1.609840 
# 
# From -- ./inp_files/27511.got.cif
#   From: 2010.05.17/outbox.cif.g08.bks.cpg/sg50_14_cif.got.tgz:27511.got - 2010.06.03 11:33:33.
