data_PCOD9397949
_publ_section_title
;
Structure prediction by ZEFSAII (Michael W. Deem and Ramdas Pophale) SiO2 
 PCOD9397949
Probable space group: P B A N
;
_chemical_formula_sum "Si O2"
_cell_formula_units_Z 52
_cell_length_a 8.689516
_cell_length_b 20.913047
_cell_length_c 16.057283
_cell_angle_alpha 90.000000
_cell_angle_beta 90.000000
_cell_angle_gamma 90.000000
_cell_volume 2917.997815
_symmetry_space_group_name_H-M "P B A N"
_symmetry_group_IT_number 50
_space_group.IT_coordinate_system_code '2'
_symmetry_cell_setting 'orthorhombic'
loop_
_space_group_symop_operation_xyz
x,y,z
1/2-x,1/2-y,z
x,1/2-y,-z
1/2-x,y,-z
-x,-y,-z
1/2+x,1/2+y,-z
-x,1/2+y,z
1/2+x,-y,z
loop_
_atom_site_type_symbol
_atom_site_label
_atom_site_fract_x
_atom_site_fract_y
_atom_site_fract_z
Si Si1 0.370710 0.304074 0.161366
Si Si2 0.248603 0.427008 0.745778
Si Si3 0.421504 0.563550 0.466287
Si Si4 0.582200 0.643825 0.598151
Si Si5 0.892756 0.432822 0.268139
Si Si6 0.750000 0.750000 0.500000
Si Si7 0.250000 0.250000 0.000000
Si Si8 0.333258 0.684275 0.733048
O O1 0.250000 0.250000 0.197020
O O2 0.319716 0.373990 0.191837
O O3 0.542981 0.296934 0.195689
O O4 0.351727 0.292479 0.062901
O O5 0.196557 0.400702 0.653594
O O6 0.431054 0.428126 0.760645
O O7 0.181711 0.498608 0.755033
O O8 0.250000 0.567754 0.500000
O O9 0.500000 0.500000 0.500000
O O10 0.525315 0.615141 0.511514
O O11 0.410412 0.567622 0.368036
O O12 0.655601 0.708130 0.565697
O O13 0.437097 0.656550 0.658040
O O14 0.786470 0.372225 0.243555
O O15 0.250000 0.750000 0.708176
#
# Coordination Sequence:
#
# PCOD9397949 Si02
#       8
#     8   8   8   8   8   2   2   8
#     4   9  20  41  69  96 122 155 194 236 305 375
#     4  11  22  38  63  87 119 161 206 259 303 373
#     4  12  23  38  53  78 115 161 213 270 311 351
#     4  11  25  39  52  81 114 163 223 265 320 359
#     4  12  23  38  60  88 122 166 214 262 310 357
#     4  12  28  34  54  72 108 162 216 272 312 354
#     4   8  20  42  74 100 124 162 188 236 308 386
#     4  11  24  39  60  89 124 159 207 257 309 375
#
# _framework density 17.820437999999999
#
# number of rings (size 3 to 8) (size 9 to 14) (size 15 to 20)
#    0.462    0.615    3.077    4.615    9.692    0.000 
#    0.000    0.385    0.000    3.692    0.000    0.000 
#    0.000    0.000    0.000    0.000    0.000    0.000 
#
# Total GULP energy -289911.712069 kJ/mol
# GULP energy per Si atom -5575.225232 kJ/mol
# Density = 1.777988 g / cm^3
# Si number density = 17.820438 Si / 1000 Ang^3
#
#
#
# Elastic Constant Matrix: (Units=GPa)
#
#
# Indices 1 2 3 4 5 6 
#
# 1 100.3426 47.5903 2.0297 0.0000 0.0000 0.0000
# 2 47.5903 123.9018 8.0368 0.0000 0.0000 0.0000
# 3 2.0297 8.0368 59.7091 0.0000 0.0000 0.0000
# 4 0.0000 0.0000 0.0000 17.6557 0.0000 0.0000
# 5 0.0000 0.0000 0.0000 0.0000 14.2231 0.0000
# 6 0.0000 0.0000 0.0000 0.0000 0.0000 50.7127
#
#
#
# Elastic Compliance Matrix: (Units=1/GPa)
#
#
# Indices 1 2 3 4 5 6 
#
# 1 0.012189 -0.004696 0.000218 0.000000 0.000000 0.000000
# 2 -0.004696 0.009951 -0.001180 0.000000 0.000000 0.000000
# 3 0.000218 -0.001180 0.016899 0.000000 0.000000 0.000000
# 4 0.000000 0.000000 0.000000 0.056639 0.000000 0.000000
# 5 0.000000 0.000000 0.000000 0.000000 0.070308 0.000000
# 6 0.000000 0.000000 0.000000 0.000000 0.000000 0.019719
#
#
# Mechanical properties :
#
#
# Convention : Reuss Voigt Hill
#
# Bulk Modulus (GPa) = 36.07075 44.36300 40.21688
# Shear Modulus (GPa) = 24.24110 31.60476 27.92293
#
# Velocity S-wave (km/s) = 3.69222 4.21588 3.96271
# Velocity P-wave (km/s) = 6.20176 6.97472 6.59956
#
# Compressibility (1/GPa) = 0.02772329
#
# Stress axis : x y z
#
# Youngs Moduli (GPa) = 82.04446 100.49204 59.17418
#
# Poissons Ratio (x) = 0.47188 -0.01288
# Poissons Ratio (y) = 0.38526 0.06981
# Poissons Ratio (z) = -0.01786 0.11856
#
# Static dielectric constant tensor:
#      x y z
#    x 1.586540 0.000000 0.000000 
#    y 0.000000 1.608910 0.000000 
#    z 0.000000 0.000000 1.603510 
# 
# From -- ./inp_files/28866.got.cif
#   From: 2010.05.17/outbox.cif.g08.bks.cpg/sg50_15_cif.got.tgz:28866.got - 2010.06.03 11:33:33.
