data_PCOD9397945
_publ_section_title
;
Structure prediction by ZEFSAII (Michael W. Deem and Ramdas Pophale) SiO2 
 PCOD9397945
Probable space group: P B A N
;
_chemical_formula_sum "Si O2"
_cell_formula_units_Z 56
_cell_length_a 14.125791
_cell_length_b 8.858891
_cell_length_c 20.598872
_cell_angle_alpha 90.000000
_cell_angle_beta 90.000000
_cell_angle_gamma 90.000000
_cell_volume 2577.719004
_symmetry_space_group_name_H-M "P B A N"
_symmetry_group_IT_number 50
_space_group.IT_coordinate_system_code '2'
_symmetry_cell_setting 'orthorhombic'
loop_
_space_group_symop_operation_xyz
x,y,z
1/2-x,1/2-y,z
x,1/2-y,-z
1/2-x,y,-z
-x,-y,-z
1/2+x,1/2+y,-z
-x,1/2+y,z
1/2+x,-y,z
loop_
_atom_site_type_symbol
_atom_site_label
_atom_site_fract_x
_atom_site_fract_y
_atom_site_fract_z
Si Si1 0.750000 0.750000 0.243927
Si Si2 0.419740 0.276976 0.672132
Si Si3 0.100112 0.512830 0.123698
Si Si4 0.362905 0.574837 0.012321
Si Si5 0.951723 0.502676 0.410869
Si Si6 0.182147 0.985475 0.155558
Si Si7 0.021789 0.717136 0.801263
Si Si8 0.440218 0.750000 0.500000
O O1 0.674510 0.669781 0.291145
O O2 0.805299 0.636356 0.196755
O O3 0.467160 0.405375 0.626834
O O4 0.494978 0.238374 0.728766
O O5 0.398094 0.117021 0.637168
O O6 0.209168 0.556050 0.138966
O O7 0.038429 0.650604 0.148337
O O8 0.062266 0.380498 0.168173
O O9 0.092048 0.482036 0.047000
O O10 0.371455 0.516942 0.085728
O O11 0.390651 0.750000 0.000000
O O12 0.250000 0.568963 0.000000
O O13 0.894493 0.370190 0.449240
O O14 0.998333 0.628827 0.458618
O O15 0.119633 0.874972 0.198753
#
# Coordination Sequence:
#
# PCOD9397945 Si02
#       8
#     4   8   8   8   8   8   8   4
#     4  12  24  40  59  93 130 172 206 272 338 380
#     4  11  22  38  61  92 133 163 218 256 316 380
#     4  11  23  41  61  90 117 160 211 273 343 398
#     4   9  18  39  61  79 106 153 212 267 329 403
#     4   9  18  36  64  99 126 170 207 260 293 372
#     4  11  23  41  65  83 121 166 217 268 338 393
#     4  12  23  39  65  91 125 167 210 269 329 403
#     4   8  16  34  68  96 130 164 216 246 304 350
#
# _framework density 21.724633999999998
#
# number of rings (size 3 to 8) (size 9 to 14) (size 15 to 20)
#    0.000    1.571    2.857    3.000    0.000    0.571 
#    0.000    3.214    0.000   16.286    0.000    0.000 
#    0.000    0.000    0.000    0.000    0.000    0.000 
#
# Total GULP energy -312203.238005 kJ/mol
# GULP energy per Si atom -5575.057822 kJ/mol
# Density = 2.167519 g / cm^3
# Si number density = 21.724634 Si / 1000 Ang^3
#
#
#
# Elastic Constant Matrix: (Units=GPa)
#
#
# Indices 1 2 3 4 5 6 
#
# 1 64.9903 20.4147 22.9015 0.0000 0.0000 0.0000
# 2 20.4147 108.0417 45.3482 0.0000 0.0000 0.0000
# 3 22.9015 45.3482 96.4202 0.0000 0.0000 0.0000
# 4 0.0000 0.0000 0.0000 41.7650 0.0000 0.0000
# 5 0.0000 0.0000 0.0000 0.0000 -3.7157 0.0000
# 6 0.0000 0.0000 0.0000 0.0000 0.0000 34.2529
#
#
#
# Elastic Compliance Matrix: (Units=1/GPa)
#
#
# Indices 1 2 3 4 5 6 
#
# 1 0.017100 -0.001902 -0.003167 0.000000 0.000000 0.000000
# 2 -0.001902 0.011744 -0.005072 0.000000 0.000000 0.000000
# 3 -0.003167 -0.005072 0.013509 0.000000 0.000000 0.000000
# 4 0.000000 0.000000 0.000000 0.023943 0.000000 0.000000
# 5 0.000000 0.000000 0.000000 0.000000 -0.269125 0.000000
# 6 0.000000 0.000000 0.000000 0.000000 0.000000 0.029195
#
#
# Mechanical properties :
#
#
# Convention : Reuss Voigt Hill
#
# Bulk Modulus (GPa) = 45.30676 49.64231 47.47454
# Shear Modulus (GPa) = -34.24765 26.51297 -3.86734
#
# Velocity S-wave (km/s) = -3.97475 3.49723 -1.33568
# Velocity P-wave (km/s) = 0.40568 6.26161 4.41832
#
# Compressibility (1/GPa) = 0.02207176
#
# Stress axis : x y z
#
# Youngs Moduli (GPa) = 58.47833 85.15189 74.02586
#
# Poissons Ratio (x) = 0.16194 0.23445
# Poissons Ratio (y) = 0.11121 0.37543
# Poissons Ratio (z) = 0.18521 0.43185
#
# Static dielectric constant tensor:
#      x y z
#    x 1.849600 0.000000 0.000000 
#    y 0.000000 2.241940 0.000000 
#    z 0.000000 0.000000 1.873570 
# 
# From -- ./inp_files/31018.got.cif
#   From: 2010.05.17/outbox.cif.g08.bks.cpg/sg50_16_cif.got.tgz:31018.got - 2010.06.03 11:33:33.
