data_PCOD9397972
_publ_section_title
;
Structure prediction by ZEFSAII (Michael W. Deem and Ramdas Pophale) SiO2 
 PCOD9397972
Probable space group: P B A N
;
_chemical_formula_sum "Si O2"
_cell_formula_units_Z 32
_cell_length_a 10.789614
_cell_length_b 8.335434
_cell_length_c 16.782181
_cell_angle_alpha 90.000000
_cell_angle_beta 90.000000
_cell_angle_gamma 90.000000
_cell_volume 1509.324167
_symmetry_space_group_name_H-M "P B A N"
_symmetry_group_IT_number 50
_space_group.IT_coordinate_system_code '2'
_symmetry_cell_setting 'orthorhombic'
loop_
_space_group_symop_operation_xyz
x,y,z
1/2-x,1/2-y,z
x,1/2-y,-z
1/2-x,y,-z
-x,-y,-z
1/2+x,1/2+y,-z
-x,1/2+y,z
1/2+x,-y,z
loop_
_atom_site_type_symbol
_atom_site_label
_atom_site_fract_x
_atom_site_fract_y
_atom_site_fract_z
Si Si1 0.874452 0.931222 0.533834
Si Si2 0.874345 0.072623 0.034169
Si Si3 0.849410 0.480304 0.282058
Si Si4 0.598558 0.116873 0.777930
O O1 0.872817 0.750000 0.500000
O O2 0.750000 0.012003 0.500000
O O3 0.871359 0.961497 0.627931
O O4 0.000000 0.000000 0.500000
O O5 0.871851 0.094124 0.129019
O O6 0.873541 0.250000 0.000000
O O7 0.750000 0.989304 0.000000
O O8 0.000000 0.000000 0.000000
O O9 0.702510 0.496052 0.264088
O O10 0.879521 0.294204 0.259177
O O11 0.954502 0.574563 0.233168
#
# Coordination Sequence:
#
# PCOD9397972 Si02
#       4
#     8   8   8   8
#     4  11  24  42  63  92 125 163 207 260 319 380
#     4  11  22  40  62  91 130 168 208 260 313 372
#     4  11  23  41  64  91 125 164 210 262 313 376
#     4  11  23  41  64  94 124 167 213 258 313 374
#
# _framework density 21.201542
#
# number of rings (size 3 to 8) (size 9 to 14) (size 15 to 20)
#    0.000    1.000    0.000    9.000    0.000    6.000 
#    0.000    5.000    0.000    0.000    0.000    0.000 
#    0.000    0.000    0.000    0.000    0.000    0.000 
#
# Total GULP energy -178555.825523 kJ/mol
# GULP energy per Si atom -5579.869548 kJ/mol
# Density = 2.115329 g / cm^3
# Si number density = 21.201542 Si / 1000 Ang^3
#
#
#
# Elastic Constant Matrix: (Units=GPa)
#
#
# Indices 1 2 3 4 5 6 
#
# 1 130.8268 31.9943 23.7161 0.0000 0.0000 0.0000
# 2 31.9943 51.9028 24.9449 0.0000 0.0000 0.0000
# 3 23.7161 24.9449 191.8435 0.0000 0.0000 0.0000
# 4 0.0000 0.0000 0.0000 -10.0742 0.0000 0.0000
# 5 0.0000 0.0000 0.0000 0.0000 47.5439 0.0000
# 6 0.0000 0.0000 0.0000 0.0000 0.0000 23.6326
#
#
#
# Elastic Compliance Matrix: (Units=1/GPa)
#
#
# Indices 1 2 3 4 5 6 
#
# 1 0.009032 -0.005366 -0.000419 0.000000 0.000000 0.000000
# 2 -0.005366 0.023739 -0.002423 0.000000 0.000000 0.000000
# 3 -0.000419 -0.002423 0.005579 0.000000 0.000000 0.000000
# 4 0.000000 0.000000 0.000000 -0.099263 0.000000 0.000000
# 5 0.000000 0.000000 0.000000 0.000000 0.021033 0.000000
# 6 0.000000 0.000000 0.000000 0.000000 0.000000 0.042314
#
#
# Mechanical properties :
#
#
# Convention : Reuss Voigt Hill
#
# Bulk Modulus (GPa) = 45.59146 59.54264 52.56705
# Shear Modulus (GPa) = 191.10433 31.81497 111.45965
#
# Velocity S-wave (km/s) = 9.50435 3.87796 7.25849
# Velocity P-wave (km/s) = 11.91613 6.94237 9.75168
#
# Compressibility (1/GPa) = 0.02193393
#
# Stress axis : x y z
#
# Youngs Moduli (GPa) = 110.71789 42.12405 179.22883
#
# Poissons Ratio (x) = 0.22605 0.07506
# Poissons Ratio (y) = 0.59414 0.43434
# Poissons Ratio (z) = 0.04637 0.10208
#
# Static dielectric constant tensor:
#      x y z
#    x 1.698410 0.000000 0.000000 
#    y 0.000000 1.881370 0.000000 
#    z 0.000000 0.000000 1.593640 
# 
# From -- ./inp_files/24338.got.cif
#   From: 2010.05.17/outbox.cif.g08.bks.cpg/sg50_13_cif.got.tgz:24338.got - 2010.06.03 11:33:33.
