data_PCOD9397759
_publ_section_title
;
Structure prediction by ZEFSAII (Michael W. Deem and Ramdas Pophale) SiO2 
 PCOD9397759
Probable space group: P B A N
;
_chemical_formula_sum "Si O2"
_cell_formula_units_Z 28
_cell_length_a 4.918275
_cell_length_b 22.186577
_cell_length_c 10.487925
_cell_angle_alpha 90.000000
_cell_angle_beta 90.000000
_cell_angle_gamma 90.000000
_cell_volume 1144.439093
_symmetry_space_group_name_H-M "P B A N"
_symmetry_group_IT_number 50
_space_group.IT_coordinate_system_code '2'
_symmetry_cell_setting 'orthorhombic'
loop_
_space_group_symop_operation_xyz
x,y,z
1/2-x,1/2-y,z
x,1/2-y,-z
1/2-x,y,-z
-x,-y,-z
1/2+x,1/2+y,-z
-x,1/2+y,z
1/2+x,-y,z
loop_
_atom_site_type_symbol
_atom_site_label
_atom_site_fract_x
_atom_site_fract_y
_atom_site_fract_z
Si Si1 0.520405 0.860276 0.581919
Si Si2 0.650108 0.538600 0.735840
Si Si3 0.010206 0.706260 0.841796
Si Si4 0.750000 0.895132 0.000000
O O1 0.250000 0.874982 0.500000
O O2 0.708232 0.914294 0.640565
O O3 0.432999 0.822424 0.704155
O O4 0.750000 0.825922 0.500000
O O5 0.337322 0.520709 0.717920
O O6 0.666686 0.564087 0.879877
O O7 0.750000 0.750000 0.838389
O O8 0.250000 0.750000 0.873245
O O9 0.965140 0.651004 0.938227
#
# Coordination Sequence:
#
# PCOD9397759 Si02
#       4
#     8   8   8   4
#     4  11  24  42  65  96 132 170 220 275 326 393
#     4  11  24  42  67  96 130 173 217 270 332 392
#     4  11  25  43  66  95 129 173 220 271 332 394
#     4  10  25  44  66  96 132 168 221 274 326 396
#
# _framework density 24.466132000000002
#
# number of rings (size 3 to 8) (size 9 to 14) (size 15 to 20)
#    0.000    1.143    0.000    4.714    0.000   18.286 
#    0.000    0.000    0.000    0.000    0.000    0.000 
#    0.000    0.000    0.000    0.000    0.000    0.000 
#
# Total GULP energy -156748.096063 kJ/mol
# GULP energy per Si atom -5598.146288 kJ/mol
# Density = 2.441045 g / cm^3
# Si number density = 24.466132 Si / 1000 Ang^3
#
#
#
# Elastic Constant Matrix: (Units=GPa)
#
#
# Indices 1 2 3 4 5 6 
#
# 1 126.2035 16.0662 45.5562 0.0000 0.0000 0.0000
# 2 16.0662 71.2530 37.0950 0.0000 0.0000 0.0000
# 3 45.5562 37.0950 174.1604 0.0000 0.0000 0.0000
# 4 0.0000 0.0000 0.0000 77.6667 0.0000 0.0000
# 5 0.0000 0.0000 0.0000 0.0000 25.5268 0.0000
# 6 0.0000 0.0000 0.0000 0.0000 0.0000 -55.1015
#
#
#
# Elastic Compliance Matrix: (Units=1/GPa)
#
#
# Indices 1 2 3 4 5 6 
#
# 1 0.008799 -0.000884 -0.002113 0.000000 0.000000 0.000000
# 2 -0.000884 0.015874 -0.003150 0.000000 0.000000 0.000000
# 3 -0.002113 -0.003150 0.006966 0.000000 0.000000 0.000000
# 4 0.000000 0.000000 0.000000 0.012876 0.000000 0.000000
# 5 0.000000 0.000000 0.000000 0.000000 0.039174 0.000000
# 6 0.000000 0.000000 0.000000 0.000000 0.000000 -0.018148
#
#
# Mechanical properties :
#
#
# Convention : Reuss Voigt Hill
#
# Bulk Modulus (GPa) = 51.69487 63.22797 57.46142
# Shear Modulus (GPa) = 59.32470 27.81170 43.56820
#
# Velocity S-wave (km/s) = 4.92954 3.37522 4.22448
# Velocity P-wave (km/s) = 7.31953 6.41004 6.87983
#
# Compressibility (1/GPa) = 0.01934428
#
# Stress axis : x y z
#
# Youngs Moduli (GPa) = 113.64799 62.99778 143.56411
#
# Poissons Ratio (x) = 0.05568 0.30341
# Poissons Ratio (y) = 0.10044 0.45220
# Poissons Ratio (z) = 0.24018 0.19843
#
# Static dielectric constant tensor:
#      x y z
#    x 1.895500 0.000000 0.000000 
#    y 0.000000 1.921220 0.000000 
#    z 0.000000 0.000000 1.844810 
# 
# From -- ./inp_files/7783.got.cif
#   From: 2010.05.17/outbox.cif.g08.bks.cpg/sg50_4_cif.got.tgz:7783.got - 2010.06.03 11:33:33.
