data_PCOD9397569
_publ_section_title
;
Structure prediction by ZEFSAII (Michael W. Deem and Ramdas Pophale) SiO2 
 PCOD9397569
Probable space group: P B A N
;
_chemical_formula_sum "Si O2"
_cell_formula_units_Z 64
_cell_length_a 8.992928
_cell_length_b 26.638414
_cell_length_c 11.623948
_cell_angle_alpha 90.000000
_cell_angle_beta 90.000000
_cell_angle_gamma 90.000000
_cell_volume 2784.602053
_symmetry_space_group_name_H-M "P B A N"
_symmetry_group_IT_number 50
_space_group.IT_coordinate_system_code '2'
_symmetry_cell_setting 'orthorhombic'
loop_
_space_group_symop_operation_xyz
x,y,z
1/2-x,1/2-y,z
x,1/2-y,-z
1/2-x,y,-z
-x,-y,-z
1/2+x,1/2+y,-z
-x,1/2+y,z
1/2+x,-y,z
loop_
_atom_site_type_symbol
_atom_site_label
_atom_site_fract_x
_atom_site_fract_y
_atom_site_fract_z
Si Si1 0.662895 0.145384 0.223675
Si Si2 0.457927 0.863944 0.344389
Si Si3 0.049376 0.803216 0.441348
Si Si4 0.660674 0.033379 0.250831
Si Si5 0.386787 0.462268 0.433833
Si Si6 0.757374 0.806927 0.308276
Si Si7 0.127149 0.130783 0.903594
Si Si8 0.898832 0.987948 0.108669
O O1 0.843285 0.142578 0.237401
O O2 0.618935 0.188371 0.314559
O O3 0.629557 0.090662 0.278126
O O4 0.553735 0.144352 0.109666
O O5 0.399865 0.845558 0.468688
O O6 0.522130 0.919580 0.364976
O O7 0.592715 0.825616 0.329336
O O8 0.081282 0.750000 0.500000
O O9 0.873742 0.806921 0.412941
O O10 0.505810 0.008968 0.216846
O O11 0.710843 0.999912 0.355167
O O12 0.765806 0.025158 0.140101
O O13 0.250000 0.434842 0.500000
O O14 0.500000 0.500000 0.500000
O O15 0.750000 0.750000 0.264080
O O16 0.818719 0.845170 0.214169
O O17 0.143549 0.070479 0.901334
O O18 0.250000 0.147857 0.000000
O O19 0.000000 0.000000 0.000000
#
# Coordination Sequence:
#
# PCOD9397569 Si02
#       8
#     8   8   8   8   8   8   8   8
#     4  10  24  40  61  97 131 178 224 285 358 427
#     4  12  23  38  62  96 137 173 232 288 346 414
#     4  11  22  41  64  92 134 176 225 281 344 416
#     4  11  22  40  60  90 140 174 226 287 340 410
#     4  12  24  39  62  95 141 199 238 278 353 436
#     4  11  23  42  66  98 127 174 232 289 356 426
#     4  10  23  44  66  92 130 172 229 292 361 434
#     4  11  22  39  67  98 126 177 230 287 359 422
#
# _framework density 22.983533999999999
#
# number of rings (size 3 to 8) (size 9 to 14) (size 15 to 20)
#    0.000    1.000    1.250    6.375    0.000    4.250 
#    0.000    1.875    0.000    0.000    0.000    3.500 
#    0.000    0.000    0.000    0.000    0.000    0.000 
#
# Total GULP energy -356582.324503 kJ/mol
# GULP energy per Si atom -5571.598820 kJ/mol
# Density = 2.293122 g / cm^3
# Si number density = 22.983534 Si / 1000 Ang^3
#
#
#
# Elastic Constant Matrix: (Units=GPa)
#
#
# Indices 1 2 3 4 5 6 
#
# 1 149.2345 28.0158 34.9563 0.0000 0.0000 0.0000
# 2 28.0158 121.8505 38.1741 0.0000 0.0000 0.0000
# 3 34.9563 38.1741 63.1621 0.0000 0.0000 0.0000
# 4 0.0000 0.0000 0.0000 18.5090 0.0000 0.0000
# 5 0.0000 0.0000 0.0000 0.0000 49.3689 0.0000
# 6 0.0000 0.0000 0.0000 0.0000 0.0000 16.3841
#
#
#
# Elastic Compliance Matrix: (Units=1/GPa)
#
#
# Indices 1 2 3 4 5 6 
#
# 1 0.007728 -0.000539 -0.003951 0.000000 0.000000 0.000000
# 2 -0.000539 0.010161 -0.005843 0.000000 0.000000 0.000000
# 3 -0.003951 -0.005843 0.021550 0.000000 0.000000 0.000000
# 4 0.000000 0.000000 0.000000 0.054028 0.000000 0.000000
# 5 0.000000 0.000000 0.000000 0.000000 0.020256 0.000000
# 6 0.000000 0.000000 0.000000 0.000000 0.000000 0.061035
#
#
# Mechanical properties :
#
#
# Convention : Reuss Voigt Hill
#
# Bulk Modulus (GPa) = 53.26737 59.61552 56.44144
# Shear Modulus (GPa) = 24.79165 32.39247 28.59206
#
# Velocity S-wave (km/s) = 3.28787 3.75824 3.53090
# Velocity P-wave (km/s) = 6.13515 6.69531 6.42134
#
# Compressibility (1/GPa) = 0.01877322
#
# Stress axis : x y z
#
# Youngs Moduli (GPa) = 129.40793 98.41340 46.40302
#
# Poissons Ratio (x) = 0.05304 0.18334
# Poissons Ratio (y) = 0.06974 0.27113
# Poissons Ratio (z) = 0.51129 0.57503
#
# Static dielectric constant tensor:
#      x y z
#    x 2.035780 0.000000 0.000000 
#    y 0.000000 1.760230 0.000000 
#    z 0.000000 0.000000 1.004030 
# 
# From -- ./inp_files/19556.got.cif
#   From: 2010.05.17/outbox.cif.g08.bks.cpg/sg50_10_cif.got.tgz:19556.got - 2010.06.03 11:33:33.
