data_PCOD9397481
_publ_section_title
;
Structure prediction by ZEFSAII (Michael W. Deem and Ramdas Pophale) SiO2 
 PCOD9397481
Probable space group: P B A N
;
_chemical_formula_sum "Si O2"
_cell_formula_units_Z 64
_cell_length_a 31.373994
_cell_length_b 18.691030
_cell_length_c 5.070340
_cell_angle_alpha 90.000000
_cell_angle_beta 90.000000
_cell_angle_gamma 90.000000
_cell_volume 2973.309554
_symmetry_space_group_name_H-M "P B A N"
_symmetry_group_IT_number 50
_space_group.IT_coordinate_system_code '2'
_symmetry_cell_setting 'orthorhombic'
loop_
_space_group_symop_operation_xyz
x,y,z
1/2-x,1/2-y,z
x,1/2-y,-z
1/2-x,y,-z
-x,-y,-z
1/2+x,1/2+y,-z
-x,1/2+y,z
1/2+x,-y,z
loop_
_atom_site_type_symbol
_atom_site_label
_atom_site_fract_x
_atom_site_fract_y
_atom_site_fract_z
Si Si1 0.626138 0.979636 0.632323
Si Si2 0.460265 0.994827 0.696729
Si Si3 0.899316 0.668670 0.527700
Si Si4 0.179655 0.667844 0.918683
Si Si5 0.040929 0.796571 0.758425
Si Si6 0.295755 0.582242 0.566912
Si Si7 0.954216 0.637478 0.029445
Si Si8 0.592781 0.095859 0.988112
O O1 0.632139 0.894147 0.629356
O O2 0.582768 0.987804 0.465107
O O3 0.666143 0.025066 0.528824
O O4 0.613881 0.020449 0.903409
O O5 0.500000 0.000000 0.500000
O O6 0.464866 0.053785 0.928560
O O7 0.447777 0.919716 0.828106
O O8 0.883716 0.750000 0.500000
O O9 0.916208 0.652132 0.234731
O O10 0.938673 0.661158 0.739905
O O11 0.199030 0.647236 0.638792
O O12 0.184359 0.750000 0.000000
O O13 0.199674 0.616610 0.143817
O O14 0.130174 0.644507 0.901223
O O15 0.038675 0.750000 0.500000
O O16 0.072706 0.863741 0.737167
O O17 0.994518 0.821303 0.853006
O O18 0.058566 0.750000 0.000000
O O19 0.250000 0.549297 0.500000
#
# Coordination Sequence:
#
# PCOD9397481 Si02
#       8
#     8   8   8   8   8   8   8   8
#     4  10  23  41  63  93 132 161 221 270 331 401
#     4  11  23  38  65  92 127 174 225 280 329 393
#     4  11  22  39  64  90 120 164 209 270 332 393
#     4  11  24  43  66  96 134 174 219 275 329 394
#     4  12  27  39  56  82 121 171 224 271 325 384
#     4  11  24  43  70  98 131 173 216 272 336 401
#     4  11  23  40  59  86 122 161 223 274 325 382
#     4  11  24  41  62  88 132 174 225 275 337 397
#
# _framework density 21.524836000000001
#
# number of rings (size 3 to 8) (size 9 to 14) (size 15 to 20)
#    0.000    1.000    2.500    4.125    7.000    4.500 
#    0.000    0.000    0.000    0.375    0.000    0.000 
#    0.000    4.500    0.000    0.000    0.000    1.000 
#
# Total GULP energy -357796.173591 kJ/mol
# GULP energy per Si atom -5590.565212 kJ/mol
# Density = 2.147584 g / cm^3
# Si number density = 21.524836 Si / 1000 Ang^3
#
#
#
# Elastic Constant Matrix: (Units=GPa)
#
#
# Indices 1 2 3 4 5 6 
#
# 1 110.3681 25.6328 16.8571 0.0000 0.0000 0.0000
# 2 25.6328 124.3790 14.0394 0.0000 0.0000 0.0000
# 3 16.8571 14.0394 92.3425 0.0000 0.0000 0.0000
# 4 0.0000 0.0000 0.0000 36.5058 0.0000 0.0000
# 5 0.0000 0.0000 0.0000 0.0000 20.2223 0.0000
# 6 0.0000 0.0000 0.0000 0.0000 0.0000 14.6596
#
#
#
# Elastic Compliance Matrix: (Units=1/GPa)
#
#
# Indices 1 2 3 4 5 6 
#
# 1 0.009715 -0.001833 -0.001495 0.000000 0.000000 0.000000
# 2 -0.001833 0.008526 -0.000962 0.000000 0.000000 0.000000
# 3 -0.001495 -0.000962 0.011248 0.000000 0.000000 0.000000
# 4 0.000000 0.000000 0.000000 0.027393 0.000000 0.000000
# 5 0.000000 0.000000 0.000000 0.000000 0.049450 0.000000
# 6 0.000000 0.000000 0.000000 0.000000 0.000000 0.068215
#
#
# Mechanical properties :
#
#
# Convention : Reuss Voigt Hill
#
# Bulk Modulus (GPa) = 47.82404 48.90535 48.36470
# Shear Modulus (GPa) = 26.30242 32.31490 29.30866
#
# Velocity S-wave (km/s) = 3.49944 3.87884 3.69402
# Velocity P-wave (km/s) = 6.21244 6.54449 6.38063
#
# Compressibility (1/GPa) = 0.02090998
#
# Stress axis : x y z
#
# Youngs Moduli (GPa) = 102.93714 117.28397 88.90229
#
# Poissons Ratio (x) = 0.21502 0.13288
# Poissons Ratio (y) = 0.18872 0.08549
# Poissons Ratio (z) = 0.15386 0.11278
#
# Static dielectric constant tensor:
#      x y z
#    x 1.795080 0.000000 0.000000 
#    y 0.000000 1.913400 0.000000 
#    z 0.000000 0.000000 1.818320 
# 
# From -- ./inp_files/7300.got.cif
#   From: 2010.05.17/outbox.cif.g08.bks.cpg/sg50_4_cif.got.tgz:7300.got - 2010.06.03 11:33:33.
