data_PCOD9397362
_publ_section_title
;
Structure prediction by ZEFSAII (Michael W. Deem and Ramdas Pophale) SiO2 
 PCOD9397362
Probable space group: P B A N
;
_chemical_formula_sum "Si O2"
_cell_formula_units_Z 28
_cell_length_a 10.382994
_cell_length_b 19.537018
_cell_length_c 5.469584
_cell_angle_alpha 90.000000
_cell_angle_beta 90.000000
_cell_angle_gamma 90.000000
_cell_volume 1109.520105
_symmetry_space_group_name_H-M "P B A N"
_symmetry_group_IT_number 50
_space_group.IT_coordinate_system_code '2'
_symmetry_cell_setting 'orthorhombic'
loop_
_space_group_symop_operation_xyz
x,y,z
1/2-x,1/2-y,z
x,1/2-y,-z
1/2-x,y,-z
-x,-y,-z
1/2+x,1/2+y,-z
-x,1/2+y,z
1/2+x,-y,z
loop_
_atom_site_type_symbol
_atom_site_label
_atom_site_fract_x
_atom_site_fract_y
_atom_site_fract_z
Si Si1 0.979205 0.815006 0.334023
Si Si2 0.116755 0.062303 0.350409
Si Si3 0.668117 0.415680 0.755800
Si Si4 0.250000 0.159544 0.000000
O O1 0.006775 0.750000 0.500000
O O2 0.964797 0.882752 0.500141
O O3 0.843796 0.803074 0.193777
O O4 0.097419 0.843886 0.178207
O O5 0.250000 0.054924 0.500000
O O6 0.081593 0.985377 0.279337
O O7 0.149331 0.107382 0.117144
O O8 0.750000 0.407313 0.500000
O O9 0.750000 0.432772 0.000000
#
# Coordination Sequence:
#
# PCOD9397362 Si02
#       4
#     8   8   8   4
#     4  11  26  44  72 108 148 200 240 307 379 450
#     4   9  20  41  70 110 141 187 248 309 366 431
#     4  11  25  48  77 110 147 196 256 307 361 438
#     4  10  22  43  72 102 146 185 246 308 372 439
#
# _framework density 25.236135999999998
#
# number of rings (size 3 to 8) (size 9 to 14) (size 15 to 20)
#    0.000    1.714    1.429    0.857    4.000    9.143 
#    0.000    1.429    0.000    0.000    0.000    0.000 
#    0.000    0.000    0.000    0.000    0.000    0.000 
#
# Total GULP energy -156158.896626 kJ/mol
# GULP energy per Si atom -5577.103451 kJ/mol
# Density = 2.517870 g / cm^3
# Si number density = 25.236136 Si / 1000 Ang^3
#
#
#
# Elastic Constant Matrix: (Units=GPa)
#
#
# Indices 1 2 3 4 5 6 
#
# 1 35.5915 36.1664 6.3209 0.0000 0.0000 0.0000
# 2 36.1664 130.4081 21.9222 0.0000 0.0000 0.0000
# 3 6.3209 21.9222 86.0792 0.0000 0.0000 0.0000
# 4 0.0000 0.0000 0.0000 28.8298 0.0000 0.0000
# 5 0.0000 0.0000 0.0000 0.0000 30.0905 0.0000
# 6 0.0000 0.0000 0.0000 0.0000 0.0000 6.7926
#
#
#
# Elastic Compliance Matrix: (Units=1/GPa)
#
#
# Indices 1 2 3 4 5 6 
#
# 1 0.039123 -0.010831 -0.000115 0.000000 0.000000 0.000000
# 2 -0.010831 0.011010 -0.002009 0.000000 0.000000 0.000000
# 3 -0.000115 -0.002009 0.012137 0.000000 0.000000 0.000000
# 4 0.000000 0.000000 0.000000 0.034686 0.000000 0.000000
# 5 0.000000 0.000000 0.000000 0.000000 0.033233 0.000000
# 6 0.000000 0.000000 0.000000 0.000000 0.000000 0.147220
#
#
# Mechanical properties :
#
#
# Convention : Reuss Voigt Hill
#
# Bulk Modulus (GPa) = 27.50141 42.32198 34.91170
# Shear Modulus (GPa) = 15.85104 25.65386 20.75245
#
# Velocity S-wave (km/s) = 2.50893 3.19180 2.87074
# Velocity P-wave (km/s) = 4.39480 5.51274 4.98520
#
# Compressibility (1/GPa) = 0.03636177
#
# Stress axis : x y z
#
# Youngs Moduli (GPa) = 25.56070 90.82991 82.39167
#
# Poissons Ratio (x) = 0.98375 0.00943
# Poissons Ratio (y) = 0.27684 0.16549
# Poissons Ratio (z) = 0.00293 0.18244
#
# Static dielectric constant tensor:
#      x y z
#    x 2.547260 0.000000 0.000000 
#    y 0.000000 1.960890 0.000000 
#    z 0.000000 0.000000 2.136100 
# 
# From -- ./inp_files/1871.got.cif
#   From: 2010.05.17/outbox.cif.g08.bks.cpg/sg50_1_cif.got.tgz:1871.got - 2010.06.03 11:33:33.
