data_PCOD9397364
_publ_section_title
;
Structure prediction by ZEFSAII (Michael W. Deem and Ramdas Pophale) SiO2 
 PCOD9397364
Probable space group: P B A N
;
_chemical_formula_sum "Si O2"
_cell_formula_units_Z 44
_cell_length_a 29.901591
_cell_length_b 7.932105
_cell_length_c 9.298126
_cell_angle_alpha 90.000000
_cell_angle_beta 90.000000
_cell_angle_gamma 90.000000
_cell_volume 2205.353323
_symmetry_space_group_name_H-M "P B A N"
_symmetry_group_IT_number 50
_space_group.IT_coordinate_system_code '2'
_symmetry_cell_setting 'orthorhombic'
loop_
_space_group_symop_operation_xyz
x,y,z
1/2-x,1/2-y,z
x,1/2-y,-z
1/2-x,y,-z
-x,-y,-z
1/2+x,1/2+y,-z
-x,1/2+y,z
1/2+x,-y,z
loop_
_atom_site_type_symbol
_atom_site_label
_atom_site_fract_x
_atom_site_fract_y
_atom_site_fract_z
Si Si1 0.750000 0.250000 0.000000
Si Si2 0.056675 0.232292 0.840050
Si Si3 0.316425 0.989549 0.146927
Si Si4 0.622105 0.915768 0.601953
Si Si5 0.250000 0.250000 0.000000
Si Si6 0.613231 0.250000 0.000000
Si Si7 0.460701 0.885159 0.786085
Si Si8 0.427694 0.750000 0.500000
O O1 0.718397 0.343332 0.112809
O O2 0.086901 0.135743 0.726265
O O3 0.048075 0.417206 0.777390
O O4 0.008871 0.141991 0.857138
O O5 0.076914 0.250000 0.000000
O O6 0.357816 0.911944 0.052512
O O7 0.334487 0.029216 0.305554
O O8 0.285697 0.143838 0.093126
O O9 0.628167 0.750000 0.500000
O O10 0.602473 0.082432 0.524249
O O11 0.580273 0.306213 0.873752
O O12 0.459051 0.792072 0.634289
#
# Coordination Sequence:
#
# PCOD9397364 Si02
#       8
#     2   8   8   8   2   4   8   4
#     4   8  20  46  76 108 126 170 216 300 360 424
#     4  12  26  42  66 102 141 185 246 297 334 387
#     4  10  22  43  73 104 136 166 228 281 361 419
#     4  12  26  46  70 103 142 191 233 282 344 425
#     4  10  24  42  76 110 130 162 212 306 356 426
#     4  11  22  41  71 100 134 190 229 289 332 411
#     4  12  25  41  65  98 145 188 240 286 342 393
#     4  12  26  46  64  97 142 196 232 281 344 414
#
# _framework density 19.951452
#
# number of rings (size 3 to 8) (size 9 to 14) (size 15 to 20)
#    0.000    0.727    4.545    2.727    5.091    1.455 
#    3.273    0.455    0.000    0.000    0.000    0.000 
#    0.000    0.000    0.000    0.000    0.000    0.000 
#
# Total GULP energy -245426.763003 kJ/mol
# GULP energy per Si atom -5577.880977 kJ/mol
# Density = 1.990604 g / cm^3
# Si number density = 19.951452 Si / 1000 Ang^3
#
#
#
# Elastic Constant Matrix: (Units=GPa)
#
#
# Indices 1 2 3 4 5 6 
#
# 1 93.4693 33.3608 33.6082 0.0000 0.0000 0.0000
# 2 33.3608 111.3515 36.8930 0.0000 0.0000 0.0000
# 3 33.6082 36.8930 98.2839 0.0000 0.0000 0.0000
# 4 0.0000 0.0000 0.0000 43.2947 0.0000 0.0000
# 5 0.0000 0.0000 0.0000 0.0000 38.1851 0.0000
# 6 0.0000 0.0000 0.0000 0.0000 0.0000 -54.1374
#
#
#
# Elastic Compliance Matrix: (Units=1/GPa)
#
#
# Indices 1 2 3 4 5 6 
#
# 1 0.012893 -0.002743 -0.003379 0.000000 0.000000 0.000000
# 2 -0.002743 0.010840 -0.003131 0.000000 0.000000 0.000000
# 3 -0.003379 -0.003131 0.012505 0.000000 0.000000 0.000000
# 4 0.000000 0.000000 0.000000 0.023097 0.000000 0.000000
# 5 0.000000 0.000000 0.000000 0.000000 0.026188 0.000000
# 6 0.000000 0.000000 0.000000 0.000000 0.000000 -0.018472
#
#
# Mechanical properties :
#
#
# Convention : Reuss Voigt Hill
#
# Bulk Modulus (GPa) = 56.39608 56.75875 56.57741
# Shear Modulus (GPa) = 54.66356 18.75134 36.70745
#
# Velocity S-wave (km/s) = 5.24002 3.06902 4.29399
# Velocity P-wave (km/s) = 8.05844 6.40849 7.28035
#
# Compressibility (1/GPa) = 0.01773173
#
# Stress axis : x y z
#
# Youngs Moduli (GPa) = 77.56309 92.25314 79.96605
#
# Poissons Ratio (x) = 0.25306 0.27020
# Poissons Ratio (y) = 0.21277 0.25037
# Poissons Ratio (z) = 0.26208 0.28884
#
# Static dielectric constant tensor:
#      x y z
#    x 1.681720 0.000000 0.000000 
#    y 0.000000 1.751750 0.000000 
#    z 0.000000 0.000000 1.786160 
# 
# From -- ./inp_files/16894.got.cif
#   From: 2010.05.17/outbox.cif.g08.bks.cpg/sg50_9_cif.got.tgz:16894.got - 2010.06.03 11:33:33.
