data_PCOD9397513
_publ_section_title
;
Structure prediction by ZEFSAII (Michael W. Deem and Ramdas Pophale) SiO2 
 PCOD9397513
Probable space group: P B A N
;
_chemical_formula_sum "Si O2"
_cell_formula_units_Z 28
_cell_length_a 23.730931
_cell_length_b 4.861723
_cell_length_c 10.573004
_cell_angle_alpha 90.000000
_cell_angle_beta 90.000000
_cell_angle_gamma 90.000000
_cell_volume 1219.841443
_symmetry_space_group_name_H-M "P B A N"
_symmetry_group_IT_number 50
_space_group.IT_coordinate_system_code '2'
_symmetry_cell_setting 'orthorhombic'
loop_
_space_group_symop_operation_xyz
x,y,z
1/2-x,1/2-y,z
x,1/2-y,-z
1/2-x,y,-z
-x,-y,-z
1/2+x,1/2+y,-z
-x,1/2+y,z
1/2+x,-y,z
loop_
_atom_site_type_symbol
_atom_site_label
_atom_site_fract_x
_atom_site_fract_y
_atom_site_fract_z
Si Si1 0.856047 0.889589 0.363901
Si Si2 0.809576 0.115376 0.768953
Si Si3 0.539208 0.878463 0.815917
Si Si4 0.609359 0.250000 0.000000
O O1 0.857774 0.750000 0.500000
O O2 0.815699 0.695341 0.278263
O O3 0.917821 0.900730 0.300830
O O4 0.832028 0.194495 0.346346
O O5 0.750000 0.250000 0.803951
O O6 0.851269 0.139819 0.887885
O O7 0.516394 0.568920 0.811994
O O8 0.572421 0.011243 0.934433
#
# Coordination Sequence:
#
# PCOD9397513 Si02
#       4
#     8   8   8   4
#     4  11  25  43  63  93 128 164 214 262 307 375
#     4  11  24  42  66  93 125 166 207 260 321 373
#     4  11  23  40  65  93 127 169 208 257 315 371
#     4  10  23  42  64  96 130 160 211 262 312 380
#
# _framework density 22.953800000000001
#
# number of rings (size 3 to 8) (size 9 to 14) (size 15 to 20)
#    0.000    1.143    0.000    6.429    0.000   13.714 
#    0.000    5.714    0.000    0.000    0.000    0.000 
#    0.000    0.000    0.000    0.000    0.000    0.000 
#
# Total GULP energy -156622.907171 kJ/mol
# GULP energy per Si atom -5593.675256 kJ/mol
# Density = 2.290156 g / cm^3
# Si number density = 22.953800 Si / 1000 Ang^3
#
#
#
# Elastic Constant Matrix: (Units=GPa)
#
#
# Indices 1 2 3 4 5 6 
#
# 1 97.7549 -11.7584 5.9102 0.0000 0.0000 0.0000
# 2 -11.7584 87.1149 4.3552 0.0000 0.0000 0.0000
# 3 5.9102 4.3552 49.7352 0.0000 0.0000 0.0000
# 4 0.0000 0.0000 0.0000 25.1532 0.0000 0.0000
# 5 0.0000 0.0000 0.0000 0.0000 2.0895 0.0000
# 6 0.0000 0.0000 0.0000 0.0000 0.0000 18.8193
#
#
#
# Elastic Compliance Matrix: (Units=1/GPa)
#
#
# Indices 1 2 3 4 5 6 
#
# 1 0.010492 0.001485 -0.001377 0.000000 0.000000 0.000000
# 2 0.001485 0.011740 -0.001204 0.000000 0.000000 0.000000
# 3 -0.001377 -0.001204 0.020376 0.000000 0.000000 0.000000
# 4 0.000000 0.000000 0.000000 0.039756 0.000000 0.000000
# 5 0.000000 0.000000 0.000000 0.000000 0.478590 0.000000
# 6 0.000000 0.000000 0.000000 0.000000 0.000000 0.053137
#
#
# Mechanical properties :
#
#
# Convention : Reuss Voigt Hill
#
# Bulk Modulus (GPa) = 24.74381 25.73546 25.23964
# Shear Modulus (GPa) = 7.93961 24.95226 16.44593
#
# Velocity S-wave (km/s) = 1.86184 3.30064 2.67962
# Velocity P-wave (km/s) = 3.92749 5.07561 4.53801
#
# Compressibility (1/GPa) = 0.04041415
#
# Stress axis : x y z
#
# Youngs Moduli (GPa) = 95.31510 85.18082 49.07836
#
# Poissons Ratio (x) = -0.12649 0.06757
# Poissons Ratio (y) = -0.14154 0.05911
# Poissons Ratio (z) = 0.13123 0.10260
#
# Static dielectric constant tensor:
#      x y z
#    x 1.853200 0.000000 0.000000 
#    y 0.000000 1.843190 0.000000 
#    z 0.000000 0.000000 1.828350 
# 
# From -- ./inp_files/22555.got.cif
#   From: 2010.05.17/outbox.cif.g08.bks.cpg/sg50_12_cif.got.tgz:22555.got - 2010.06.03 11:33:33.
