data_PCOD9397461
_publ_section_title
;
Structure prediction by ZEFSAII (Michael W. Deem and Ramdas Pophale) SiO2 
 PCOD9397461
Probable space group: P B A N
;
_chemical_formula_sum "Si O2"
_cell_formula_units_Z 26
_cell_length_a 14.570769
_cell_length_b 15.372041
_cell_length_c 5.217573
_cell_angle_alpha 90.000000
_cell_angle_beta 90.000000
_cell_angle_gamma 90.000000
_cell_volume 1168.644828
_symmetry_space_group_name_H-M "P B A N"
_symmetry_group_IT_number 50
_space_group.IT_coordinate_system_code '2'
_symmetry_cell_setting 'orthorhombic'
loop_
_space_group_symop_operation_xyz
x,y,z
1/2-x,1/2-y,z
x,1/2-y,-z
1/2-x,y,-z
-x,-y,-z
1/2+x,1/2+y,-z
-x,1/2+y,z
1/2+x,-y,z
loop_
_atom_site_type_symbol
_atom_site_label
_atom_site_fract_x
_atom_site_fract_y
_atom_site_fract_z
Si Si1 0.250000 0.250000 0.500000
Si Si2 0.907042 0.055141 0.495571
Si Si3 0.165903 0.403810 0.189654
Si Si4 0.465469 0.853441 0.994778
O O1 0.186797 0.312689 0.329775
O O2 0.904183 0.106433 0.763203
O O3 0.839106 0.980754 0.396785
O O4 0.920005 0.121071 0.262044
O O5 0.000000 0.000000 0.500000
O O6 0.067979 0.394498 0.043570
O O7 0.250000 0.419820 0.000000
O O8 0.474959 0.750000 0.000000
#
# Coordination Sequence:
#
# PCOD9397461 Si02
#       4
#     2   8   8   8
#     4  12  26  36  64  98 138 164 200 264 342 404
#     4  10  23  40  64  92 132 172 217 267 322 385
#     4  11  25  39  61  96 138 173 211 266 344 400
#     4  11  23  41  67  95 130 171 226 272 317 386
#
# _framework density 22.247989
#
# number of rings (size 3 to 8) (size 9 to 14) (size 15 to 20)
#    0.000    1.231    0.000    6.923   21.538    0.000 
#    0.000    0.000    0.000    0.923    0.000    0.000 
#    0.000    0.000    0.000    0.000    0.000    0.000 
#
# Total GULP energy -145389.412684 kJ/mol
# GULP energy per Si atom -5591.900488 kJ/mol
# Density = 2.219735 g / cm^3
# Si number density = 22.247989 Si / 1000 Ang^3
#
#
#
# Elastic Constant Matrix: (Units=GPa)
#
#
# Indices 1 2 3 4 5 6 
#
# 1 73.4699 39.9090 24.6867 0.0000 0.0000 0.0000
# 2 39.9090 108.9728 31.0357 0.0000 0.0000 0.0000
# 3 24.6867 31.0357 113.0110 0.0000 0.0000 0.0000
# 4 0.0000 0.0000 0.0000 55.0680 0.0000 0.0000
# 5 0.0000 0.0000 0.0000 0.0000 4.6035 0.0000
# 6 0.0000 0.0000 0.0000 0.0000 0.0000 35.3615
#
#
#
# Elastic Compliance Matrix: (Units=1/GPa)
#
#
# Indices 1 2 3 4 5 6 
#
# 1 0.017498 -0.005771 -0.002237 0.000000 0.000000 0.000000
# 2 -0.005771 0.011859 -0.001996 0.000000 0.000000 0.000000
# 3 -0.002237 -0.001996 0.009886 0.000000 0.000000 0.000000
# 4 0.000000 0.000000 0.000000 0.018159 0.000000 0.000000
# 5 0.000000 0.000000 0.000000 0.000000 0.217228 0.000000
# 6 0.000000 0.000000 0.000000 0.000000 0.000000 0.028279
#
#
# Mechanical properties :
#
#
# Convention : Reuss Voigt Hill
#
# Bulk Modulus (GPa) = 51.99389 54.07959 53.03674
# Shear Modulus (GPa) = 15.18244 32.32808 23.75526
#
# Velocity S-wave (km/s) = 2.61515 3.81606 3.27119
# Velocity P-wave (km/s) = 5.70435 6.61641 6.17723
#
# Compressibility (1/GPa) = 0.01923303
#
# Stress axis : x y z
#
# Youngs Moduli (GPa) = 57.15076 84.32736 101.15716
#
# Poissons Ratio (x) = 0.48664 0.22633
# Poissons Ratio (y) = 0.32981 0.20191
# Poissons Ratio (z) = 0.12787 0.16832
#
# Static dielectric constant tensor:
#      x y z
#    x 1.859840 0.000000 0.000000 
#    y 0.000000 1.806760 0.000000 
#    z 0.000000 0.000000 1.668550 
# 
# From -- ./inp_files/2764.got.cif
#   From: 2010.05.17/outbox.cif.g08.bks.cpg/sg50_2_cif.got.tgz:2764.got - 2010.06.03 11:33:33.
