data_PCOD9397179
_publ_section_title
;
Structure prediction by ZEFSAII (Michael W. Deem and Ramdas Pophale) SiO2 
 PCOD9397179
Probable space group: P B A N
;
_chemical_formula_sum "Si O2"
_cell_formula_units_Z 48
_cell_length_a 15.619244
_cell_length_b 24.298674
_cell_length_c 6.064531
_cell_angle_alpha 90.000000
_cell_angle_beta 90.000000
_cell_angle_gamma 90.000000
_cell_volume 2301.652760
_symmetry_space_group_name_H-M "P B A N"
_symmetry_group_IT_number 50
_space_group.IT_coordinate_system_code '2'
_symmetry_cell_setting 'orthorhombic'
loop_
_space_group_symop_operation_xyz
x,y,z
1/2-x,1/2-y,z
x,1/2-y,-z
1/2-x,y,-z
-x,-y,-z
1/2+x,1/2+y,-z
-x,1/2+y,z
1/2+x,-y,z
loop_
_atom_site_type_symbol
_atom_site_label
_atom_site_fract_x
_atom_site_fract_y
_atom_site_fract_z
Si Si1 0.913706 0.476309 0.749025
Si Si2 0.342180 0.306905 0.891602
Si Si3 0.750000 0.750000 0.500000
Si Si4 0.375730 0.903243 0.633750
Si Si5 0.157774 0.801633 0.618141
Si Si6 0.250000 0.931131 0.000000
Si Si7 0.031522 0.090405 0.936296
Si Si8 0.750000 0.250000 0.000000
O O1 0.890785 0.459963 0.498043
O O2 0.932952 0.540017 0.789274
O O3 0.831224 0.463488 0.902565
O O4 0.993635 0.439795 0.843950
O O5 0.312777 0.288598 0.646251
O O6 0.403085 0.358700 0.939424
O O7 0.376776 0.250000 0.000000
O O8 0.250000 0.318868 0.000000
O O9 0.383209 0.858821 0.438780
O O10 0.289600 0.902085 0.781382
O O11 0.448280 0.889055 0.807357
O O12 0.111980 0.750000 0.500000
O O13 0.250000 0.804325 0.500000
O O14 0.184964 0.787526 0.862661
#
# Coordination Sequence:
#
# PCOD9397179 Si02
#       8
#     8   8   2   8   8   4   8   2
#     4  10  22  40  62  90 128 167 205 255 313 379
#     4   9  20  41  68  94 122 160 210 264 320 379
#     4   8  18  40  64  94 124 164 208 268 322 386
#     4  11  22  39  60  88 126 165 201 258 315 373
#     4   9  19  34  55  82 113 157 210 252 299 356
#     4  10  22  39  64  91 119 160 217 252 300 374
#     4  10  23  41  60  92 130 161 203 261 318 382
#     4   8  18  34  56  78 112 156 212 266 278 354
#
# _framework density 20.854581
#
# number of rings (size 3 to 8) (size 9 to 14) (size 15 to 20)
#    0.000    2.667    0.000    2.000    1.167   11.333 
#    7.500    0.000    0.000    0.000    0.000    0.000 
#    0.000    0.000    0.000    0.000    0.000    0.000 
#
# Total GULP energy -267370.087583 kJ/mol
# GULP energy per Si atom -5570.210158 kJ/mol
# Density = 2.080711 g / cm^3
# Si number density = 20.854581 Si / 1000 Ang^3
#
#
#
# Elastic Constant Matrix: (Units=GPa)
#
#
# Indices 1 2 3 4 5 6 
#
# 1 72.7344 56.3137 14.6730 0.0000 0.0000 0.0000
# 2 56.3137 140.2565 34.3892 0.0000 0.0000 0.0000
# 3 14.6730 34.3892 90.3597 0.0000 0.0000 0.0000
# 4 0.0000 0.0000 0.0000 12.8362 0.0000 0.0000
# 5 0.0000 0.0000 0.0000 0.0000 20.4881 0.0000
# 6 0.0000 0.0000 0.0000 0.0000 0.0000 29.0336
#
#
#
# Elastic Compliance Matrix: (Units=1/GPa)
#
#
# Indices 1 2 3 4 5 6 
#
# 1 0.019954 -0.007960 -0.000211 0.000000 0.000000 0.000000
# 2 -0.007960 0.011039 -0.002909 0.000000 0.000000 0.000000
# 3 -0.000211 -0.002909 0.012208 0.000000 0.000000 0.000000
# 4 0.000000 0.000000 0.000000 0.077905 0.000000 0.000000
# 5 0.000000 0.000000 0.000000 0.000000 0.048809 0.000000
# 6 0.000000 0.000000 0.000000 0.000000 0.000000 0.034443
#
#
# Mechanical properties :
#
#
# Convention : Reuss Voigt Hill
#
# Bulk Modulus (GPa) = 47.52342 57.12249 52.32295
# Shear Modulus (GPa) = 21.41050 25.66989 23.54019
#
# Velocity S-wave (km/s) = 3.20762 3.51222 3.36337
# Velocity P-wave (km/s) = 6.04615 6.62555 6.34247
#
# Compressibility (1/GPa) = 0.02104226
#
# Stress axis : x y z
#
# Youngs Moduli (GPa) = 50.11499 90.58849 81.91292
#
# Poissons Ratio (x) = 0.72108 0.01727
# Poissons Ratio (y) = 0.39891 0.23825
# Poissons Ratio (z) = 0.01057 0.26349
#
# Static dielectric constant tensor:
#      x y z
#    x 1.784960 0.000000 0.000000 
#    y 0.000000 1.847160 0.000000 
#    z 0.000000 0.000000 1.884090 
# 
# From -- ./inp_files/3635.got.cif
#   From: 2010.05.17/outbox.cif.g08.bks.cpg/sg50_2_cif.got.tgz:3635.got - 2010.06.03 11:33:33.
