data_PCOD9397269
_publ_section_title
;
Structure prediction by ZEFSAII (Michael W. Deem and Ramdas Pophale) SiO2 
 PCOD9397269
Probable space group: P B A N
;
_chemical_formula_sum "Si O2"
_cell_formula_units_Z 40
_cell_length_a 11.988931
_cell_length_b 8.563613
_cell_length_c 18.896699
_cell_angle_alpha 90.000000
_cell_angle_beta 90.000000
_cell_angle_gamma 90.000000
_cell_volume 1940.096977
_symmetry_space_group_name_H-M "P B A N"
_symmetry_group_IT_number 50
_space_group.IT_coordinate_system_code '2'
_symmetry_cell_setting 'orthorhombic'
loop_
_space_group_symop_operation_xyz
x,y,z
1/2-x,1/2-y,z
x,1/2-y,-z
1/2-x,y,-z
-x,-y,-z
1/2+x,1/2+y,-z
-x,1/2+y,z
1/2+x,-y,z
loop_
_atom_site_type_symbol
_atom_site_label
_atom_site_fract_x
_atom_site_fract_y
_atom_site_fract_z
Si Si1 0.856396 0.654024 0.363919
Si Si2 0.915951 0.993483 0.934283
Si Si3 0.081301 0.907902 0.806797
Si Si4 0.750000 0.250000 0.106542
Si Si5 0.024673 0.869472 0.294773
Si Si6 0.250000 0.250000 0.500000
Si Si7 0.750000 0.750000 0.000000
O O1 0.750000 0.750000 0.333059
O O2 0.886003 0.490892 0.326455
O O3 0.823765 0.646019 0.446563
O O4 0.965021 0.762041 0.352838
O O5 0.827261 0.859574 0.952125
O O6 0.984609 0.949480 0.863496
O O7 0.851067 0.158989 0.930719
O O8 0.000000 0.000000 0.000000
O O9 0.195082 0.889888 0.848733
O O10 0.068717 0.743298 0.766666
O O11 0.071035 0.031426 0.744456
#
# Coordination Sequence:
#
# PCOD9397269 Si02
#       7
#     8   8   8   4   8   2   2
#     4   9  21  41  65  98 135 180 221 277 329 404
#     4  12  27  48  65  96 130 168 234 285 344 416
#     4  11  24  42  64 102 128 175 227 282 337 417
#     4  12  26  43  70  88 130 177 214 284 354 395
#     4  10  22  41  66  95 140 174 221 280 340 400
#     4   8  20  40  70  98 138 184 222 274 332 408
#     4  12  28  42  70  82 120 178 208 290 352 376
#
# _framework density 20.617526999999999
#
# number of rings (size 3 to 8) (size 9 to 14) (size 15 to 20)
#    0.600    0.800    2.000    2.400    5.600    3.600 
#    1.800    0.000    0.000    4.800    0.000    0.000 
#    0.000    0.000    0.000    0.000    0.000    0.000 
#
# Total GULP energy -223135.072394 kJ/mol
# GULP energy per Si atom -5578.376810 kJ/mol
# Density = 2.057060 g / cm^3
# Si number density = 20.617527 Si / 1000 Ang^3
#
#
#
# Elastic Constant Matrix: (Units=GPa)
#
#
# Indices 1 2 3 4 5 6 
#
# 1 84.5123 25.5634 48.3461 0.0000 0.0000 0.0000
# 2 25.5634 89.1098 51.9949 0.0000 0.0000 0.0000
# 3 48.3461 51.9949 125.0728 0.0000 0.0000 0.0000
# 4 0.0000 0.0000 0.0000 20.4160 0.0000 0.0000
# 5 0.0000 0.0000 0.0000 0.0000 18.8642 0.0000
# 6 0.0000 0.0000 0.0000 0.0000 0.0000 37.0265
#
#
#
# Elastic Compliance Matrix: (Units=1/GPa)
#
#
# Indices 1 2 3 4 5 6 
#
# 1 0.015295 -0.001238 -0.005397 0.000000 0.000000 0.000000
# 2 -0.001238 0.014916 -0.005722 0.000000 0.000000 0.000000
# 3 -0.005397 -0.005722 0.012460 0.000000 0.000000 0.000000
# 4 0.000000 0.000000 0.000000 0.048981 0.000000 0.000000
# 5 0.000000 0.000000 0.000000 0.000000 0.053010 0.000000
# 6 0.000000 0.000000 0.000000 0.000000 0.000000 0.027008
#
#
# Mechanical properties :
#
#
# Convention : Reuss Voigt Hill
#
# Bulk Modulus (GPa) = 55.69284 61.16706 58.42995
# Shear Modulus (GPa) = 24.70701 26.78071 25.74386
#
# Velocity S-wave (km/s) = 3.46547 3.60798 3.53744
# Velocity P-wave (km/s) = 6.56382 6.86211 6.71462
#
# Compressibility (1/GPa) = 0.01795563
#
# Stress axis : x y z
#
# Youngs Moduli (GPa) = 65.38188 67.04088 80.25388
#
# Poissons Ratio (x) = 0.08303 0.43315
# Poissons Ratio (y) = 0.08097 0.45923
# Poissons Ratio (z) = 0.35288 0.38362
#
# Static dielectric constant tensor:
#      x y z
#    x 1.779540 0.000000 0.000000 
#    y 0.000000 1.781350 0.000000 
#    z 0.000000 0.000000 1.757020 
# 
# From -- ./inp_files/30838.got.cif
#   From: 2010.05.17/outbox.cif.g08.bks.cpg/sg50_16_cif.got.tgz:30838.got - 2010.06.03 11:33:33.
