data_PCOD9397812
_publ_section_title
;
Structure prediction by ZEFSAII (Michael W. Deem and Ramdas Pophale) SiO2 
 PCOD9397812
Probable space group: P B A N
;
_chemical_formula_sum "Si O2"
_cell_formula_units_Z 64
_cell_length_a 27.799012
_cell_length_b 9.136750
_cell_length_c 13.075829
_cell_angle_alpha 90.000000
_cell_angle_beta 90.000000
_cell_angle_gamma 90.000000
_cell_volume 3321.164104
_symmetry_space_group_name_H-M "P B A N"
_symmetry_group_IT_number 50
_space_group.IT_coordinate_system_code '2'
_symmetry_cell_setting 'orthorhombic'
loop_
_space_group_symop_operation_xyz
x,y,z
1/2-x,1/2-y,z
x,1/2-y,-z
1/2-x,y,-z
-x,-y,-z
1/2+x,1/2+y,-z
-x,1/2+y,z
1/2+x,-y,z
loop_
_atom_site_type_symbol
_atom_site_label
_atom_site_fract_x
_atom_site_fract_y
_atom_site_fract_z
Si Si1 0.681075 0.962586 0.778236
Si Si2 0.378792 0.853738 0.363366
Si Si3 0.872874 0.772986 0.886748
Si Si4 0.521076 0.519842 0.384027
Si Si5 0.770189 0.583701 0.108742
Si Si6 0.939260 0.666297 0.311253
Si Si7 0.362813 0.971464 0.582105
Si Si8 0.305764 0.281512 0.387159
O O1 0.652914 0.884711 0.869792
O O2 0.736497 0.993071 0.806275
O O3 0.675263 0.832158 0.694710
O O4 0.651823 0.096301 0.733145
O O5 0.354650 0.925238 0.464897
O O6 0.379577 0.679675 0.369105
O O7 0.431992 0.919399 0.369753
O O8 0.827798 0.890753 0.884531
O O9 0.910689 0.806771 0.795480
O O10 0.894362 0.750000 0.000000
O O11 0.500000 0.500000 0.500000
O O12 0.537568 0.684240 0.355773
O O13 0.480965 0.455511 0.307630
O O14 0.750000 0.750000 0.117155
O O15 0.750000 0.527562 0.000000
O O16 0.902136 0.596106 0.393247
O O17 0.316438 0.048523 0.630783
O O18 0.250000 0.250000 0.388935
O O19 0.325307 0.250000 0.500000
#
# Coordination Sequence:
#
# PCOD9397812 Si02
#       8
#     8   8   8   8   8   8   8   8
#     4  11  19  35  63  95 127 168 210 271 318 381
#     4  11  23  40  61  90 137 167 211 263 329 389
#     4  11  20  37  64 100 130 166 219 278 326 377
#     4  12  24  39  63  96 123 166 213 273 323 399
#     4   9  16  31  60  99 126 156 216 273 311 366
#     4  12  25  40  66  94 128 166 223 268 334 388
#     4  11  23  39  59  92 126 173 207 265 319 392
#     4  11  21  34  57  86 123 166 214 250 306 391
#
# _framework density 19.270351999999999
#
# number of rings (size 3 to 8) (size 9 to 14) (size 15 to 20)
#    0.000    1.000    7.500    2.250    1.750    0.000 
#    0.000    1.250    0.000    0.750    0.000    1.750 
#    0.000    0.000    0.000    0.000    0.000    0.000 
#
# Total GULP energy -356573.788062 kJ/mol
# GULP energy per Si atom -5571.465438 kJ/mol
# Density = 1.922649 g / cm^3
# Si number density = 19.270352 Si / 1000 Ang^3
#
#
#
# Elastic Constant Matrix: (Units=GPa)
#
#
# Indices 1 2 3 4 5 6 
#
# 1 107.4765 51.5385 40.7445 0.0000 0.0000 0.0000
# 2 51.5385 103.2073 26.9261 0.0000 0.0000 0.0000
# 3 40.7445 26.9261 91.6496 0.0000 0.0000 0.0000
# 4 0.0000 0.0000 0.0000 13.5932 0.0000 0.0000
# 5 0.0000 0.0000 0.0000 0.0000 31.2810 0.0000
# 6 0.0000 0.0000 0.0000 0.0000 0.0000 23.5728
#
#
#
# Elastic Compliance Matrix: (Units=1/GPa)
#
#
# Indices 1 2 3 4 5 6 
#
# 1 0.013711 -0.005693 -0.004423 0.000000 0.000000 0.000000
# 2 -0.005693 0.012857 -0.001246 0.000000 0.000000 0.000000
# 3 -0.004423 -0.001246 0.013244 0.000000 0.000000 0.000000
# 4 0.000000 0.000000 0.000000 0.073566 0.000000 0.000000
# 5 0.000000 0.000000 0.000000 0.000000 0.031968 0.000000
# 6 0.000000 0.000000 0.000000 0.000000 0.000000 0.042422
#
#
# Mechanical properties :
#
#
# Convention : Reuss Voigt Hill
#
# Bulk Modulus (GPa) = 58.52328 60.08353 59.30340
# Shear Modulus (GPa) = 23.12793 25.89769 24.51281
#
# Velocity S-wave (km/s) = 3.46812 3.66992 3.57045
# Velocity P-wave (km/s) = 6.81709 7.01461 6.91655
#
# Compressibility (1/GPa) = 0.01708722
#
# Stress axis : x y z
#
# Youngs Moduli (GPa) = 72.93381 77.77668 75.50799
#
# Poissons Ratio (x) = 0.44278 0.33397
# Poissons Ratio (y) = 0.41521 0.09412
# Poissons Ratio (z) = 0.32258 0.09695
#
# Static dielectric constant tensor:
#      x y z
#    x 1.745710 0.000000 0.000000 
#    y 0.000000 1.696410 0.000000 
#    z 0.000000 0.000000 1.768750 
# 
# From -- ./inp_files/27794.got.cif
#   From: 2010.05.17/outbox.cif.g08.bks.cpg/sg50_14_cif.got.tgz:27794.got - 2010.06.03 11:33:33.
