data_PCOD9397509
_publ_section_title
;
Structure prediction by ZEFSAII (Michael W. Deem and Ramdas Pophale) SiO2 
 PCOD9397509
Probable space group: P B A N
;
_chemical_formula_sum "Si O2"
_cell_formula_units_Z 38
_cell_length_a 9.419334
_cell_length_b 11.758073
_cell_length_c 16.639787
_cell_angle_alpha 90.000000
_cell_angle_beta 90.000000
_cell_angle_gamma 90.000000
_cell_volume 1842.909937
_symmetry_space_group_name_H-M "P B A N"
_symmetry_group_IT_number 50
_space_group.IT_coordinate_system_code '2'
_symmetry_cell_setting 'orthorhombic'
loop_
_space_group_symop_operation_xyz
x,y,z
1/2-x,1/2-y,z
x,1/2-y,-z
1/2-x,y,-z
-x,-y,-z
1/2+x,1/2+y,-z
-x,1/2+y,z
1/2+x,-y,z
loop_
_atom_site_type_symbol
_atom_site_label
_atom_site_fract_x
_atom_site_fract_y
_atom_site_fract_z
Si Si1 0.250000 0.750000 0.000000
Si Si2 0.215783 0.621169 0.594439
Si Si3 0.250000 0.250000 0.766082
Si Si4 0.840138 0.034985 0.074230
Si Si5 0.929853 0.557433 0.675629
Si Si6 0.098278 0.461022 0.827148
O O1 0.154603 0.667009 0.052028
O O2 0.250000 0.750000 0.621731
O O3 0.250000 0.613899 0.500000
O O4 0.317728 0.531329 0.639109
O O5 0.050663 0.595447 0.612464
O O6 0.157004 0.164119 0.712003
O O7 0.144229 0.329166 0.818664
O O8 0.996084 0.000187 0.099524
O O9 0.745354 0.022312 0.153489
O O10 0.750000 0.980929 0.000000
O O11 0.021196 0.499838 0.746829
#
# Coordination Sequence:
#
# PCOD9397509 Si02
#       6
#     2   8   4   8   8   8
#     4   8  24  36  64  88 128 176 226 274 350 380
#     4  11  25  46  72 101 139 181 226 280 342 409
#     4  12  26  40  72 106 140 182 236 280 356 402
#     4  10  23  42  63  94 130 174 227 279 344 395
#     4  12  24  46  70 104 139 179 233 279 345 411
#     4  12  23  44  67  97 137 177 229 284 335 416
#
# _framework density 20.619565000000001
#
# number of rings (size 3 to 8) (size 9 to 14) (size 15 to 20)
#    0.632    0.211    4.211    2.526    2.947    0.000 
#    1.895    0.000    0.000    0.000    0.000    0.000 
#    0.000    0.000    0.000    0.000    0.000    0.000 
#
# Total GULP energy -211940.351669 kJ/mol
# GULP energy per Si atom -5577.377675 kJ/mol
# Density = 2.057263 g / cm^3
# Si number density = 20.619565 Si / 1000 Ang^3
#
#
#
# Elastic Constant Matrix: (Units=GPa)
#
#
# Indices 1 2 3 4 5 6 
#
# 1 137.4038 35.1468 34.8246 0.0000 0.0000 0.0000
# 2 35.1468 106.2625 25.0765 0.0000 0.0000 0.0000
# 3 34.8246 25.0765 69.6887 0.0000 0.0000 0.0000
# 4 0.0000 0.0000 0.0000 38.6209 0.0000 0.0000
# 5 0.0000 0.0000 0.0000 0.0000 98.9321 0.0000
# 6 0.0000 0.0000 0.0000 0.0000 0.0000 42.2513
#
#
#
# Elastic Compliance Matrix: (Units=1/GPa)
#
#
# Indices 1 2 3 4 5 6 
#
# 1 0.008715 -0.002027 -0.003626 0.000000 0.000000 0.000000
# 2 -0.002027 0.010755 -0.002857 0.000000 0.000000 0.000000
# 3 -0.003626 -0.002857 0.017190 0.000000 0.000000 0.000000
# 4 0.000000 0.000000 0.000000 0.025893 0.000000 0.000000
# 5 0.000000 0.000000 0.000000 0.000000 0.010108 0.000000
# 6 0.000000 0.000000 0.000000 0.000000 0.000000 0.023668
#
#
# Mechanical properties :
#
#
# Convention : Reuss Voigt Hill
#
# Bulk Modulus (GPa) = 50.91616 55.93899 53.42757
# Shear Modulus (GPa) = 41.70303 50.51468 46.10886
#
# Velocity S-wave (km/s) = 4.50210 4.95496 4.73395
# Velocity P-wave (km/s) = 7.19527 7.74102 7.47313
#
# Compressibility (1/GPa) = 0.01964013
#
# Stress axis : x y z
#
# Youngs Moduli (GPa) = 114.74141 92.97695 58.17500
#
# Poissons Ratio (x) = 0.18846 0.21093
# Poissons Ratio (y) = 0.23258 0.16622
# Poissons Ratio (z) = 0.41603 0.26566
#
# Static dielectric constant tensor:
#      x y z
#    x 1.723930 0.000000 0.000000 
#    y 0.000000 1.836350 0.000000 
#    z 0.000000 0.000000 1.782720 
# 
# From -- ./inp_files/28513.got.cif
#   From: 2010.05.17/outbox.cif.g08.bks.cpg/sg50_15_cif.got.tgz:28513.got - 2010.06.03 11:33:33.
