data_PCOD9397311
_publ_section_title
;
Structure prediction by ZEFSAII (Michael W. Deem and Ramdas Pophale) SiO2 
 PCOD9397311
Probable space group: P B A N
;
_chemical_formula_sum "Si O2"
_cell_formula_units_Z 28
_cell_length_a 8.716260
_cell_length_b 28.163472
_cell_length_c 5.371025
_cell_angle_alpha 90.000000
_cell_angle_beta 90.000000
_cell_angle_gamma 90.000000
_cell_volume 1318.479993
_symmetry_space_group_name_H-M "P B A N"
_symmetry_group_IT_number 50
_space_group.IT_coordinate_system_code '2'
_symmetry_cell_setting 'orthorhombic'
loop_
_space_group_symop_operation_xyz
x,y,z
1/2-x,1/2-y,z
x,1/2-y,-z
1/2-x,y,-z
-x,-y,-z
1/2+x,1/2+y,-z
-x,1/2+y,z
1/2+x,-y,z
loop_
_atom_site_type_symbol
_atom_site_label
_atom_site_fract_x
_atom_site_fract_y
_atom_site_fract_z
Si Si1 0.500022 0.295309 0.172637
Si Si2 0.250000 0.250000 0.500000
Si Si3 0.935198 0.601952 0.985294
Si Si4 0.250000 0.750000 0.500000
Si Si5 0.564864 0.446680 0.485711
O O1 0.353194 0.285856 0.342647
O O2 0.648024 0.286141 0.339811
O O3 0.500667 0.250000 0.000000
O O4 0.486747 0.343616 0.023458
O O5 0.996134 0.581714 0.723037
O O6 0.750000 0.598541 0.000000
O O7 0.007781 0.574835 0.223024
O O8 0.750000 0.446276 0.500000
O O9 0.500000 0.500000 0.500000
#
# Coordination Sequence:
#
# PCOD9397311 Si02
#       5
#     8   2   8   2   8
#     4  11  25  43  69 103 149 192 250 295 370 429
#     4  10  22  42  68 100 146 198 242 306 350 438
#     4  12  27  46  79 110 148 196 247 305 374 445
#     4  10  26  42  68  96 158 194 246 310 358 434
#     4  12  28  51  77 109 148 190 246 310 377 446
#
# _framework density 21.236574999999998
#
# number of rings (size 3 to 8) (size 9 to 14) (size 15 to 20)
#    0.000    0.571    0.000    6.857   14.000    2.286 
#    0.000    0.000    0.000    0.000    0.000    0.000 
#    0.000    0.000    0.000    0.000    0.000    0.000 
#
# Total GULP energy -156742.226913 kJ/mol
# GULP energy per Si atom -5597.936675 kJ/mol
# Density = 2.118824 g / cm^3
# Si number density = 21.236575 Si / 1000 Ang^3
#
#
#
# Elastic Constant Matrix: (Units=GPa)
#
#
# Indices 1 2 3 4 5 6 
#
# 1 175.5338 34.5740 51.7077 0.0000 0.0000 0.0000
# 2 34.5740 145.1061 41.7333 0.0000 0.0000 0.0000
# 3 51.7077 41.7333 122.2172 0.0000 0.0000 0.0000
# 4 0.0000 0.0000 0.0000 49.2127 0.0000 0.0000
# 5 0.0000 0.0000 0.0000 0.0000 95.4976 0.0000
# 6 0.0000 0.0000 0.0000 0.0000 0.0000 -6.6676
#
#
#
# Elastic Compliance Matrix: (Units=1/GPa)
#
#
# Indices 1 2 3 4 5 6 
#
# 1 0.006602 -0.000854 -0.002502 0.000000 0.000000 0.000000
# 2 -0.000854 0.007752 -0.002286 0.000000 0.000000 0.000000
# 3 -0.002502 -0.002286 0.010021 0.000000 0.000000 0.000000
# 4 0.000000 0.000000 0.000000 0.020320 0.000000 0.000000
# 5 0.000000 0.000000 0.000000 0.000000 0.010471 0.000000
# 6 0.000000 0.000000 0.000000 0.000000 0.000000 -0.149979
#
#
# Mechanical properties :
#
#
# Convention : Reuss Voigt Hill
#
# Bulk Modulus (GPa) = 76.37725 77.65412 77.01569
# Shear Modulus (GPa) = -63.15948 48.59801 -7.28074
#
# Velocity S-wave (km/s) = -5.45944 4.78892 -1.85360
# Velocity P-wave (km/s) = 1.92291 8.19902 5.63589
#
# Compressibility (1/GPa) = 0.01309290
#
# Stress axis : x y z
#
# Youngs Moduli (GPa) = 151.47009 128.99289 99.78839
#
# Poissons Ratio (x) = 0.11010 0.24964
# Poissons Ratio (y) = 0.12928 0.22812
# Poissons Ratio (z) = 0.37893 0.29489
#
# Static dielectric constant tensor:
#      x y z
#    x 1.748860 0.000000 0.000000 
#    y 0.000000 1.715130 0.000000 
#    z 0.000000 0.000000 1.654830 
# 
# From -- ./inp_files/1021.got.cif
#   From: 2010.05.17/outbox.cif.g08.bks.cpg/sg50_1_cif.got.tgz:1021.got - 2010.06.03 11:33:33.
