data_PCOD9397163
_publ_section_title
;
Structure prediction by ZEFSAII (Michael W. Deem and Ramdas Pophale) SiO2 
 PCOD9397163
Probable space group: P B A N
;
_chemical_formula_sum "Si O2"
_cell_formula_units_Z 28
_cell_length_a 16.190664
_cell_length_b 15.344601
_cell_length_c 4.976686
_cell_angle_alpha 90.000000
_cell_angle_beta 90.000000
_cell_angle_gamma 90.000000
_cell_volume 1236.404282
_symmetry_space_group_name_H-M "P B A N"
_symmetry_group_IT_number 50
_space_group.IT_coordinate_system_code '2'
_symmetry_cell_setting 'orthorhombic'
loop_
_space_group_symop_operation_xyz
x,y,z
1/2-x,1/2-y,z
x,1/2-y,-z
1/2-x,y,-z
-x,-y,-z
1/2+x,1/2+y,-z
-x,1/2+y,z
1/2+x,-y,z
loop_
_atom_site_type_symbol
_atom_site_label
_atom_site_fract_x
_atom_site_fract_y
_atom_site_fract_z
Si Si1 0.250000 0.898546 0.000000
Si Si2 0.509469 0.381641 0.721870
Si Si3 0.087377 0.431451 0.778348
Si Si4 0.614661 0.250000 0.000000
Si Si5 0.250000 0.028480 0.500000
O O1 0.264401 0.963452 0.250226
O O2 0.325003 0.830964 0.049534
O O3 0.481697 0.392678 0.418051
O O4 0.569504 0.464387 0.783827
O O5 0.432046 0.394777 0.926673
O O6 0.554830 0.291992 0.779628
O O7 0.173541 0.417348 0.623802
#
# Coordination Sequence:
#
# PCOD9397163 Si02
#       5
#     4   8   8   4   4
#     4  11  26  36  62  98 130 165 186 265 344 396
#     4  10  22  39  61  88 123 167 207 255 305 387
#     4  10  22  39  62  87 121 167 215 251 305 371
#     4  11  24  42  60  95 136 160 204 255 338 392
#     4  12  22  43  62  93 128 162 210 266 312 385
#
# _framework density 22.646315000000001
#
# number of rings (size 3 to 8) (size 9 to 14) (size 15 to 20)
#    0.000    1.429    2.857    1.714    8.000    5.714 
#    0.000    0.000    0.000    5.143    0.000    0.000 
#    0.000    0.000    0.000    0.000    0.000    0.000 
#
# Total GULP energy -156143.302919 kJ/mol
# GULP energy per Si atom -5576.546533 kJ/mol
# Density = 2.259477 g / cm^3
# Si number density = 22.646315 Si / 1000 Ang^3
#
#
#
# Elastic Constant Matrix: (Units=GPa)
#
#
# Indices 1 2 3 4 5 6 
#
# 1 80.9158 25.5126 -1.7076 0.0000 0.0000 0.0000
# 2 25.5126 64.5634 20.8426 0.0000 0.0000 0.0000
# 3 -1.7076 20.8426 103.8992 0.0000 0.0000 0.0000
# 4 0.0000 0.0000 0.0000 37.5521 0.0000 0.0000
# 5 0.0000 0.0000 0.0000 0.0000 7.7686 0.0000
# 6 0.0000 0.0000 0.0000 0.0000 0.0000 -42.8286
#
#
#
# Elastic Compliance Matrix: (Units=1/GPa)
#
#
# Indices 1 2 3 4 5 6 
#
# 1 0.014323 -0.006133 0.001466 0.000000 0.000000 0.000000
# 2 -0.006133 0.019187 -0.003950 0.000000 0.000000 0.000000
# 3 0.001466 -0.003950 0.010441 0.000000 0.000000 0.000000
# 4 0.000000 0.000000 0.000000 0.026630 0.000000 0.000000
# 5 0.000000 0.000000 0.000000 0.000000 0.128724 0.000000
# 6 0.000000 0.000000 0.000000 0.000000 0.000000 -0.023349
#
#
# Mechanical properties :
#
#
# Convention : Reuss Voigt Hill
#
# Bulk Modulus (GPa) = 37.42898 37.63039 37.52968
# Shear Modulus (GPa) = 24.74069 14.14714 19.44392
#
# Velocity S-wave (km/s) = 3.30886 2.50211 2.93335
# Velocity P-wave (km/s) = 5.58225 5.00000 5.29913
#
# Compressibility (1/GPa) = 0.02671727
#
# Stress axis : x y z
#
# Youngs Moduli (GPa) = 69.81677 52.11792 95.77486
#
# Poissons Ratio (x) = 0.31964 -0.14038
# Poissons Ratio (y) = 0.42819 0.37829
# Poissons Ratio (z) = -0.10233 0.20586
#
# Static dielectric constant tensor:
#      x y z
#    x 1.906750 0.000000 0.000000 
#    y 0.000000 1.805820 0.000000 
#    z 0.000000 0.000000 2.332380 
# 
# From -- ./inp_files/2882.got.cif
#   From: 2010.05.17/outbox.cif.g08.bks.cpg/sg50_2_cif.got.tgz:2882.got - 2010.06.03 11:33:33.
