data_PCOD9397879
_publ_section_title
;
Structure prediction by ZEFSAII (Michael W. Deem and Ramdas Pophale) SiO2 
 PCOD9397879
Probable space group: P B A N
;
_chemical_formula_sum "Si O2"
_cell_formula_units_Z 64
_cell_length_a 22.678871
_cell_length_b 8.190680
_cell_length_c 16.516543
_cell_angle_alpha 90.000000
_cell_angle_beta 90.000000
_cell_angle_gamma 90.000000
_cell_volume 3068.036641
_symmetry_space_group_name_H-M "P B A N"
_symmetry_group_IT_number 50
_space_group.IT_coordinate_system_code '2'
_symmetry_cell_setting 'orthorhombic'
loop_
_space_group_symop_operation_xyz
x,y,z
1/2-x,1/2-y,z
x,1/2-y,-z
1/2-x,y,-z
-x,-y,-z
1/2+x,1/2+y,-z
-x,1/2+y,z
1/2+x,-y,z
loop_
_atom_site_type_symbol
_atom_site_label
_atom_site_fract_x
_atom_site_fract_y
_atom_site_fract_z
Si Si1 0.440464 0.423820 0.540940
Si Si2 0.163220 0.047899 0.178589
Si Si3 0.725245 0.068948 0.732811
Si Si4 0.975241 0.488906 0.715094
Si Si5 0.182379 0.447235 0.002341
Si Si6 0.120355 0.420882 0.170324
Si Si7 0.589414 0.150974 0.298905
Si Si8 0.832964 0.345519 0.574932
O O1 0.431452 0.250000 0.500000
O O2 0.500000 0.500000 0.500000
O O3 0.448325 0.416753 0.637920
O O4 0.382910 0.537113 0.536602
O O5 0.137601 0.231131 0.182413
O O6 0.227934 0.046960 0.220989
O O7 0.128822 0.908820 0.225922
O O8 0.159576 0.000150 0.084708
O O9 0.750000 0.250000 0.749810
O O10 0.712581 0.065344 0.636057
O O11 0.661815 0.027065 0.770380
O O12 0.946680 0.556123 0.798475
O O13 0.953898 0.302928 0.713969
O O14 0.044083 0.501156 0.694784
O O15 0.141366 0.477590 0.080521
O O16 0.186440 0.250000 0.000000
O O17 0.250000 0.509341 0.000000
O O18 0.632140 0.212418 0.369548
O O19 0.807490 0.250000 0.500000
#
# Coordination Sequence:
#
# PCOD9397879 Si02
#       8
#     8   8   8   8   8   8   8   8
#     4  11  21  38  63  93 125 158 213 270 315 370
#     4  11  22  39  67  93 127 168 208 258 319 389
#     4  12  22  43  61  90 130 165 213 259 320 384
#     4  11  22  39  63  90 130 160 213 267 320 383
#     4   9  18  34  61  94 126 160 205 257 317 380
#     4  11  21  40  65  98 126 163 210 265 322 378
#     4  11  22  41  61  93 122 169 213 257 326 383
#     4  11  24  42  62  89 125 171 216 264 324 380
#
# _framework density 20.860247000000001
#
# number of rings (size 3 to 8) (size 9 to 14) (size 15 to 20)
#    0.000    1.125    5.000    3.750    0.000    1.250 
#    0.000    3.750    0.000    0.000    0.000    0.000 
#    0.000    0.000    0.000    0.000    0.000    0.000 
#
# Total GULP energy -356748.294345 kJ/mol
# GULP energy per Si atom -5574.192099 kJ/mol
# Density = 2.081277 g / cm^3
# Si number density = 20.860247 Si / 1000 Ang^3
#
#
#
# Elastic Constant Matrix: (Units=GPa)
#
#
# Indices 1 2 3 4 5 6 
#
# 1 57.2766 21.0813 36.0166 0.0000 0.0000 0.0000
# 2 21.0813 75.0376 54.0463 0.0000 0.0000 0.0000
# 3 36.0166 54.0463 137.7499 0.0000 0.0000 0.0000
# 4 0.0000 0.0000 0.0000 24.7580 0.0000 0.0000
# 5 0.0000 0.0000 0.0000 0.0000 25.7022 0.0000
# 6 0.0000 0.0000 0.0000 0.0000 0.0000 27.7818
#
#
#
# Elastic Compliance Matrix: (Units=1/GPa)
#
#
# Indices 1 2 3 4 5 6 
#
# 1 0.021294 -0.002749 -0.004489 0.000000 0.000000 0.000000
# 2 -0.002749 0.018931 -0.006709 0.000000 0.000000 0.000000
# 3 -0.004489 -0.006709 0.011065 0.000000 0.000000 0.000000
# 4 0.000000 0.000000 0.000000 0.040391 0.000000 0.000000
# 5 0.000000 0.000000 0.000000 0.000000 0.038907 0.000000
# 6 0.000000 0.000000 0.000000 0.000000 0.000000 0.035995
#
#
# Mechanical properties :
#
#
# Convention : Reuss Voigt Hill
#
# Bulk Modulus (GPa) = 42.74150 54.70581 48.72365
# Shear Modulus (GPa) = 24.71874 26.24306 25.48090
#
# Velocity S-wave (km/s) = 3.44607 3.55074 3.49880
# Velocity P-wave (km/s) = 6.03057 6.56446 6.30317
#
# Compressibility (1/GPa) = 0.02339647
#
# Stress axis : x y z
#
# Youngs Moduli (GPa) = 46.96222 52.82316 90.37153
#
# Poissons Ratio (x) = 0.14522 0.40567
# Poissons Ratio (y) = 0.12911 0.60629
# Poissons Ratio (z) = 0.21081 0.35438
#
# Static dielectric constant tensor:
#      x y z
#    x 1.886400 0.000000 0.000000 
#    y 0.000000 1.809190 0.000000 
#    z 0.000000 0.000000 1.807220 
# 
# From -- ./inp_files/27504.got.cif
#   From: 2010.05.17/outbox.cif.g08.bks.cpg/sg50_14_cif.got.tgz:27504.got - 2010.06.03 11:33:33.
