data_PCOD9397827
_publ_section_title
;
Structure prediction by ZEFSAII (Michael W. Deem and Ramdas Pophale) SiO2 
 PCOD9397827
Probable space group: P B A N
;
_chemical_formula_sum "Si O2"
_cell_formula_units_Z 56
_cell_length_a 20.153914
_cell_length_b 13.401186
_cell_length_c 9.740527
_cell_angle_alpha 90.000000
_cell_angle_beta 90.000000
_cell_angle_gamma 90.000000
_cell_volume 2630.783386
_symmetry_space_group_name_H-M "P B A N"
_symmetry_group_IT_number 50
_space_group.IT_coordinate_system_code '2'
_symmetry_cell_setting 'orthorhombic'
loop_
_space_group_symop_operation_xyz
x,y,z
1/2-x,1/2-y,z
x,1/2-y,-z
1/2-x,y,-z
-x,-y,-z
1/2+x,1/2+y,-z
-x,1/2+y,z
1/2+x,-y,z
loop_
_atom_site_type_symbol
_atom_site_label
_atom_site_fract_x
_atom_site_fract_y
_atom_site_fract_z
Si Si1 0.347631 0.864926 0.549500
Si Si2 0.237564 0.536164 0.311766
Si Si3 0.400901 0.523891 0.792303
Si Si4 0.954190 0.278129 0.863956
Si Si5 0.281228 0.142029 0.852855
Si Si6 0.975964 0.078679 0.699452
Si Si7 0.074515 0.081475 0.082042
O O1 0.344559 0.750000 0.500000
O O2 0.422538 0.900524 0.579040
O O3 0.310287 0.937406 0.441221
O O4 0.297895 0.883932 0.680393
O O5 0.178305 0.527745 0.202289
O O6 0.271054 0.430083 0.278376
O O7 0.418999 0.639587 0.771359
O O8 0.447446 0.458981 0.688295
O O9 0.421415 0.479953 0.940889
O O10 0.975297 0.183441 0.778436
O O11 0.015982 0.339385 0.923075
O O12 0.912799 0.250000 0.000000
O O13 0.250000 0.250000 0.824786
O O14 0.358972 0.140731 0.884447
O O15 0.250000 0.108819 0.000000
O O16 0.942323 0.995242 0.796188
#
# Coordination Sequence:
#
# PCOD9397827 Si02
#       7
#     8   8   8   8   8   8   8
#     4  11  25  47  71  90 125 184 239 285 339 395
#     4  11  23  43  67  91 129 177 225 282 338 392
#     4  11  22  37  63 101 134 166 217 276 345 414
#     4  11  20  33  59  94 133 171 203 260 341 412
#     4  11  24  38  66 101 131 169 217 267 343 428
#     4  11  22  40  66  94 134 174 221 274 340 411
#     4  11  21  38  60 100 135 173 208 271 347 420
#
# _framework density 21.286435000000001
#
# number of rings (size 3 to 8) (size 9 to 14) (size 15 to 20)
#    0.000    1.000    5.714    2.571    4.000    0.571 
#    0.000    1.429    0.000    0.000    0.000    0.000 
#    0.000    0.000    0.000    0.000    0.000    0.000 
#
# Total GULP energy -311774.822022 kJ/mol
# GULP energy per Si atom -5567.407536 kJ/mol
# Density = 2.123799 g / cm^3
# Si number density = 21.286435 Si / 1000 Ang^3
#
#
#
# Elastic Constant Matrix: (Units=GPa)
#
#
# Indices 1 2 3 4 5 6 
#
# 1 56.7683 27.9685 -3.9063 0.0000 0.0000 0.0000
# 2 27.9685 126.0175 34.8255 0.0000 0.0000 0.0000
# 3 -3.9063 34.8255 53.2072 0.0000 0.0000 0.0000
# 4 0.0000 0.0000 0.0000 40.9137 0.0000 0.0000
# 5 0.0000 0.0000 0.0000 0.0000 -2.3366 0.0000
# 6 0.0000 0.0000 0.0000 0.0000 0.0000 14.5721
#
#
#
# Elastic Compliance Matrix: (Units=1/GPa)
#
#
# Indices 1 2 3 4 5 6 
#
# 1 0.021073 -0.006232 0.005626 0.000000 0.000000 0.000000
# 2 -0.006232 0.011531 -0.008005 0.000000 0.000000 0.000000
# 3 0.005626 -0.008005 0.024447 0.000000 0.000000 0.000000
# 4 0.000000 0.000000 0.000000 0.024442 0.000000 0.000000
# 5 0.000000 0.000000 0.000000 0.000000 -0.427976 0.000000
# 6 0.000000 0.000000 0.000000 0.000000 0.000000 0.068624
#
#
# Mechanical properties :
#
#
# Convention : Reuss Voigt Hill
#
# Bulk Modulus (GPa) = 25.10711 39.30761 32.20736
# Shear Modulus (GPa) = -20.21318 22.43688 1.11185
#
# Velocity S-wave (km/s) = -3.08487 3.25013 0.72351
# Velocity P-wave (km/s) = 0.93170 5.70882 3.98262
#
# Compressibility (1/GPa) = 0.03982935
#
# Stress axis : x y z
#
# Youngs Moduli (GPa) = 47.45457 86.72599 40.90537
#
# Poissons Ratio (x) = 0.54045 -0.23013
# Poissons Ratio (y) = 0.29572 0.32743
# Poissons Ratio (z) = -0.26697 0.69420
#
# Static dielectric constant tensor:
#      x y z
#    x 1.884940 0.000000 0.000000 
#    y 0.000000 1.789050 0.000000 
#    z 0.000000 0.000000 1.950770 
# 
# From -- ./inp_files/22383.got.cif
#   From: 2010.05.17/outbox.cif.g08.bks.cpg/sg50_12_cif.got.tgz:22383.got - 2010.06.03 11:33:33.
