data_PCOD9397536
_publ_section_title
;
Structure prediction by ZEFSAII (Michael W. Deem and Ramdas Pophale) SiO2 
 PCOD9397536
Probable space group: P B A N
;
_chemical_formula_sum "Si O2"
_cell_formula_units_Z 30
_cell_length_a 4.911507
_cell_length_b 21.863893
_cell_length_c 13.659559
_cell_angle_alpha 90.000000
_cell_angle_beta 90.000000
_cell_angle_gamma 90.000000
_cell_volume 1466.827147
_symmetry_space_group_name_H-M "P B A N"
_symmetry_group_IT_number 50
_space_group.IT_coordinate_system_code '2'
_symmetry_cell_setting 'orthorhombic'
loop_
_space_group_symop_operation_xyz
x,y,z
1/2-x,1/2-y,z
x,1/2-y,-z
1/2-x,y,-z
-x,-y,-z
1/2+x,1/2+y,-z
-x,1/2+y,z
1/2+x,-y,z
loop_
_atom_site_type_symbol
_atom_site_label
_atom_site_fract_x
_atom_site_fract_y
_atom_site_fract_z
Si Si1 0.831869 0.641057 0.732342
Si Si2 0.250000 0.250000 0.126284
Si Si3 0.305018 0.041971 0.107025
Si Si4 0.187262 0.678112 0.385721
Si Si5 0.750000 0.250000 0.000000
O O1 0.867785 0.696388 0.808421
O O2 0.750895 0.584359 0.800056
O O3 0.612626 0.662066 0.651621
O O4 0.114221 0.634948 0.676315
O O5 0.514799 0.278879 0.069898
O O6 0.612025 0.017454 0.109642
O O7 0.250000 0.071765 0.000000
O O8 0.250000 0.750000 0.365092
O O9 0.250000 0.669365 0.500000
#
# Coordination Sequence:
#
# PCOD9397536 Si02
#       5
#     8   4   8   8   2
#     4  12  22  40  64  90 124 159 208 252 300 366
#     4  11  22  38  53  92 120 162 197 246 303 376
#     4  10  23  43  62  87 117 164 212 248 296 356
#     4  11  22  39  62  93 129 161 198 248 308 377
#     4  10  24  34  48  78 134 158 188 230 312 364
#
# _framework density 20.452309
#
# number of rings (size 3 to 8) (size 9 to 14) (size 15 to 20)
#    0.000    1.067    2.667    4.000    3.733    2.133 
#    4.800    0.000    0.000   16.000    0.000    0.000 
#    0.000    0.000    0.000    0.000    0.000    0.000 
#
# Total GULP energy -167253.696273 kJ/mol
# GULP energy per Si atom -5575.123209 kJ/mol
# Density = 2.040576 g / cm^3
# Si number density = 20.452309 Si / 1000 Ang^3
#
#
#
# Elastic Constant Matrix: (Units=GPa)
#
#
# Indices 1 2 3 4 5 6 
#
# 1 84.2672 -10.4067 9.8924 0.0000 0.0000 0.0000
# 2 -10.4067 35.7178 26.0682 0.0000 0.0000 0.0000
# 3 9.8924 26.0682 101.3450 0.0000 0.0000 0.0000
# 4 0.0000 0.0000 0.0000 39.8304 0.0000 0.0000
# 5 0.0000 0.0000 0.0000 0.0000 69.2801 0.0000
# 6 0.0000 0.0000 0.0000 0.0000 0.0000 14.9158
#
#
#
# Elastic Compliance Matrix: (Units=1/GPa)
#
#
# Indices 1 2 3 4 5 6 
#
# 1 0.012900 0.005759 -0.002740 0.000000 0.000000 0.000000
# 2 0.005759 0.037039 -0.010089 0.000000 0.000000 0.000000
# 3 -0.002740 -0.010089 0.012730 0.000000 0.000000 0.000000
# 4 0.000000 0.000000 0.000000 0.025106 0.000000 0.000000
# 5 0.000000 0.000000 0.000000 0.000000 0.014434 0.000000
# 6 0.000000 0.000000 0.000000 0.000000 0.000000 0.067043
#
#
# Mechanical properties :
#
#
# Convention : Reuss Voigt Hill
#
# Bulk Modulus (GPa) = 20.60742 30.27086 25.43914
# Shear Modulus (GPa) = 25.05394 37.85700 31.45547
#
# Velocity S-wave (km/s) = 3.50379 4.30698 3.92598
# Velocity P-wave (km/s) = 5.14455 6.29017 5.74598
#
# Compressibility (1/GPa) = 0.04852622
#
# Stress axis : x y z
#
# Youngs Moduli (GPa) = 77.52006 26.99891 78.55491
#
# Poissons Ratio (x) = -0.15547 0.21527
# Poissons Ratio (y) = -0.44640 0.79256
# Poissons Ratio (z) = 0.21244 0.27240
#
# Static dielectric constant tensor:
#      x y z
#    x 1.743910 0.000000 0.000000 
#    y 0.000000 1.631140 0.000000 
#    z 0.000000 0.000000 1.787330 
# 
# From -- ./inp_files/17579.got.cif
#   From: 2010.05.17/outbox.cif.g08.bks.cpg/sg50_9_cif.got.tgz:17579.got - 2010.06.03 11:33:33.
