data_PCOD9397558
_publ_section_title
;
Structure prediction by ZEFSAII (Michael W. Deem and Ramdas Pophale) SiO2 
 PCOD9397558
Probable space group: P B A N
;
_chemical_formula_sum "Si O2"
_cell_formula_units_Z 60
_cell_length_a 11.489878
_cell_length_b 18.154388
_cell_length_c 12.101733
_cell_angle_alpha 90.000000
_cell_angle_beta 90.000000
_cell_angle_gamma 90.000000
_cell_volume 2524.321099
_symmetry_space_group_name_H-M "P B A N"
_symmetry_group_IT_number 50
_space_group.IT_coordinate_system_code '2'
_symmetry_cell_setting 'orthorhombic'
loop_
_space_group_symop_operation_xyz
x,y,z
1/2-x,1/2-y,z
x,1/2-y,-z
1/2-x,y,-z
-x,-y,-z
1/2+x,1/2+y,-z
-x,1/2+y,z
1/2+x,-y,z
loop_
_atom_site_type_symbol
_atom_site_label
_atom_site_fract_x
_atom_site_fract_y
_atom_site_fract_z
Si Si1 0.750874 0.950654 0.630391
Si Si2 0.882315 0.336655 0.483649
Si Si3 0.133678 0.291457 0.172525
Si Si4 0.128833 0.617819 0.141577
Si Si5 0.938084 0.250000 0.000000
Si Si6 0.637866 0.091610 0.262179
Si Si7 0.438269 0.165636 0.680224
Si Si8 0.591069 0.954545 0.821466
O O1 0.750000 0.953473 0.500000
O O2 0.816859 0.876251 0.664650
O O3 0.628010 0.964006 0.691941
O O4 0.827299 0.016417 0.678425
O O5 0.871091 0.250000 0.500000
O O6 0.750000 0.367798 0.500000
O O7 0.913018 0.357358 0.358609
O O8 0.981670 0.353824 0.573555
O O9 0.250000 0.250000 0.136758
O O10 0.096825 0.249969 0.288042
O O11 0.155805 0.378298 0.153852
O O12 0.022568 0.275264 0.097509
O O13 0.247248 0.627870 0.211304
O O14 0.122507 0.529947 0.116750
O O15 0.016283 0.634474 0.218603
O O16 0.127359 0.678105 0.045524
O O17 0.543291 0.067163 0.173089
#
# Coordination Sequence:
#
# PCOD9397558 Si02
#       8
#     8   8   8   8   4   8   8   8
#     4  11  23  36  63  99 142 194 245 295 349 430
#     4  11  22  35  57  92 134 194 247 285 346 431
#     4  11  23  45  71 102 139 185 240 310 386 445
#     4  10  23  43  69 102 137 180 238 309 371 443
#     4  10  25  46  75 102 130 182 242 312 392 460
#     4  11  22  40  64  97 143 193 241 298 356 439
#     4  11  21  41  61  95 143 183 241 296 352 431
#     4  11  23  41  68 103 143 191 236 296 373 436
#
# _framework density 23.768767
#
# number of rings (size 3 to 8) (size 9 to 14) (size 15 to 20)
#    0.000    1.200    4.000    2.200    1.867    1.600 
#    0.000    2.000    0.000    0.000    0.000    0.000 
#    0.000    0.000    0.000    0.000    0.000    0.000 
#
# Total GULP energy -335042.101096 kJ/mol
# GULP energy per Si atom -5584.035018 kJ/mol
# Density = 2.371467 g / cm^3
# Si number density = 23.768767 Si / 1000 Ang^3
#
#
#
# Elastic Constant Matrix: (Units=GPa)
#
#
# Indices 1 2 3 4 5 6 
#
# 1 85.0720 36.6605 24.7058 0.0000 0.0000 0.0000
# 2 36.6605 181.5097 51.1841 0.0000 0.0000 0.0000
# 3 24.7058 51.1841 69.4622 0.0000 0.0000 0.0000
# 4 0.0000 0.0000 0.0000 33.0216 0.0000 0.0000
# 5 0.0000 0.0000 0.0000 0.0000 14.7288 0.0000
# 6 0.0000 0.0000 0.0000 0.0000 0.0000 192.8136
#
#
#
# Elastic Compliance Matrix: (Units=1/GPa)
#
#
# Indices 1 2 3 4 5 6 
#
# 1 0.013529 -0.001736 -0.003532 0.000000 0.000000 0.000000
# 2 -0.001736 0.007177 -0.004671 0.000000 0.000000 0.000000
# 3 -0.003532 -0.004671 0.019095 0.000000 0.000000 0.000000
# 4 0.000000 0.000000 0.000000 0.030283 0.000000 0.000000
# 5 0.000000 0.000000 0.000000 0.000000 0.067894 0.000000
# 6 0.000000 0.000000 0.000000 0.000000 0.000000 0.005186
#
#
# Mechanical properties :
#
#
# Convention : Reuss Voigt Hill
#
# Bulk Modulus (GPa) = 50.19805 62.34942 56.27374
# Shear Modulus (GPa) = 29.46649 63.01237 46.23943
#
# Velocity S-wave (km/s) = 3.52478 5.15443 4.41544
# Velocity P-wave (km/s) = 6.14252 7.85575 7.05136
#
# Compressibility (1/GPa) = 0.01992109
#
# Stress axis : x y z
#
# Youngs Moduli (GPa) = 73.91608 139.32898 52.37083
#
# Poissons Ratio (x) = 0.24193 0.18499
# Poissons Ratio (y) = 0.12835 0.24463
# Poissons Ratio (z) = 0.26110 0.65081
#
# Static dielectric constant tensor:
#      x y z
#    x 1.936520 0.000000 0.000000 
#    y 0.000000 1.932640 0.000000 
#    z 0.000000 0.000000 1.972580 
# 
# From -- ./inp_files/20428.got.cif
#   From: 2010.05.17/outbox.cif.g08.bks.cpg/sg50_11_cif.got.tgz:20428.got - 2010.06.03 11:33:33.
