data_PCOD9397568
_publ_section_title
;
Structure prediction by ZEFSAII (Michael W. Deem and Ramdas Pophale) SiO2 
 PCOD9397568
Probable space group: P B A N
;
_chemical_formula_sum "Si O2"
_cell_formula_units_Z 64
_cell_length_a 13.662469
_cell_length_b 18.417547
_cell_length_c 11.760985
_cell_angle_alpha 90.000000
_cell_angle_beta 90.000000
_cell_angle_gamma 90.000000
_cell_volume 2959.406834
_symmetry_space_group_name_H-M "P B A N"
_symmetry_group_IT_number 50
_space_group.IT_coordinate_system_code '2'
_symmetry_cell_setting 'orthorhombic'
loop_
_space_group_symop_operation_xyz
x,y,z
1/2-x,1/2-y,z
x,1/2-y,-z
1/2-x,y,-z
-x,-y,-z
1/2+x,1/2+y,-z
-x,1/2+y,z
1/2+x,-y,z
loop_
_atom_site_type_symbol
_atom_site_label
_atom_site_fract_x
_atom_site_fract_y
_atom_site_fract_z
Si Si1 0.321662 0.608540 0.894334
Si Si2 0.174292 0.812643 0.219188
Si Si3 0.318538 0.490175 0.391486
Si Si4 0.538071 0.840460 0.874445
Si Si5 0.504311 0.093943 0.639580
Si Si6 0.473490 0.173367 0.873186
Si Si7 0.641064 0.351706 0.549036
Si Si8 0.362036 0.023554 0.236285
O O1 0.254014 0.622723 0.784246
O O2 0.409402 0.665979 0.894474
O O3 0.360914 0.527278 0.876909
O O4 0.250000 0.616049 0.000000
O O5 0.250000 0.750000 0.179414
O O6 0.134661 0.796325 0.345597
O O7 0.079462 0.837177 0.148341
O O8 0.250000 0.491908 0.500000
O O9 0.406482 0.435910 0.415334
O O10 0.366835 0.569970 0.388774
O O11 0.247232 0.468834 0.287348
O O12 0.563501 0.755394 0.857804
O O13 0.588194 0.899866 0.794057
O O14 0.564651 0.857095 0.006404
O O15 0.466570 0.130694 0.755982
O O16 0.564307 0.144744 0.553397
O O17 0.574081 0.026652 0.677513
O O18 0.750000 0.343786 0.500000
#
# Coordination Sequence:
#
# PCOD9397568 Si02
#       8
#     8   8   8   8   8   8   8   8
#     4  11  21  38  63 100 138 173 225 286 345 412
#     4  12  23  37  65  98 138 182 220 278 347 420
#     4  11  22  39  66  95 125 177 226 273 338 409
#     4  11  24  41  66  96 135 178 225 273 349 412
#     4  11  23  42  70  94 138 174 224 287 337 400
#     4  10  23  44  64  94 134 177 221 281 347 418
#     4  11  21  40  62  99 139 175 219 273 346 404
#     4  11  24  40  65 100 135 176 234 280 337 412
#
# _framework density 21.625955000000001
#
# number of rings (size 3 to 8) (size 9 to 14) (size 15 to 20)
#    0.000    1.000    6.250    1.875    1.750    3.500 
#    0.000    0.625    0.000    2.250    0.000    0.000 
#    0.000    0.000    0.000    0.000    0.000    0.000 
#
# Total GULP energy -356788.332488 kJ/mol
# GULP energy per Si atom -5574.817695 kJ/mol
# Density = 2.157673 g / cm^3
# Si number density = 21.625955 Si / 1000 Ang^3
#
#
#
# Elastic Constant Matrix: (Units=GPa)
#
#
# Indices 1 2 3 4 5 6 
#
# 1 41.9441 24.4387 -9.2873 0.0000 0.0000 0.0000
# 2 24.4387 74.8163 12.3820 0.0000 0.0000 0.0000
# 3 -9.2873 12.3820 54.6465 0.0000 0.0000 0.0000
# 4 0.0000 0.0000 0.0000 13.0937 0.0000 0.0000
# 5 0.0000 0.0000 0.0000 0.0000 24.9341 0.0000
# 6 0.0000 0.0000 0.0000 0.0000 0.0000 24.5415
#
#
#
# Elastic Compliance Matrix: (Units=1/GPa)
#
#
# Indices 1 2 3 4 5 6 
#
# 1 0.032699 -0.012053 0.008288 0.000000 0.000000 0.000000
# 2 -0.012053 0.018329 -0.006202 0.000000 0.000000 0.000000
# 3 0.008288 -0.006202 0.021113 0.000000 0.000000 0.000000
# 4 0.000000 0.000000 0.000000 0.076373 0.000000 0.000000
# 5 0.000000 0.000000 0.000000 0.000000 0.040106 0.000000
# 6 0.000000 0.000000 0.000000 0.000000 0.000000 0.040747
#
#
# Mechanical properties :
#
#
# Convention : Reuss Voigt Hill
#
# Bulk Modulus (GPa) = 19.15363 25.16377 22.15870
# Shear Modulus (GPa) = 18.74745 22.10542 20.42643
#
# Velocity S-wave (km/s) = 2.94750 3.20061 3.07666
# Velocity P-wave (km/s) = 4.52324 5.03187 4.78432
#
# Compressibility (1/GPa) = 0.05220943
#
# Stress axis : x y z
#
# Youngs Moduli (GPa) = 30.58191 54.55691 47.36367
#
# Poissons Ratio (x) = 0.65757 -0.39256
# Poissons Ratio (y) = 0.36860 0.29373
# Poissons Ratio (z) = -0.25347 0.33834
#
# Static dielectric constant tensor:
#      x y z
#    x 1.768960 0.000000 0.000000 
#    y 0.000000 1.856380 0.000000 
#    z 0.000000 0.000000 1.879940 
# 
# From -- ./inp_files/21359.got.cif
#   From: 2010.05.17/outbox.cif.g08.bks.cpg/sg50_11_cif.got.tgz:21359.got - 2010.06.03 11:33:33.
