data_PCOD9397018
_publ_section_title
;
Structure prediction by ZEFSAII (Michael W. Deem and Ramdas Pophale) SiO2 
 PCOD9397018
Probable space group: P B A N
;
_chemical_formula_sum "Si O2"
_cell_formula_units_Z 34
_cell_length_a 12.648694
_cell_length_b 9.084085
_cell_length_c 13.644909
_cell_angle_alpha 90.000000
_cell_angle_beta 90.000000
_cell_angle_gamma 90.000000
_cell_volume 1567.824761
_symmetry_space_group_name_H-M "P B A N"
_symmetry_group_IT_number 50
_space_group.IT_coordinate_system_code '2'
_symmetry_cell_setting 'orthorhombic'
loop_
_space_group_symop_operation_xyz
x,y,z
1/2-x,1/2-y,z
x,1/2-y,-z
1/2-x,y,-z
-x,-y,-z
1/2+x,1/2+y,-z
-x,1/2+y,z
1/2+x,-y,z
loop_
_atom_site_type_symbol
_atom_site_label
_atom_site_fract_x
_atom_site_fract_y
_atom_site_fract_z
Si Si1 0.131933 0.688288 0.101536
Si Si2 0.804238 0.601108 0.803527
Si Si3 0.250000 0.250000 0.500000
Si Si4 0.989339 0.274433 0.295167
Si Si5 0.869840 0.970844 0.644504
O O1 0.250000 0.750000 0.105959
O O2 0.147705 0.513329 0.118563
O O3 0.067776 0.753128 0.191755
O O4 0.085543 0.750000 0.000000
O O5 0.750000 0.750000 0.844888
O O6 0.712635 0.529209 0.735578
O O7 0.898349 0.649821 0.730574
O O8 0.181642 0.135077 0.436165
O O9 0.912319 0.363641 0.367565
O O10 0.022253 0.114599 0.330674
#
# Coordination Sequence:
#
# PCOD9397018 Si02
#       5
#     8   8   2   8   8
#     4  11  23  39  66 101 136 177 230 280 309 393
#     4  10  21  42  65  94 136 181 212 273 349 387
#     4  12  24  44  68 102 140 160 234 284 340 404
#     4  11  21  41  69  92 135 184 217 264 353 389
#     4  11  23  41  69  97 131 175 216 287 335 407
#
# _framework density 21.686095999999999
#
# number of rings (size 3 to 8) (size 9 to 14) (size 15 to 20)
#    0.000    1.176    8.235    0.000    0.000    1.882 
#    0.000    2.353    2.588    2.824    0.000    0.000 
#    0.000    0.000    0.000    0.000    0.000    0.000 
#
# Total GULP energy -189561.556131 kJ/mol
# GULP energy per Si atom -5575.339886 kJ/mol
# Density = 2.163674 g / cm^3
# Si number density = 21.686096 Si / 1000 Ang^3
#
#
#
# Elastic Constant Matrix: (Units=GPa)
#
#
# Indices 1 2 3 4 5 6 
#
# 1 64.5846 21.6646 12.6125 0.0000 0.0000 0.0000
# 2 21.6646 71.7631 12.3549 0.0000 0.0000 0.0000
# 3 12.6125 12.3549 67.5083 0.0000 0.0000 0.0000
# 4 0.0000 0.0000 0.0000 20.5135 0.0000 0.0000
# 5 0.0000 0.0000 0.0000 0.0000 28.2515 0.0000
# 6 0.0000 0.0000 0.0000 0.0000 0.0000 14.8947
#
#
#
# Elastic Compliance Matrix: (Units=1/GPa)
#
#
# Indices 1 2 3 4 5 6 
#
# 1 0.017594 -0.004900 -0.002390 0.000000 0.000000 0.000000
# 2 -0.004900 0.015753 -0.001967 0.000000 0.000000 0.000000
# 3 -0.002390 -0.001967 0.015620 0.000000 0.000000 0.000000
# 4 0.000000 0.000000 0.000000 0.048748 0.000000 0.000000
# 5 0.000000 0.000000 0.000000 0.000000 0.035396 0.000000
# 6 0.000000 0.000000 0.000000 0.000000 0.000000 0.067138
#
#
# Mechanical properties :
#
#
# Convention : Reuss Voigt Hill
#
# Bulk Modulus (GPa) = 32.83980 33.01334 32.92657
# Shear Modulus (GPa) = 21.84218 23.21354 22.52786
#
# Velocity S-wave (km/s) = 3.17708 3.27530 3.22656
# Velocity P-wave (km/s) = 5.35113 5.43689 5.39418
#
# Compressibility (1/GPa) = 0.03045086
#
# Stress axis : x y z
#
# Youngs Moduli (GPa) = 56.83750 63.48114 64.02192
#
# Poissons Ratio (x) = 0.31105 0.15303
# Poissons Ratio (y) = 0.27850 0.12596
# Poissons Ratio (z) = 0.13586 0.12490
#
# Static dielectric constant tensor:
#      x y z
#    x 1.869670 0.000000 0.000000 
#    y 0.000000 1.878010 0.000000 
#    z 0.000000 0.000000 1.826880 
# 
# From -- ./inp_files/25665.got.cif
#   From: 2010.05.17/outbox.cif.g08.bks.cpg/sg50_13_cif.got.tgz:25665.got - 2010.06.03 11:33:33.
