data_PCOD9397304
_publ_section_title
;
Structure prediction by ZEFSAII (Michael W. Deem and Ramdas Pophale) SiO2 
 PCOD9397304
Probable space group: P B A N
;
_chemical_formula_sum "Si O2"
_cell_formula_units_Z 56
_cell_length_a 15.103334
_cell_length_b 14.849207
_cell_length_c 11.513230
_cell_angle_alpha 90.000000
_cell_angle_beta 90.000000
_cell_angle_gamma 90.000000
_cell_volume 2582.101255
_symmetry_space_group_name_H-M "P B A N"
_symmetry_group_IT_number 50
_space_group.IT_coordinate_system_code '2'
_symmetry_cell_setting 'orthorhombic'
loop_
_space_group_symop_operation_xyz
x,y,z
1/2-x,1/2-y,z
x,1/2-y,-z
1/2-x,y,-z
-x,-y,-z
1/2+x,1/2+y,-z
-x,1/2+y,z
1/2+x,-y,z
loop_
_atom_site_type_symbol
_atom_site_label
_atom_site_fract_x
_atom_site_fract_y
_atom_site_fract_z
Si Si1 0.403508 0.965483 0.528943
Si Si2 0.885896 0.076906 0.270460
Si Si3 0.513287 0.228913 0.874341
Si Si4 0.966913 0.081953 0.767251
Si Si5 0.842122 0.831951 0.566998
Si Si6 0.283621 0.527664 0.125978
Si Si7 0.821541 0.677081 0.159606
O O1 0.372115 0.920013 0.409974
O O2 0.417059 0.906835 0.643467
O O3 0.500000 0.000000 0.500000
O O4 0.362359 0.061838 0.561553
O O5 0.931113 0.163185 0.209448
O O6 0.789333 0.062941 0.216096
O O7 0.955041 0.993302 0.244018
O O8 0.496134 0.323707 0.811083
O O9 0.417865 0.183944 0.897434
O O10 0.555876 0.250000 0.000000
O O11 0.885637 0.053579 0.850652
O O12 0.894240 0.750000 0.500000
O O13 0.750000 0.832201 0.500000
O O14 0.838169 0.809618 0.702307
O O15 0.281667 0.420211 0.137265
O O16 0.250000 0.556408 0.000000
O O17 0.750000 0.750000 0.123906
#
# Coordination Sequence:
#
# PCOD9397304 Si02
#       7
#     8   8   8   8   8   8   8
#     4  10  22  42  66  99 138 185 225 289 361 423
#     4  11  25  47  71 104 142 187 235 297 361 412
#     4  12  28  46  70  97 145 192 236 295 348 414
#     4  11  25  47  69 105 143 182 243 293 354 429
#     4  11  21  37  65 100 139 177 216 286 358 421
#     4  12  26  43  73  99 141 194 239 288 346 422
#     4  12  24  40  63 111 136 180 241 288 359 418
#
# _framework density 21.687763
#
# number of rings (size 3 to 8) (size 9 to 14) (size 15 to 20)
#    0.000    0.714    4.286    3.429    8.000    2.286 
#    0.000    1.429    0.000    1.714    0.000    0.000 
#    0.000    0.000    0.000    0.000    0.000    0.000 
#
# Total GULP energy -312558.868628 kJ/mol
# GULP energy per Si atom -5581.408368 kJ/mol
# Density = 2.163840 g / cm^3
# Si number density = 21.687763 Si / 1000 Ang^3
#
#
#
# Elastic Constant Matrix: (Units=GPa)
#
#
# Indices 1 2 3 4 5 6 
#
# 1 40.1403 -15.2697 -31.6591 0.0000 0.0000 0.0000
# 2 -15.2697 65.2666 5.1978 0.0000 0.0000 0.0000
# 3 -31.6591 5.1978 120.0760 0.0000 0.0000 0.0000
# 4 0.0000 0.0000 0.0000 55.1089 0.0000 0.0000
# 5 0.0000 0.0000 0.0000 0.0000 37.7969 0.0000
# 6 0.0000 0.0000 0.0000 0.0000 0.0000 38.0093
#
#
#
# Elastic Compliance Matrix: (Units=1/GPa)
#
#
# Indices 1 2 3 4 5 6 
#
# 1 0.034695 0.007414 0.008827 0.000000 0.000000 0.000000
# 2 0.007414 0.016959 0.001221 0.000000 0.000000 0.000000
# 3 0.008827 0.001221 0.010602 0.000000 0.000000 0.000000
# 4 0.000000 0.000000 0.000000 0.018146 0.000000 0.000000
# 5 0.000000 0.000000 0.000000 0.000000 0.026457 0.000000
# 6 0.000000 0.000000 0.000000 0.000000 0.000000 0.026309
#
#
# Mechanical properties :
#
#
# Convention : Reuss Voigt Hill
#
# Bulk Modulus (GPa) = 10.29024 15.78008 13.03516
# Shear Modulus (GPa) = 38.27347 43.99730 41.13539
#
# Velocity S-wave (km/s) = 4.20545 4.50896 4.35985
# Velocity P-wave (km/s) = 5.32317 5.86511 5.60070
#
# Compressibility (1/GPa) = 0.09717949
#
# Stress axis : x y z
#
# Youngs Moduli (GPa) = 28.82281 58.96509 94.31789
#
# Poissons Ratio (x) = -0.43718 -0.83251
# Poissons Ratio (y) = -0.21370 -0.11513
# Poissons Ratio (z) = -0.25441 -0.07198
#
# Static dielectric constant tensor:
#      x y z
#    x 1.774580 0.000000 0.000000 
#    y 0.000000 3.937640 0.000000 
#    z 0.000000 0.000000 1.768300 
# 
# From -- ./inp_files/21140.got.cif
#   From: 2010.05.17/outbox.cif.g08.bks.cpg/sg50_11_cif.got.tgz:21140.got - 2010.06.03 11:33:33.
