data_PCOD9397469
_publ_section_title
;
Structure prediction by ZEFSAII (Michael W. Deem and Ramdas Pophale) SiO2 
 PCOD9397469
Probable space group: P B A N
;
_chemical_formula_sum "Si O2"
_cell_formula_units_Z 40
_cell_length_a 34.197656
_cell_length_b 5.190135
_cell_length_c 10.410552
_cell_angle_alpha 90.000000
_cell_angle_beta 90.000000
_cell_angle_gamma 90.000000
_cell_volume 1847.773573
_symmetry_space_group_name_H-M "P B A N"
_symmetry_group_IT_number 50
_space_group.IT_coordinate_system_code '2'
_symmetry_cell_setting 'orthorhombic'
loop_
_space_group_symop_operation_xyz
x,y,z
1/2-x,1/2-y,z
x,1/2-y,-z
1/2-x,y,-z
-x,-y,-z
1/2+x,1/2+y,-z
-x,1/2+y,z
1/2+x,-y,z
loop_
_atom_site_type_symbol
_atom_site_label
_atom_site_fract_x
_atom_site_fract_y
_atom_site_fract_z
Si Si1 0.877380 0.250000 0.000000
Si Si2 0.893330 0.624704 0.366101
Si Si3 0.976249 0.742497 0.272269
Si Si4 0.933519 0.750000 0.000000
Si Si5 0.232303 0.503964 0.354027
Si Si6 0.645866 0.392935 0.272196
O O1 0.906148 0.496837 0.007844
O O2 0.851530 0.212828 0.127397
O O3 0.880556 0.750000 0.500000
O O4 0.939754 0.641461 0.354550
O O5 0.876913 0.339081 0.344325
O O6 0.877359 0.837423 0.266100
O O7 0.961094 0.740027 0.125290
O O8 0.010431 0.535087 0.295950
O O9 0.250000 0.750000 0.286414
O O10 0.250000 0.502812 0.500000
O O11 0.186178 0.538114 0.343691
O O12 0.250000 0.250000 0.293238
#
# Coordination Sequence:
#
# PCOD9397469 Si02
#       6
#     4   8   8   4   8   8
#     4  12  22  43  73  98 142 179 234 295 344 414
#     4  12  27  43  68 102 137 189 239 283 347 427
#     4  12  24  42  66  97 139 186 235 300 358 402
#     4  12  22  43  66 104 133 179 248 295 343 418
#     4  10  23  40  66 103 137 171 213 277 335 409
#     4  12  24  45  71 102 142 180 230 285 350 417
#
# _framework density 21.647675
#
# number of rings (size 3 to 8) (size 9 to 14) (size 15 to 20)
#    0.000    0.400    4.000    4.800    8.400    0.800 
#    0.000    0.500    0.000    1.200    0.000    0.000 
#    0.000    0.000    0.000    0.000    0.000    0.000 
#
# Total GULP energy -223455.941549 kJ/mol
# GULP energy per Si atom -5586.398539 kJ/mol
# Density = 2.159840 g / cm^3
# Si number density = 21.647675 Si / 1000 Ang^3
#
#
#
# Elastic Constant Matrix: (Units=GPa)
#
#
# Indices 1 2 3 4 5 6 
#
# 1 104.3226 34.6659 9.8186 0.0000 0.0000 0.0000
# 2 34.6659 166.3529 -6.0044 0.0000 0.0000 0.0000
# 3 9.8186 -6.0044 58.0983 0.0000 0.0000 0.0000
# 4 0.0000 0.0000 0.0000 0.0435 0.0000 0.0000
# 5 0.0000 0.0000 0.0000 0.0000 29.6451 0.0000
# 6 0.0000 0.0000 0.0000 0.0000 0.0000 44.3816
#
#
#
# Elastic Compliance Matrix: (Units=1/GPa)
#
#
# Indices 1 2 3 4 5 6 
#
# 1 0.010528 -0.002267 -0.002014 0.000000 0.000000 0.000000
# 2 -0.002267 0.006522 0.001057 0.000000 0.000000 0.000000
# 3 -0.002014 0.001057 0.017662 0.000000 0.000000 0.000000
# 4 0.000000 0.000000 0.000000 22.971477 0.000000 0.000000
# 5 0.000000 0.000000 0.000000 0.000000 0.033732 0.000000
# 6 0.000000 0.000000 0.000000 0.000000 0.000000 0.022532
#
#
# Mechanical properties :
#
#
# Convention : Reuss Voigt Hill
#
# Bulk Modulus (GPa) = 35.37857 45.08155 40.23006
# Shear Modulus (GPa) = 0.21665 34.16695 17.19180
#
# Velocity S-wave (km/s) = 0.31670 3.97712 2.82115
# Velocity P-wave (km/s) = 4.06351 6.47768 5.40705
#
# Compressibility (1/GPa) = 0.02826570
#
# Stress axis : x y z
#
# Youngs Moduli (GPa) = 94.98157 153.33154 56.61952
#
# Poissons Ratio (x) = 0.34755 0.11401
# Poissons Ratio (y) = 0.21529 -0.05985
# Poissons Ratio (z) = 0.19125 -0.16208
#
# Static dielectric constant tensor:
#      x y z
#    x 1.885630 0.000000 0.000000 
#    y 0.000000 1.797330 0.000000 
#    z 0.000000 0.000000 1.843670 
# 
# From -- ./inp_files/23302.got.cif
#   From: 2010.05.17/outbox.cif.g08.bks.cpg/sg50_12_cif.got.tgz:23302.got - 2010.06.03 11:33:33.
