data_PCOD9397100
_publ_section_title
;
Structure prediction by ZEFSAII (Michael W. Deem and Ramdas Pophale) SiO2 
 PCOD9397100
Probable space group: P B A N
;
_chemical_formula_sum "Si O2"
_cell_formula_units_Z 64
_cell_length_a 13.959011
_cell_length_b 10.990162
_cell_length_c 18.491012
_cell_angle_alpha 90.000000
_cell_angle_beta 90.000000
_cell_angle_gamma 90.000000
_cell_volume 2836.739291
_symmetry_space_group_name_H-M "P B A N"
_symmetry_group_IT_number 50
_space_group.IT_coordinate_system_code '2'
_symmetry_cell_setting 'orthorhombic'
loop_
_space_group_symop_operation_xyz
x,y,z
1/2-x,1/2-y,z
x,1/2-y,-z
1/2-x,y,-z
-x,-y,-z
1/2+x,1/2+y,-z
-x,1/2+y,z
1/2+x,-y,z
loop_
_atom_site_type_symbol
_atom_site_label
_atom_site_fract_x
_atom_site_fract_y
_atom_site_fract_z
Si Si1 0.383875 0.172950 0.714489
Si Si2 0.460143 0.115238 0.092746
Si Si3 0.900687 0.437883 0.355804
Si Si4 0.642390 0.395024 0.489140
Si Si5 0.407246 0.064101 0.259422
Si Si6 0.106370 0.666770 0.329162
Si Si7 0.349253 0.552555 0.020565
Si Si8 0.158798 0.165466 0.124340
O O1 0.349343 0.314005 0.717010
O O2 0.494678 0.187608 0.690106
O O3 0.379103 0.128468 0.797308
O O4 0.345668 0.061488 0.666314
O O5 0.441338 0.083777 0.177016
O O6 0.569233 0.119978 0.066297
O O7 0.417994 0.250008 0.084801
O O8 0.404397 0.014033 0.045590
O O9 0.917333 0.441974 0.442238
O O10 0.853697 0.305233 0.337768
O O11 0.997827 0.440893 0.309271
O O12 0.644250 0.250000 0.500000
O O13 0.750000 0.443346 0.500000
O O14 0.613788 0.402921 0.405934
O O15 0.357380 0.932977 0.271184
O O16 0.315585 0.445150 0.074073
O O17 0.250000 0.615778 0.000000
O O18 0.250000 0.250000 0.135256
#
# Coordination Sequence:
#
# PCOD9397100 Si02
#       8
#     8   8   8   8   8   8   8   8
#     4   9  19  33  54  87 116 152 200 262 316 378
#     4  10  22  37  59  93 129 162 210 279 322 393
#     4   9  17  33  56  81 108 151 208 255 302 382
#     4   9  18  33  52  79 111 155 210 264 309 382
#     4   9  18  34  52  85 121 156 194 255 334 387
#     4   9  17  33  57  78 113 153 204 254 315 387
#     4  11  21  37  64  96 122 164 225 270 328 397
#     4  11  21  39  64  91 125 173 220 266 328 421
#
# _framework density 22.561112999999999
#
# number of rings (size 3 to 8) (size 9 to 14) (size 15 to 20)
#    0.000    2.375    1.250    1.875    0.000    2.000 
#    4.500    1.875    0.000    6.750    0.000    0.000 
#    0.000    0.000    0.000    0.000    0.000    0.000 
#
# Total GULP energy -356830.435649 kJ/mol
# GULP energy per Si atom -5575.475557 kJ/mol
# Density = 2.250976 g / cm^3
# Si number density = 22.561113 Si / 1000 Ang^3
#
#
#
# Elastic Constant Matrix: (Units=GPa)
#
#
# Indices 1 2 3 4 5 6 
#
# 1 89.0302 8.5951 23.5834 0.0000 0.0000 0.0000
# 2 8.5951 126.9110 15.8229 0.0000 0.0000 0.0000
# 3 23.5834 15.8229 125.5409 0.0000 0.0000 0.0000
# 4 0.0000 0.0000 0.0000 35.8162 0.0000 0.0000
# 5 0.0000 0.0000 0.0000 0.0000 22.5554 0.0000
# 6 0.0000 0.0000 0.0000 0.0000 0.0000 30.3818
#
#
#
# Elastic Compliance Matrix: (Units=1/GPa)
#
#
# Indices 1 2 3 4 5 6 
#
# 1 0.011856 -0.000534 -0.002160 0.000000 0.000000 0.000000
# 2 -0.000534 0.008029 -0.000912 0.000000 0.000000 0.000000
# 3 -0.002160 -0.000912 0.008486 0.000000 0.000000 0.000000
# 4 0.000000 0.000000 0.000000 0.027920 0.000000 0.000000
# 5 0.000000 0.000000 0.000000 0.000000 0.044335 0.000000
# 6 0.000000 0.000000 0.000000 0.000000 0.000000 0.032914
#
#
# Mechanical properties :
#
#
# Convention : Reuss Voigt Hill
#
# Bulk Modulus (GPa) = 47.25732 48.60943 47.93337
# Shear Modulus (GPa) = 33.82821 37.31606 35.57213
#
# Velocity S-wave (km/s) = 3.87641 4.07135 3.97508
# Velocity P-wave (km/s) = 6.40525 6.61012 6.50849
#
# Compressibility (1/GPa) = 0.02116074
#
# Stress axis : x y z
#
# Youngs Moduli (GPa) = 84.34688 124.54304 117.83846
#
# Poissons Ratio (x) = 0.06646 0.25452
# Poissons Ratio (y) = 0.04501 0.10744
# Poissons Ratio (z) = 0.18218 0.11355
#
# Static dielectric constant tensor:
#      x y z
#    x 1.904700 0.000000 0.000000 
#    y 0.000000 1.933120 0.000000 
#    z 0.000000 0.000000 1.828160 
# 
# From -- ./inp_files/29549.got.cif
#   From: 2010.05.17/outbox.cif.g08.bks.cpg/sg50_15_cif.got.tgz:29549.got - 2010.06.03 11:33:33.
