data_PCOD9397992
_publ_section_title
;
Structure prediction by ZEFSAII (Michael W. Deem and Ramdas Pophale) SiO2 
 PCOD9397992
Probable space group: P B A N
;
_chemical_formula_sum "Si O2"
_cell_formula_units_Z 40
_cell_length_a 13.998451
_cell_length_b 15.247355
_cell_length_c 8.432289
_cell_angle_alpha 90.000000
_cell_angle_beta 90.000000
_cell_angle_gamma 90.000000
_cell_volume 1799.782299
_symmetry_space_group_name_H-M "P B A N"
_symmetry_group_IT_number 50
_space_group.IT_coordinate_system_code '2'
_symmetry_cell_setting 'orthorhombic'
loop_
_space_group_symop_operation_xyz
x,y,z
1/2-x,1/2-y,z
x,1/2-y,-z
1/2-x,y,-z
-x,-y,-z
1/2+x,1/2+y,-z
-x,1/2+y,z
1/2+x,-y,z
loop_
_atom_site_type_symbol
_atom_site_label
_atom_site_fract_x
_atom_site_fract_y
_atom_site_fract_z
Si Si1 0.807495 0.831760 0.834970
Si Si2 0.029923 0.808517 0.820316
Si Si3 0.749150 0.492603 0.313409
Si Si4 0.466527 0.511530 0.678816
Si Si5 0.396228 0.876185 0.846036
O O1 0.750000 0.750000 0.761006
O O2 0.917173 0.804339 0.861701
O O3 0.805913 0.918529 0.728227
O O4 0.750000 0.850178 0.000000
O O5 0.035855 0.884228 0.694011
O O6 0.071926 0.715617 0.766612
O O7 0.086835 0.848722 0.971713
O O8 0.750000 0.470699 0.500000
O O9 0.640324 0.516619 0.278574
O O10 0.794277 0.413836 0.209916
O O11 0.500000 0.500000 0.500000
O O12 0.533622 0.454992 0.794363
#
# Coordination Sequence:
#
# PCOD9397992 Si02
#       5
#     8   8   8   8   8
#     4  11  22  41  71 104 137 178 238 297 352 415
#     4  11  24  44  70 101 140 187 236 293 358 425
#     4  12  25  43  67 102 139 186 232 289 358 421
#     4  12  24  44  68 100 143 184 230 294 359 422
#     4  11  24  45  69 103 141 181 239 290 352 427
#
# _framework density 22.224913000000001
#
# number of rings (size 3 to 8) (size 9 to 14) (size 15 to 20)
#    0.000    0.600    4.000    5.400    2.800    2.000 
#    0.000    7.000    0.000    0.000    0.000    0.000 
#    0.000    0.000    0.000    0.000    0.000    0.000 
#
# Total GULP energy -223402.817086 kJ/mol
# GULP energy per Si atom -5585.070427 kJ/mol
# Density = 2.217433 g / cm^3
# Si number density = 22.224913 Si / 1000 Ang^3
#
#
#
# Elastic Constant Matrix: (Units=GPa)
#
#
# Indices 1 2 3 4 5 6 
#
# 1 100.3311 35.3509 30.5461 0.0000 0.0000 0.0000
# 2 35.3509 149.4189 36.7969 0.0000 0.0000 0.0000
# 3 30.5461 36.7969 45.1332 0.0000 0.0000 0.0000
# 4 0.0000 0.0000 0.0000 35.6965 0.0000 0.0000
# 5 0.0000 0.0000 0.0000 0.0000 18.7032 0.0000
# 6 0.0000 0.0000 0.0000 0.0000 0.0000 40.8902
#
#
#
# Elastic Compliance Matrix: (Units=1/GPa)
#
#
# Indices 1 2 3 4 5 6 
#
# 1 0.012699 -0.001111 -0.007689 0.000000 0.000000 0.000000
# 2 -0.001111 0.008471 -0.006155 0.000000 0.000000 0.000000
# 3 -0.007689 -0.006155 0.032378 0.000000 0.000000 0.000000
# 4 0.000000 0.000000 0.000000 0.028014 0.000000 0.000000
# 5 0.000000 0.000000 0.000000 0.000000 0.053467 0.000000
# 6 0.000000 0.000000 0.000000 0.000000 0.000000 0.024456
#
#
# Mechanical properties :
#
#
# Convention : Reuss Voigt Hill
#
# Bulk Modulus (GPa) = 42.30196 55.58568 48.94382
# Shear Modulus (GPa) = 25.34534 31.87059 28.60797
#
# Velocity S-wave (km/s) = 3.38065 3.79093 3.59165
# Velocity P-wave (km/s) = 5.85775 6.65029 6.26656
#
# Compressibility (1/GPa) = 0.02363957
#
# Stress axis : x y z
#
# Youngs Moduli (GPa) = 78.74365 118.04846 30.88471
#
# Poissons Ratio (x) = 0.13115 0.23748
# Poissons Ratio (y) = 0.08748 0.19008
# Poissons Ratio (z) = 0.60548 0.72654
#
# Static dielectric constant tensor:
#      x y z
#    x 1.946670 0.000000 0.000000 
#    y 0.000000 1.801240 0.000000 
#    z 0.000000 0.000000 1.835970 
# 
# From -- ./inp_files/12535.got.cif
#   From: 2010.05.17/outbox.cif.g08.bks.cpg/sg50_7_cif.got.tgz:12535.got - 2010.06.03 11:33:33.
