data_PCOD9397809
_publ_section_title
;
Structure prediction by ZEFSAII (Michael W. Deem and Ramdas Pophale) SiO2 
 PCOD9397809
Probable space group: P B A N
;
_chemical_formula_sum "Si O2"
_cell_formula_units_Z 64
_cell_length_a 18.517263
_cell_length_b 9.153960
_cell_length_c 18.477917
_cell_angle_alpha 90.000000
_cell_angle_beta 90.000000
_cell_angle_gamma 90.000000
_cell_volume 3132.123062
_symmetry_space_group_name_H-M "P B A N"
_symmetry_group_IT_number 50
_space_group.IT_coordinate_system_code '2'
_symmetry_cell_setting 'orthorhombic'
loop_
_space_group_symop_operation_xyz
x,y,z
1/2-x,1/2-y,z
x,1/2-y,-z
1/2-x,y,-z
-x,-y,-z
1/2+x,1/2+y,-z
-x,1/2+y,z
1/2+x,-y,z
loop_
_atom_site_type_symbol
_atom_site_label
_atom_site_fract_x
_atom_site_fract_y
_atom_site_fract_z
Si Si1 0.681526 0.168721 0.925381
Si Si2 0.428940 0.428091 0.235135
Si Si3 0.686410 0.135198 0.704495
Si Si4 0.932729 0.250150 0.813074
Si Si5 0.012159 0.417734 0.356056
Si Si6 0.175498 0.333160 0.073761
Si Si7 0.862053 0.845264 0.237343
Si Si8 0.912630 0.170126 0.424588
O O1 0.750000 0.250000 0.887718
O O2 0.608217 0.188883 0.881974
O O3 0.694495 0.000344 0.941521
O O4 0.672955 0.250000 0.000000
O O5 0.489963 0.323209 0.199943
O O6 0.427921 0.575071 0.188025
O O7 0.455116 0.482409 0.313199
O O8 0.357473 0.330417 0.245011
O O9 0.750000 0.250000 0.716186
O O10 0.617051 0.194813 0.747636
O O11 0.660135 0.144708 0.621722
O O12 0.694305 0.970269 0.736587
O O13 0.071561 0.382123 0.293229
O O14 0.049316 0.511237 0.419585
O O15 0.969442 0.278923 0.385110
O O16 0.250000 0.250000 0.091989
O O17 0.131115 0.351261 0.149374
O O18 0.147229 0.250000 0.000000
O O19 0.898233 0.250000 0.500000
#
# Coordination Sequence:
#
# PCOD9397809 Si02
#       8
#     8   8   8   8   8   8   8   8
#     4  11  24  42  61  86 122 165 212 255 320 381
#     4  12  20  37  65  89 124 155 204 261 319 364
#     4  11  22  40  62  90 125 164 215 258 306 378
#     4  12  22  39  65  89 121 163 206 265 317 368
#     4  11  18  39  61  91 119 162 202 256 309 374
#     4  11  24  40  59  89 126 165 216 264 318 374
#     4  11  22  38  62  89 125 159 207 264 308 373
#     4  11  22  37  61  93 127 161 205 256 321 381
#
# _framework density 20.433425
#
# number of rings (size 3 to 8) (size 9 to 14) (size 15 to 20)
#    0.000    0.750    7.500    2.250    3.500    0.250 
#    0.000    1.250    0.000    0.000    0.000    0.000 
#    3.750    0.000    0.000    0.000    0.000    0.000 
#
# Total GULP energy -356358.235101 kJ/mol
# GULP energy per Si atom -5568.097423 kJ/mol
# Density = 2.038692 g / cm^3
# Si number density = 20.433425 Si / 1000 Ang^3
#
#
#
# Elastic Constant Matrix: (Units=GPa)
#
#
# Indices 1 2 3 4 5 6 
#
# 1 54.8463 37.3970 19.9097 0.0000 0.0000 0.0000
# 2 37.3970 172.1791 20.5744 0.0000 0.0000 0.0000
# 3 19.9097 20.5744 105.5139 0.0000 0.0000 0.0000
# 4 0.0000 0.0000 0.0000 33.4232 0.0000 0.0000
# 5 0.0000 0.0000 0.0000 0.0000 25.8818 0.0000
# 6 0.0000 0.0000 0.0000 0.0000 0.0000 33.7157
#
#
#
# Elastic Compliance Matrix: (Units=1/GPa)
#
#
# Indices 1 2 3 4 5 6 
#
# 1 0.022517 -0.004488 -0.003374 0.000000 0.000000 0.000000
# 2 -0.004488 0.006841 -0.000487 0.000000 0.000000 0.000000
# 3 -0.003374 -0.000487 0.010209 0.000000 0.000000 0.000000
# 4 0.000000 0.000000 0.000000 0.029919 0.000000 0.000000
# 5 0.000000 0.000000 0.000000 0.000000 0.038637 0.000000
# 6 0.000000 0.000000 0.000000 0.000000 0.000000 0.029660
#
#
# Mechanical properties :
#
#
# Convention : Reuss Voigt Hill
#
# Bulk Modulus (GPa) = 43.72515 54.25572 48.99044
# Shear Modulus (GPa) = 30.84440 35.58134 33.21287
#
# Velocity S-wave (km/s) = 3.88945 4.17745 4.03602
# Velocity P-wave (km/s) = 6.45103 7.06245 6.76365
#
# Compressibility (1/GPa) = 0.02287013
#
# Stress axis : x y z
#
# Youngs Moduli (GPa) = 44.41018 146.18154 97.95250
#
# Poissons Ratio (x) = 0.65600 0.33047
# Poissons Ratio (y) = 0.19929 0.04772
# Poissons Ratio (z) = 0.14983 0.07121
#
# Static dielectric constant tensor:
#      x y z
#    x 1.806800 0.000000 0.000000 
#    y 0.000000 1.813330 0.000000 
#    z 0.000000 0.000000 1.794560 
# 
# From -- ./inp_files/29853.got.cif
#   From: 2010.05.17/outbox.cif.g08.bks.cpg/sg50_15_cif.got.tgz:29853.got - 2010.06.03 11:33:33.
