data_PCOD9397338
_publ_section_title
;
Structure prediction by ZEFSAII (Michael W. Deem and Ramdas Pophale) SiO2 
 PCOD9397338
Probable space group: P B A N
;
_chemical_formula_sum "Si O2"
_cell_formula_units_Z 64
_cell_length_a 17.459565
_cell_length_b 14.797218
_cell_length_c 12.618491
_cell_angle_alpha 90.000000
_cell_angle_beta 90.000000
_cell_angle_gamma 90.000000
_cell_volume 3260.024873
_symmetry_space_group_name_H-M "P B A N"
_symmetry_group_IT_number 50
_space_group.IT_coordinate_system_code '2'
_symmetry_cell_setting 'orthorhombic'
loop_
_space_group_symop_operation_xyz
x,y,z
1/2-x,1/2-y,z
x,1/2-y,-z
1/2-x,y,-z
-x,-y,-z
1/2+x,1/2+y,-z
-x,1/2+y,z
1/2+x,-y,z
loop_
_atom_site_type_symbol
_atom_site_label
_atom_site_fract_x
_atom_site_fract_y
_atom_site_fract_z
Si Si1 0.670376 0.610250 0.440591
Si Si2 0.339643 0.735561 0.621681
Si Si3 0.044044 0.867518 0.274775
Si Si4 0.541496 0.963838 0.898084
Si Si5 0.940003 0.567571 0.368428
Si Si6 0.895642 0.450517 0.688725
Si Si7 0.886176 0.755739 0.290110
Si Si8 0.169663 0.326988 0.066468
O O1 0.750000 0.595150 0.500000
O O2 0.604779 0.587826 0.524895
O O3 0.652452 0.537806 0.347168
O O4 0.663040 0.708990 0.389170
O O5 0.250000 0.750000 0.617061
O O6 0.368973 0.750000 0.500000
O O7 0.387114 0.801889 0.697371
O O8 0.346329 0.636998 0.672326
O O9 0.018892 0.895210 0.156610
O O10 0.965356 0.813722 0.306005
O O11 0.066432 0.964031 0.328325
O O12 0.620095 0.916232 0.931474
O O13 0.566522 0.031553 0.803480
O O14 0.500000 0.000000 0.000000
O O15 0.909021 0.649716 0.292872
O O16 0.030896 0.573106 0.384197
O O17 0.838006 0.787012 0.186216
O O18 0.126673 0.250000 0.000000
O O19 0.250000 0.339231 0.000000
#
# Coordination Sequence:
#
# PCOD9397338 Si02
#       8
#     8   8   8   8   8   8   8   8
#     4  12  26  41  63  98 143 179 219 283 341 416
#     4  11  25  41  67 104 143 183 228 280 347 415
#     4  10  22  43  66 100 131 177 236 280 331 420
#     4  10  23  45  71 100 127 174 237 290 347 403
#     4  11  23  39  71  91 133 185 220 272 344 398
#     4  11  23  44  68  99 136 176 233 285 331 424
#     4  11  23  44  62 100 134 174 234 278 335 425
#     4  10  23  42  66  93 135 172 221 288 349 407
#
# _framework density 19.631751999999999
#
# number of rings (size 3 to 8) (size 9 to 14) (size 15 to 20)
#    0.000    1.250    5.000    1.500    8.750    3.000 
#    2.250    0.000    0.000    0.750    0.000    0.000 
#    0.000    0.000    0.000    0.000    0.000    0.000 
#
# Total GULP energy -356414.139089 kJ/mol
# GULP energy per Si atom -5568.970923 kJ/mol
# Density = 1.958707 g / cm^3
# Si number density = 19.631752 Si / 1000 Ang^3
#
#
#
# Elastic Constant Matrix: (Units=GPa)
#
#
# Indices 1 2 3 4 5 6 
#
# 1 89.2828 30.6258 47.2112 0.0000 0.0000 0.0000
# 2 30.6258 94.1402 22.7145 0.0000 0.0000 0.0000
# 3 47.2112 22.7145 104.0185 0.0000 0.0000 0.0000
# 4 0.0000 0.0000 0.0000 5.4998 0.0000 0.0000
# 5 0.0000 0.0000 0.0000 0.0000 33.6166 0.0000
# 6 0.0000 0.0000 0.0000 0.0000 0.0000 -86.5219
#
#
#
# Elastic Compliance Matrix: (Units=1/GPa)
#
#
# Indices 1 2 3 4 5 6 
#
# 1 0.015816 -0.003603 -0.006392 0.000000 0.000000 0.000000
# 2 -0.003603 0.012034 -0.000993 0.000000 0.000000 0.000000
# 3 -0.006392 -0.000993 0.012731 0.000000 0.000000 0.000000
# 4 0.000000 0.000000 0.000000 0.181825 0.000000 0.000000
# 5 0.000000 0.000000 0.000000 0.000000 0.029747 0.000000
# 6 0.000000 0.000000 0.000000 0.000000 0.000000 -0.011558
#
#
# Mechanical properties :
#
#
# Convention : Reuss Voigt Hill
#
# Bulk Modulus (GPa) = 53.74328 54.28273 54.01301
# Shear Modulus (GPa) = 18.60305 2.97825 10.79065
#
# Velocity S-wave (km/s) = 3.08165 1.23303 2.34701
# Velocity P-wave (km/s) = 6.33224 5.45322 5.90910
#
# Compressibility (1/GPa) = 0.01860698
#
# Stress axis : x y z
#
# Youngs Moduli (GPa) = 63.22662 83.09722 78.54570
#
# Poissons Ratio (x) = 0.29941 0.50204
# Poissons Ratio (y) = 0.22781 0.07796
# Poissons Ratio (z) = 0.40413 0.08248
#
# Static dielectric constant tensor:
#      x y z
#    x 1.680400 0.000000 0.000000 
#    y 0.000000 1.757410 0.000000 
#    z 0.000000 0.000000 1.753120 
# 
# From -- ./inp_files/21938.got.cif
#   From: 2010.05.17/outbox.cif.g08.bks.cpg/sg50_11_cif.got.tgz:21938.got - 2010.06.03 11:33:33.
