data_PCOD9397854
_publ_section_title
;
Structure prediction by ZEFSAII (Michael W. Deem and Ramdas Pophale) SiO2 
 PCOD9397854
Probable space group: P B A N
;
_chemical_formula_sum "Si O2"
_cell_formula_units_Z 40
_cell_length_a 27.709090
_cell_length_b 16.159632
_cell_length_c 5.122968
_cell_angle_alpha 90.000000
_cell_angle_beta 90.000000
_cell_angle_gamma 90.000000
_cell_volume 2293.904708
_symmetry_space_group_name_H-M "P B A N"
_symmetry_group_IT_number 50
_space_group.IT_coordinate_system_code '2'
_symmetry_cell_setting 'orthorhombic'
loop_
_space_group_symop_operation_xyz
x,y,z
1/2-x,1/2-y,z
x,1/2-y,-z
1/2-x,y,-z
-x,-y,-z
1/2+x,1/2+y,-z
-x,1/2+y,z
1/2+x,-y,z
loop_
_atom_site_type_symbol
_atom_site_label
_atom_site_fract_x
_atom_site_fract_y
_atom_site_fract_z
Si Si1 0.447076 0.954235 0.470408
Si Si2 0.365047 0.406325 0.509844
Si Si3 0.055401 0.294578 0.260994
Si Si4 0.538616 0.348488 0.953929
Si Si5 0.692510 0.850265 0.000602
O O1 0.437743 0.889157 0.702495
O O2 0.500000 0.000000 0.500000
O O3 0.401482 0.016187 0.481026
O O4 0.449562 0.903042 0.203372
O O5 0.402726 0.333597 0.571368
O O6 0.336090 0.388792 0.245808
O O7 0.328103 0.396675 0.747518
O O8 0.026247 0.250000 0.500000
O O9 0.018239 0.355980 0.119640
O O10 0.074515 0.250000 0.000000
O O11 0.546447 0.250000 0.000000
O O12 0.685235 0.750000 0.000000
O O13 0.750000 0.862562 0.000000
#
# Coordination Sequence:
#
# PCOD9397854 Si02
#       5
#     8   8   8   8   8
#     4  12  24  38  54  86 121 153 197 251 287 339
#     4  12  23  36  59  83 116 154 199 246 295 344
#     4  11  21  32  52  80 113 154 205 236 272 341
#     4  11  23  38  55  75 117 164 198 229 282 341
#     4  11  24  42  60  85 119 157 201 249 294 345
#
# _framework density 17.437517
#
# number of rings (size 3 to 8) (size 9 to 14) (size 15 to 20)
#    0.000    0.600    2.000    9.000    2.800    1.600 
#    0.000    0.000    0.000    0.000    0.000    0.000 
#    0.000   56.000    0.000    0.000    0.000    0.000 
#
# Total GULP energy -222974.143511 kJ/mol
# GULP energy per Si atom -5574.353588 kJ/mol
# Density = 1.739783 g / cm^3
# Si number density = 17.437517 Si / 1000 Ang^3
#
#
#
# Elastic Constant Matrix: (Units=GPa)
#
#
# Indices 1 2 3 4 5 6 
#
# 1 116.0786 55.1927 43.8854 0.0000 0.0000 0.0000
# 2 55.1927 81.7652 45.0489 0.0000 0.0000 0.0000
# 3 43.8854 45.0489 149.6675 0.0000 0.0000 0.0000
# 4 0.0000 0.0000 0.0000 32.3676 0.0000 0.0000
# 5 0.0000 0.0000 0.0000 0.0000 33.1342 0.0000
# 6 0.0000 0.0000 0.0000 0.0000 0.0000 22.8304
#
#
#
# Elastic Compliance Matrix: (Units=1/GPa)
#
#
# Indices 1 2 3 4 5 6 
#
# 1 0.012925 -0.007956 -0.001395 0.000000 0.000000 0.000000
# 2 -0.007956 0.019559 -0.003554 0.000000 0.000000 0.000000
# 3 -0.001395 -0.003554 0.008160 0.000000 0.000000 0.000000
# 4 0.000000 0.000000 0.000000 0.030895 0.000000 0.000000
# 5 0.000000 0.000000 0.000000 0.000000 0.030180 0.000000
# 6 0.000000 0.000000 0.000000 0.000000 0.000000 0.043801
#
#
# Mechanical properties :
#
#
# Convention : Reuss Voigt Hill
#
# Bulk Modulus (GPa) = 67.41496 70.64059 69.02777
# Shear Modulus (GPa) = 28.36453 31.22537 29.79495
#
# Velocity S-wave (km/s) = 4.03754 4.23626 4.13809
# Velocity P-wave (km/s) = 7.77691 8.03284 7.90591
#
# Compressibility (1/GPa) = 0.01483350
#
# Stress axis : x y z
#
# Youngs Moduli (GPa) = 77.36795 51.12796 122.54339
#
# Poissons Ratio (x) = 0.40678 0.17098
# Poissons Ratio (y) = 0.61554 0.43554
# Poissons Ratio (z) = 0.10795 0.18172
#
# Static dielectric constant tensor:
#      x y z
#    x 1.628190 0.000000 0.000000 
#    y 0.000000 1.558080 0.000000 
#    z 0.000000 0.000000 1.657000 
# 
# From -- ./inp_files/5908.got.cif
#   From: 2010.05.17/outbox.cif.g08.bks.cpg/sg50_3_cif.got.tgz:5908.got - 2010.06.03 11:33:33.
