data_PCOD9397022
_publ_section_title
;
Structure prediction by ZEFSAII (Michael W. Deem and Ramdas Pophale) SiO2 
 PCOD9397022
Probable space group: P B A N
;
_chemical_formula_sum "Si O2"
_cell_formula_units_Z 36
_cell_length_a 14.333009
_cell_length_b 13.647314
_cell_length_c 7.984348
_cell_angle_alpha 90.000000
_cell_angle_beta 90.000000
_cell_angle_gamma 90.000000
_cell_volume 1561.794953
_symmetry_space_group_name_H-M "P B A N"
_symmetry_group_IT_number 50
_space_group.IT_coordinate_system_code '2'
_symmetry_cell_setting 'orthorhombic'
loop_
_space_group_symop_operation_xyz
x,y,z
1/2-x,1/2-y,z
x,1/2-y,-z
1/2-x,y,-z
-x,-y,-z
1/2+x,1/2+y,-z
-x,1/2+y,z
1/2+x,-y,z
loop_
_atom_site_type_symbol
_atom_site_label
_atom_site_fract_x
_atom_site_fract_y
_atom_site_fract_z
Si Si1 0.228747 0.359633 0.804819
Si Si2 0.584127 0.007463 0.263536
Si Si3 0.100851 0.443053 0.378209
Si Si4 0.857272 0.281565 0.186388
Si Si5 0.509523 0.250000 0.500000
O O1 0.250000 0.250000 0.744879
O O2 0.126400 0.403921 0.787390
O O3 0.299200 0.426954 0.701002
O O4 0.250000 0.362256 0.000000
O O5 0.473523 0.018038 0.243418
O O6 0.634615 0.100373 0.185901
O O7 0.601971 0.014499 0.463761
O O8 0.057047 0.341327 0.449636
O O9 0.750000 0.250000 0.213114
O O10 0.923497 0.241018 0.335936
O O11 0.887146 0.250000 0.000000
#
# Coordination Sequence:
#
# PCOD9397022 Si02
#       5
#     8   8   8   8   4
#     4  11  25  44  67 103 144 188 238 297 366 435
#     4  10  23  43  66  98 132 184 233 296 353 431
#     4  10  22  43  67 100 136 184 243 287 361 433
#     4  10  23  42  66 103 139 184 237 295 363 434
#     4  10  21  42  67 100 142 190 232 300 354 440
#
# _framework density 23.050398999999999
#
# number of rings (size 3 to 8) (size 9 to 14) (size 15 to 20)
#    0.000    1.778    0.000    2.333    3.111   10.667 
#   24.000    0.000    0.000    0.000    0.000    0.000 
#    0.000    0.000    0.000    0.000    0.000    0.000 
#
# Total GULP energy -201293.034289 kJ/mol
# GULP energy per Si atom -5591.473175 kJ/mol
# Density = 2.299794 g / cm^3
# Si number density = 23.050399 Si / 1000 Ang^3
#
#
#
# Elastic Constant Matrix: (Units=GPa)
#
#
# Indices 1 2 3 4 5 6 
#
# 1 48.9645 13.2231 25.0662 0.0000 0.0000 0.0000
# 2 13.2231 88.9715 14.8703 0.0000 0.0000 0.0000
# 3 25.0662 14.8703 91.5352 0.0000 0.0000 0.0000
# 4 0.0000 0.0000 0.0000 34.6023 0.0000 0.0000
# 5 0.0000 0.0000 0.0000 0.0000 -1.7713 0.0000
# 6 0.0000 0.0000 0.0000 0.0000 0.0000 29.0901
#
#
#
# Elastic Compliance Matrix: (Units=1/GPa)
#
#
# Indices 1 2 3 4 5 6 
#
# 1 0.024311 -0.002570 -0.006240 0.000000 0.000000 0.000000
# 2 -0.002570 0.011825 -0.001217 0.000000 0.000000 0.000000
# 3 -0.006240 -0.001217 0.012831 0.000000 0.000000 0.000000
# 4 0.000000 0.000000 0.000000 0.028900 0.000000 0.000000
# 5 0.000000 0.000000 0.000000 0.000000 -0.564568 0.000000
# 6 0.000000 0.000000 0.000000 0.000000 0.000000 0.034376
#
#
# Mechanical properties :
#
#
# Convention : Reuss Voigt Hill
#
# Bulk Modulus (GPa) = 34.58667 37.31006 35.94836
# Shear Modulus (GPa) = -11.83062 24.13834 6.15386
#
# Velocity S-wave (km/s) = -2.26796 3.23956 1.63571
# Velocity P-wave (km/s) = 2.85993 5.49676 4.38141
#
# Compressibility (1/GPa) = 0.02891288
#
# Stress axis : x y z
#
# Youngs Moduli (GPa) = 41.13284 84.56671 77.93470
#
# Poissons Ratio (x) = 0.21736 0.48631
# Poissons Ratio (y) = 0.10572 0.09486
# Poissons Ratio (z) = 0.25667 0.10293
#
# Static dielectric constant tensor:
#      x y z
#    x 1.864090 0.000000 0.000000 
#    y 0.000000 1.920460 0.000000 
#    z 0.000000 0.000000 1.851420 
# 
# From -- ./inp_files/12453.got.cif
#   From: 2010.05.17/outbox.cif.g08.bks.cpg/sg50_7_cif.got.tgz:12453.got - 2010.06.03 11:33:33.
