data_PCOD9397970
_publ_section_title
;
Structure prediction by ZEFSAII (Michael W. Deem and Ramdas Pophale) SiO2 
 PCOD9397970
Probable space group: P B A N
;
_chemical_formula_sum "Si O2"
_cell_formula_units_Z 48
_cell_length_a 12.849828
_cell_length_b 8.541691
_cell_length_c 20.574712
_cell_angle_alpha 90.000000
_cell_angle_beta 90.000000
_cell_angle_gamma 90.000000
_cell_volume 2258.265168
_symmetry_space_group_name_H-M "P B A N"
_symmetry_group_IT_number 50
_space_group.IT_coordinate_system_code '2'
_symmetry_cell_setting 'orthorhombic'
loop_
_space_group_symop_operation_xyz
x,y,z
1/2-x,1/2-y,z
x,1/2-y,-z
1/2-x,y,-z
-x,-y,-z
1/2+x,1/2+y,-z
-x,1/2+y,z
1/2+x,-y,z
loop_
_atom_site_type_symbol
_atom_site_label
_atom_site_fract_x
_atom_site_fract_y
_atom_site_fract_z
Si Si1 0.884255 0.909154 0.265489
Si Si2 0.914561 0.402817 0.540136
Si Si3 0.637820 0.671541 0.115197
Si Si4 0.550686 0.375477 0.048650
Si Si5 0.747008 0.435579 0.631245
Si Si6 0.452682 0.395638 0.336118
O O1 0.868798 0.851955 0.192643
O O2 0.898169 0.755839 0.308635
O O3 0.792702 0.006108 0.299698
O O4 0.986723 0.014232 0.278639
O O5 0.883260 0.250000 0.500000
O O6 0.815706 0.494490 0.570043
O O7 0.000000 0.500000 0.500000
O O8 0.968087 0.350023 0.607524
O O9 0.750000 0.750000 0.097969
O O10 0.623592 0.492073 0.089751
O O11 0.541581 0.781424 0.088203
O O12 0.603015 0.250000 0.000000
O O13 0.500000 0.500000 0.000000
O O14 0.750000 0.250000 0.629422
O O15 0.631029 0.495516 0.629841
#
# Coordination Sequence:
#
# PCOD9397970 Si02
#       6
#     8   8   8   8   8   8
#     4  11  23  40  64  94 124 159 208 260 317 381
#     4  11  23  39  58  84 116 156 208 259 311 378
#     4  11  22  41  69  99 133 176 221 274 330 393
#     4   9  21  41  64  96 134 173 220 268 320 387
#     4  11  23  40  61  87 120 162 205 255 320 387
#     4  11  22  40  61  86 124 161 197 260 324 375
#
# _framework density 21.255255999999999
#
# number of rings (size 3 to 8) (size 9 to 14) (size 15 to 20)
#    0.000    1.333    0.000    7.500    0.000    5.333 
#    0.000    8.333    0.000    0.000    0.000    0.000 
#    0.000    0.000    0.000    0.000    0.000    0.000 
#
# Total GULP energy -267941.290362 kJ/mol
# GULP energy per Si atom -5582.110216 kJ/mol
# Density = 2.120688 g / cm^3
# Si number density = 21.255256 Si / 1000 Ang^3
#
#
#
# Elastic Constant Matrix: (Units=GPa)
#
#
# Indices 1 2 3 4 5 6 
#
# 1 105.9852 34.4103 29.9132 0.0000 0.0000 0.0000
# 2 34.4103 111.7247 34.3214 0.0000 0.0000 0.0000
# 3 29.9132 34.3214 108.5715 0.0000 0.0000 0.0000
# 4 0.0000 0.0000 0.0000 45.4875 0.0000 0.0000
# 5 0.0000 0.0000 0.0000 0.0000 12.9979 0.0000
# 6 0.0000 0.0000 0.0000 0.0000 0.0000 36.5043
#
#
#
# Elastic Compliance Matrix: (Units=1/GPa)
#
#
# Indices 1 2 3 4 5 6 
#
# 1 0.010921 -0.002701 -0.002155 0.000000 0.000000 0.000000
# 2 -0.002701 0.010582 -0.002601 0.000000 0.000000 0.000000
# 3 -0.002155 -0.002601 0.010626 0.000000 0.000000 0.000000
# 4 0.000000 0.000000 0.000000 0.021984 0.000000 0.000000
# 5 0.000000 0.000000 0.000000 0.000000 0.076936 0.000000
# 6 0.000000 0.000000 0.000000 0.000000 0.000000 0.027394
#
#
# Mechanical properties :
#
#
# Convention : Reuss Voigt Hill
#
# Bulk Modulus (GPa) = 58.09086 58.17459 58.13272
# Shear Modulus (GPa) = 27.91827 34.17371 31.04599
#
# Velocity S-wave (km/s) = 3.62812 4.01406 3.82596
# Velocity P-wave (km/s) = 6.70377 6.99375 6.85029
#
# Compressibility (1/GPa) = 0.01721441
#
# Stress axis : x y z
#
# Youngs Moduli (GPa) = 91.57055 94.50424 94.10583
#
# Poissons Ratio (x) = 0.25530 0.20278
# Poissons Ratio (y) = 0.24738 0.24474
# Poissons Ratio (z) = 0.19732 0.24578
#
# Static dielectric constant tensor:
#      x y z
#    x 1.949160 0.000000 0.000000 
#    y 0.000000 1.774500 0.000000 
#    z 0.000000 0.000000 1.769940 
# 
# From -- ./inp_files/29455.got.cif
#   From: 2010.05.17/outbox.cif.g08.bks.cpg/sg50_15_cif.got.tgz:29455.got - 2010.06.03 11:33:33.
