data_PCOD9397194
_publ_section_title
;
Structure prediction by ZEFSAII (Michael W. Deem and Ramdas Pophale) SiO2 
 PCOD9397194
Probable space group: P B A N
;
_chemical_formula_sum "Si O2"
_cell_formula_units_Z 56
_cell_length_a 9.248218
_cell_length_b 14.861256
_cell_length_c 20.027579
_cell_angle_alpha 90.000000
_cell_angle_beta 90.000000
_cell_angle_gamma 90.000000
_cell_volume 2752.593166
_symmetry_space_group_name_H-M "P B A N"
_symmetry_group_IT_number 50
_space_group.IT_coordinate_system_code '2'
_symmetry_cell_setting 'orthorhombic'
loop_
_space_group_symop_operation_xyz
x,y,z
1/2-x,1/2-y,z
x,1/2-y,-z
1/2-x,y,-z
-x,-y,-z
1/2+x,1/2+y,-z
-x,1/2+y,z
1/2+x,-y,z
loop_
_atom_site_type_symbol
_atom_site_label
_atom_site_fract_x
_atom_site_fract_y
_atom_site_fract_z
Si Si1 0.629842 0.967106 0.047450
Si Si2 0.200919 0.656380 0.260726
Si Si3 0.301102 0.349440 0.796570
Si Si4 0.505186 0.389838 0.678324
Si Si5 0.778293 0.856442 0.425288
Si Si6 0.569415 0.590907 0.692206
Si Si7 0.631635 0.032575 0.864650
O O1 0.736442 0.039851 0.082200
O O2 0.523957 0.933237 0.107372
O O3 0.750000 0.916562 0.000000
O O4 0.500000 0.000000 0.000000
O O5 0.250000 0.750000 0.229646
O O6 0.327160 0.627411 0.310482
O O7 0.173444 0.586625 0.201333
O O8 0.055518 0.664569 0.303405
O O9 0.250000 0.250000 0.820780
O O10 0.417447 0.339039 0.736895
O O11 0.168610 0.395767 0.757013
O O12 0.364857 0.424481 0.847436
O O13 0.435978 0.370522 0.606782
O O14 0.489061 0.495952 0.692182
O O15 0.750000 0.750000 0.424646
O O16 0.750000 0.890027 0.500000
O O17 0.668789 0.900263 0.372331
#
# Coordination Sequence:
#
# PCOD9397194 Si02
#       7
#     8   8   8   8   8   8   8
#     4   9  20  36  59  84 114 162 199 232 284 338
#     4  12  22  34  58  94 123 149 186 249 316 349
#     4  11  21  36  59  88 120 157 194 240 300 363
#     4  11  20  37  56  83 120 150 190 251 303 357
#     4  10  22  40  58  76 107 160 211 242 287 368
#     4  11  20  37  56  83 120 150 190 250 304 355
#     4  11  19  36  60  86 120 151 198 238 286 355
#
# _framework density 20.344452
#
# number of rings (size 3 to 8) (size 9 to 14) (size 15 to 20)
#    0.000    1.286    2.857    6.000    0.000    0.571 
#    0.000    0.714    0.000   15.429    0.000    0.000 
#    0.000    0.000    0.000    0.000    0.000    0.000 
#
# Total GULP energy -312008.679440 kJ/mol
# GULP energy per Si atom -5571.583561 kJ/mol
# Density = 2.029815 g / cm^3
# Si number density = 20.344452 Si / 1000 Ang^3
#
#
#
# Elastic Constant Matrix: (Units=GPa)
#
#
# Indices 1 2 3 4 5 6 
#
# 1 139.9924 5.6718 54.3167 0.0000 0.0000 0.0000
# 2 5.6718 88.5775 19.0794 0.0000 0.0000 0.0000
# 3 54.3167 19.0794 117.8244 0.0000 0.0000 0.0000
# 4 0.0000 0.0000 0.0000 7.9620 0.0000 0.0000
# 5 0.0000 0.0000 0.0000 0.0000 -15.9857 0.0000
# 6 0.0000 0.0000 0.0000 0.0000 0.0000 23.2543
#
#
#
# Elastic Compliance Matrix: (Units=1/GPa)
#
#
# Indices 1 2 3 4 5 6 
#
# 1 0.008708 0.000318 -0.004066 0.000000 0.000000 0.000000
# 2 0.000318 0.011709 -0.002043 0.000000 0.000000 0.000000
# 3 -0.004066 -0.002043 0.010692 0.000000 0.000000 0.000000
# 4 0.000000 0.000000 0.000000 0.125597 0.000000 0.000000
# 5 0.000000 0.000000 0.000000 0.000000 -0.062556 0.000000
# 6 0.000000 0.000000 0.000000 0.000000 0.000000 0.043003
#
#
# Mechanical properties :
#
#
# Convention : Reuss Voigt Hill
#
# Bulk Modulus (GPa) = 51.20700 56.05891 53.63296
# Shear Modulus (GPa) = 32.20745 20.86787 26.53766
#
# Velocity S-wave (km/s) = 3.98314 3.20617 3.61559
# Velocity P-wave (km/s) = 6.81018 6.42812 6.62191
#
# Compressibility (1/GPa) = 0.01952858
#
# Stress axis : x y z
#
# Youngs Moduli (GPa) = 114.83840 85.40307 93.52492
#
# Poissons Ratio (x) = -0.02717 0.38026
# Poissons Ratio (y) = -0.03654 0.19105
# Poissons Ratio (z) = 0.46691 0.17446
#
# Static dielectric constant tensor:
#      x y z
#    x 1.776220 0.000000 0.000000 
#    y 0.000000 1.767530 0.000000 
#    z 0.000000 0.000000 1.786190 
# 
# From -- ./inp_files/30664.got.cif
#   From: 2010.05.17/outbox.cif.g08.bks.cpg/sg50_16_cif.got.tgz:30664.got - 2010.06.03 11:33:33.
