data_PCOD9397763
_publ_section_title
;
Structure prediction by ZEFSAII (Michael W. Deem and Ramdas Pophale) SiO2 
 PCOD9397763
Probable space group: P B A N
;
_chemical_formula_sum "Si O2"
_cell_formula_units_Z 64
_cell_length_a 16.977203
_cell_length_b 12.391712
_cell_length_c 13.851532
_cell_angle_alpha 90.000000
_cell_angle_beta 90.000000
_cell_angle_gamma 90.000000
_cell_volume 2914.038347
_symmetry_space_group_name_H-M "P B A N"
_symmetry_group_IT_number 50
_space_group.IT_coordinate_system_code '2'
_symmetry_cell_setting 'orthorhombic'
loop_
_space_group_symop_operation_xyz
x,y,z
1/2-x,1/2-y,z
x,1/2-y,-z
1/2-x,y,-z
-x,-y,-z
1/2+x,1/2+y,-z
-x,1/2+y,z
1/2+x,-y,z
loop_
_atom_site_type_symbol
_atom_site_label
_atom_site_fract_x
_atom_site_fract_y
_atom_site_fract_z
Si Si1 0.355831 0.018847 0.589633
Si Si2 0.580672 0.342860 0.723920
Si Si3 0.084123 0.222652 0.314675
Si Si4 0.387677 0.513049 0.823029
Si Si5 0.338843 0.784936 0.102853
Si Si6 0.177206 0.432827 0.369397
Si Si7 0.935915 0.939202 0.846630
Si Si8 0.158074 0.374136 0.022009
O O1 0.415928 0.116203 0.616804
O O2 0.345985 0.025112 0.474989
O O3 0.271550 0.052955 0.636706
O O4 0.379035 0.900749 0.630750
O O5 0.498373 0.287408 0.693493
O O6 0.624505 0.261509 0.797282
O O7 0.573349 0.449085 0.790333
O O8 0.148080 0.309746 0.351660
O O9 0.098872 0.161564 0.213047
O O10 0.330313 0.587553 0.883751
O O11 0.366618 0.503210 0.711889
O O12 0.470222 0.568413 0.847130
O O13 0.373179 0.397727 0.870741
O O14 0.250000 0.750000 0.099608
O O15 0.377418 0.750000 0.000000
O O16 0.895769 0.942697 0.949562
O O17 0.143235 0.250000 0.000000
O O18 0.250000 0.393700 0.000000
#
# Coordination Sequence:
#
# PCOD9397763 Si02
#       8
#     8   8   8   8   8   8   8   8
#     4  10  25  44  73  99 139 183 235 299 353 437
#     4  11  23  45  66 100 137 177 227 289 353 412
#     4  11  22  42  70 100 137 175 233 292 349 423
#     4  12  24  43  70  97 141 184 229 286 349 435
#     4  11  25  42  68  99 134 184 237 284 338 425
#     4  11  23  46  70 103 134 184 237 289 368 418
#     4  11  24  44  64  99 138 181 224 280 358 413
#     4  11  27  44  69 105 139 182 233 292 356 419
#
# _framework density 21.96265
#
# number of rings (size 3 to 8) (size 9 to 14) (size 15 to 20)
#    0.000    1.000    2.500    3.375    7.000    2.000 
#    2.250    0.625    0.000    2.250    0.000    0.000 
#    0.000    0.000    0.000    0.000    0.000    0.000 
#
# Total GULP energy -357151.602486 kJ/mol
# GULP energy per Si atom -5580.493789 kJ/mol
# Density = 2.191266 g / cm^3
# Si number density = 21.962650 Si / 1000 Ang^3
#
#
#
# Elastic Constant Matrix: (Units=GPa)
#
#
# Indices 1 2 3 4 5 6 
#
# 1 68.9279 20.5729 43.9144 0.0000 0.0000 0.0000
# 2 20.5729 93.9221 32.8037 0.0000 0.0000 0.0000
# 3 43.9144 32.8037 112.6255 0.0000 0.0000 0.0000
# 4 0.0000 0.0000 0.0000 18.7609 0.0000 0.0000
# 5 0.0000 0.0000 0.0000 0.0000 31.2724 0.0000
# 6 0.0000 0.0000 0.0000 0.0000 0.0000 27.6462
#
#
#
# Elastic Compliance Matrix: (Units=1/GPa)
#
#
# Indices 1 2 3 4 5 6 
#
# 1 0.019574 -0.001806 -0.007106 0.000000 0.000000 0.000000
# 2 -0.001806 0.012019 -0.002797 0.000000 0.000000 0.000000
# 3 -0.007106 -0.002797 0.012465 0.000000 0.000000 0.000000
# 4 0.000000 0.000000 0.000000 0.053302 0.000000 0.000000
# 5 0.000000 0.000000 0.000000 0.000000 0.031977 0.000000
# 6 0.000000 0.000000 0.000000 0.000000 0.000000 0.036171
#
#
# Mechanical properties :
#
#
# Convention : Reuss Voigt Hill
#
# Bulk Modulus (GPa) = 48.44806 52.22862 50.33834
# Shear Modulus (GPa) = 25.53533 27.41485 26.47509
#
# Velocity S-wave (km/s) = 3.41349 3.53689 3.47574
# Velocity P-wave (km/s) = 6.13540 6.36488 6.25119
#
# Compressibility (1/GPa) = 0.02064066
#
# Stress axis : x y z
#
# Youngs Moduli (GPa) = 51.08720 83.19850 80.22781
#
# Poissons Ratio (x) = 0.15022 0.57013
# Poissons Ratio (y) = 0.09224 0.22438
# Poissons Ratio (z) = 0.36305 0.23269
#
# Static dielectric constant tensor:
#      x y z
#    x 1.901490 0.000000 0.000000 
#    y 0.000000 2.527090 0.000000 
#    z 0.000000 0.000000 1.940260 
# 
# From -- ./inp_files/27023.got.cif
#   From: 2010.05.17/outbox.cif.g08.bks.cpg/sg50_14_cif.got.tgz:27023.got - 2010.06.03 11:33:33.
