data_PCOD9397493
_publ_section_title
;
Structure prediction by ZEFSAII (Michael W. Deem and Ramdas Pophale) SiO2 
 PCOD9397493
Probable space group: P B A N
;
_chemical_formula_sum "Si O2"
_cell_formula_units_Z 40
_cell_length_a 10.814603
_cell_length_b 20.862473
_cell_length_c 8.624940
_cell_angle_alpha 90.000000
_cell_angle_beta 90.000000
_cell_angle_gamma 90.000000
_cell_volume 1945.953470
_symmetry_space_group_name_H-M "P B A N"
_symmetry_group_IT_number 50
_space_group.IT_coordinate_system_code '2'
_symmetry_cell_setting 'orthorhombic'
loop_
_space_group_symop_operation_xyz
x,y,z
1/2-x,1/2-y,z
x,1/2-y,-z
1/2-x,y,-z
-x,-y,-z
1/2+x,1/2+y,-z
-x,1/2+y,z
1/2+x,-y,z
loop_
_atom_site_type_symbol
_atom_site_label
_atom_site_fract_x
_atom_site_fract_y
_atom_site_fract_z
Si Si1 0.873424 0.493932 0.900468
Si Si2 0.489296 0.888970 0.304575
Si Si3 0.103480 0.754462 0.825296
Si Si4 0.256445 0.128161 0.171597
Si Si5 0.438015 0.184117 0.403838
O O1 0.903893 0.446462 0.757331
O O2 0.840465 0.565112 0.844229
O O3 0.750000 0.473268 0.000000
O O4 0.000000 0.500000 0.000000
O O5 0.431169 0.822870 0.244282
O O6 0.621348 0.894526 0.220910
O O7 0.520818 0.874040 0.484166
O O8 0.250000 0.750000 0.826568
O O9 0.044130 0.699351 0.721003
O O10 0.055117 0.750000 0.000000
O O11 0.314971 0.170496 0.306369
O O12 0.250000 0.158685 0.000000
O O13 0.423845 0.250000 0.500000
#
# Coordination Sequence:
#
# PCOD9397493 Si02
#       5
#     8   8   8   8   8
#     4  11  23  42  70 100 133 183 238 288 338 412
#     4  11  23  41  65 100 136 179 218 296 343 410
#     4  10  23  41  67  98 130 179 232 277 347 424
#     4  11  22  42  70  95 135 176 240 279 348 415
#     4  10  24  43  66  99 143 178 227 291 366 420
#
# _framework density 20.555475999999999
#
# number of rings (size 3 to 8) (size 9 to 14) (size 15 to 20)
#    0.000    1.400    4.000    1.800    2.800   10.000 
#    0.000    5.000    0.000    0.000    0.000    0.000 
#    0.000    0.000    0.000    0.000    0.000    0.000 
#
# Total GULP energy -223401.446828 kJ/mol
# GULP energy per Si atom -5585.036171 kJ/mol
# Density = 2.050869 g / cm^3
# Si number density = 20.555476 Si / 1000 Ang^3
#
#
#
# Elastic Constant Matrix: (Units=GPa)
#
#
# Indices 1 2 3 4 5 6 
#
# 1 107.8549 24.4138 37.8241 0.0000 0.0000 0.0000
# 2 24.4138 46.1345 30.8023 0.0000 0.0000 0.0000
# 3 37.8241 30.8023 142.0243 0.0000 0.0000 0.0000
# 4 0.0000 0.0000 0.0000 37.3763 0.0000 0.0000
# 5 0.0000 0.0000 0.0000 0.0000 59.2801 0.0000
# 6 0.0000 0.0000 0.0000 0.0000 0.0000 41.8581
#
#
#
# Elastic Compliance Matrix: (Units=1/GPa)
#
#
# Indices 1 2 3 4 5 6 
#
# 1 0.010974 -0.004509 -0.001945 0.000000 0.000000 0.000000
# 2 -0.004509 0.027199 -0.004698 0.000000 0.000000 0.000000
# 3 -0.001945 -0.004698 0.008578 0.000000 0.000000 0.000000
# 4 0.000000 0.000000 0.000000 0.026755 0.000000 0.000000
# 5 0.000000 0.000000 0.000000 0.000000 0.016869 0.000000
# 6 0.000000 0.000000 0.000000 0.000000 0.000000 0.023890
#
#
# Mechanical properties :
#
#
# Convention : Reuss Voigt Hill
#
# Bulk Modulus (GPa) = 40.90447 53.56602 47.23525
# Shear Modulus (GPa) = 34.54998 41.23445 37.89222
#
# Velocity S-wave (km/s) = 4.10422 4.48371 4.29816
# Velocity P-wave (km/s) = 6.51170 7.27466 6.90373
#
# Compressibility (1/GPa) = 0.02444720
#
# Stress axis : x y z
#
# Youngs Moduli (GPa) = 91.12107 36.76661 116.57871
#
# Poissons Ratio (x) = 0.16578 0.22672
# Poissons Ratio (y) = 0.41087 0.54769
# Poissons Ratio (z) = 0.17721 0.17273
#
# Static dielectric constant tensor:
#      x y z
#    x 1.727540 0.000000 0.000000 
#    y 0.000000 1.712330 0.000000 
#    z 0.000000 0.000000 1.787480 
# 
# From -- ./inp_files/9511.got.cif
#   From: 2010.05.17/outbox.cif.g08.bks.cpg/sg50_5_cif.got.tgz:9511.got - 2010.06.03 11:33:33.
