data_PCOD9397977
_publ_section_title
;
Structure prediction by ZEFSAII (Michael W. Deem and Ramdas Pophale) SiO2 
 PCOD9397977
Probable space group: P B A N
;
_chemical_formula_sum "Si O2"
_cell_formula_units_Z 40
_cell_length_a 14.206904
_cell_length_b 10.116823
_cell_length_c 12.916333
_cell_angle_alpha 90.000000
_cell_angle_beta 90.000000
_cell_angle_gamma 90.000000
_cell_volume 1856.448179
_symmetry_space_group_name_H-M "P B A N"
_symmetry_group_IT_number 50
_space_group.IT_coordinate_system_code '2'
_symmetry_cell_setting 'orthorhombic'
loop_
_space_group_symop_operation_xyz
x,y,z
1/2-x,1/2-y,z
x,1/2-y,-z
1/2-x,y,-z
-x,-y,-z
1/2+x,1/2+y,-z
-x,1/2+y,z
1/2+x,-y,z
loop_
_atom_site_type_symbol
_atom_site_label
_atom_site_fract_x
_atom_site_fract_y
_atom_site_fract_z
Si Si1 0.799184 0.050310 0.693847
Si Si2 0.696852 0.874732 0.109853
Si Si3 0.559865 0.612947 0.560804
Si Si4 0.982152 0.130702 0.067601
Si Si5 0.105828 0.836634 0.714849
O O1 0.856073 0.187576 0.703563
O O2 0.690383 0.076920 0.667708
O O3 0.800750 0.991966 0.809405
O O4 0.849375 0.955477 0.611851
O O5 0.750000 0.750000 0.157488
O O6 0.588765 0.832120 0.097876
O O7 0.750000 0.901823 0.000000
O O8 0.578541 0.750000 0.500000
O O9 0.500000 0.500000 0.500000
O O10 0.490462 0.651820 0.653942
O O11 0.917629 0.117386 0.168439
O O12 0.941621 0.250000 0.000000
O O13 0.000000 0.000000 0.000000
#
# Coordination Sequence:
#
# PCOD9397977 Si02
#       5
#     8   8   8   8   8
#     4  11  25  47  74 108 151 196 253 319 387 464
#     4  11  22  40  68 105 148 193 256 313 364 449
#     4  12  26  49  81 107 147 200 258 320 392 459
#     4  12  24  41  71 106 151 203 251 309 380 454
#     4  11  26  46  74 108 152 199 253 321 388 458
#
# _framework density 21.546523000000001
#
# number of rings (size 3 to 8) (size 9 to 14) (size 15 to 20)
#    0.000    0.600    6.000    2.400    0.000    2.400 
#    0.000    3.000    0.000    0.000    0.000    0.000 
#    0.000    0.000    0.000    0.000    0.000    0.000 
#
# Total GULP energy -223606.354152 kJ/mol
# GULP energy per Si atom -5590.158854 kJ/mol
# Density = 2.149748 g / cm^3
# Si number density = 21.546523 Si / 1000 Ang^3
#
#
#
# Elastic Constant Matrix: (Units=GPa)
#
#
# Indices 1 2 3 4 5 6 
#
# 1 129.0761 46.9099 43.4636 0.0000 0.0000 0.0000
# 2 46.9099 124.1554 59.6944 0.0000 0.0000 0.0000
# 3 43.4636 59.6944 100.0346 0.0000 0.0000 0.0000
# 4 0.0000 0.0000 0.0000 44.4100 0.0000 0.0000
# 5 0.0000 0.0000 0.0000 0.0000 40.5142 0.0000
# 6 0.0000 0.0000 0.0000 0.0000 0.0000 27.8739
#
#
#
# Elastic Compliance Matrix: (Units=1/GPa)
#
#
# Indices 1 2 3 4 5 6 
#
# 1 0.009504 -0.002251 -0.002786 0.000000 0.000000 0.000000
# 2 -0.002251 0.011829 -0.006080 0.000000 0.000000 0.000000
# 3 -0.002786 -0.006080 0.014835 0.000000 0.000000 0.000000
# 4 0.000000 0.000000 0.000000 0.022517 0.000000 0.000000
# 5 0.000000 0.000000 0.000000 0.000000 0.024683 0.000000
# 6 0.000000 0.000000 0.000000 0.000000 0.000000 0.035876
#
#
# Mechanical properties :
#
#
# Convention : Reuss Voigt Hill
#
# Bulk Modulus (GPa) = 71.77438 72.60022 72.18730
# Shear Modulus (GPa) = 34.21790 36.10616 35.16203
#
# Velocity S-wave (km/s) = 3.98941 4.09801 4.04408
# Velocity P-wave (km/s) = 7.38947 7.49395 7.44189
#
# Compressibility (1/GPa) = 0.01393255
#
# Stress axis : x y z
#
# Youngs Moduli (GPa) = 105.22319 84.54152 67.40711
#
# Poissons Ratio (x) = 0.19034 0.18778
# Poissons Ratio (y) = 0.23690 0.40986
# Poissons Ratio (z) = 0.29312 0.51404
#
# Static dielectric constant tensor:
#      x y z
#    x 1.825150 0.000000 0.000000 
#    y 0.000000 1.784600 0.000000 
#    z 0.000000 0.000000 1.808650 
# 
# From -- ./inp_files/26286.got.cif
#   From: 2010.05.17/outbox.cif.g08.bks.cpg/sg50_14_cif.got.tgz:26286.got - 2010.06.03 11:33:33.
