data_PCOD9397118
_publ_section_title
;
Structure prediction by ZEFSAII (Michael W. Deem and Ramdas Pophale) SiO2 
 PCOD9397118
Probable space group: P B A N
;
_chemical_formula_sum "Si O2"
_cell_formula_units_Z 38
_cell_length_a 5.102206
_cell_length_b 16.416114
_cell_length_c 22.982018
_cell_angle_alpha 90.000000
_cell_angle_beta 90.000000
_cell_angle_gamma 90.000000
_cell_volume 1924.936950
_symmetry_space_group_name_H-M "P B A N"
_symmetry_group_IT_number 50
_space_group.IT_coordinate_system_code '2'
_symmetry_cell_setting 'orthorhombic'
loop_
_space_group_symop_operation_xyz
x,y,z
1/2-x,1/2-y,z
x,1/2-y,-z
1/2-x,y,-z
-x,-y,-z
1/2+x,1/2+y,-z
-x,1/2+y,z
1/2+x,-y,z
loop_
_atom_site_type_symbol
_atom_site_label
_atom_site_fract_x
_atom_site_fract_y
_atom_site_fract_z
Si Si1 0.250000 0.250000 0.000000
Si Si2 0.250000 0.556971 0.000000
Si Si3 0.821609 0.557606 0.187785
Si Si4 0.098039 0.669617 0.096355
Si Si5 0.765010 0.945155 0.315817
Si Si6 0.824725 0.943092 0.560145
O O1 0.423748 0.197415 0.957713
O O2 0.278379 0.606646 0.060835
O O3 0.500000 0.500000 0.000000
O O4 0.541891 0.513281 0.181004
O O5 0.807561 0.592956 0.253751
O O6 0.915836 0.626360 0.143483
O O7 0.250000 0.750000 0.118235
O O8 0.563186 0.022415 0.316518
O O9 0.715035 0.901055 0.377275
O O10 0.750000 0.898323 0.500000
O O11 0.614872 0.018398 0.559553
#
# Coordination Sequence:
#
# PCOD9397118 Si02
#       6
#     2   4   8   8   8   8
#     4  12  24  44  60  76 112 134 176 214 290 326
#     4  12  24  40  61  83 104 130 170 222 276 334
#     4  10  22  38  57  81 104 138 183 219 264 322
#     4  12  25  41  59  81 107 140 171 223 280 334
#     4   8  14  26  42  63  95 128 168 208 246 293
#     4   8  12  18  32  56  87 126 166 195 238 291
#
# _framework density 19.740907
#
# number of rings (size 3 to 8) (size 9 to 14) (size 15 to 20)
#    0.000    2.105    2.105    1.895    2.947    0.000 
#    0.000    0.000    0.000    0.000    0.000    0.000 
#    0.000    0.000    0.000    0.947   41.684    1.263 
#
# Total GULP energy -211656.113703 kJ/mol
# GULP energy per Si atom -5569.897729 kJ/mol
# Density = 1.969598 g / cm^3
# Si number density = 19.740907 Si / 1000 Ang^3
#
#
#
# Elastic Constant Matrix: (Units=GPa)
#
#
# Indices 1 2 3 4 5 6 
#
# 1 90.1931 9.4949 -0.0865 0.0000 0.0000 0.0000
# 2 9.4949 37.4664 27.5799 0.0000 0.0000 0.0000
# 3 -0.0865 27.5799 168.0298 0.0000 0.0000 0.0000
# 4 0.0000 0.0000 0.0000 5.2589 0.0000 0.0000
# 5 0.0000 0.0000 0.0000 0.0000 30.9033 0.0000
# 6 0.0000 0.0000 0.0000 0.0000 0.0000 -10.6550
#
#
#
# Elastic Compliance Matrix: (Units=1/GPa)
#
#
# Indices 1 2 3 4 5 6 
#
# 1 0.011435 -0.003301 0.000548 0.000000 0.000000 0.000000
# 2 -0.003301 0.031312 -0.005141 0.000000 0.000000 0.000000
# 3 0.000548 -0.005141 0.006795 0.000000 0.000000 0.000000
# 4 0.000000 0.000000 0.000000 0.190154 0.000000 0.000000
# 5 0.000000 0.000000 0.000000 0.000000 0.032359 0.000000
# 6 0.000000 0.000000 0.000000 0.000000 0.000000 -0.093853
#
#
# Mechanical properties :
#
#
# Convention : Reuss Voigt Hill
#
# Bulk Modulus (GPa) = 29.62667 41.07400 35.35033
# Shear Modulus (GPa) = 24.36128 22.34816 23.35472
#
# Velocity S-wave (km/s) = 3.51672 3.36828 3.44330
# Velocity P-wave (km/s) = 5.61516 5.99823 5.80986
#
# Compressibility (1/GPa) = 0.03375338
#
# Stress axis : x y z
#
# Youngs Moduli (GPa) = 87.44796 31.93695 147.15721
#
# Poissons Ratio (x) = 0.10543 -0.08060
# Poissons Ratio (y) = 0.28868 0.75655
# Poissons Ratio (z) = -0.04790 0.16419
#
# Static dielectric constant tensor:
#      x y z
#    x 1.686270 0.000000 0.000000 
#    y 0.000000 1.507790 0.000000 
#    z 0.000000 0.000000 1.799360 
# 
# From -- ./inp_files/31414.got.cif
#   From: 2010.05.17/outbox.cif.g08.bks.cpg/sg50_16_cif.got.tgz:31414.got - 2010.06.03 11:33:33.
