data_PCOD9397737
_publ_section_title
;
Structure prediction by ZEFSAII (Michael W. Deem and Ramdas Pophale) SiO2 
 PCOD9397737
Probable space group: P B A N
;
_chemical_formula_sum "Si O2"
_cell_formula_units_Z 54
_cell_length_a 14.660735
_cell_length_b 12.305750
_cell_length_c 14.126622
_cell_angle_alpha 90.000000
_cell_angle_beta 90.000000
_cell_angle_gamma 90.000000
_cell_volume 2548.602801
_symmetry_space_group_name_H-M "P B A N"
_symmetry_group_IT_number 50
_space_group.IT_coordinate_system_code '2'
_symmetry_cell_setting 'orthorhombic'
loop_
_space_group_symop_operation_xyz
x,y,z
1/2-x,1/2-y,z
x,1/2-y,-z
1/2-x,y,-z
-x,-y,-z
1/2+x,1/2+y,-z
-x,1/2+y,z
1/2+x,-y,z
loop_
_atom_site_type_symbol
_atom_site_label
_atom_site_fract_x
_atom_site_fract_y
_atom_site_fract_z
Si Si1 0.889674 0.944139 0.092575
Si Si2 0.685121 0.352205 0.669509
Si Si3 0.250000 0.511917 0.500000
Si Si4 0.014926 0.301381 0.246511
Si Si5 0.336145 0.188718 0.401409
Si Si6 0.540975 0.892816 0.098523
Si Si7 0.704090 0.052778 0.135856
Si Si8 0.750000 0.250000 0.000000
O O1 0.936807 0.895994 0.185348
O O2 0.784255 0.972959 0.100950
O O3 0.914135 0.868594 0.003490
O O4 0.942248 0.057365 0.075421
O O5 0.750000 0.250000 0.652726
O O6 0.686812 0.418606 0.571233
O O7 0.587029 0.320425 0.714490
O O8 0.728694 0.418582 0.756546
O O9 0.191273 0.432886 0.431514
O O10 0.077361 0.293892 0.338049
O O11 0.025841 0.198210 0.177087
O O12 0.250000 0.250000 0.353955
O O13 0.350135 0.250000 0.500000
O O14 0.609672 0.987093 0.134711
O O15 0.701124 0.163395 0.072102
#
# Coordination Sequence:
#
# PCOD9397737 Si02
#       8
#     8   8   4   8   8   8   8   2
#     4  11  24  42  65 103 141 193 240 283 352 411
#     4  12  26  45  69 103 135 181 234 297 364 414
#     4  10  24  48  74  94 138 176 232 304 360 434
#     4  12  26  42  71 103 141 184 233 297 352 434
#     4   9  23  44  68 100 130 178 225 289 364 431
#     4  11  25  42  65 103 146 188 237 286 344 426
#     4  12  24  44  70 102 144 193 242 289 350 418
#     4  12  24  44  76 100 140 202 240 288 336 420
#
# _framework density 21.188079999999999
#
# number of rings (size 3 to 8) (size 9 to 14) (size 15 to 20)
#    0.000    1.037    3.704    2.444    6.222    1.778 
#    0.000    1.481    0.000    0.000    0.000    0.000 
#    0.000    0.000    0.000    0.000    0.000    0.000 
#
# Total GULP energy -301400.051868 kJ/mol
# GULP energy per Si atom -5581.482442 kJ/mol
# Density = 2.113985 g / cm^3
# Si number density = 21.188080 Si / 1000 Ang^3
#
#
#
# Elastic Constant Matrix: (Units=GPa)
#
#
# Indices 1 2 3 4 5 6 
#
# 1 101.6620 56.4912 43.7007 0.0000 0.0000 0.0000
# 2 56.4912 77.8575 44.7542 0.0000 0.0000 0.0000
# 3 43.7007 44.7542 99.4254 0.0000 0.0000 0.0000
# 4 0.0000 0.0000 0.0000 -9.4388 0.0000 0.0000
# 5 0.0000 0.0000 0.0000 0.0000 39.0349 0.0000
# 6 0.0000 0.0000 0.0000 0.0000 0.0000 10.0651
#
#
#
# Elastic Compliance Matrix: (Units=1/GPa)
#
#
# Indices 1 2 3 4 5 6 
#
# 1 0.016960 -0.010820 -0.002584 0.000000 0.000000 0.000000
# 2 -0.010820 0.024231 -0.006151 0.000000 0.000000 0.000000
# 3 -0.002584 -0.006151 0.013962 0.000000 0.000000 0.000000
# 4 0.000000 0.000000 0.000000 -0.105945 0.000000 0.000000
# 5 0.000000 0.000000 0.000000 0.000000 0.025618 0.000000
# 6 0.000000 0.000000 0.000000 0.000000 0.000000 0.099353
#
#
# Mechanical properties :
#
#
# Convention : Reuss Voigt Hill
#
# Bulk Modulus (GPa) = 62.33518 63.20411 62.76965
# Shear Modulus (GPa) = 42.14566 16.86549 29.50558
#
# Velocity S-wave (km/s) = 4.46479 2.82439 3.73574
# Velocity P-wave (km/s) = 7.48752 6.36640 6.94960
#
# Compressibility (1/GPa) = 0.01604231
#
# Stress axis : x y z
#
# Youngs Moduli (GPa) = 58.96293 41.27014 71.62179
#
# Poissons Ratio (x) = 0.44655 0.18506
# Poissons Ratio (y) = 0.63800 0.44055
# Poissons Ratio (z) = 0.15235 0.25385
#
# Static dielectric constant tensor:
#      x y z
#    x 1.484840 0.000000 0.000000 
#    y 0.000000 1.820040 0.000000 
#    z 0.000000 0.000000 1.734760 
# 
# From -- ./inp_files/26532.got.cif
#   From: 2010.05.17/outbox.cif.g08.bks.cpg/sg50_14_cif.got.tgz:26532.got - 2010.06.03 11:33:33.
