data_PCOD9397475
_publ_section_title
;
Structure prediction by ZEFSAII (Michael W. Deem and Ramdas Pophale) SiO2 
 PCOD9397475
Probable space group: P B A N
;
_chemical_formula_sum "Si O2"
_cell_formula_units_Z 32
_cell_length_a 11.691656
_cell_length_b 8.510807
_cell_length_c 13.246727
_cell_angle_alpha 90.000000
_cell_angle_beta 90.000000
_cell_angle_gamma 90.000000
_cell_volume 1318.121236
_symmetry_space_group_name_H-M "P B A N"
_symmetry_group_IT_number 50
_space_group.IT_coordinate_system_code '2'
_symmetry_cell_setting 'orthorhombic'
loop_
_space_group_symop_operation_xyz
x,y,z
1/2-x,1/2-y,z
x,1/2-y,-z
1/2-x,y,-z
-x,-y,-z
1/2+x,1/2+y,-z
-x,1/2+y,z
1/2+x,-y,z
loop_
_atom_site_type_symbol
_atom_site_label
_atom_site_fract_x
_atom_site_fract_y
_atom_site_fract_z
Si Si1 0.657618 0.645885 0.267150
Si Si2 0.375785 0.569884 0.465164
Si Si3 0.286377 0.573636 0.116206
Si Si4 0.543954 0.965569 0.258258
O O1 0.750000 0.750000 0.326956
O O2 0.723270 0.570553 0.172845
O O3 0.582516 0.499558 0.299136
O O4 0.563562 0.780579 0.249182
O O5 0.379624 0.750000 0.500000
O O6 0.250000 0.507843 0.500000
O O7 0.500000 0.500000 0.500000
O O8 0.376617 0.543461 0.344162
O O9 0.250000 0.750000 0.148955
O O10 0.417039 0.540647 0.151400
O O11 0.250000 0.563705 0.000000
#
# Coordination Sequence:
#
# PCOD9397475 Si02
#       4
#     8   8   8   8
#     4  10  23  40  70 102 143 190 242 304 374 445
#     4  11  27  46  73 110 148 199 252 317 384 459
#     4  10  23  42  70 105 144 190 246 307 376 466
#     4  11  23  42  70  99 146 195 246 312 376 454
#
# _framework density 24.276976999999999
#
# number of rings (size 3 to 8) (size 9 to 14) (size 15 to 20)
#    0.000    1.500    0.000    3.000   10.500    6.000 
#    0.000    2.500    0.000    0.000    0.000    0.000 
#    0.000    0.000    0.000    0.000    0.000    0.000 
#
# Total GULP energy -178135.965574 kJ/mol
# GULP energy per Si atom -5566.748924 kJ/mol
# Density = 2.422172 g / cm^3
# Si number density = 24.276977 Si / 1000 Ang^3
#
#
#
# Elastic Constant Matrix: (Units=GPa)
#
#
# Indices 1 2 3 4 5 6 
#
# 1 158.7073 30.4036 23.7579 0.0000 0.0000 0.0000
# 2 30.4036 141.1993 23.8958 0.0000 0.0000 0.0000
# 3 23.7579 23.8958 101.5453 0.0000 0.0000 0.0000
# 4 0.0000 0.0000 0.0000 14.7874 0.0000 0.0000
# 5 0.0000 0.0000 0.0000 0.0000 27.0160 0.0000
# 6 0.0000 0.0000 0.0000 0.0000 0.0000 60.8950
#
#
#
# Elastic Compliance Matrix: (Units=1/GPa)
#
#
# Indices 1 2 3 4 5 6 
#
# 1 0.006729 -0.001232 -0.001285 0.000000 0.000000 0.000000
# 2 -0.001232 0.007601 -0.001501 0.000000 0.000000 0.000000
# 3 -0.001285 -0.001501 0.010501 0.000000 0.000000 0.000000
# 4 0.000000 0.000000 0.000000 0.067625 0.000000 0.000000
# 5 0.000000 0.000000 0.000000 0.000000 0.037015 0.000000
# 6 0.000000 0.000000 0.000000 0.000000 0.000000 0.016422
#
#
# Mechanical properties :
#
#
# Convention : Reuss Voigt Hill
#
# Bulk Modulus (GPa) = 59.52917 61.95183 60.74050
# Shear Modulus (GPa) = 31.34268 42.09930 36.72099
#
# Velocity S-wave (km/s) = 3.59701 4.16880 3.89342
# Velocity P-wave (km/s) = 6.46725 6.98183 6.72946
#
# Compressibility (1/GPa) = 0.01679849
#
# Stress axis : x y z
#
# Youngs Moduli (GPa) = 148.60763 131.55591 95.22453
#
# Poissons Ratio (x) = 0.16202 0.12232
# Poissons Ratio (y) = 0.18302 0.14290
# Poissons Ratio (z) = 0.19090 0.19742
#
# Static dielectric constant tensor:
#      x y z
#    x 2.271540 0.000000 0.000000 
#    y 0.000000 1.951550 0.000000 
#    z 0.000000 0.000000 2.019160 
# 
# From -- ./inp_files/24330.got.cif
#   From: 2010.05.17/outbox.cif.g08.bks.cpg/sg50_13_cif.got.tgz:24330.got - 2010.06.03 11:33:33.
