data_PCOD9397230
_publ_section_title
;
Structure prediction by ZEFSAII (Michael W. Deem and Ramdas Pophale) SiO2 
 PCOD9397230
Probable space group: P B A N
;
_chemical_formula_sum "Si O2"
_cell_formula_units_Z 58
_cell_length_a 17.215175
_cell_length_b 19.126726
_cell_length_c 8.473951
_cell_angle_alpha 90.000000
_cell_angle_beta 90.000000
_cell_angle_gamma 90.000000
_cell_volume 2790.217297
_symmetry_space_group_name_H-M "P B A N"
_symmetry_group_IT_number 50
_space_group.IT_coordinate_system_code '2'
_symmetry_cell_setting 'orthorhombic'
loop_
_space_group_symop_operation_xyz
x,y,z
1/2-x,1/2-y,z
x,1/2-y,-z
1/2-x,y,-z
-x,-y,-z
1/2+x,1/2+y,-z
-x,1/2+y,z
1/2+x,-y,z
loop_
_atom_site_type_symbol
_atom_site_label
_atom_site_fract_x
_atom_site_fract_y
_atom_site_fract_z
Si Si1 0.452612 0.215766 0.333801
Si Si2 0.713016 0.554806 0.675746
Si Si3 0.846314 0.629187 0.853418
Si Si4 0.897911 0.140610 0.140813
Si Si5 0.887036 0.305509 0.204649
Si Si6 0.750000 0.750000 0.000000
Si Si7 0.071016 0.135846 0.184038
Si Si8 0.755826 0.400706 0.312320
O O1 0.434923 0.250000 0.500000
O O2 0.401109 0.149677 0.290456
O O3 0.541102 0.189755 0.324186
O O4 0.436892 0.279777 0.209837
O O5 0.750000 0.562057 0.500000
O O6 0.780231 0.576346 0.799748
O O7 0.636382 0.601916 0.703092
O O8 0.698311 0.473404 0.711418
O O9 0.799689 0.699546 0.892806
O O10 0.897394 0.616349 0.009539
O O11 0.882923 0.222398 0.179668
O O12 0.825569 0.099695 0.217004
O O13 0.981135 0.113725 0.204196
O O14 0.905563 0.148561 0.951560
O O15 0.805806 0.335154 0.258766
O O16 0.750000 0.394778 0.500000
#
# Coordination Sequence:
#
# PCOD9397230 Si02
#       8
#     8   8   8   8   8   2   8   8
#     4  11  22  36  63 102 132 160 207 266 330 386
#     4  11  25  45  62  91 135 179 218 261 322 394
#     4  12  20  38  64  94 130 170 213 264 320 389
#     4  10  22  42  68  96 130 162 215 280 327 378
#     4  10  22  40  67  96 129 165 213 268 327 384
#     4  12  20  32  66  92 120 166 212 264 320 372
#     4  11  21  40  64  96 128 164 214 268 320 382
#     4  11  26  45  63  93 131 176 220 267 323 392
#
# _framework density 20.786911
#
# number of rings (size 3 to 8) (size 9 to 14) (size 15 to 20)
#    0.000    1.103    4.138    1.655    3.862    3.862 
#    2.483    4.138    0.000    0.000    0.000    0.000 
#    0.000    0.000    0.000    0.000    0.000    0.000 
#
# Total GULP energy -323486.971874 kJ/mol
# GULP energy per Si atom -5577.361584 kJ/mol
# Density = 2.073960 g / cm^3
# Si number density = 20.786911 Si / 1000 Ang^3
#
#
#
# Elastic Constant Matrix: (Units=GPa)
#
#
# Indices 1 2 3 4 5 6 
#
# 1 120.7091 38.6934 14.3641 0.0000 0.0000 0.0000
# 2 38.6934 35.3602 15.7370 0.0000 0.0000 0.0000
# 3 14.3641 15.7370 62.1012 0.0000 0.0000 0.0000
# 4 0.0000 0.0000 0.0000 -12.4134 0.0000 0.0000
# 5 0.0000 0.0000 0.0000 0.0000 23.0914 0.0000
# 6 0.0000 0.0000 0.0000 0.0000 0.0000 5.2168
#
#
#
# Elastic Compliance Matrix: (Units=1/GPa)
#
#
# Indices 1 2 3 4 5 6 
#
# 1 0.012784 -0.014284 0.000663 0.000000 0.000000 0.000000
# 2 -0.014284 0.047836 -0.008818 0.000000 0.000000 0.000000
# 3 0.000663 -0.008818 0.018184 0.000000 0.000000 0.000000
# 4 0.000000 0.000000 0.000000 -0.080558 0.000000 0.000000
# 5 0.000000 0.000000 0.000000 0.000000 0.043306 0.000000
# 6 0.000000 0.000000 0.000000 0.000000 0.000000 0.191688
#
#
# Mechanical properties :
#
#
# Convention : Reuss Voigt Hill
#
# Bulk Modulus (GPa) = 29.47695 39.52882 34.50289
# Shear Modulus (GPa) = 17.27549 13.13737 15.20643
#
# Velocity S-wave (km/s) = 2.88597 2.51669 2.70763
# Velocity P-wave (km/s) = 5.03154 5.24428 5.13901
#
# Compressibility (1/GPa) = 0.03392481
#
# Stress axis : x y z
#
# Youngs Moduli (GPa) = 78.22037 20.90489 54.99341
#
# Poissons Ratio (x) = 0.29861 -0.03645
# Poissons Ratio (y) = 1.11733 0.48493
# Poissons Ratio (z) = -0.05184 0.18434
#
# Static dielectric constant tensor:
#      x y z
#    x 1.822390 0.000000 0.000000 
#    y 0.000000 1.724490 0.000000 
#    z 0.000000 0.000000 1.824930 
# 
# From -- ./inp_files/14492.got.cif
#   From: 2010.05.17/outbox.cif.g08.bks.cpg/sg50_8_cif.got.tgz:14492.got - 2010.06.03 11:33:33.
