data_PCOD9397033
_publ_section_title
;
Structure prediction by ZEFSAII (Michael W. Deem and Ramdas Pophale) SiO2 
 PCOD9397033
Probable space group: P B A N
;
_chemical_formula_sum "Si O2"
_cell_formula_units_Z 30
_cell_length_a 9.903880
_cell_length_b 20.383337
_cell_length_c 7.203875
_cell_angle_alpha 90.000000
_cell_angle_beta 90.000000
_cell_angle_gamma 90.000000
_cell_volume 1454.275952
_symmetry_space_group_name_H-M "P B A N"
_symmetry_group_IT_number 50
_space_group.IT_coordinate_system_code '2'
_symmetry_cell_setting 'orthorhombic'
loop_
_space_group_symop_operation_xyz
x,y,z
1/2-x,1/2-y,z
x,1/2-y,-z
1/2-x,y,-z
-x,-y,-z
1/2+x,1/2+y,-z
-x,1/2+y,z
1/2+x,-y,z
loop_
_atom_site_type_symbol
_atom_site_label
_atom_site_fract_x
_atom_site_fract_y
_atom_site_fract_z
Si Si1 0.750000 0.903053 0.000000
Si Si2 0.402554 0.894965 0.571900
Si Si3 0.047471 0.199778 0.826872
Si Si4 0.250000 0.250000 0.500000
Si Si5 0.875610 0.956108 0.642179
O O1 0.865021 0.857057 0.080857
O O2 0.685886 0.945146 0.159257
O O3 0.250000 0.892007 0.500000
O O4 0.426453 0.837675 0.720428
O O5 0.515493 0.899375 0.408310
O O6 0.428906 0.969190 0.645770
O O7 0.142103 0.223727 0.655461
O O8 0.019371 0.250000 0.000000
O O9 0.750000 0.950971 0.500000
#
# Coordination Sequence:
#
# PCOD9397033 Si02
#       5
#     4   8   8   2   8
#     4  12  21  40  74 108 123 172 242 292 326 400
#     4  10  23  45  68 102 144 179 216 283 362 414
#     4  12  24  41  70 104 133 182 239 283 338 408
#     4  12  22  44  74  94 128 180 240 296 318 394
#     4  10  21  42  72 103 136 176 226 285 345 404
#
# _framework density 20.628820000000001
#
# number of rings (size 3 to 8) (size 9 to 14) (size 15 to 20)
#    0.000    1.067    5.333    1.600    0.000    1.067 
#    0.000    0.667    5.867    0.000    0.000    0.000 
#    0.000    0.000    0.000    0.000    0.000    0.000 
#
# Total GULP energy -167033.994885 kJ/mol
# GULP energy per Si atom -5567.799830 kJ/mol
# Density = 2.058187 g / cm^3
# Si number density = 20.628820 Si / 1000 Ang^3
#
#
#
# Elastic Constant Matrix: (Units=GPa)
#
#
# Indices 1 2 3 4 5 6 
#
# 1 85.3703 25.0573 30.4077 0.0000 0.0000 0.0000
# 2 25.0573 69.3527 51.4846 0.0000 0.0000 0.0000
# 3 30.4077 51.4846 150.4489 0.0000 0.0000 0.0000
# 4 0.0000 0.0000 0.0000 17.2007 0.0000 0.0000
# 5 0.0000 0.0000 0.0000 0.0000 28.1076 0.0000
# 6 0.0000 0.0000 0.0000 0.0000 0.0000 -27.1769
#
#
#
# Elastic Compliance Matrix: (Units=1/GPa)
#
#
# Indices 1 2 3 4 5 6 
#
# 1 0.013320 -0.003772 -0.001401 0.000000 0.000000 0.000000
# 2 -0.003772 0.020398 -0.006218 0.000000 0.000000 0.000000
# 3 -0.001401 -0.006218 0.009058 0.000000 0.000000 0.000000
# 4 0.000000 0.000000 0.000000 0.058137 0.000000 0.000000
# 5 0.000000 0.000000 0.000000 0.000000 0.035578 0.000000
# 6 0.000000 0.000000 0.000000 0.000000 0.000000 -0.036796
#
#
# Mechanical properties :
#
#
# Convention : Reuss Voigt Hill
#
# Bulk Modulus (GPa) = 50.01792 57.67457 53.84624
# Shear Modulus (GPa) = 38.71719 16.84110 27.77914
#
# Velocity S-wave (km/s) = 4.33696 2.86035 3.67361
# Velocity P-wave (km/s) = 7.02697 6.23921 6.64477
#
# Compressibility (1/GPa) = 0.01999284
#
# Stress axis : x y z
#
# Youngs Moduli (GPa) = 75.07503 49.02466 110.40239
#
# Poissons Ratio (x) = 0.18494 0.15470
# Poissons Ratio (y) = 0.28321 0.68647
# Poissons Ratio (z) = 0.10520 0.30483
#
# Static dielectric constant tensor:
#      x y z
#    x 1.933560 0.000000 0.000000 
#    y 0.000000 1.784520 0.000000 
#    z 0.000000 0.000000 2.415300 
# 
# From -- ./inp_files/2002.got.cif
#   From: 2010.05.17/outbox.cif.g08.bks.cpg/sg50_2_cif.got.tgz:2002.got - 2010.06.03 11:33:33.
