data_PCOD9397437
_publ_section_title
;
Structure prediction by ZEFSAII (Michael W. Deem and Ramdas Pophale) SiO2 
 PCOD9397437
Probable space group: P B A N
;
_chemical_formula_sum "Si O2"
_cell_formula_units_Z 52
_cell_length_a 21.414260
_cell_length_b 13.337988
_cell_length_c 9.368133
_cell_angle_alpha 90.000000
_cell_angle_beta 90.000000
_cell_angle_gamma 90.000000
_cell_volume 2675.755591
_symmetry_space_group_name_H-M "P B A N"
_symmetry_group_IT_number 50
_space_group.IT_coordinate_system_code '2'
_symmetry_cell_setting 'orthorhombic'
loop_
_space_group_symop_operation_xyz
x,y,z
1/2-x,1/2-y,z
x,1/2-y,-z
1/2-x,y,-z
-x,-y,-z
1/2+x,1/2+y,-z
-x,1/2+y,z
1/2+x,-y,z
loop_
_atom_site_type_symbol
_atom_site_label
_atom_site_fract_x
_atom_site_fract_y
_atom_site_fract_z
Si Si1 0.792723 0.453560 0.616589
Si Si2 0.638679 0.166699 0.091930
Si Si3 0.539656 0.340157 0.691199
Si Si4 0.066330 0.609103 0.384742
Si Si5 0.750000 0.250000 0.738026
Si Si6 0.686211 0.527504 0.069962
Si Si7 0.953722 0.544801 0.878011
O O1 0.750000 0.507495 0.500000
O O2 0.862334 0.419251 0.575358
O O3 0.756482 0.350955 0.651055
O O4 0.798822 0.513037 0.763653
O O5 0.597048 0.117585 0.214914
O O6 0.689912 0.235677 0.165757
O O7 0.600852 0.250000 0.000000
O O8 0.673005 0.080927 0.002971
O O9 0.557365 0.224423 0.663937
O O10 0.531232 0.393099 0.537752
O O11 0.481942 0.360005 0.795228
O O12 0.050569 0.539260 0.248965
O O13 0.615535 0.570518 0.063597
O O14 0.750000 0.569908 0.000000
O O15 0.000000 0.500000 0.000000
#
# Coordination Sequence:
#
# PCOD9397437 Si02
#       7
#     8   8   8   8   4   8   8
#     4  11  21  29  47  77 116 152 188 219 275 359
#     4  12  18  30  50  78 114 154 188 220 280 351
#     4  11  22  37  57  78 119 158 195 242 284 345
#     4  10  23  39  53  84 115 158 196 239 289 349
#     4  12  18  26  42  74 108 152 182 218 260 350
#     4  11  21  35  50  76 113 150 190 239 293 342
#     4  11  23  38  59  84 115 155 201 244 290 356
#
# _framework density 19.433765000000001
#
# number of rings (size 3 to 8) (size 9 to 14) (size 15 to 20)
#    0.000    0.923    6.154    2.769    2.154    0.000 
#    0.000    0.000    0.000    0.000    0.000    2.154 
#    0.000    2.462    0.000    0.000    0.000    0.000 
#
# Total GULP energy -289751.873506 kJ/mol
# GULP energy per Si atom -5572.151414 kJ/mol
# Density = 1.938953 g / cm^3
# Si number density = 19.433765 Si / 1000 Ang^3
#
#
#
# Elastic Constant Matrix: (Units=GPa)
#
#
# Indices 1 2 3 4 5 6 
#
# 1 124.9649 11.2844 51.2129 0.0000 0.0000 0.0000
# 2 11.2844 12.5687 7.0183 0.0000 0.0000 0.0000
# 3 51.2129 7.0183 104.0963 0.0000 0.0000 0.0000
# 4 0.0000 0.0000 0.0000 17.5678 0.0000 0.0000
# 5 0.0000 0.0000 0.0000 0.0000 44.7598 0.0000
# 6 0.0000 0.0000 0.0000 0.0000 0.0000 17.1853
#
#
#
# Elastic Compliance Matrix: (Units=1/GPa)
#
#
# Indices 1 2 3 4 5 6 
#
# 1 0.010560 -0.006837 -0.004734 0.000000 0.000000 0.000000
# 2 -0.006837 0.087102 -0.002509 0.000000 0.000000 0.000000
# 3 -0.004734 -0.002509 0.012105 0.000000 0.000000 0.000000
# 4 0.000000 0.000000 0.000000 0.056922 0.000000 0.000000
# 5 0.000000 0.000000 0.000000 0.000000 0.022341 0.000000
# 6 0.000000 0.000000 0.000000 0.000000 0.000000 0.058189
#
#
# Mechanical properties :
#
#
# Convention : Reuss Voigt Hill
#
# Bulk Modulus (GPa) = 12.25397 42.29568 27.27483
# Shear Modulus (GPa) = 16.52443 27.37686 21.95065
#
# Velocity S-wave (km/s) = 2.91915 3.75737 3.36447
# Velocity P-wave (km/s) = 4.20489 6.37456 5.39982
#
# Compressibility (1/GPa) = 0.08160620
#
# Stress axis : x y z
#
# Youngs Moduli (GPa) = 94.69861 11.48079 82.61227
#
# Poissons Ratio (x) = 0.07850 0.39110
# Poissons Ratio (y) = 0.64748 0.20725
# Poissons Ratio (z) = 0.44832 0.02880
#
# Static dielectric constant tensor:
#      x y z
#    x 1.747280 0.000000 0.000000 
#    y 0.000000 1.652170 0.000000 
#    z 0.000000 0.000000 1.817110 
# 
# From -- ./inp_files/14452.got.cif
#   From: 2010.05.17/outbox.cif.g08.bks.cpg/sg50_8_cif.got.tgz:14452.got - 2010.06.03 11:33:33.
