data_PCOD9397631
_publ_section_title
;
Structure prediction by ZEFSAII (Michael W. Deem and Ramdas Pophale) SiO2 
 PCOD9397631
Probable space group: P B A N
;
_chemical_formula_sum "Si O2"
_cell_formula_units_Z 36
_cell_length_a 9.142750
_cell_length_b 21.267035
_cell_length_c 8.902439
_cell_angle_alpha 90.000000
_cell_angle_beta 90.000000
_cell_angle_gamma 90.000000
_cell_volume 1730.982977
_symmetry_space_group_name_H-M "P B A N"
_symmetry_group_IT_number 50
_space_group.IT_coordinate_system_code '2'
_symmetry_cell_setting 'orthorhombic'
loop_
_space_group_symop_operation_xyz
x,y,z
1/2-x,1/2-y,z
x,1/2-y,-z
1/2-x,y,-z
-x,-y,-z
1/2+x,1/2+y,-z
-x,1/2+y,z
1/2+x,-y,z
loop_
_atom_site_type_symbol
_atom_site_label
_atom_site_fract_x
_atom_site_fract_y
_atom_site_fract_z
Si Si1 0.424726 0.175625 0.971761
Si Si2 0.750000 0.750000 0.500000
Si Si3 0.498018 0.169072 0.632898
Si Si4 0.411402 0.557060 0.432808
Si Si5 0.590859 0.442836 0.921614
Si Si6 0.750000 0.250000 0.500000
O O1 0.477729 0.152411 0.806469
O O2 0.461044 0.250000 0.000000
O O3 0.250000 0.169809 0.000000
O O4 0.508254 0.124490 0.071805
O O5 0.644445 0.790074 0.397462
O O6 0.506162 0.117515 0.501450
O O7 0.644550 0.209065 0.605219
O O8 0.250000 0.560485 0.500000
O O9 0.500000 0.500000 0.500000
O O10 0.396387 0.546708 0.256063
O O11 0.750000 0.439441 0.000000
O O12 0.500000 0.500000 0.000000
#
# Coordination Sequence:
#
# PCOD9397631 Si02
#       6
#     8   2   8   8   8   2
#     4  11  26  44  70 105 148 186 237 289 357 417
#     4  10  24  38  72  98 140 190 230 280 352 406
#     4  11  24  44  70 102 144 185 239 290 353 425
#     4  12  27  46  72 101 136 182 239 292 353 422
#     4  12  27  48  73 101 141 186 236 294 361 427
#     4  10  24  42  72  98 144 178 242 284 356 418
#
# _framework density 20.797431
#
# number of rings (size 3 to 8) (size 9 to 14) (size 15 to 20)
#    0.000    0.667    1.111    6.000   10.889    0.444 
#    0.000    0.000    0.000    0.000    0.000    0.000 
#    0.000    0.000    0.000    0.000    0.000    0.000 
#
# Total GULP energy -201087.970877 kJ/mol
# GULP energy per Si atom -5585.776969 kJ/mol
# Density = 2.075010 g / cm^3
# Si number density = 20.797431 Si / 1000 Ang^3
#
#
#
# Elastic Constant Matrix: (Units=GPa)
#
#
# Indices 1 2 3 4 5 6 
#
# 1 134.6035 62.1854 38.4166 0.0000 0.0000 0.0000
# 2 62.1854 116.6151 23.2628 0.0000 0.0000 0.0000
# 3 38.4166 23.2628 171.0454 0.0000 0.0000 0.0000
# 4 0.0000 0.0000 0.0000 39.7655 0.0000 0.0000
# 5 0.0000 0.0000 0.0000 0.0000 -293.8347 0.0000
# 6 0.0000 0.0000 0.0000 0.0000 0.0000 16.9442
#
#
#
# Elastic Compliance Matrix: (Units=1/GPa)
#
#
# Indices 1 2 3 4 5 6 
#
# 1 0.010269 -0.005156 -0.001605 0.000000 0.000000 0.000000
# 2 -0.005156 0.011403 -0.000393 0.000000 0.000000 0.000000
# 3 -0.001605 -0.000393 0.006260 0.000000 0.000000 0.000000
# 4 0.000000 0.000000 0.000000 0.025147 0.000000 0.000000
# 5 0.000000 0.000000 0.000000 0.000000 -0.003403 0.000000
# 6 0.000000 0.000000 0.000000 0.000000 0.000000 0.059017
#
#
# Mechanical properties :
#
#
# Convention : Reuss Voigt Hill
#
# Bulk Modulus (GPa) = 73.39630 74.44372 73.92001
# Shear Modulus (GPa) = 39.20225 -27.53171 5.83527
#
# Velocity S-wave (km/s) = 4.34632 -3.64236 1.67686
# Velocity P-wave (km/s) = 7.78171 4.26419 6.27448
#
# Compressibility (1/GPa) = 0.01362466
#
# Stress axis : x y z
#
# Youngs Moduli (GPa) = 97.37695 87.69611 159.73509
#
# Poissons Ratio (x) = 0.45216 0.25642
# Poissons Ratio (y) = 0.50207 0.06275
# Poissons Ratio (z) = 0.15632 0.03445
#
# Static dielectric constant tensor:
#      x y z
#    x 1.703540 0.000000 0.000000 
#    y 0.000000 1.703920 0.000000 
#    z 0.000000 0.000000 0.820620 
# 
# From -- ./inp_files/9311.got.cif
#   From: 2010.05.17/outbox.cif.g08.bks.cpg/sg50_5_cif.got.tgz:9311.got - 2010.06.03 11:33:33.
