data_PCOD9397785
_publ_section_title
;
Structure prediction by ZEFSAII (Michael W. Deem and Ramdas Pophale) SiO2 
 PCOD9397785
Probable space group: P B A N
;
_chemical_formula_sum "Si O2"
_cell_formula_units_Z 40
_cell_length_a 22.674038
_cell_length_b 9.993364
_cell_length_c 7.703900
_cell_angle_alpha 90.000000
_cell_angle_beta 90.000000
_cell_angle_gamma 90.000000
_cell_volume 1745.626047
_symmetry_space_group_name_H-M "P B A N"
_symmetry_group_IT_number 50
_space_group.IT_coordinate_system_code '2'
_symmetry_cell_setting 'orthorhombic'
loop_
_space_group_symop_operation_xyz
x,y,z
1/2-x,1/2-y,z
x,1/2-y,-z
1/2-x,y,-z
-x,-y,-z
1/2+x,1/2+y,-z
-x,1/2+y,z
1/2+x,-y,z
loop_
_atom_site_type_symbol
_atom_site_label
_atom_site_fract_x
_atom_site_fract_y
_atom_site_fract_z
Si Si1 0.105369 0.938770 0.162788
Si Si2 0.311552 0.789511 0.301068
Si Si3 0.608686 0.762806 0.200189
Si Si4 0.000188 0.130383 0.620350
Si Si5 0.308109 0.047031 0.122474
O O1 0.139444 0.804954 0.217910
O O2 0.038155 0.901644 0.207447
O O3 0.113365 0.083065 0.258627
O O4 0.136336 0.981915 0.983511
O O5 0.250000 0.750000 0.212887
O O6 0.311887 0.750000 0.500000
O O7 0.308331 0.948321 0.284639
O O8 0.564015 0.680617 0.318825
O O9 0.672202 0.692835 0.184541
O O10 0.585309 0.750000 0.000000
O O11 0.974170 0.250000 0.500000
O O12 0.000000 0.000000 0.500000
O O13 0.250000 0.045016 0.000000
#
# Coordination Sequence:
#
# PCOD9397785 Si02
#       5
#     8   8   8   8   8
#     4  11  24  43  71 103 140 189 233 297 361 426
#     4  11  24  42  67 104 141 183 239 290 351 423
#     4  10  26  45  69 103 141 188 244 290 365 438
#     4  12  26  48  73 104 146 189 241 306 369 432
#     4  11  24  46  71 102 145 190 238 298 359 434
#
# _framework density 22.914415999999999
#
# number of rings (size 3 to 8) (size 9 to 14) (size 15 to 20)
#    0.000    1.000    4.000    1.200    5.600    8.400 
#    0.000    0.000    0.000    2.400    0.000    0.000 
#    0.000    0.000    0.000    0.000    0.000    0.000 
#
# Total GULP energy -222901.051435 kJ/mol
# GULP energy per Si atom -5572.526286 kJ/mol
# Density = 2.286226 g / cm^3
# Si number density = 22.914416 Si / 1000 Ang^3
#
#
#
# Elastic Constant Matrix: (Units=GPa)
#
#
# Indices 1 2 3 4 5 6 
#
# 1 77.7185 34.4486 15.1085 0.0000 0.0000 0.0000
# 2 34.4486 144.6027 2.8989 0.0000 0.0000 0.0000
# 3 15.1085 2.8989 49.1272 0.0000 0.0000 0.0000
# 4 0.0000 0.0000 0.0000 35.7037 0.0000 0.0000
# 5 0.0000 0.0000 0.0000 0.0000 16.3862 0.0000
# 6 0.0000 0.0000 0.0000 0.0000 0.0000 121.2014
#
#
#
# Elastic Compliance Matrix: (Units=1/GPa)
#
#
# Indices 1 2 3 4 5 6 
#
# 1 0.015320 -0.003559 -0.004501 0.000000 0.000000 0.000000
# 2 -0.003559 0.007751 0.000637 0.000000 0.000000 0.000000
# 3 -0.004501 0.000637 0.021702 0.000000 0.000000 0.000000
# 4 0.000000 0.000000 0.000000 0.028008 0.000000 0.000000
# 5 0.000000 0.000000 0.000000 0.000000 0.061027 0.000000
# 6 0.000000 0.000000 0.000000 0.000000 0.000000 0.008251
#
#
# Mechanical properties :
#
#
# Convention : Reuss Voigt Hill
#
# Bulk Modulus (GPa) = 33.41624 41.81781 37.61703
# Shear Modulus (GPa) = 29.96156 49.25775 39.60966
#
# Velocity S-wave (km/s) = 3.61992 4.64145 4.16214
# Velocity P-wave (km/s) = 5.66449 6.85662 6.28887
#
# Compressibility (1/GPa) = 0.02992557
#
# Stress axis : x y z
#
# Youngs Moduli (GPa) = 65.27543 129.02111 46.07856
#
# Poissons Ratio (x) = 0.45923 0.20742
# Poissons Ratio (y) = 0.23234 -0.02937
# Poissons Ratio (z) = 0.29383 -0.08222
#
# Static dielectric constant tensor:
#      x y z
#    x 1.912300 0.000000 0.000000 
#    y 0.000000 1.784590 0.000000 
#    z 0.000000 0.000000 1.813850 
# 
# From -- ./inp_files/9486.got.cif
#   From: 2010.05.17/outbox.cif.g08.bks.cpg/sg50_5_cif.got.tgz:9486.got - 2010.06.03 11:33:33.
