data_PCOD9397570
_publ_section_title
;
Structure prediction by ZEFSAII (Michael W. Deem and Ramdas Pophale) SiO2 
 PCOD9397570
Probable space group: P B A N
;
_chemical_formula_sum "Si O2"
_cell_formula_units_Z 48
_cell_length_a 9.792297
_cell_length_b 26.378775
_cell_length_c 9.149050
_cell_angle_alpha 90.000000
_cell_angle_beta 90.000000
_cell_angle_gamma 90.000000
_cell_volume 2363.280120
_symmetry_space_group_name_H-M "P B A N"
_symmetry_group_IT_number 50
_space_group.IT_coordinate_system_code '2'
_symmetry_cell_setting 'orthorhombic'
loop_
_space_group_symop_operation_xyz
x,y,z
1/2-x,1/2-y,z
x,1/2-y,-z
1/2-x,y,-z
-x,-y,-z
1/2+x,1/2+y,-z
-x,1/2+y,z
1/2+x,-y,z
loop_
_atom_site_type_symbol
_atom_site_label
_atom_site_fract_x
_atom_site_fract_y
_atom_site_fract_z
Si Si1 0.238263 0.396613 0.663921
Si Si2 0.213765 0.606747 0.329845
Si Si3 0.992269 0.079246 0.831444
Si Si4 0.103506 0.154600 0.071730
Si Si5 0.833243 0.198264 0.136128
Si Si6 0.516986 0.521899 0.666059
O O1 0.250000 0.378332 0.500000
O O2 0.389291 0.399362 0.726924
O O3 0.145463 0.362632 0.767079
O O4 0.165439 0.451630 0.667688
O O5 0.250000 0.607270 0.500000
O O6 0.345357 0.594151 0.231201
O O7 0.168255 0.661579 0.273915
O O8 0.097428 0.564605 0.311540
O O9 0.997191 0.019145 0.796046
O O10 0.034244 0.106403 0.984375
O O11 0.989762 0.198135 0.081749
O O12 0.250000 0.167401 0.000000
O O13 0.750000 0.250000 0.164443
O O14 0.750000 0.174628 0.000000
O O15 0.500000 0.500000 0.500000
#
# Coordination Sequence:
#
# PCOD9397570 Si02
#       6
#     8   8   8   8   8   8
#     4  11  21  38  60  89 132 181 227 272 335 406
#     4  12  23  40  67  99 140 181 233 284 341 415
#     4  11  23  36  59  94 138 178 228 277 331 413
#     4  10  23  44  66  97 135 175 222 286 355 411
#     4  11  24  47  73  98 128 174 234 298 356 411
#     4  12  22  36  61  95 135 189 235 268 340 418
#
# _framework density 20.310753999999999
#
# number of rings (size 3 to 8) (size 9 to 14) (size 15 to 20)
#    0.000    0.833    6.667    1.000    0.000    1.000 
#    0.000    4.167    0.000    0.000    0.000    1.167 
#    0.000    0.000    0.000    0.000    0.000    0.000 
#
# Total GULP energy -267797.844106 kJ/mol
# GULP energy per Si atom -5579.121752 kJ/mol
# Density = 2.026453 g / cm^3
# Si number density = 20.310754 Si / 1000 Ang^3
#
#
#
# Elastic Constant Matrix: (Units=GPa)
#
#
# Indices 1 2 3 4 5 6 
#
# 1 140.8771 55.0089 37.6631 0.0000 0.0000 0.0000
# 2 55.0089 110.5012 48.4140 0.0000 0.0000 0.0000
# 3 37.6631 48.4140 106.9647 0.0000 0.0000 0.0000
# 4 0.0000 0.0000 0.0000 20.9793 0.0000 0.0000
# 5 0.0000 0.0000 0.0000 0.0000 26.0194 0.0000
# 6 0.0000 0.0000 0.0000 0.0000 0.0000 37.5208
#
#
#
# Elastic Compliance Matrix: (Units=1/GPa)
#
#
# Indices 1 2 3 4 5 6 
#
# 1 0.008981 -0.003848 -0.001420 0.000000 0.000000 0.000000
# 2 -0.003848 0.012937 -0.004501 0.000000 0.000000 0.000000
# 3 -0.001420 -0.004501 0.011886 0.000000 0.000000 0.000000
# 4 0.000000 0.000000 0.000000 0.047666 0.000000 0.000000
# 5 0.000000 0.000000 0.000000 0.000000 0.038433 0.000000
# 6 0.000000 0.000000 0.000000 0.000000 0.000000 0.026652
#
#
# Mechanical properties :
#
#
# Convention : Reuss Voigt Hill
#
# Bulk Modulus (GPa) = 70.09959 71.16833 70.63396
# Shear Modulus (GPa) = 29.26564 31.38771 30.32668
#
# Velocity S-wave (km/s) = 3.80003 3.93539 3.86830
# Velocity P-wave (km/s) = 7.33772 7.46763 7.40296
#
# Compressibility (1/GPa) = 0.01426542
#
# Stress axis : x y z
#
# Youngs Moduli (GPa) = 111.34810 77.29564 84.13241
#
# Poissons Ratio (x) = 0.29747 0.11950
# Poissons Ratio (y) = 0.42852 0.37864
# Poissons Ratio (z) = 0.15815 0.34787
#
# Static dielectric constant tensor:
#      x y z
#    x 1.746230 0.000000 0.000000 
#    y 0.000000 1.750760 0.000000 
#    z 0.000000 0.000000 1.736290 
# 
# From -- ./inp_files/10089.got.cif
#   From: 2010.05.17/outbox.cif.g08.bks.cpg/sg50_6_cif.got.tgz:10089.got - 2010.06.03 11:33:33.
