data_PCOD9397214
_publ_section_title
;
Structure prediction by ZEFSAII (Michael W. Deem and Ramdas Pophale) SiO2 
 PCOD9397214
Probable space group: P B A N
;
_chemical_formula_sum "Si O2"
_cell_formula_units_Z 64
_cell_length_a 13.925403
_cell_length_b 18.391801
_cell_length_c 11.242012
_cell_angle_alpha 90.000000
_cell_angle_beta 90.000000
_cell_angle_gamma 90.000000
_cell_volume 2879.228127
_symmetry_space_group_name_H-M "P B A N"
_symmetry_group_IT_number 50
_space_group.IT_coordinate_system_code '2'
_symmetry_cell_setting 'orthorhombic'
loop_
_space_group_symop_operation_xyz
x,y,z
1/2-x,1/2-y,z
x,1/2-y,-z
1/2-x,y,-z
-x,-y,-z
1/2+x,1/2+y,-z
-x,1/2+y,z
1/2+x,-y,z
loop_
_atom_site_type_symbol
_atom_site_label
_atom_site_fract_x
_atom_site_fract_y
_atom_site_fract_z
Si Si1 0.619736 0.934571 0.370735
Si Si2 0.264713 0.929276 0.370605
Si Si3 0.119645 0.853479 0.229745
Si Si4 0.851098 0.723640 0.287247
Si Si5 0.936910 0.003870 0.235513
Si Si6 0.634252 0.423608 0.012756
Si Si7 0.464203 0.784233 0.121390
Si Si8 0.940200 0.632111 0.618471
O O1 0.665888 0.856662 0.339380
O O2 0.541003 0.965789 0.277429
O O3 0.572712 0.914124 0.498435
O O4 0.699433 0.997428 0.376368
O O5 0.250000 0.896059 0.500000
O O6 0.222815 0.875412 0.273342
O O7 0.368192 0.950079 0.323867
O O8 0.107745 0.774372 0.176514
O O9 0.051098 0.856549 0.345148
O O10 0.095412 0.909326 0.121159
O O11 0.750000 0.750000 0.233022
O O12 0.943898 0.709756 0.205300
O O13 0.885370 0.790708 0.373073
O O14 0.907244 0.013640 0.097782
O O15 0.912437 0.921529 0.273828
O O16 0.594784 0.354804 0.086617
O O17 0.750000 0.427757 0.000000
O O18 0.502772 0.750000 0.000000
#
# Coordination Sequence:
#
# PCOD9397214 Si02
#       8
#     8   8   8   8   8   8   8   8
#     4  12  24  43  66  96 139 182 226 286 345 412
#     4  12  23  40  66  97 133 178 232 277 344 419
#     4  10  22  40  64  96 129 172 227 279 341 412
#     4  11  24  41  67 101 135 178 236 282 339 418
#     4  12  23  40  67  98 132 176 224 282 349 404
#     4  11  22  42  68  99 131 176 228 283 341 419
#     4   9  21  42  67  93 134 181 222 277 345 405
#     4  11  23  43  64  95 135 180 224 284 349 405
#
# _framework density 22.228179000000001
#
# number of rings (size 3 to 8) (size 9 to 14) (size 15 to 20)
#    0.000    1.000    5.000    2.250    0.000    3.500 
#    0.000    0.000    0.000    0.750    0.000    0.000 
#    0.000    0.000    0.000    0.000    0.000    0.000 
#
# Total GULP energy -357119.104771 kJ/mol
# GULP energy per Si atom -5579.986012 kJ/mol
# Density = 2.217759 g / cm^3
# Si number density = 22.228179 Si / 1000 Ang^3
#
#
#
# Elastic Constant Matrix: (Units=GPa)
#
#
# Indices 1 2 3 4 5 6 
#
# 1 85.7539 22.1108 20.0215 0.0000 0.0000 0.0000
# 2 22.1108 71.9843 23.0129 0.0000 0.0000 0.0000
# 3 20.0215 23.0129 80.4775 0.0000 0.0000 0.0000
# 4 0.0000 0.0000 0.0000 30.9571 0.0000 0.0000
# 5 0.0000 0.0000 0.0000 0.0000 26.4559 0.0000
# 6 0.0000 0.0000 0.0000 0.0000 0.0000 23.4155
#
#
#
# Elastic Compliance Matrix: (Units=1/GPa)
#
#
# Indices 1 2 3 4 5 6 
#
# 1 0.013043 -0.003268 -0.002311 0.000000 0.000000 0.000000
# 2 -0.003268 0.016108 -0.003793 0.000000 0.000000 0.000000
# 3 -0.002311 -0.003793 0.014085 0.000000 0.000000 0.000000
# 4 0.000000 0.000000 0.000000 0.032303 0.000000 0.000000
# 5 0.000000 0.000000 0.000000 0.000000 0.037799 0.000000
# 6 0.000000 0.000000 0.000000 0.000000 0.000000 0.042707
#
#
# Mechanical properties :
#
#
# Convention : Reuss Voigt Hill
#
# Bulk Modulus (GPa) = 40.82655 40.94512 40.88583
# Shear Modulus (GPa) = 27.32943 27.70374 27.51659
#
# Velocity S-wave (km/s) = 3.51022 3.53418 3.52222
# Velocity P-wave (km/s) = 5.90218 5.92573 5.91397
#
# Compressibility (1/GPa) = 0.02449387
#
# Stress axis : x y z
#
# Youngs Moduli (GPa) = 76.66775 62.07969 70.99568
#
# Poissons Ratio (x) = 0.20286 0.16404
# Poissons Ratio (y) = 0.25053 0.26931
# Poissons Ratio (z) = 0.17714 0.23549
#
# Static dielectric constant tensor:
#      x y z
#    x 1.831620 0.000000 0.000000 
#    y 0.000000 1.842670 0.000000 
#    z 0.000000 0.000000 1.842030 
# 
# From -- ./inp_files/21346.got.cif
#   From: 2010.05.17/outbox.cif.g08.bks.cpg/sg50_11_cif.got.tgz:21346.got - 2010.06.03 11:33:33.
