data_PCOD9397760
_publ_section_title
;
Structure prediction by ZEFSAII (Michael W. Deem and Ramdas Pophale) SiO2 
 PCOD9397760
Probable space group: P B A N
;
_chemical_formula_sum "Si O2"
_cell_formula_units_Z 40
_cell_length_a 8.887839
_cell_length_b 10.331465
_cell_length_c 17.690156
_cell_angle_alpha 90.000000
_cell_angle_beta 90.000000
_cell_angle_gamma 90.000000
_cell_volume 1624.387917
_symmetry_space_group_name_H-M "P B A N"
_symmetry_group_IT_number 50
_space_group.IT_coordinate_system_code '2'
_symmetry_cell_setting 'orthorhombic'
loop_
_space_group_symop_operation_xyz
x,y,z
1/2-x,1/2-y,z
x,1/2-y,-z
1/2-x,y,-z
-x,-y,-z
1/2+x,1/2+y,-z
-x,1/2+y,z
1/2+x,-y,z
loop_
_atom_site_type_symbol
_atom_site_label
_atom_site_fract_x
_atom_site_fract_y
_atom_site_fract_z
Si Si1 0.538802 0.340461 0.430543
Si Si2 0.047849 0.637140 0.690210
Si Si3 0.262127 0.439064 0.607960
Si Si4 0.936456 0.338165 0.922884
Si Si5 0.396913 0.587486 0.137648
O O1 0.583017 0.250000 0.500000
O O2 0.577062 0.279193 0.346876
O O3 0.358581 0.345289 0.429124
O O4 0.621288 0.476706 0.440497
O O5 0.870446 0.614887 0.674280
O O6 0.145963 0.544667 0.638488
O O7 0.098472 0.585104 0.772208
O O8 0.770547 0.384734 0.895477
O O9 0.992067 0.220740 0.871052
O O10 0.037586 0.465472 0.909179
O O11 0.930906 0.250000 0.000000
#
# Coordination Sequence:
#
# PCOD9397760 Si02
#       5
#     8   8   8   8   8
#     4  11  26  46  70 103 147 199 254 322 386 454
#     4  11  24  42  71 104 145 191 248 310 378 454
#     4  10  25  44  69 100 145 182 258 305 382 454
#     4  11  26  49  76 112 158 196 255 314 387 468
#     4  11  25  45  77 113 154 203 252 317 385 465
#
# _framework density 24.624658
#
# number of rings (size 3 to 8) (size 9 to 14) (size 15 to 20)
#    0.000    1.200    0.000    4.200   11.200    8.800 
#    3.600    5.000    0.000    0.000    0.000    0.000 
#    0.000    0.000    0.000    0.000    0.000    0.000 
#
# Total GULP energy -222859.345156 kJ/mol
# GULP energy per Si atom -5571.483629 kJ/mol
# Density = 2.456861 g / cm^3
# Si number density = 24.624658 Si / 1000 Ang^3
#
#
#
# Elastic Constant Matrix: (Units=GPa)
#
#
# Indices 1 2 3 4 5 6 
#
# 1 124.2657 38.2552 52.5013 0.0000 0.0000 0.0000
# 2 38.2552 117.5688 36.4221 0.0000 0.0000 0.0000
# 3 52.5013 36.4221 131.1671 0.0000 0.0000 0.0000
# 4 0.0000 0.0000 0.0000 29.5083 0.0000 0.0000
# 5 0.0000 0.0000 0.0000 0.0000 -10.5646 0.0000
# 6 0.0000 0.0000 0.0000 0.0000 0.0000 55.6484
#
#
#
# Elastic Compliance Matrix: (Units=1/GPa)
#
#
# Indices 1 2 3 4 5 6 
#
# 1 0.010200 -0.002248 -0.003459 0.000000 0.000000 0.000000
# 2 -0.002248 0.009801 -0.001822 0.000000 0.000000 0.000000
# 3 -0.003459 -0.001822 0.009514 0.000000 0.000000 0.000000
# 4 0.000000 0.000000 0.000000 0.033889 0.000000 0.000000
# 5 0.000000 0.000000 0.000000 0.000000 -0.094656 0.000000
# 6 0.000000 0.000000 0.000000 0.000000 0.000000 0.017970
#
#
# Mechanical properties :
#
#
# Convention : Reuss Voigt Hill
#
# Bulk Modulus (GPa) = 69.15916 69.70654 69.43285
# Shear Modulus (GPa) = 758.06352 31.30662 394.68507
#
# Velocity S-wave (km/s) = 17.56461 3.56947 12.67393
# Velocity P-wave (km/s) = 20.96427 6.73478 15.57013
#
# Compressibility (1/GPa) = 0.01445940
#
# Stress axis : x y z
#
# Youngs Moduli (GPa) = 98.03442 102.02586 105.10596
#
# Poissons Ratio (x) = 0.22931 0.36354
# Poissons Ratio (y) = 0.22034 0.19150
# Poissons Ratio (z) = 0.33908 0.18589
#
# Static dielectric constant tensor:
#      x y z
#    x 2.012520 0.000000 0.000000 
#    y 0.000000 2.119530 0.000000 
#    z 0.000000 0.000000 2.205000 
# 
# From -- ./inp_files/28484.got.cif
#   From: 2010.05.17/outbox.cif.g08.bks.cpg/sg50_15_cif.got.tgz:28484.got - 2010.06.03 11:33:33.
