data_PCOD9397993
_publ_section_title
;
Structure prediction by ZEFSAII (Michael W. Deem and Ramdas Pophale) SiO2 
 PCOD9397993
Probable space group: P B A N
;
_chemical_formula_sum "Si O2"
_cell_formula_units_Z 48
_cell_length_a 10.235049
_cell_length_b 16.520770
_cell_length_c 13.074378
_cell_angle_alpha 90.000000
_cell_angle_beta 90.000000
_cell_angle_gamma 90.000000
_cell_volume 2210.758218
_symmetry_space_group_name_H-M "P B A N"
_symmetry_group_IT_number 50
_space_group.IT_coordinate_system_code '2'
_symmetry_cell_setting 'orthorhombic'
loop_
_space_group_symop_operation_xyz
x,y,z
1/2-x,1/2-y,z
x,1/2-y,-z
1/2-x,y,-z
-x,-y,-z
1/2+x,1/2+y,-z
-x,1/2+y,z
1/2+x,-y,z
loop_
_atom_site_type_symbol
_atom_site_label
_atom_site_fract_x
_atom_site_fract_y
_atom_site_fract_z
Si Si1 0.235437 0.383666 0.112891
Si Si2 0.145619 0.197057 0.603488
Si Si3 0.268745 0.463869 0.321115
Si Si4 0.041415 0.557043 0.403232
Si Si5 0.400099 0.767665 0.329331
Si Si6 0.525043 0.743299 0.885293
O O1 0.232629 0.445946 0.205007
O O2 0.362714 0.325623 0.119101
O O3 0.108197 0.326553 0.125180
O O4 0.250000 0.420523 0.000000
O O5 0.250000 0.250000 0.669489
O O6 0.135818 0.250000 0.500000
O O7 0.213259 0.110636 0.609662
O O8 0.999150 0.194834 0.643028
O O9 0.186803 0.536624 0.366729
O O10 0.423686 0.467147 0.328112
O O11 0.046883 0.654932 0.394408
O O12 0.000000 0.500000 0.500000
O O13 0.250000 0.750000 0.351350
O O14 0.427475 0.776189 0.207688
O O15 0.467382 0.750000 0.000000
#
# Coordination Sequence:
#
# PCOD9397993 Si02
#       6
#     8   8   8   8   8   8
#     4   9  17  35  70 102 124 167 229 287 341 419
#     4  11  22  41  71  93 117 173 235 287 336 412
#     4  12  24  44  68  92 138 178 232 282 350 416
#     4  12  28  46  65  95 138 190 233 285 351 422
#     4  12  25  43  68 103 141 174 231 294 353 404
#     4   9  17  35  67 104 132 164 219 286 351 413
#
# _framework density 21.712007
#
# number of rings (size 3 to 8) (size 9 to 14) (size 15 to 20)
#    0.000    1.167    5.000    2.500    4.667    0.667 
#    3.000    0.833    3.667    0.000    0.000    0.000 
#    0.000    0.000    0.000    0.000    0.000    0.000 
#
# Total GULP energy -267464.898067 kJ/mol
# GULP energy per Si atom -5572.185376 kJ/mol
# Density = 2.166259 g / cm^3
# Si number density = 21.712007 Si / 1000 Ang^3
#
#
#
# Elastic Constant Matrix: (Units=GPa)
#
#
# Indices 1 2 3 4 5 6 
#
# 1 106.0650 -7.8809 0.7368 0.0000 0.0000 0.0000
# 2 -7.8809 35.6330 11.6323 0.0000 0.0000 0.0000
# 3 0.7368 11.6323 134.1841 0.0000 0.0000 0.0000
# 4 0.0000 0.0000 0.0000 18.5711 0.0000 0.0000
# 5 0.0000 0.0000 0.0000 0.0000 23.3790 0.0000
# 6 0.0000 0.0000 0.0000 0.0000 0.0000 27.2417
#
#
#
# Elastic Compliance Matrix: (Units=1/GPa)
#
#
# Indices 1 2 3 4 5 6 
#
# 1 0.009593 0.002201 -0.000243 0.000000 0.000000 0.000000
# 2 0.002201 0.029386 -0.002560 0.000000 0.000000 0.000000
# 3 -0.000243 -0.002560 0.007676 0.000000 0.000000 0.000000
# 4 0.000000 0.000000 0.000000 0.053847 0.000000 0.000000
# 5 0.000000 0.000000 0.000000 0.000000 0.042773 0.000000
# 6 0.000000 0.000000 0.000000 0.000000 0.000000 0.036708
#
#
# Mechanical properties :
#
#
# Convention : Reuss Voigt Hill
#
# Bulk Modulus (GPa) = 22.00135 31.65094 26.82614
# Shear Modulus (GPa) = 25.46623 31.93130 28.69877
#
# Velocity S-wave (km/s) = 3.42849 3.83910 3.63959
# Velocity P-wave (km/s) = 5.08213 5.85328 5.48128
#
# Compressibility (1/GPa) = 0.04545176
#
# Stress axis : x y z
#
# Youngs Moduli (GPa) = 104.23803 34.02950 130.28183
#
# Poissons Ratio (x) = -0.07491 0.03172
# Poissons Ratio (y) = -0.22945 0.33346
# Poissons Ratio (z) = 0.02538 0.08710
#
# Static dielectric constant tensor:
#      x y z
#    x 1.820350 0.000000 0.000000 
#    y 0.000000 1.856470 0.000000 
#    z 0.000000 0.000000 1.894710 
# 
# From -- ./inp_files/25024.got.cif
#   From: 2010.05.17/outbox.cif.g08.bks.cpg/sg50_13_cif.got.tgz:25024.got - 2010.06.03 11:33:33.
