data_PCOD9397433
_publ_section_title
;
Structure prediction by ZEFSAII (Michael W. Deem and Ramdas Pophale) SiO2 
 PCOD9397433
Probable space group: P B A N
;
_chemical_formula_sum "Si O2"
_cell_formula_units_Z 58
_cell_length_a 28.633183
_cell_length_b 19.020306
_cell_length_c 5.269950
_cell_angle_alpha 90.000000
_cell_angle_beta 90.000000
_cell_angle_gamma 90.000000
_cell_volume 2870.077495
_symmetry_space_group_name_H-M "P B A N"
_symmetry_group_IT_number 50
_space_group.IT_coordinate_system_code '2'
_symmetry_cell_setting 'orthorhombic'
loop_
_space_group_symop_operation_xyz
x,y,z
1/2-x,1/2-y,z
x,1/2-y,-z
1/2-x,y,-z
-x,-y,-z
1/2+x,1/2+y,-z
-x,1/2+y,z
1/2+x,-y,z
loop_
_atom_site_type_symbol
_atom_site_label
_atom_site_fract_x
_atom_site_fract_y
_atom_site_fract_z
Si Si1 0.946041 0.579994 0.597298
Si Si2 0.031429 0.566214 0.194641
Si Si3 0.409059 0.639338 0.461792
Si Si4 0.638839 0.504848 0.588570
Si Si5 0.997631 0.318098 0.174381
Si Si6 0.824591 0.183179 0.835731
Si Si7 0.694522 0.032863 0.932938
Si Si8 0.750000 0.250000 0.500000
O O1 0.948865 0.512440 0.792004
O O2 0.895384 0.568953 0.474383
O O3 0.989501 0.569351 0.401012
O O4 0.954900 0.660166 0.684947
O O5 0.073776 0.619899 0.260102
O O6 0.010726 0.605895 0.957192
O O7 0.398351 0.559604 0.363210
O O8 0.451365 0.683701 0.344723
O O9 0.361643 0.674907 0.389023
O O10 0.667827 0.510595 0.846732
O O11 0.673265 0.486057 0.347570
O O12 0.000874 0.250000 0.000000
O O13 0.818851 0.114006 0.005166
O O14 0.777538 0.199851 0.689140
O O15 0.838213 0.250000 0.000000
O O16 0.750000 0.025577 0.000000
#
# Coordination Sequence:
#
# PCOD9397433 Si02
#       8
#     8   8   8   8   8   8   8   2
#     4   9  20  36  57  84 111 158 200 243 293 366
#     4   9  19  36  56  78 114 153 199 250 292 353
#     4   9  22  35  53  78 108 152 206 252 297 353
#     4  10  23  38  62  86 110 157 199 242 306 359
#     4  11  22  35  56  86 120 159 199 254 303 348
#     4  11  25  37  55  73 107 153 203 260 316 362
#     4  11  24  40  60  84 116 147 197 254 309 361
#     4  12  26  40  52  74 104 156 218 256 312 356
#
# _framework density 20.208511999999999
#
# number of rings (size 3 to 8) (size 9 to 14) (size 15 to 20)
#    0.000    1.931    0.000    3.103   17.379    3.310 
#    0.000    0.000    0.000    0.000    0.000    0.000 
#    0.000    0.552    0.828    0.000    0.000    0.000 
#
# Total GULP energy -323094.820921 kJ/mol
# GULP energy per Si atom -5570.600361 kJ/mol
# Density = 2.016252 g / cm^3
# Si number density = 20.208512 Si / 1000 Ang^3
#
#
#
# Elastic Constant Matrix: (Units=GPa)
#
#
# Indices 1 2 3 4 5 6 
#
# 1 99.6288 45.8393 20.9384 0.0000 0.0000 0.0000
# 2 45.8393 42.9491 26.9415 0.0000 0.0000 0.0000
# 3 20.9384 26.9415 59.5826 0.0000 0.0000 0.0000
# 4 0.0000 0.0000 0.0000 28.8694 0.0000 0.0000
# 5 0.0000 0.0000 0.0000 0.0000 27.8994 0.0000
# 6 0.0000 0.0000 0.0000 0.0000 0.0000 18.3971
#
#
#
# Elastic Compliance Matrix: (Units=1/GPa)
#
#
# Indices 1 2 3 4 5 6 
#
# 1 0.020295 -0.023992 0.003716 0.000000 0.000000 0.000000
# 2 -0.023992 0.060865 -0.019090 0.000000 0.000000 0.000000
# 3 0.003716 -0.019090 0.024109 0.000000 0.000000 0.000000
# 4 0.000000 0.000000 0.000000 0.034639 0.000000 0.000000
# 5 0.000000 0.000000 0.000000 0.000000 0.035843 0.000000
# 6 0.000000 0.000000 0.000000 0.000000 0.000000 0.054356
#
#
# Mechanical properties :
#
#
# Convention : Reuss Voigt Hill
#
# Bulk Modulus (GPa) = 37.68185 43.28877 40.48531
# Shear Modulus (GPa) = 15.73890 22.26259 19.00075
#
# Velocity S-wave (km/s) = 2.79377 3.32270 3.06965
# Velocity P-wave (km/s) = 5.39387 6.01565 5.71323
#
# Compressibility (1/GPa) = 0.02653797
#
# Stress axis : x y z
#
# Youngs Moduli (GPa) = 49.27343 16.42988 41.47766
#
# Poissons Ratio (x) = 0.39418 -0.15415
# Poissons Ratio (y) = 1.18216 0.79181
# Poissons Ratio (z) = -0.18312 0.31365
#
# Static dielectric constant tensor:
#      x y z
#    x 1.796990 0.000000 0.000000 
#    y 0.000000 1.748600 0.000000 
#    z 0.000000 0.000000 1.899320 
# 
# From -- ./inp_files/6766.got.cif
#   From: 2010.05.17/outbox.cif.g08.bks.cpg/sg50_4_cif.got.tgz:6766.got - 2010.06.03 11:33:33.
