data_PCOD9397333
_publ_section_title
;
Structure prediction by ZEFSAII (Michael W. Deem and Ramdas Pophale) SiO2 
 PCOD9397333
Probable space group: P B A N
;
_chemical_formula_sum "Si O2"
_cell_formula_units_Z 56
_cell_length_a 17.485076
_cell_length_b 15.508231
_cell_length_c 10.416048
_cell_angle_alpha 90.000000
_cell_angle_beta 90.000000
_cell_angle_gamma 90.000000
_cell_volume 2824.442633
_symmetry_space_group_name_H-M "P B A N"
_symmetry_group_IT_number 50
_space_group.IT_coordinate_system_code '2'
_symmetry_cell_setting 'orthorhombic'
loop_
_space_group_symop_operation_xyz
x,y,z
1/2-x,1/2-y,z
x,1/2-y,-z
1/2-x,y,-z
-x,-y,-z
1/2+x,1/2+y,-z
-x,1/2+y,z
1/2+x,-y,z
loop_
_atom_site_type_symbol
_atom_site_label
_atom_site_fract_x
_atom_site_fract_y
_atom_site_fract_z
Si Si1 0.396825 0.768530 0.148423
Si Si2 0.167095 0.203679 0.383674
Si Si3 0.162662 0.493311 0.515103
Si Si4 0.077017 0.205827 0.128832
Si Si5 0.839912 0.043419 0.230096
Si Si6 0.588481 0.983123 0.024004
Si Si7 0.839054 0.094677 0.757149
O O1 0.489256 0.764801 0.149512
O O2 0.376592 0.863782 0.197518
O O3 0.354509 0.696504 0.233943
O O4 0.373300 0.750000 0.000000
O O5 0.250000 0.250000 0.374238
O O6 0.124424 0.250000 0.500000
O O7 0.168257 0.103123 0.424922
O O8 0.125092 0.223758 0.253636
O O9 0.250000 0.523797 0.500000
O O10 0.133589 0.504425 0.368317
O O11 0.127525 0.553686 0.625775
O O12 0.088482 0.105368 0.100878
O O13 0.105957 0.250000 0.000000
O O14 0.748909 0.062785 0.231915
O O15 0.865161 0.983825 0.110047
O O16 0.620372 0.056272 0.117390
O O17 0.500000 0.000000 0.000000
#
# Coordination Sequence:
#
# PCOD9397333 Si02
#       7
#     8   8   8   8   8   8   8
#     4  11  22  44  65  98 138 173 219 281 345 395
#     4  11  23  44  68  91 131 178 219 278 336 400
#     4  10  22  43  63  98 132 168 217 274 339 394
#     4  11  25  43  64  96 135 175 223 277 343 400
#     4  11  24  40  72 100 127 178 229 273 338 409
#     4  12  22  42  65  96 138 172 215 285 334 393
#     4  11  23  42  69  94 135 177 224 279 330 408
#
# _framework density 19.826920999999999
#
# number of rings (size 3 to 8) (size 9 to 14) (size 15 to 20)
#    0.000    1.000    5.714    1.714    2.000    1.429 
#    5.143    3.571    0.000    0.000    0.000    0.000 
#    0.000    0.000    0.000    0.000    0.000    0.000 
#
# Total GULP energy -312345.654223 kJ/mol
# GULP energy per Si atom -5577.600968 kJ/mol
# Density = 1.978179 g / cm^3
# Si number density = 19.826921 Si / 1000 Ang^3
#
#
#
# Elastic Constant Matrix: (Units=GPa)
#
#
# Indices 1 2 3 4 5 6 
#
# 1 59.1513 15.4565 55.0350 0.0000 0.0000 0.0000
# 2 15.4565 47.3277 8.3318 0.0000 0.0000 0.0000
# 3 55.0350 8.3318 148.2474 0.0000 0.0000 0.0000
# 4 0.0000 0.0000 0.0000 38.0979 0.0000 0.0000
# 5 0.0000 0.0000 0.0000 0.0000 -9.9225 0.0000
# 6 0.0000 0.0000 0.0000 0.0000 0.0000 56.7941
#
#
#
# Elastic Compliance Matrix: (Units=1/GPa)
#
#
# Indices 1 2 3 4 5 6 
#
# 1 0.028202 -0.007441 -0.010051 0.000000 0.000000 0.000000
# 2 -0.007441 0.023304 0.001453 0.000000 0.000000 0.000000
# 3 -0.010051 0.001453 0.010395 0.000000 0.000000 0.000000
# 4 0.000000 0.000000 0.000000 0.026248 0.000000 0.000000
# 5 0.000000 0.000000 0.000000 0.000000 -0.100781 0.000000
# 6 0.000000 0.000000 0.000000 0.000000 0.000000 0.017607
#
#
# Mechanical properties :
#
#
# Convention : Reuss Voigt Hill
#
# Bulk Modulus (GPa) = 33.53273 45.81921 39.67597
# Shear Modulus (GPa) = 106.39378 28.72079 67.55729
#
# Velocity S-wave (km/s) = 7.33333 3.81014 5.84358
# Velocity P-wave (km/s) = 9.41558 6.52043 8.09843
#
# Compressibility (1/GPa) = 0.02982161
#
# Stress axis : x y z
#
# Youngs Moduli (GPa) = 35.45835 42.91182 96.19708
#
# Poissons Ratio (x) = 0.31930 0.96692
# Poissons Ratio (y) = 0.26384 -0.13974
# Poissons Ratio (z) = 0.35641 -0.06233
#
# Static dielectric constant tensor:
#      x y z
#    x 1.706640 0.000000 0.000000 
#    y 0.000000 1.702690 0.000000 
#    z 0.000000 0.000000 1.750590 
# 
# From -- ./inp_files/15349.got.cif
#   From: 2010.05.17/outbox.cif.g08.bks.cpg/sg50_8_cif.got.tgz:15349.got - 2010.06.03 11:33:33.
