data_PCOD9397859
_publ_section_title
;
Structure prediction by ZEFSAII (Michael W. Deem and Ramdas Pophale) SiO2 
 PCOD9397859
Probable space group: P B A N
;
_chemical_formula_sum "Si O2"
_cell_formula_units_Z 36
_cell_length_a 28.088711
_cell_length_b 14.849904
_cell_length_c 5.152228
_cell_angle_alpha 90.000000
_cell_angle_beta 90.000000
_cell_angle_gamma 90.000000
_cell_volume 2149.069840
_symmetry_space_group_name_H-M "P B A N"
_symmetry_group_IT_number 50
_space_group.IT_coordinate_system_code '2'
_symmetry_cell_setting 'orthorhombic'
loop_
_space_group_symop_operation_xyz
x,y,z
1/2-x,1/2-y,z
x,1/2-y,-z
1/2-x,y,-z
-x,-y,-z
1/2+x,1/2+y,-z
-x,1/2+y,z
1/2+x,-y,z
loop_
_atom_site_type_symbol
_atom_site_label
_atom_site_fract_x
_atom_site_fract_y
_atom_site_fract_z
Si Si1 0.069950 0.250000 0.000000
Si Si2 0.455066 0.491933 0.192076
Si Si3 0.194016 0.357210 0.446548
Si Si4 0.502569 0.847910 0.595292
Si Si5 0.137379 0.402143 0.918686
O O1 0.106388 0.313236 0.849987
O O2 0.031921 0.411075 0.606376
O O3 0.537900 0.683779 0.173133
O O4 0.541296 0.411575 0.668615
O O5 0.404735 0.475092 0.054347
O O6 0.500000 0.500000 0.000000
O O7 0.187041 0.250000 0.500000
O O8 0.250000 0.371728 0.500000
O O9 0.168075 0.416634 0.663957
O O10 0.170698 0.382367 0.167734
O O11 0.486562 0.750000 0.500000
#
# Coordination Sequence:
#
# PCOD9397859 Si02
#       5
#     4   8   8   8   8
#     4  12  20  32  53  80 108 164 185 224 278 334
#     4  11  23  33  52  82 111 155 198 230 279 345
#     4  11  23  37  54  79 107 147 197 242 279 327
#     4  11  21  35  51  73 120 154 196 238 274 332
#     4  12  22  35  57  78 112 153 196 227 280 343
#
# _framework density 16.751432999999999
#
# number of rings (size 3 to 8) (size 9 to 14) (size 15 to 20)
#    0.000    0.667    6.667    2.000    3.111    1.778 
#    0.000    0.000    0.000    0.000    0.000    0.000 
#    0.000    0.889    1.778    0.000    0.000    0.000 
#
# Total GULP energy -200411.426602 kJ/mol
# GULP energy per Si atom -5566.984072 kJ/mol
# Density = 1.671331 g / cm^3
# Si number density = 16.751433 Si / 1000 Ang^3
#
#
#
# Elastic Constant Matrix: (Units=GPa)
#
#
# Indices 1 2 3 4 5 6 
#
# 1 113.4274 37.5537 40.6395 0.0000 0.0000 0.0000
# 2 37.5537 98.1929 25.9117 0.0000 0.0000 0.0000
# 3 40.6395 25.9117 82.2337 0.0000 0.0000 0.0000
# 4 0.0000 0.0000 0.0000 31.1913 0.0000 0.0000
# 5 0.0000 0.0000 0.0000 0.0000 20.1371 0.0000
# 6 0.0000 0.0000 0.0000 0.0000 0.0000 25.6723
#
#
#
# Elastic Compliance Matrix: (Units=1/GPa)
#
#
# Indices 1 2 3 4 5 6 
#
# 1 0.011555 -0.003176 -0.004710 0.000000 0.000000 0.000000
# 2 -0.003176 0.011981 -0.002205 0.000000 0.000000 0.000000
# 3 -0.004710 -0.002205 0.015183 0.000000 0.000000 0.000000
# 4 0.000000 0.000000 0.000000 0.032060 0.000000 0.000000
# 5 0.000000 0.000000 0.000000 0.000000 0.049659 0.000000
# 6 0.000000 0.000000 0.000000 0.000000 0.000000 0.038952
#
#
# Mechanical properties :
#
#
# Convention : Reuss Voigt Hill
#
# Bulk Modulus (GPa) = 53.94906 55.78487 54.86697
# Shear Modulus (GPa) = 26.91750 28.05010 27.48380
#
# Velocity S-wave (km/s) = 4.01294 4.09649 4.05493
# Velocity P-wave (km/s) = 7.33124 7.46651 7.39919
#
# Compressibility (1/GPa) = 0.01853600
#
# Stress axis : x y z
#
# Youngs Moduli (GPa) = 86.54037 83.46661 65.86375
#
# Poissons Ratio (x) = 0.26513 0.31020
# Poissons Ratio (y) = 0.27489 0.14525
# Poissons Ratio (z) = 0.40758 0.18407
#
# Static dielectric constant tensor:
#      x y z
#    x 1.598260 0.000000 0.000000 
#    y 0.000000 1.612060 0.000000 
#    z 0.000000 0.000000 1.716810 
# 
# From -- ./inp_files/3217.got.cif
#   From: 2010.05.17/outbox.cif.g08.bks.cpg/sg50_2_cif.got.tgz:3217.got - 2010.06.03 11:33:33.
