data_PCOD9397559
_publ_section_title
;
Structure prediction by ZEFSAII (Michael W. Deem and Ramdas Pophale) SiO2 
 PCOD9397559
Probable space group: P B A N
;
_chemical_formula_sum "Si O2"
_cell_formula_units_Z 26
_cell_length_a 7.786102
_cell_length_b 10.242189
_cell_length_c 13.771562
_cell_angle_alpha 90.000000
_cell_angle_beta 90.000000
_cell_angle_gamma 90.000000
_cell_volume 1098.237012
_symmetry_space_group_name_H-M "P B A N"
_symmetry_group_IT_number 50
_space_group.IT_coordinate_system_code '2'
_symmetry_cell_setting 'orthorhombic'
loop_
_space_group_symop_operation_xyz
x,y,z
1/2-x,1/2-y,z
x,1/2-y,-z
1/2-x,y,-z
-x,-y,-z
1/2+x,1/2+y,-z
-x,1/2+y,z
1/2+x,-y,z
loop_
_atom_site_type_symbol
_atom_site_label
_atom_site_fract_x
_atom_site_fract_y
_atom_site_fract_z
Si Si1 0.478048 0.375570 0.931612
Si Si2 0.886436 0.639909 0.314194
Si Si3 0.781525 0.432045 0.796887
Si Si4 0.250000 0.250000 0.500000
O O1 0.560268 0.354655 0.251000
O O2 0.846774 0.362812 0.128946
O O3 0.443440 0.250000 0.000000
O O4 0.342868 0.437993 0.856117
O O5 0.750000 0.750000 0.280739
O O6 0.822773 0.493917 0.292306
O O7 0.874680 0.666948 0.429136
O O8 0.000000 0.500000 0.000000
#
# Coordination Sequence:
#
# PCOD9397559 Si02
#       4
#     8   8   8   2
#     4  11  26  44  67 100 137 186 239 283 338 420
#     4   9  21  44  66  96 131 170 226 287 356 426
#     4  10  23  43  69  93 135 189 218 294 354 415
#     4   8  20  40  72  98 128 172 216 310 344 442
#
# _framework density 23.674306000000001
#
# number of rings (size 3 to 8) (size 9 to 14) (size 15 to 20)
#    0.923    1.231    0.000    0.923    8.615    4.923 
#    5.538    1.538    0.000    7.385    0.000    0.000 
#    0.000    0.000    0.000    0.000    0.000    0.000 
#
# Total GULP energy -144902.505718 kJ/mol
# GULP energy per Si atom -5573.173297 kJ/mol
# Density = 2.362042 g / cm^3
# Si number density = 23.674306 Si / 1000 Ang^3
#
#
#
# Elastic Constant Matrix: (Units=GPa)
#
#
# Indices 1 2 3 4 5 6 
#
# 1 113.7071 20.9771 52.3559 0.0000 0.0000 0.0000
# 2 20.9771 110.9302 68.9069 0.0000 0.0000 0.0000
# 3 52.3559 68.9069 172.2098 0.0000 0.0000 0.0000
# 4 0.0000 0.0000 0.0000 38.1309 0.0000 0.0000
# 5 0.0000 0.0000 0.0000 0.0000 13.0679 0.0000
# 6 0.0000 0.0000 0.0000 0.0000 0.0000 28.0321
#
#
#
# Elastic Compliance Matrix: (Units=1/GPa)
#
#
# Indices 1 2 3 4 5 6 
#
# 1 0.010226 -0.000003 -0.003108 0.000000 0.000000 0.000000
# 2 -0.000003 0.011996 -0.004799 0.000000 0.000000 0.000000
# 3 -0.003108 -0.004799 0.008672 0.000000 0.000000 0.000000
# 4 0.000000 0.000000 0.000000 0.026225 0.000000 0.000000
# 5 0.000000 0.000000 0.000000 0.000000 0.076523 0.000000
# 6 0.000000 0.000000 0.000000 0.000000 0.000000 0.035673
#
#
# Mechanical properties :
#
#
# Convention : Reuss Voigt Hill
#
# Bulk Modulus (GPa) = 66.33883 75.70298 71.02091
# Shear Modulus (GPa) = 26.29341 32.81998 29.55669
#
# Velocity S-wave (km/s) = 3.33623 3.72736 3.53720
# Velocity P-wave (km/s) = 6.55155 7.11130 6.83716
#
# Compressibility (1/GPa) = 0.01507413
#
# Stress axis : x y z
#
# Youngs Moduli (GPa) = 97.78964 83.35825 115.31439
#
# Poissons Ratio (x) = 0.00028 0.35835
# Poissons Ratio (y) = 0.00033 0.55341
# Poissons Ratio (z) = 0.30389 0.40005
#
# Static dielectric constant tensor:
#      x y z
#    x 2.021530 0.000000 0.000000 
#    y 0.000000 2.003590 0.000000 
#    z 0.000000 0.000000 1.476410 
# 
# From -- ./inp_files/18239.got.cif
#   From: 2010.05.17/outbox.cif.g08.bks.cpg/sg50_10_cif.got.tgz:18239.got - 2010.06.03 11:33:33.
