data_PCOD9397706
_publ_section_title
;
Structure prediction by ZEFSAII (Michael W. Deem and Ramdas Pophale) SiO2 
 PCOD9397706
Probable space group: P B A N
;
_chemical_formula_sum "Si O2"
_cell_formula_units_Z 58
_cell_length_a 8.756900
_cell_length_b 24.180622
_cell_length_c 11.457513
_cell_angle_alpha 90.000000
_cell_angle_beta 90.000000
_cell_angle_gamma 90.000000
_cell_volume 2426.097314
_symmetry_space_group_name_H-M "P B A N"
_symmetry_group_IT_number 50
_space_group.IT_coordinate_system_code '2'
_symmetry_cell_setting 'orthorhombic'
loop_
_space_group_symop_operation_xyz
x,y,z
1/2-x,1/2-y,z
x,1/2-y,-z
1/2-x,y,-z
-x,-y,-z
1/2+x,1/2+y,-z
-x,1/2+y,z
1/2+x,-y,z
loop_
_atom_site_type_symbol
_atom_site_label
_atom_site_fract_x
_atom_site_fract_y
_atom_site_fract_z
Si Si1 0.425900 0.070534 0.525842
Si Si2 0.277140 0.459638 0.129692
Si Si3 0.250000 0.250000 0.500000
Si Si4 0.595069 0.230911 0.199794
Si Si5 0.667195 0.366081 0.622893
Si Si6 0.605128 0.677744 0.685871
Si Si7 0.092638 0.548071 0.269614
Si Si8 0.661864 0.837692 0.884539
O O1 0.250000 0.058342 0.500000
O O2 0.519474 0.098137 0.419228
O O3 0.421964 0.117473 0.632040
O O4 0.524473 0.028244 0.604384
O O5 0.201360 0.500153 0.221301
O O6 0.451970 0.446863 0.173471
O O7 0.176617 0.403607 0.122389
O O8 0.250000 0.484268 0.000000
O O9 0.359204 0.287585 0.426538
O O10 0.750000 0.250000 0.144165
O O11 0.623916 0.189812 0.310012
O O12 0.518320 0.287992 0.242308
O O13 0.496858 0.192822 0.115402
O O14 0.750000 0.353408 0.500000
O O15 0.785475 0.402288 0.701403
O O16 0.753429 0.680281 0.767036
O O17 0.750000 0.820540 0.000000
#
# Coordination Sequence:
#
# PCOD9397706 Si02
#       8
#     8   8   2   8   8   8   8   8
#     4  11  22  42  72 107 152 200 244 298 375 453
#     4  11  26  50  81 106 137 189 254 320 381 451
#     4  12  20  36  72 100 136 196 254 282 352 436
#     4  12  25  42  74 111 149 191 248 308 370 430
#     4  10  24  45  69 107 159 193 238 309 373 450
#     4  12  22  42  72 105 144 200 252 296 357 463
#     4  11  25  46  76 105 146 185 248 308 379 452
#     4  11  26  50  77 101 147 200 251 308 379 448
#
# _framework density 23.906707000000001
#
# number of rings (size 3 to 8) (size 9 to 14) (size 15 to 20)
#    0.000    0.828    3.448    3.724    1.931    2.483 
#    0.000   10.345    4.552    0.000    0.000    0.000 
#    0.000    0.000    0.000    0.000    0.000    0.000 
#
# Total GULP energy -324197.379941 kJ/mol
# GULP energy per Si atom -5589.609999 kJ/mol
# Density = 2.385229 g / cm^3
# Si number density = 23.906707 Si / 1000 Ang^3
#
#
#
# Elastic Constant Matrix: (Units=GPa)
#
#
# Indices 1 2 3 4 5 6 
#
# 1 135.5296 27.8256 18.9339 0.0000 0.0000 0.0000
# 2 27.8256 55.2731 14.3073 0.0000 0.0000 0.0000
# 3 18.9339 14.3073 78.9729 0.0000 0.0000 0.0000
# 4 0.0000 0.0000 0.0000 32.7842 0.0000 0.0000
# 5 0.0000 0.0000 0.0000 0.0000 26.3515 0.0000
# 6 0.0000 0.0000 0.0000 0.0000 0.0000 29.6799
#
#
#
# Elastic Compliance Matrix: (Units=1/GPa)
#
#
# Indices 1 2 3 4 5 6 
#
# 1 0.008355 -0.003869 -0.001302 0.000000 0.000000 0.000000
# 2 -0.003869 0.020774 -0.002836 0.000000 0.000000 0.000000
# 3 -0.001302 -0.002836 0.013489 0.000000 0.000000 0.000000
# 4 0.000000 0.000000 0.000000 0.030502 0.000000 0.000000
# 5 0.000000 0.000000 0.000000 0.000000 0.037948 0.000000
# 6 0.000000 0.000000 0.000000 0.000000 0.000000 0.033693
#
#
# Mechanical properties :
#
#
# Convention : Reuss Voigt Hill
#
# Bulk Modulus (GPa) = 37.58968 43.54546 40.56757
# Shear Modulus (GPa) = 29.47376 31.67704 30.57540
#
# Velocity S-wave (km/s) = 3.51503 3.64404 3.58012
# Velocity P-wave (km/s) = 5.67728 5.99664 5.83914
#
# Compressibility (1/GPa) = 0.02660304
#
# Stress axis : x y z
#
# Youngs Moduli (GPa) = 119.69318 48.13770 74.13699
#
# Poissons Ratio (x) = 0.18624 0.09654
# Poissons Ratio (y) = 0.46308 0.21025
# Poissons Ratio (z) = 0.15586 0.13652
#
# Static dielectric constant tensor:
#      x y z
#    x 1.932460 0.000000 0.000000 
#    y 0.000000 2.253320 0.000000 
#    z 0.000000 0.000000 1.918440 
# 
# From -- ./inp_files/19395.got.cif
#   From: 2010.05.17/outbox.cif.g08.bks.cpg/sg50_10_cif.got.tgz:19395.got - 2010.06.03 11:33:33.
