data_PCOD9397300
_publ_section_title
;
Structure prediction by ZEFSAII (Michael W. Deem and Ramdas Pophale) SiO2 
 PCOD9397300
Probable space group: P B A N
;
_chemical_formula_sum "Si O2"
_cell_formula_units_Z 32
_cell_length_a 21.148077
_cell_length_b 12.409248
_cell_length_c 4.968741
_cell_angle_alpha 90.000000
_cell_angle_beta 90.000000
_cell_angle_gamma 90.000000
_cell_volume 1303.955308
_symmetry_space_group_name_H-M "P B A N"
_symmetry_group_IT_number 50
_space_group.IT_coordinate_system_code '2'
_symmetry_cell_setting 'orthorhombic'
loop_
_space_group_symop_operation_xyz
x,y,z
1/2-x,1/2-y,z
x,1/2-y,-z
1/2-x,y,-z
-x,-y,-z
1/2+x,1/2+y,-z
-x,1/2+y,z
1/2+x,-y,z
loop_
_atom_site_type_symbol
_atom_site_label
_atom_site_fract_x
_atom_site_fract_y
_atom_site_fract_z
Si Si1 0.110522 0.379987 0.986371
Si Si2 0.015520 0.827552 0.750132
Si Si3 0.659265 0.328993 0.255912
Si Si4 0.182998 0.047253 0.517347
O O1 0.041343 0.401595 0.855437
O O2 0.156085 0.446535 0.785220
O O3 0.117557 0.250000 0.000000
O O4 0.128669 0.405227 0.291828
O O5 0.997835 0.750000 0.500000
O O6 0.086160 0.870954 0.709845
O O7 0.025830 0.750000 0.000000
O O8 0.670631 0.250000 0.500000
O O9 0.698201 0.435996 0.321834
O O10 0.668172 0.250000 0.000000
O O11 0.250000 0.107870 0.500000
#
# Coordination Sequence:
#
# PCOD9397300 Si02
#       4
#     8   8   8   8
#     4  11  23  41  64  90 127 166 205 265 321 370
#     4   9  18  36  63  94 123 157 206 258 324 393
#     4  10  22  42  66  92 126 162 204 269 328 374
#     4  12  26  41  61  93 125 168 225 255 301 389
#
# _framework density 24.54072
#
# number of rings (size 3 to 8) (size 9 to 14) (size 15 to 20)
#    0.000    1.500    0.000    6.000    0.000    5.500 
#    0.000    1.250    0.000    0.000    0.000    0.000 
#    0.000    0.000    0.000    0.000    0.000    0.000 
#
# Total GULP energy -178296.071635 kJ/mol
# GULP energy per Si atom -5571.752239 kJ/mol
# Density = 2.448486 g / cm^3
# Si number density = 24.540720 Si / 1000 Ang^3
#
#
#
# Elastic Constant Matrix: (Units=GPa)
#
#
# Indices 1 2 3 4 5 6 
#
# 1 92.4911 -0.1870 14.9675 0.0000 0.0000 0.0000
# 2 -0.1870 85.4973 16.8949 0.0000 0.0000 0.0000
# 3 14.9675 16.8949 164.1344 0.0000 0.0000 0.0000
# 4 0.0000 0.0000 0.0000 16.4437 0.0000 0.0000
# 5 0.0000 0.0000 0.0000 0.0000 33.6232 0.0000
# 6 0.0000 0.0000 0.0000 0.0000 0.0000 -4.1576
#
#
#
# Elastic Compliance Matrix: (Units=1/GPa)
#
#
# Indices 1 2 3 4 5 6 
#
# 1 0.010978 0.000226 -0.001024 0.000000 0.000000 0.000000
# 2 0.000226 0.011944 -0.001250 0.000000 0.000000 0.000000
# 3 -0.001024 -0.001250 0.006315 0.000000 0.000000 0.000000
# 4 0.000000 0.000000 0.000000 0.060814 0.000000 0.000000
# 5 0.000000 0.000000 0.000000 0.000000 0.029741 0.000000
# 6 0.000000 0.000000 0.000000 0.000000 0.000000 -0.240526
#
#
# Mechanical properties :
#
#
# Convention : Reuss Voigt Hill
#
# Bulk Modulus (GPa) = 39.77651 45.05265 42.41458
# Shear Modulus (GPa) = -46.18587 29.87835 -8.15376
#
# Velocity S-wave (km/s) = -4.34292 3.49306 -1.82476
# Velocity P-wave (km/s) = 2.98402 5.88785 3.58904
#
# Compressibility (1/GPa) = 0.02514047
#
# Stress axis : x y z
#
# Youngs Moduli (GPa) = 91.09060 83.72545 158.36171
#
# Poissons Ratio (x) = -0.01896 0.16223
# Poissons Ratio (y) = -0.02063 0.19796
# Poissons Ratio (z) = 0.09331 0.10466
#
# Static dielectric constant tensor:
#      x y z
#    x 2.115770 0.000000 0.000000 
#    y 0.000000 1.912430 0.000000 
#    z 0.000000 0.000000 1.853710 
# 
# From -- ./inp_files/4924.got.cif
#   From: 2010.05.17/outbox.cif.g08.bks.cpg/sg50_3_cif.got.tgz:4924.got - 2010.06.03 11:33:33.
