data_PCOD9397262
_publ_section_title
;
Structure prediction by ZEFSAII (Michael W. Deem and Ramdas Pophale) SiO2 
 PCOD9397262
Probable space group: P B A N
;
_chemical_formula_sum "Si O2"
_cell_formula_units_Z 34
_cell_length_a 12.248122
_cell_length_b 10.188021
_cell_length_c 12.948134
_cell_angle_alpha 90.000000
_cell_angle_beta 90.000000
_cell_angle_gamma 90.000000
_cell_volume 1615.721561
_symmetry_space_group_name_H-M "P B A N"
_symmetry_group_IT_number 50
_space_group.IT_coordinate_system_code '2'
_symmetry_cell_setting 'orthorhombic'
loop_
_space_group_symop_operation_xyz
x,y,z
1/2-x,1/2-y,z
x,1/2-y,-z
1/2-x,y,-z
-x,-y,-z
1/2+x,1/2+y,-z
-x,1/2+y,z
1/2+x,-y,z
loop_
_atom_site_type_symbol
_atom_site_label
_atom_site_fract_x
_atom_site_fract_y
_atom_site_fract_z
Si Si1 0.813353 0.453444 0.780661
Si Si2 0.070116 0.111893 0.940353
Si Si3 0.406494 0.671249 0.243567
Si Si4 0.250000 0.250000 0.500000
Si Si5 0.557679 0.580140 0.406960
O O1 0.827746 0.541367 0.883277
O O2 0.686410 0.440917 0.750757
O O3 0.853176 0.305259 0.795197
O O4 0.892392 0.495762 0.686941
O O5 0.994670 0.144145 0.843013
O O6 0.090891 0.250000 0.000000
O O7 0.000000 0.000000 0.000000
O O8 0.466965 0.673776 0.353871
O O9 0.335161 0.340971 0.559820
O O10 0.500000 0.500000 0.500000
#
# Coordination Sequence:
#
# PCOD9397262 Si02
#       5
#     8   8   8   2   8
#     4  10  22  41  65  95 129 183 230 285 358 428
#     4  11  22  42  67  96 134 176 231 294 354 420
#     4  10  22  41  66  93 136 178 229 290 355 424
#     4  12  24  40  68 104 134 188 236 296 358 430
#     4  11  23  41  66  97 141 181 234 291 358 425
#
# _framework density 21.043230000000001
#
# number of rings (size 3 to 8) (size 9 to 14) (size 15 to 20)
#    0.000    1.412    2.353    2.824    0.000    2.824 
#    0.000    3.529    0.000    0.000    0.000    0.000 
#    0.000    0.000    0.000    0.000    0.000    0.000 
#
# Total GULP energy -189441.271306 kJ/mol
# GULP energy per Si atom -5571.802097 kJ/mol
# Density = 2.099533 g / cm^3
# Si number density = 21.043230 Si / 1000 Ang^3
#
#
#
# Elastic Constant Matrix: (Units=GPa)
#
#
# Indices 1 2 3 4 5 6 
#
# 1 113.9732 39.0143 41.6115 0.0000 0.0000 0.0000
# 2 39.0143 110.9245 57.4742 0.0000 0.0000 0.0000
# 3 41.6115 57.4742 114.5120 0.0000 0.0000 0.0000
# 4 0.0000 0.0000 0.0000 24.6205 0.0000 0.0000
# 5 0.0000 0.0000 0.0000 0.0000 34.3697 0.0000
# 6 0.0000 0.0000 0.0000 0.0000 0.0000 198.3669
#
#
#
# Elastic Compliance Matrix: (Units=1/GPa)
#
#
# Indices 1 2 3 4 5 6 
#
# 1 0.010543 -0.002329 -0.002662 0.000000 0.000000 0.000000
# 2 -0.002329 0.012698 -0.005527 0.000000 0.000000 0.000000
# 3 -0.002662 -0.005527 0.012474 0.000000 0.000000 0.000000
# 4 0.000000 0.000000 0.000000 0.040617 0.000000 0.000000
# 5 0.000000 0.000000 0.000000 0.000000 0.029095 0.000000
# 6 0.000000 0.000000 0.000000 0.000000 0.000000 0.005041
#
#
# Mechanical properties :
#
#
# Convention : Reuss Voigt Hill
#
# Bulk Modulus (GPa) = 68.12391 68.40108 68.26249
# Shear Modulus (GPa) = 36.65754 64.89207 50.77481
#
# Velocity S-wave (km/s) = 4.17827 5.55918 4.91744
# Velocity P-wave (km/s) = 7.46464 8.58962 8.04681
#
# Compressibility (1/GPa) = 0.01467913
#
# Stress axis : x y z
#
# Youngs Moduli (GPa) = 94.84799 78.75302 80.16571
#
# Poissons Ratio (x) = 0.18340 0.21343
# Poissons Ratio (y) = 0.22088 0.44307
# Poissons Ratio (z) = 0.25252 0.43526
#
# Static dielectric constant tensor:
#      x y z
#    x 1.783850 0.000000 0.000000 
#    y 0.000000 1.711930 0.000000 
#    z 0.000000 0.000000 1.874220 
# 
# From -- ./inp_files/19828.got.cif
#   From: 2010.05.17/outbox.cif.g08.bks.cpg/sg50_10_cif.got.tgz:19828.got - 2010.06.03 11:33:33.
