data_PCOD9397209
_publ_section_title
;
Structure prediction by ZEFSAII (Michael W. Deem and Ramdas Pophale) SiO2 
 PCOD9397209
Probable space group: P B A N
;
_chemical_formula_sum "Si O2"
_cell_formula_units_Z 30
_cell_length_a 12.019342
_cell_length_b 4.840113
_cell_length_c 22.211101
_cell_angle_alpha 90.000000
_cell_angle_beta 90.000000
_cell_angle_gamma 90.000000
_cell_volume 1292.130211
_symmetry_space_group_name_H-M "P B A N"
_symmetry_group_IT_number 50
_space_group.IT_coordinate_system_code '2'
_symmetry_cell_setting 'orthorhombic'
loop_
_space_group_symop_operation_xyz
x,y,z
1/2-x,1/2-y,z
x,1/2-y,-z
1/2-x,y,-z
-x,-y,-z
1/2+x,1/2+y,-z
-x,1/2+y,z
1/2+x,-y,z
loop_
_atom_site_type_symbol
_atom_site_label
_atom_site_fract_x
_atom_site_fract_y
_atom_site_fract_z
Si Si1 0.250000 0.250000 0.581709
Si Si2 0.750000 0.250000 0.893606
Si Si3 0.417804 0.750000 0.000000
Si Si4 0.074094 0.336994 0.678804
Si Si5 0.082154 0.088005 0.184213
Si Si6 0.250000 0.750000 0.500000
O O1 0.158546 0.386129 0.625038
O O2 0.302005 0.510486 0.543915
O O3 0.812434 0.020694 0.853212
O O4 0.655174 0.178691 0.941693
O O5 0.500000 0.500000 0.000000
O O6 0.117251 0.408703 0.745485
O O7 0.963080 0.519907 0.674515
O O8 0.976865 0.881696 0.173442
#
# Coordination Sequence:
#
# PCOD9397209 Si02
#       6
#     4   4   4   8   8   2
#     4  11  22  44  64  90 134 171 216 272 324 383
#     4  11  24  41  70  93 128 181 212 262 344 375
#     4  11  26  45  64  94 132 173 226 273 310 386
#     4  10  22  40  64  92 125 166 209 262 328 389
#     4  10  23  40  61  96 129 158 212 268 315 392
#     4  10  24  40  64  96 128 172 224 272 308 378
#
# _framework density 23.217475
#
# number of rings (size 3 to 8) (size 9 to 14) (size 15 to 20)
#    0.000    1.600    0.000    3.200    0.000   12.800 
#    0.000   13.333    0.000    0.000    0.000    0.000 
#    0.000    0.000    0.000    0.000    0.000    0.000 
#
# Total GULP energy -167189.872573 kJ/mol
# GULP energy per Si atom -5572.995752 kJ/mol
# Density = 2.316463 g / cm^3
# Si number density = 23.217475 Si / 1000 Ang^3
#
#
#
# Elastic Constant Matrix: (Units=GPa)
#
#
# Indices 1 2 3 4 5 6 
#
# 1 92.3865 30.8874 62.6975 0.0000 0.0000 0.0000
# 2 30.8874 117.8731 33.9774 0.0000 0.0000 0.0000
# 3 62.6975 33.9774 144.7605 0.0000 0.0000 0.0000
# 4 0.0000 0.0000 0.0000 -33.0783 0.0000 0.0000
# 5 0.0000 0.0000 0.0000 0.0000 -4.2018 0.0000
# 6 0.0000 0.0000 0.0000 0.0000 0.0000 15.6160
#
#
#
# Elastic Compliance Matrix: (Units=1/GPa)
#
#
# Indices 1 2 3 4 5 6 
#
# 1 0.015910 -0.002341 -0.006341 0.000000 0.000000 0.000000
# 2 -0.002341 0.009444 -0.001203 0.000000 0.000000 0.000000
# 3 -0.006341 -0.001203 0.009937 0.000000 0.000000 0.000000
# 4 0.000000 0.000000 0.000000 -0.030231 0.000000 0.000000
# 5 0.000000 0.000000 0.000000 0.000000 -0.237994 0.000000
# 6 0.000000 0.000000 0.000000 0.000000 0.000000 0.064037
#
#
# Mechanical properties :
#
#
# Convention : Reuss Voigt Hill
#
# Bulk Modulus (GPa) = 64.43092 67.79385 66.11239
# Shear Modulus (GPa) = -34.73352 10.83104 -11.95124
#
# Velocity S-wave (km/s) = -3.87202 2.16221 -2.27128
# Velocity P-wave (km/s) = 2.79664 5.95789 4.65390
#
# Compressibility (1/GPa) = 0.01552050
#
# Stress axis : x y z
#
# Youngs Moduli (GPa) = 62.85183 105.88912 100.63600
#
# Poissons Ratio (x) = 0.24791 0.63818
# Poissons Ratio (y) = 0.14715 0.12103
# Poissons Ratio (z) = 0.39857 0.12734
#
# Static dielectric constant tensor:
#      x y z
#    x 1.858750 0.000000 0.000000 
#    y 0.000000 1.855880 0.000000 
#    z 0.000000 0.000000 1.931740 
# 
# From -- ./inp_files/30795.got.cif
#   From: 2010.05.17/outbox.cif.g08.bks.cpg/sg50_16_cif.got.tgz:30795.got - 2010.06.03 11:33:33.
