data_PCOD9397182
_publ_section_title
;
Structure prediction by ZEFSAII (Michael W. Deem and Ramdas Pophale) SiO2 
 PCOD9397182
Probable space group: P B A N
;
_chemical_formula_sum "Si O2"
_cell_formula_units_Z 38
_cell_length_a 13.015993
_cell_length_b 27.848735
_cell_length_c 5.235845
_cell_angle_alpha 90.000000
_cell_angle_beta 90.000000
_cell_angle_gamma 90.000000
_cell_volume 1897.883545
_symmetry_space_group_name_H-M "P B A N"
_symmetry_group_IT_number 50
_space_group.IT_coordinate_system_code '2'
_symmetry_cell_setting 'orthorhombic'
loop_
_space_group_symop_operation_xyz
x,y,z
1/2-x,1/2-y,z
x,1/2-y,-z
1/2-x,y,-z
-x,-y,-z
1/2+x,1/2+y,-z
-x,1/2+y,z
1/2+x,-y,z
loop_
_atom_site_type_symbol
_atom_site_label
_atom_site_fract_x
_atom_site_fract_y
_atom_site_fract_z
Si Si1 0.153504 0.666193 0.806601
Si Si2 0.993736 0.594488 0.981555
Si Si3 0.164376 0.519316 0.849426
Si Si4 0.750000 0.094615 0.500000
Si Si5 0.250000 0.750000 0.500000
Si Si6 0.129927 0.069326 0.471198
O O1 0.158612 0.631008 0.557517
O O2 0.177107 0.717766 0.683115
O O3 0.054637 0.644787 0.946735
O O4 0.250000 0.657982 0.000000
O O5 0.926797 0.582266 0.732172
O O6 0.074024 0.549139 0.984379
O O7 0.926077 0.595020 0.234616
O O8 0.240473 0.559428 0.734104
O O9 0.123065 0.486690 0.618715
O O10 0.250000 0.488069 0.000000
O O11 0.250000 0.080811 0.500000
#
# Coordination Sequence:
#
# PCOD9397182 Si02
#       6
#     8   8   8   4   2   8
#     4  10  22  39  64  97 132 158 189 248 334 412
#     4  11  25  38  63  86 126 171 217 261 327 373
#     4  11  22  35  57  84 123 172 224 274 319 363
#     4   9  18  31  56  78 128 164 206 243 316 363
#     4  10  22  40  72  98 142 144 182 244 338 430
#     4  12  25  41  55  82 125 176 239 277 296 338
#
# _framework density 20.022303000000001
#
# number of rings (size 3 to 8) (size 9 to 14) (size 15 to 20)
#    0.000    1.263    1.053    6.000   14.737    0.000 
#    0.000    0.000    0.000    0.000    0.000    0.737 
#    0.000    0.000    0.000    0.000    0.000    0.000 
#
# Total GULP energy -211683.833510 kJ/mol
# GULP energy per Si atom -5570.627198 kJ/mol
# Density = 1.997673 g / cm^3
# Si number density = 20.022303 Si / 1000 Ang^3
#
#
#
# Elastic Constant Matrix: (Units=GPa)
#
#
# Indices 1 2 3 4 5 6 
#
# 1 144.8561 39.5867 71.5785 0.0000 0.0000 0.0000
# 2 39.5867 92.0960 26.6176 0.0000 0.0000 0.0000
# 3 71.5785 26.6176 113.2779 0.0000 0.0000 0.0000
# 4 0.0000 0.0000 0.0000 29.6511 0.0000 0.0000
# 5 0.0000 0.0000 0.0000 0.0000 50.1248 0.0000
# 6 0.0000 0.0000 0.0000 0.0000 0.0000 -13.9032
#
#
#
# Elastic Compliance Matrix: (Units=1/GPa)
#
#
# Indices 1 2 3 4 5 6 
#
# 1 0.010685 -0.002834 -0.006086 0.000000 0.000000 0.000000
# 2 -0.002834 0.012401 -0.001123 0.000000 0.000000 0.000000
# 3 -0.006086 -0.001123 0.012937 0.000000 0.000000 0.000000
# 4 0.000000 0.000000 0.000000 0.033726 0.000000 0.000000
# 5 0.000000 0.000000 0.000000 0.000000 0.019950 0.000000
# 6 0.000000 0.000000 0.000000 0.000000 0.000000 -0.071926
#
#
# Mechanical properties :
#
#
# Convention : Reuss Voigt Hill
#
# Bulk Modulus (GPa) = 62.74539 69.53286 66.13913
# Shear Modulus (GPa) = 115.81598 27.33768 71.57683
#
# Velocity S-wave (km/s) = 7.61374 3.69909 5.98550
# Velocity P-wave (km/s) = 10.42583 7.28337 8.99292
#
# Compressibility (1/GPa) = 0.01593743
#
# Stress axis : x y z
#
# Youngs Moduli (GPa) = 93.58822 80.63849 77.29585
#
# Poissons Ratio (x) = 0.22853 0.47041
# Poissons Ratio (y) = 0.26523 0.08682
# Poissons Ratio (z) = 0.56956 0.09057
#
# Static dielectric constant tensor:
#      x y z
#    x 1.760470 0.000000 0.000000 
#    y 0.000000 1.756090 0.000000 
#    z 0.000000 0.000000 1.860540 
# 
# From -- ./inp_files/2447.got.cif
#   From: 2010.05.17/outbox.cif.g08.bks.cpg/sg50_2_cif.got.tgz:2447.got - 2010.06.03 11:33:33.
