data_PCOD9397472
_publ_section_title
;
Structure prediction by ZEFSAII (Michael W. Deem and Ramdas Pophale) SiO2 
 PCOD9397472
Probable space group: P B A N
;
_chemical_formula_sum "Si O2"
_cell_formula_units_Z 64
_cell_length_a 11.254369
_cell_length_b 14.880450
_cell_length_c 16.663390
_cell_angle_alpha 90.000000
_cell_angle_beta 90.000000
_cell_angle_gamma 90.000000
_cell_volume 2790.619176
_symmetry_space_group_name_H-M "P B A N"
_symmetry_group_IT_number 50
_space_group.IT_coordinate_system_code '2'
_symmetry_cell_setting 'orthorhombic'
loop_
_space_group_symop_operation_xyz
x,y,z
1/2-x,1/2-y,z
x,1/2-y,-z
1/2-x,y,-z
-x,-y,-z
1/2+x,1/2+y,-z
-x,1/2+y,z
1/2+x,-y,z
loop_
_atom_site_type_symbol
_atom_site_label
_atom_site_fract_x
_atom_site_fract_y
_atom_site_fract_z
Si Si1 0.118523 0.105508 0.970920
Si Si2 0.945508 0.558018 0.601554
Si Si3 0.254499 0.013932 0.710715
Si Si4 0.823037 0.163210 0.220440
Si Si5 0.014263 0.261235 0.332569
Si Si6 0.817599 0.666215 0.807795
Si Si7 0.126917 0.607915 0.042399
Si Si8 0.397402 0.399965 0.433864
O O1 0.102527 0.124793 0.876554
O O2 0.122868 0.997673 0.979592
O O3 0.250000 0.136183 0.000000
O O4 0.001354 0.143762 0.013564
O O5 0.881150 0.531007 0.683795
O O6 0.867400 0.598414 0.528076
O O7 0.025936 0.645077 0.624657
O O8 0.983134 0.460233 0.569582
O O9 0.273748 0.089133 0.778199
O O10 0.324105 0.041948 0.631126
O O11 0.260805 0.913182 0.740623
O O12 0.750000 0.250000 0.195493
O O13 0.917276 0.201289 0.285610
O O14 0.870991 0.120865 0.138325
O O15 0.110850 0.292214 0.266866
O O16 0.078217 0.197355 0.397545
O O17 0.750000 0.750000 0.844416
O O18 0.250000 0.641839 0.000000
#
# Coordination Sequence:
#
# PCOD9397472 Si02
#       8
#     8   8   8   8   8   8   8   8
#     4  10  23  45  73 101 139 184 239 301 366 429
#     4  10  23  40  66  96 136 180 225 278 349 416
#     4  11  22  43  66  99 134 176 232 285 346 423
#     4  12  26  45  69  99 139 185 236 291 361 437
#     4  11  24  42  64 101 133 175 230 288 347 422
#     4  11  23  41  66 101 131 176 230 290 357 413
#     4  10  24  47  70 103 141 190 241 296 369 441
#     4  11  21  41  68  95 136 178 224 283 344 419
#
# _framework density 22.933978
#
# number of rings (size 3 to 8) (size 9 to 14) (size 15 to 20)
#    0.000    1.250    3.750    1.500    3.500    0.500 
#    2.250    1.250    0.000    0.000    0.000    0.000 
#    0.000    0.000    0.000    0.000    0.000    0.000 
#
# Total GULP energy -356679.315321 kJ/mol
# GULP energy per Si atom -5573.114302 kJ/mol
# Density = 2.288178 g / cm^3
# Si number density = 22.933978 Si / 1000 Ang^3
#
#
#
# Elastic Constant Matrix: (Units=GPa)
#
#
# Indices 1 2 3 4 5 6 
#
# 1 54.8589 13.7368 20.4320 0.0000 0.0000 0.0000
# 2 13.7368 88.5623 4.3255 0.0000 0.0000 0.0000
# 3 20.4320 4.3255 93.1321 0.0000 0.0000 0.0000
# 4 0.0000 0.0000 0.0000 -12.6653 0.0000 0.0000
# 5 0.0000 0.0000 0.0000 0.0000 33.6242 0.0000
# 6 0.0000 0.0000 0.0000 0.0000 0.0000 8.3697
#
#
#
# Elastic Compliance Matrix: (Units=1/GPa)
#
#
# Indices 1 2 3 4 5 6 
#
# 1 0.020608 -0.002982 -0.004383 0.000000 0.000000 0.000000
# 2 -0.002982 0.011749 0.000109 0.000000 0.000000 0.000000
# 3 -0.004383 0.000109 0.011694 0.000000 0.000000 0.000000
# 4 0.000000 0.000000 0.000000 -0.078956 0.000000 0.000000
# 5 0.000000 0.000000 0.000000 0.000000 0.029740 0.000000
# 6 0.000000 0.000000 0.000000 0.000000 0.000000 0.119479
#
#
# Mechanical properties :
#
#
# Convention : Reuss Voigt Hill
#
# Bulk Modulus (GPa) = 33.85504 34.83799 34.34651
# Shear Modulus (GPa) = 36.05636 19.06966 27.56301
#
# Velocity S-wave (km/s) = 3.96938 2.88671 3.47052
# Velocity P-wave (km/s) = 5.98347 5.13170 5.57388
#
# Compressibility (1/GPa) = 0.02953770
#
# Stress axis : x y z
#
# Youngs Moduli (GPa) = 48.52568 85.11527 85.51498
#
# Poissons Ratio (x) = 0.25385 0.37477
# Poissons Ratio (y) = 0.14472 -0.00929
# Poissons Ratio (z) = 0.21267 -0.00925
#
# Static dielectric constant tensor:
#      x y z
#    x 1.983520 0.000000 0.000000 
#    y 0.000000 1.854160 0.000000 
#    z 0.000000 0.000000 1.807200 
# 
# From -- ./inp_files/29239.got.cif
#   From: 2010.05.17/outbox.cif.g08.bks.cpg/sg50_15_cif.got.tgz:29239.got - 2010.06.03 11:33:33.
