data_PCOD9397078
_publ_section_title
;
Structure prediction by ZEFSAII (Michael W. Deem and Ramdas Pophale) SiO2 
 PCOD9397078
Probable space group: P B A N
;
_chemical_formula_sum "Si O2"
_cell_formula_units_Z 60
_cell_length_a 9.088280
_cell_length_b 30.055483
_cell_length_c 12.365217
_cell_angle_alpha 90.000000
_cell_angle_beta 90.000000
_cell_angle_gamma 90.000000
_cell_volume 3377.591730
_symmetry_space_group_name_H-M "P B A N"
_symmetry_group_IT_number 50
_space_group.IT_coordinate_system_code '2'
_symmetry_cell_setting 'orthorhombic'
loop_
_space_group_symop_operation_xyz
x,y,z
1/2-x,1/2-y,z
x,1/2-y,-z
1/2-x,y,-z
-x,-y,-z
1/2+x,1/2+y,-z
-x,1/2+y,z
1/2+x,-y,z
loop_
_atom_site_type_symbol
_atom_site_label
_atom_site_fract_x
_atom_site_fract_y
_atom_site_fract_z
Si Si1 0.574023 0.048255 0.013073
Si Si2 0.485437 0.484435 0.354672
Si Si3 0.587449 0.078316 0.252295
Si Si4 0.579649 0.660245 0.635869
Si Si5 0.569340 0.655711 0.382366
Si Si6 0.072440 0.590407 0.205930
Si Si7 0.918036 0.248233 0.630660
Si Si8 0.750000 0.985733 0.500000
O O1 0.535166 0.066360 0.131650
O O2 0.750000 0.041370 0.000000
O O3 0.540146 0.085265 0.921094
O O4 0.500000 0.000000 0.000000
O O5 0.427147 0.533100 0.322649
O O6 0.528735 0.458188 0.249646
O O7 0.627100 0.487579 0.432470
O O8 0.351313 0.459748 0.415696
O O9 0.494202 0.115097 0.314102
O O10 0.755124 0.094550 0.235334
O O11 0.534912 0.649503 0.510828
O O12 0.756054 0.660152 0.633398
O O13 0.515696 0.626076 0.723624
O O14 0.513179 0.708857 0.662813
O O15 0.493721 0.701444 0.343718
O O16 0.750000 0.250000 0.670929
O O17 0.912784 0.250000 0.500000
#
# Coordination Sequence:
#
# PCOD9397078 Si02
#       8
#     8   8   8   8   8   8   8   4
#     4  10  22  40  58  77 104 143 194 242 281 327
#     4  11  22  35  52  74 112 149 183 222 274 334
#     4  11  23  37  55  79 107 147 189 233 280 330
#     4  10  22  35  57  85 117 149 185 224 274 333
#     4  10  22  35  57  85 117 149 185 224 274 333
#     4  11  23  37  55  79 107 147 189 233 280 330
#     4   9  17  35  57  84 117 150 181 221 271 333
#     4  10  24  34  48  76 112 148 176 226 278 334
#
# _framework density 17.764136000000001
#
# number of rings (size 3 to 8) (size 9 to 14) (size 15 to 20)
#    0.000    1.733    2.667    1.200    5.600    4.267 
#    0.000    0.000    0.000    0.800    0.000    5.600 
#    0.000    0.000    0.000    0.000    0.000    0.000 
#
# Total GULP energy -334644.706948 kJ/mol
# GULP energy per Si atom -5577.411782 kJ/mol
# Density = 1.772370 g / cm^3
# Si number density = 17.764136 Si / 1000 Ang^3
#
#
#
# Elastic Constant Matrix: (Units=GPa)
#
#
# Indices 1 2 3 4 5 6 
#
# 1 85.9903 40.9214 42.3143 0.0000 0.0000 0.0000
# 2 40.9214 110.6878 46.8766 0.0000 0.0000 0.0000
# 3 42.3143 46.8766 101.2669 0.0000 0.0000 0.0000
# 4 0.0000 0.0000 0.0000 10.4926 0.0000 0.0000
# 5 0.0000 0.0000 0.0000 0.0000 19.6146 0.0000
# 6 0.0000 0.0000 0.0000 0.0000 0.0000 24.6151
#
#
#
# Elastic Compliance Matrix: (Units=1/GPa)
#
#
# Indices 1 2 3 4 5 6 
#
# 1 0.015824 -0.003794 -0.004856 0.000000 0.000000 0.000000
# 2 -0.003794 0.012147 -0.004038 0.000000 0.000000 0.000000
# 3 -0.004856 -0.004038 0.013773 0.000000 0.000000 0.000000
# 4 0.000000 0.000000 0.000000 0.095305 0.000000 0.000000
# 5 0.000000 0.000000 0.000000 0.000000 0.050982 0.000000
# 6 0.000000 0.000000 0.000000 0.000000 0.000000 0.040625
#
#
# Mechanical properties :
#
#
# Convention : Reuss Voigt Hill
#
# Bulk Modulus (GPa) = 61.08957 62.01884 61.55420
# Shear Modulus (GPa) = 19.26869 22.13331 20.70100
#
# Velocity S-wave (km/s) = 3.29705 3.53364 3.41739
# Velocity P-wave (km/s) = 6.99700 7.18589 7.09207
#
# Compressibility (1/GPa) = 0.01636941
#
# Stress axis : x y z
#
# Youngs Moduli (GPa) = 63.19467 82.32555 72.60583
#
# Poissons Ratio (x) = 0.31232 0.35257
# Poissons Ratio (y) = 0.23974 0.29316
# Poissons Ratio (z) = 0.30687 0.33240
#
# Static dielectric constant tensor:
#      x y z
#    x 1.621810 0.000000 0.000000 
#    y 0.000000 1.596630 0.000000 
#    z 0.000000 0.000000 1.646810 
# 
# From -- ./inp_files/19495.got.cif
#   From: 2010.05.17/outbox.cif.g08.bks.cpg/sg50_10_cif.got.tgz:19495.got - 2010.06.03 11:33:33.
