data_PCOD9397240
_publ_section_title
;
Structure prediction by ZEFSAII (Michael W. Deem and Ramdas Pophale) SiO2 
 PCOD9397240
Probable space group: P B A N
;
_chemical_formula_sum "Si O2"
_cell_formula_units_Z 32
_cell_length_a 14.742209
_cell_length_b 17.897202
_cell_length_c 4.853180
_cell_angle_alpha 90.000000
_cell_angle_beta 90.000000
_cell_angle_gamma 90.000000
_cell_volume 1280.483843
_symmetry_space_group_name_H-M "P B A N"
_symmetry_group_IT_number 50
_space_group.IT_coordinate_system_code '2'
_symmetry_cell_setting 'orthorhombic'
loop_
_space_group_symop_operation_xyz
x,y,z
1/2-x,1/2-y,z
x,1/2-y,-z
1/2-x,y,-z
-x,-y,-z
1/2+x,1/2+y,-z
-x,1/2+y,z
1/2+x,-y,z
loop_
_atom_site_type_symbol
_atom_site_label
_atom_site_fract_x
_atom_site_fract_y
_atom_site_fract_z
Si Si1 0.250000 0.750000 0.500000
Si Si2 0.750000 0.008395 0.500000
Si Si3 0.871492 0.884304 0.700164
Si Si4 0.250000 0.250000 0.500000
Si Si5 0.010406 0.419622 0.166696
Si Si6 0.840745 0.123458 0.160110
O O1 0.183460 0.800154 0.685901
O O2 0.833777 0.058191 0.388141
O O3 0.799476 0.951634 0.703506
O O4 0.819113 0.808349 0.640337
O O5 0.911271 0.878465 0.000817
O O6 0.952662 0.908918 0.480774
O O7 0.919638 0.378060 0.062840
O O8 0.000000 0.500000 0.000000
O O9 0.750000 0.104433 0.000000
#
# Coordination Sequence:
#
# PCOD9397240 Si02
#       6
#     2   4   8   2   8   8
#     4  10  26  44  60  96 136 200 230 278 356 446
#     4  10  22  40  72  98 142 184 234 290 360 416
#     4  11  26  46  73 107 145 189 240 304 356 446
#     4  10  28  54  72 108 150 204 244 288 398 440
#     4  12  25  44  75 110 141 179 249 305 362 412
#     4  11  24  43  68  98 142 188 234 289 359 424
#
# _framework density 24.990552999999998
#
# number of rings (size 3 to 8) (size 9 to 14) (size 15 to 20)
#    0.000    1.000    2.500    2.625    7.000    6.000 
#    4.500    0.000    0.000    0.000    0.000    0.000 
#    0.000    0.000    0.000    0.000    0.000    0.000 
#
# Total GULP energy -178623.529141 kJ/mol
# GULP energy per Si atom -5581.985286 kJ/mol
# Density = 2.493367 g / cm^3
# Si number density = 24.990553 Si / 1000 Ang^3
#
#
#
# Elastic Constant Matrix: (Units=GPa)
#
#
# Indices 1 2 3 4 5 6 
#
# 1 97.4519 16.6466 9.9797 0.0000 0.0000 0.0000
# 2 16.6466 141.3699 16.7627 0.0000 0.0000 0.0000
# 3 9.9797 16.7627 98.6416 0.0000 0.0000 0.0000
# 4 0.0000 0.0000 0.0000 -1.9369 0.0000 0.0000
# 5 0.0000 0.0000 0.0000 0.0000 18.7872 0.0000
# 6 0.0000 0.0000 0.0000 0.0000 0.0000 3.0195
#
#
#
# Elastic Compliance Matrix: (Units=1/GPa)
#
#
# Indices 1 2 3 4 5 6 
#
# 1 0.010545 -0.001138 -0.000873 0.000000 0.000000 0.000000
# 2 -0.001138 0.007342 -0.001133 0.000000 0.000000 0.000000
# 3 -0.000873 -0.001133 0.010419 0.000000 0.000000 0.000000
# 4 0.000000 0.000000 0.000000 -0.516296 0.000000 0.000000
# 5 0.000000 0.000000 0.000000 0.000000 0.053228 0.000000
# 6 0.000000 0.000000 0.000000 0.000000 0.000000 0.331178
#
#
# Mechanical properties :
#
#
# Convention : Reuss Voigt Hill
#
# Bulk Modulus (GPa) = 45.41835 47.13794 46.27814
# Shear Modulus (GPa) = -55.58217 23.57895 -16.00161
#
# Velocity S-wave (km/s) = -4.72118 3.07500 -2.53317
# Velocity P-wave (km/s) = 3.39201 5.61344 3.16267
#
# Compressibility (1/GPa) = 0.02201753
#
# Stress axis : x y z
#
# Youngs Moduli (GPa) = 94.82866 136.20368 95.98284
#
# Poissons Ratio (x) = 0.15502 0.08384
# Poissons Ratio (y) = 0.10793 0.10870
# Poissons Ratio (z) = 0.08283 0.15425
#
# Static dielectric constant tensor:
#      x y z
#    x 1.982340 0.000000 0.000000 
#    y 0.000000 2.232390 0.000000 
#    z 0.000000 0.000000 2.251610 
# 
# From -- ./inp_files/2989.got.cif
#   From: 2010.05.17/outbox.cif.g08.bks.cpg/sg50_2_cif.got.tgz:2989.got - 2010.06.03 11:33:33.
