data_PCOD9397052
_publ_section_title
;
Structure prediction by ZEFSAII (Michael W. Deem and Ramdas Pophale) SiO2 
 PCOD9397052
Probable space group: P B A N
;
_chemical_formula_sum "Si O2"
_cell_formula_units_Z 56
_cell_length_a 14.816242
_cell_length_b 28.538277
_cell_length_c 5.543005
_cell_angle_alpha 90.000000
_cell_angle_beta 90.000000
_cell_angle_gamma 90.000000
_cell_volume 2343.748906
_symmetry_space_group_name_H-M "P B A N"
_symmetry_group_IT_number 50
_space_group.IT_coordinate_system_code '2'
_symmetry_cell_setting 'orthorhombic'
loop_
_space_group_symop_operation_xyz
x,y,z
1/2-x,1/2-y,z
x,1/2-y,-z
1/2-x,y,-z
-x,-y,-z
1/2+x,1/2+y,-z
-x,1/2+y,z
1/2+x,-y,z
loop_
_atom_site_type_symbol
_atom_site_label
_atom_site_fract_x
_atom_site_fract_y
_atom_site_fract_z
Si Si1 0.802239 0.986342 0.758220
Si Si2 0.880476 0.598323 0.968195
Si Si3 0.500507 0.710316 0.310868
Si Si4 0.355669 0.843907 0.971059
Si Si5 0.696468 0.687840 0.245666
Si Si6 0.946703 0.435219 0.286891
Si Si7 0.484628 0.629003 0.664037
O O1 0.750000 0.987197 0.500000
O O2 0.890455 0.018122 0.733689
O O3 0.750000 0.004737 0.000000
O O4 0.828394 0.934198 0.843077
O O5 0.826032 0.631988 0.790346
O O6 0.955073 0.566061 0.836217
O O7 0.942405 0.632584 0.128121
O O8 0.474413 0.750000 0.500000
O O9 0.417984 0.698085 0.133465
O O10 0.603589 0.717831 0.231113
O O11 0.514383 0.661542 0.450422
O O12 0.386049 0.891901 0.826690
O O13 0.250000 0.836169 0.000000
O O14 0.391020 0.852251 0.239441
O O15 0.750000 0.694553 0.500000
O O16 0.750000 0.698261 0.000000
O O17 0.967452 0.422439 0.564112
#
# Coordination Sequence:
#
# PCOD9397052 Si02
#       7
#     8   8   8   8   8   8   8
#     4  12  30  44  65 110 152 196 259 327 375 443
#     4  11  24  46  71 101 144 202 254 308 386 454
#     4  11  25  47  71 112 153 191 248 322 385 458
#     4  10  22  43  75 110 143 203 251 302 385 463
#     4  12  26  47  79 113 151 204 263 310 386 470
#     4  10  23  42  72  99 149 192 255 310 379 457
#     4  10  21  43  75 101 142 200 245 309 384 458
#
# _framework density 23.893343999999999
#
# number of rings (size 3 to 8) (size 9 to 14) (size 15 to 20)
#    0.000    1.143    4.286    2.143    8.000    5.429 
#    0.000    4.286    0.000    0.000    0.000    0.000 
#    0.000    0.000    0.000    0.000    0.000    0.000 
#
# Total GULP energy -312749.893463 kJ/mol
# GULP energy per Si atom -5584.819526 kJ/mol
# Density = 2.383896 g / cm^3
# Si number density = 23.893344 Si / 1000 Ang^3
#
#
#
# Elastic Constant Matrix: (Units=GPa)
#
#
# Indices 1 2 3 4 5 6 
#
# 1 118.3132 32.6691 65.2487 0.0000 0.0000 0.0000
# 2 32.6691 85.6268 21.4335 0.0000 0.0000 0.0000
# 3 65.2487 21.4335 133.0223 0.0000 0.0000 0.0000
# 4 0.0000 0.0000 0.0000 25.8711 0.0000 0.0000
# 5 0.0000 0.0000 0.0000 0.0000 26.4621 0.0000
# 6 0.0000 0.0000 0.0000 0.0000 0.0000 11.3156
#
#
#
# Elastic Compliance Matrix: (Units=1/GPa)
#
#
# Indices 1 2 3 4 5 6 
#
# 1 0.012448 -0.003356 -0.005565 0.000000 0.000000 0.000000
# 2 -0.003356 0.013074 -0.000460 0.000000 0.000000 0.000000
# 3 -0.005565 -0.000460 0.010321 0.000000 0.000000 0.000000
# 4 0.000000 0.000000 0.000000 0.038653 0.000000 0.000000
# 5 0.000000 0.000000 0.000000 0.000000 0.037790 0.000000
# 6 0.000000 0.000000 0.000000 0.000000 0.000000 0.088374
#
#
# Mechanical properties :
#
#
# Convention : Reuss Voigt Hill
#
# Bulk Modulus (GPa) = 58.54670 63.96277 61.25473
# Shear Modulus (GPa) = 22.21065 27.23715 24.72390
#
# Velocity S-wave (km/s) = 3.05220 3.37997 3.22026
# Velocity P-wave (km/s) = 6.08094 6.48541 6.28643
#
# Compressibility (1/GPa) = 0.01708038
#
# Stress axis : x y z
#
# Youngs Moduli (GPa) = 80.33438 76.48584 96.88580
#
# Poissons Ratio (x) = 0.25671 0.53918
# Poissons Ratio (y) = 0.26962 0.04460
# Poissons Ratio (z) = 0.44707 0.03521
#
# Static dielectric constant tensor:
#      x y z
#    x 2.016600 0.000000 0.000000 
#    y 0.000000 1.937520 0.000000 
#    z 0.000000 0.000000 1.989320 
# 
# From -- ./inp_files/3746.got.cif
#   From: 2010.05.17/outbox.cif.g08.bks.cpg/sg50_2_cif.got.tgz:3746.got - 2010.06.03 11:33:33.
