data_PCOD9397824
_publ_section_title
;
Structure prediction by ZEFSAII (Michael W. Deem and Ramdas Pophale) SiO2 
 PCOD9397824
Probable space group: P B A N
;
_chemical_formula_sum "Si O2"
_cell_formula_units_Z 40
_cell_length_a 24.706245
_cell_length_b 20.044947
_cell_length_c 5.070826
_cell_angle_alpha 90.000000
_cell_angle_beta 90.000000
_cell_angle_gamma 90.000000
_cell_volume 2511.252398
_symmetry_space_group_name_H-M "P B A N"
_symmetry_group_IT_number 50
_space_group.IT_coordinate_system_code '2'
_symmetry_cell_setting 'orthorhombic'
loop_
_space_group_symop_operation_xyz
x,y,z
1/2-x,1/2-y,z
x,1/2-y,-z
1/2-x,y,-z
-x,-y,-z
1/2+x,1/2+y,-z
-x,1/2+y,z
1/2+x,-y,z
loop_
_atom_site_type_symbol
_atom_site_label
_atom_site_fract_x
_atom_site_fract_y
_atom_site_fract_z
Si Si1 0.070959 0.008378 0.215598
Si Si2 0.520012 0.293435 0.757894
Si Si3 0.312749 0.827031 0.423593
Si Si4 0.958863 0.574615 0.720464
Si Si5 0.373827 0.875667 0.908198
O O1 0.079445 0.040882 0.501843
O O2 0.108450 0.952681 0.077307
O O3 0.065610 0.068155 0.009769
O O4 0.014008 0.969293 0.256195
O O5 0.534946 0.250000 0.500000
O O6 0.479127 0.351102 0.663370
O O7 0.572506 0.329990 0.886245
O O8 0.497344 0.250000 0.000000
O O9 0.324273 0.750000 0.500000
O O10 0.250000 0.837156 0.500000
O O11 0.346741 0.870707 0.623944
O O12 0.333502 0.846623 0.131847
#
# Coordination Sequence:
#
# PCOD9397824 Si02
#       5
#     8   8   8   8   8
#     4   9  17  29  45  61  80 110 145 186 221 254
#     4  11  20  29  44  66  91 119 151 187 222 259
#     4  11  22  34  46  62  87 116 147 190 240 276
#     4   9  17  29  42  61  87 111 142 181 222 259
#     4  11  20  32  48  64  83 112 157 195 223 263
#
# _framework density 15.928307999999999
#
# number of rings (size 3 to 8) (size 9 to 14) (size 15 to 20)
#    0.000    1.800    0.000    6.600    0.000    8.000 
#    0.000    0.000    0.000    0.000    0.000    0.000 
#    0.000    0.000    0.000    0.000    0.000  210.000 
#
# Total GULP energy -222697.749420 kJ/mol
# GULP energy per Si atom -5567.443736 kJ/mol
# Density = 1.589205 g / cm^3
# Si number density = 15.928308 Si / 1000 Ang^3
#
#
#
# Elastic Constant Matrix: (Units=GPa)
#
#
# Indices 1 2 3 4 5 6 
#
# 1 18.2126 19.7053 -7.7648 0.0000 0.0000 0.0000
# 2 19.7053 60.7541 18.3486 0.0000 0.0000 0.0000
# 3 -7.7648 18.3486 67.7713 0.0000 0.0000 0.0000
# 4 0.0000 0.0000 0.0000 24.6923 0.0000 0.0000
# 5 0.0000 0.0000 0.0000 0.0000 14.4890 0.0000
# 6 0.0000 0.0000 0.0000 0.0000 0.0000 12.5001
#
#
#
# Elastic Compliance Matrix: (Units=1/GPa)
#
#
# Indices 1 2 3 4 5 6 
#
# 1 0.113661 -0.044431 0.025052 0.000000 0.000000 0.000000
# 2 -0.044431 0.035294 -0.014646 0.000000 0.000000 0.000000
# 3 0.025052 -0.014646 0.021591 0.000000 0.000000 0.000000
# 4 0.000000 0.000000 0.000000 0.040498 0.000000 0.000000
# 5 0.000000 0.000000 0.000000 0.000000 0.069018 0.000000
# 6 0.000000 0.000000 0.000000 0.000000 0.000000 0.079999
#
#
# Mechanical properties :
#
#
# Convention : Reuss Voigt Hill
#
# Bulk Modulus (GPa) = 9.75661 23.03514 16.39587
# Shear Modulus (GPa) = 10.81601 18.09955 14.45778
#
# Velocity S-wave (km/s) = 2.60867 3.37458 3.01604
# Velocity P-wave (km/s) = 3.90028 5.44765 4.73757
#
# Compressibility (1/GPa) = 0.10249460
#
# Stress axis : x y z
#
# Youngs Moduli (GPa) = 8.79813 28.33322 46.31520
#
# Poissons Ratio (x) = 1.25888 -1.16028
# Poissons Ratio (y) = 0.39091 0.67835
# Poissons Ratio (z) = -0.22041 0.41498
#
# Static dielectric constant tensor:
#      x y z
#    x 1.558090 0.000000 0.000000 
#    y 0.000000 1.640690 0.000000 
#    z 0.000000 0.000000 1.550600 
# 
# From -- ./inp_files/5901.got.cif
#   From: 2010.05.17/outbox.cif.g08.bks.cpg/sg50_3_cif.got.tgz:5901.got - 2010.06.03 11:33:33.
