data_PCOD9397888
_publ_section_title
;
Structure prediction by ZEFSAII (Michael W. Deem and Ramdas Pophale) SiO2 
 PCOD9397888
Probable space group: P B A N
;
_chemical_formula_sum "Si O2"
_cell_formula_units_Z 56
_cell_length_a 15.081570
_cell_length_b 9.590146
_cell_length_c 20.584595
_cell_angle_alpha 90.000000
_cell_angle_beta 90.000000
_cell_angle_gamma 90.000000
_cell_volume 2977.241745
_symmetry_space_group_name_H-M "P B A N"
_symmetry_group_IT_number 50
_space_group.IT_coordinate_system_code '2'
_symmetry_cell_setting 'orthorhombic'
loop_
_space_group_symop_operation_xyz
x,y,z
1/2-x,1/2-y,z
x,1/2-y,-z
1/2-x,y,-z
-x,-y,-z
1/2+x,1/2+y,-z
-x,1/2+y,z
1/2+x,-y,z
loop_
_atom_site_type_symbol
_atom_site_label
_atom_site_fract_x
_atom_site_fract_y
_atom_site_fract_z
Si Si1 0.749937 0.918361 0.598872
Si Si2 0.404145 0.037377 0.846568
Si Si3 0.853993 0.215420 0.928265
Si Si4 0.405434 0.080053 0.500085
Si Si5 0.396634 0.967160 0.154870
Si Si6 0.645961 0.786749 0.928530
Si Si7 0.750640 0.580249 0.251057
O O1 0.750000 0.750000 0.597200
O O2 0.659736 0.957945 0.560553
O O3 0.840378 0.957873 0.560812
O O4 0.749585 0.961584 0.673728
O O5 0.371067 0.941935 0.906280
O O6 0.503014 0.998865 0.827867
O O7 0.401076 0.193473 0.874567
O O8 0.337251 0.028463 0.786973
O O9 0.750000 0.250000 0.930258
O O10 0.890450 0.309283 0.869449
O O11 0.890651 0.250000 0.000000
O O12 0.418821 0.250000 0.500000
O O13 0.500000 0.000000 0.500000
O O14 0.368588 0.054787 0.091011
O O15 0.330869 0.014366 0.211389
O O16 0.750000 0.750000 0.925094
O O17 0.613782 0.750000 0.000000
O O18 0.750000 0.750000 0.246881
#
# Coordination Sequence:
#
# PCOD9397888 Si02
#       7
#     8   8   8   8   8   8   8
#     4   8  18  35  61  86 118 161 192 224 273 329
#     4  12  23  37  58  81 108 145 190 237 294 344
#     4  11  23  39  57  78 111 147 180 240 311 355
#     4   9  17  35  64  96 122 151 191 231 270 322
#     4  12  23  37  58  81 108 145 190 237 294 344
#     4  11  21  39  61  80 103 139 192 244 287 347
#     4  11  21  41  59  81 115 154 199 233 269 334
#
# _framework density 18.809356000000001
#
# number of rings (size 3 to 8) (size 9 to 14) (size 15 to 20)
#    0.000    1.429    4.286    2.571    0.000    6.857 
#    0.000    1.429    6.286    0.000    0.000    0.000 
#    0.000    0.000    0.000    0.000    0.000    0.000 
#
# Total GULP energy -312541.736439 kJ/mol
# GULP energy per Si atom -5581.102436 kJ/mol
# Density = 1.876655 g / cm^3
# Si number density = 18.809356 Si / 1000 Ang^3
#
#
#
# Elastic Constant Matrix: (Units=GPa)
#
#
# Indices 1 2 3 4 5 6 
#
# 1 171.0442 12.7831 64.9060 0.0000 0.0000 0.0000
# 2 12.7831 37.8456 7.1713 0.0000 0.0000 0.0000
# 3 64.9060 7.1713 149.1846 0.0000 0.0000 0.0000
# 4 0.0000 0.0000 0.0000 15.5144 0.0000 0.0000
# 5 0.0000 0.0000 0.0000 0.0000 -52.0437 0.0000
# 6 0.0000 0.0000 0.0000 0.0000 0.0000 28.4168
#
#
#
# Elastic Compliance Matrix: (Units=1/GPa)
#
#
# Indices 1 2 3 4 5 6 
#
# 1 0.007127 -0.001836 -0.003012 0.000000 0.000000 0.000000
# 2 -0.001836 0.027139 -0.000506 0.000000 0.000000 0.000000
# 3 -0.003012 -0.000506 0.008038 0.000000 0.000000 0.000000
# 4 0.000000 0.000000 0.000000 0.064456 0.000000 0.000000
# 5 0.000000 0.000000 0.000000 0.000000 -0.019215 0.000000
# 6 0.000000 0.000000 0.000000 0.000000 0.000000 0.035190
#
#
# Mechanical properties :
#
#
# Convention : Reuss Voigt Hill
#
# Bulk Modulus (GPa) = 31.65034 58.64391 45.14713
# Shear Modulus (GPa) = 34.72788 16.59179 25.65984
#
# Velocity S-wave (km/s) = 4.30153 2.97324 3.69752
# Velocity P-wave (km/s) = 6.44471 6.55993 6.50258
#
# Compressibility (1/GPa) = 0.03159524
#
# Stress axis : x y z
#
# Youngs Moduli (GPa) = 140.31554 36.84703 124.40882
#
# Poissons Ratio (x) = 0.06767 0.37477
# Poissons Ratio (y) = 0.25767 0.06290
# Poissons Ratio (z) = 0.42269 0.01863
#
# Static dielectric constant tensor:
#      x y z
#    x 1.674490 0.000000 0.000000 
#    y 0.000000 1.643970 0.000000 
#    z 0.000000 0.000000 1.648610 
# 
# From -- ./inp_files/30982.got.cif
#   From: 2010.05.17/outbox.cif.g08.bks.cpg/sg50_16_cif.got.tgz:30982.got - 2010.06.03 11:33:33.
