data_PCOD9397223
_publ_section_title
;
Structure prediction by ZEFSAII (Michael W. Deem and Ramdas Pophale) SiO2 
 PCOD9397223
Probable space group: P B A N
;
_chemical_formula_sum "Si O2"
_cell_formula_units_Z 58
_cell_length_a 11.294554
_cell_length_b 8.692403
_cell_length_c 27.715192
_cell_angle_alpha 90.000000
_cell_angle_beta 90.000000
_cell_angle_gamma 90.000000
_cell_volume 2720.989280
_symmetry_space_group_name_H-M "P B A N"
_symmetry_group_IT_number 50
_space_group.IT_coordinate_system_code '2'
_symmetry_cell_setting 'orthorhombic'
loop_
_space_group_symop_operation_xyz
x,y,z
1/2-x,1/2-y,z
x,1/2-y,-z
1/2-x,y,-z
-x,-y,-z
1/2+x,1/2+y,-z
-x,1/2+y,z
1/2+x,-y,z
loop_
_atom_site_type_symbol
_atom_site_label
_atom_site_fract_x
_atom_site_fract_y
_atom_site_fract_z
Si Si1 0.491871 0.608596 0.682560
Si Si2 0.349895 0.979000 0.835845
Si Si3 0.027663 0.797650 0.886319
Si Si4 0.250000 0.250000 0.000000
Si Si5 0.641382 0.143995 0.270765
Si Si6 0.622679 0.925472 0.518420
Si Si7 0.868625 0.650885 0.629656
Si Si8 0.830006 0.936317 0.084547
O O1 0.599110 0.495043 0.695686
O O2 0.461458 0.724371 0.726667
O O3 0.527676 0.724426 0.639809
O O4 0.389668 0.489916 0.666564
O O5 0.384058 0.818201 0.860461
O O6 0.333293 0.935346 0.780410
O O7 0.458706 0.093773 0.848019
O O8 0.238188 0.048097 0.864485
O O9 0.930907 0.692666 0.912013
O O10 0.100550 0.905140 0.922254
O O11 0.255682 0.115812 0.957710
O O12 0.750000 0.250000 0.286748
O O13 0.620746 0.750000 0.500000
O O14 0.750000 0.992408 0.500000
O O15 0.625708 0.917437 0.576259
O O16 0.500000 0.000000 0.500000
O O17 0.750000 0.750000 0.636128
#
# Coordination Sequence:
#
# PCOD9397223 Si02
#       8
#     8   8   8   2   8   8   8   8
#     4  10  24  40  62  96 131 175 223 263 345 393
#     4  11  21  41  65  95 129 166 212 277 313 385
#     4  10  22  40  66  93 123 168 211 249 340 370
#     4  12  24  44  66  92 138 160 218 272 320 416
#     4  11  22  40  62  94 129 167 220 266 318 401
#     4  11  23  42  66 102 133 174 235 287 348 414
#     4  11  21  41  66  90 135 178 218 287 335 409
#     4  11  23  43  63  95 129 167 212 266 324 393
#
# _framework density 21.315777000000001
#
# number of rings (size 3 to 8) (size 9 to 14) (size 15 to 20)
#    0.000    1.241    2.759    3.724    0.000    1.931 
#    0.000    4.828    0.000    0.000    0.000    0.000 
#    0.000    0.000    0.000    0.000    0.000    0.000 
#
# Total GULP energy -323013.267072 kJ/mol
# GULP energy per Si atom -5569.194260 kJ/mol
# Density = 2.126726 g / cm^3
# Si number density = 21.315777 Si / 1000 Ang^3
#
#
#
# Elastic Constant Matrix: (Units=GPa)
#
#
# Indices 1 2 3 4 5 6 
#
# 1 215.1309 139.0156 141.2404 0.0000 0.0000 0.0000
# 2 139.0156 204.1938 138.5274 0.0000 0.0000 0.0000
# 3 141.2404 138.5274 212.4726 0.0000 0.0000 0.0000
# 4 0.0000 0.0000 0.0000 20.1505 0.0000 0.0000
# 5 0.0000 0.0000 0.0000 0.0000 41.6643 0.0000
# 6 0.0000 0.0000 0.0000 0.0000 0.0000 52.3636
#
#
#
# Elastic Compliance Matrix: (Units=1/GPa)
#
#
# Indices 1 2 3 4 5 6 
#
# 1 0.009813 -0.004044 -0.003887 0.000000 0.000000 0.000000
# 2 -0.004044 0.010448 -0.004124 0.000000 0.000000 0.000000
# 3 -0.003887 -0.004124 0.009979 0.000000 0.000000 0.000000
# 4 0.000000 0.000000 0.000000 0.049627 0.000000 0.000000
# 5 0.000000 0.000000 0.000000 0.000000 0.024001 0.000000
# 6 0.000000 0.000000 0.000000 0.000000 0.000000 0.019097
#
#
# Mechanical properties :
#
#
# Convention : Reuss Voigt Hill
#
# Bulk Modulus (GPa) = 163.09996 163.26265 163.18130
# Shear Modulus (GPa) = 33.53054 37.03662 35.28358
#
# Velocity S-wave (km/s) = 3.97046 4.17288 4.07293
# Velocity P-wave (km/s) = 9.88441 9.99880 9.94177
#
# Compressibility (1/GPa) = 0.00613121
#
# Stress axis : x y z
#
# Youngs Moduli (GPa) = 101.90144 95.71148 100.21443
#
# Poissons Ratio (x) = 0.38708 0.38950
# Poissons Ratio (y) = 0.41211 0.41324
# Poissons Ratio (z) = 0.39606 0.39467
#
# Static dielectric constant tensor:
#      x y z
#    x 1.856460 0.000000 0.000000 
#    y 0.000000 1.757860 0.000000 
#    z 0.000000 0.000000 1.756750 
# 
# From -- ./inp_files/32195.got.cif
#   From: 2010.05.17/outbox.cif.g08.bks.cpg/sg50_17_cif.got.tgz:32195.got - 2010.06.03 11:33:33.
