data_PCOD9397398
_publ_section_title
;
Structure prediction by ZEFSAII (Michael W. Deem and Ramdas Pophale) SiO2 
 PCOD9397398
Probable space group: P B A N
;
_chemical_formula_sum "Si O2"
_cell_formula_units_Z 30
_cell_length_a 10.616866
_cell_length_b 21.847633
_cell_length_c 5.964325
_cell_angle_alpha 90.000000
_cell_angle_beta 90.000000
_cell_angle_gamma 90.000000
_cell_volume 1383.445415
_symmetry_space_group_name_H-M "P B A N"
_symmetry_group_IT_number 50
_space_group.IT_coordinate_system_code '2'
_symmetry_cell_setting 'orthorhombic'
loop_
_space_group_symop_operation_xyz
x,y,z
1/2-x,1/2-y,z
x,1/2-y,-z
1/2-x,y,-z
-x,-y,-z
1/2+x,1/2+y,-z
-x,1/2+y,z
1/2+x,-y,z
loop_
_atom_site_type_symbol
_atom_site_label
_atom_site_fract_x
_atom_site_fract_y
_atom_site_fract_z
Si Si1 0.750000 0.750000 0.500000
Si Si2 0.750000 0.937561 0.000000
Si Si3 0.917168 0.852940 0.322024
Si Si4 0.615058 0.964624 0.394266
Si Si5 0.293979 0.678174 0.248957
O O1 0.839116 0.791943 0.353057
O O2 0.836876 0.895557 0.156717
O O3 0.646792 0.975527 0.136839
O O4 0.913127 0.893129 0.551881
O O5 0.057020 0.835123 0.252594
O O6 0.750000 0.981421 0.500000
O O7 0.500000 0.000000 0.500000
O O8 0.250000 0.750000 0.250089
O O9 0.250000 0.654660 0.500000
O O10 0.250000 0.654609 0.000000
#
# Coordination Sequence:
#
# PCOD9397398 Si02
#       5
#     2   4   8   8   8
#     4  12  20  42  66 100 138 176 232 290 360 438
#     4  10  22  45  70 102 132 180 241 296 382 430
#     4  11  24  40  66  98 137 181 232 296 355 442
#     4  10  23  46  67 100 135 178 241 302 368 443
#     4  10  23  41  60  92 137 183 234 282 349 429
#
# _framework density 21.684991
#
# number of rings (size 3 to 8) (size 9 to 14) (size 15 to 20)
#    0.000    1.600    4.000    1.600    3.733   10.133 
#    2.400    0.000    0.000    0.000    0.000    0.000 
#    0.000    0.000    0.000    0.000    0.000    0.000 
#
# Total GULP energy -167117.144690 kJ/mol
# GULP energy per Si atom -5570.571490 kJ/mol
# Density = 2.163564 g / cm^3
# Si number density = 21.684991 Si / 1000 Ang^3
#
#
#
# Elastic Constant Matrix: (Units=GPa)
#
#
# Indices 1 2 3 4 5 6 
#
# 1 218.7846 42.6294 70.1621 0.0000 0.0000 0.0000
# 2 42.6294 45.3573 16.6196 0.0000 0.0000 0.0000
# 3 70.1621 16.6196 137.0902 0.0000 0.0000 0.0000
# 4 0.0000 0.0000 0.0000 11.2196 0.0000 0.0000
# 5 0.0000 0.0000 0.0000 0.0000 36.9671 0.0000
# 6 0.0000 0.0000 0.0000 0.0000 0.0000 -15.0076
#
#
#
# Elastic Compliance Matrix: (Units=1/GPa)
#
#
# Indices 1 2 3 4 5 6 
#
# 1 0.006410 -0.005046 -0.002669 0.000000 0.000000 0.000000
# 2 -0.005046 0.027045 -0.000696 0.000000 0.000000 0.000000
# 3 -0.002669 -0.000696 0.008745 0.000000 0.000000 0.000000
# 4 0.000000 0.000000 0.000000 0.089130 0.000000 0.000000
# 5 0.000000 0.000000 0.000000 0.000000 0.027051 0.000000
# 6 0.000000 0.000000 0.000000 0.000000 0.000000 -0.066633
#
#
# Mechanical properties :
#
#
# Convention : Reuss Voigt Hill
#
# Bulk Modulus (GPa) = 39.40520 73.33937 56.37228
# Shear Modulus (GPa) = 42.72442 24.75721 33.74082
#
# Velocity S-wave (km/s) = 4.44354 3.38253 3.94884
# Velocity P-wave (km/s) = 6.67367 7.01064 6.84423
#
# Compressibility (1/GPa) = 0.02537736
#
# Stress axis : x y z
#
# Youngs Moduli (GPa) = 156.01041 36.97519 114.35524
#
# Poissons Ratio (x) = 0.18659 0.30518
# Poissons Ratio (y) = 0.78730 0.07959
# Poissons Ratio (z) = 0.41635 0.02573
#
# Static dielectric constant tensor:
#      x y z
#    x 1.771880 0.000000 0.000000 
#    y 0.000000 1.788990 0.000000 
#    z 0.000000 0.000000 2.023740 
# 
# From -- ./inp_files/2007.got.cif
#   From: 2010.05.17/outbox.cif.g08.bks.cpg/sg50_2_cif.got.tgz:2007.got - 2010.06.03 11:33:33.
