data_PCOD9397815
_publ_section_title
;
Structure prediction by ZEFSAII (Michael W. Deem and Ramdas Pophale) SiO2 
 PCOD9397815
Probable space group: P B A N
;
_chemical_formula_sum "Si O2"
_cell_formula_units_Z 40
_cell_length_a 17.493756
_cell_length_b 8.627694
_cell_length_c 11.483637
_cell_angle_alpha 90.000000
_cell_angle_beta 90.000000
_cell_angle_gamma 90.000000
_cell_volume 1733.234217
_symmetry_space_group_name_H-M "P B A N"
_symmetry_group_IT_number 50
_space_group.IT_coordinate_system_code '2'
_symmetry_cell_setting 'orthorhombic'
loop_
_space_group_symop_operation_xyz
x,y,z
1/2-x,1/2-y,z
x,1/2-y,-z
1/2-x,y,-z
-x,-y,-z
1/2+x,1/2+y,-z
-x,1/2+y,z
1/2+x,-y,z
loop_
_atom_site_type_symbol
_atom_site_label
_atom_site_fract_x
_atom_site_fract_y
_atom_site_fract_z
Si Si1 0.029088 0.168483 0.759009
Si Si2 0.925381 0.082516 0.557815
Si Si3 0.942133 0.090277 0.081936
Si Si4 0.828883 0.846130 0.671915
Si Si5 0.332639 0.415267 0.053421
O O1 0.091196 0.250013 0.676861
O O2 0.956760 0.112562 0.687028
O O3 0.990118 0.272903 0.859445
O O4 0.074325 0.022970 0.810539
O O5 0.911136 0.250000 0.500000
O O6 0.850198 0.976402 0.575885
O O7 0.000000 0.000000 0.500000
O O8 0.870471 0.073133 0.996239
O O9 0.000000 0.000000 0.000000
O O10 0.750000 0.750000 0.652326
O O11 0.827486 0.905364 0.807011
O O12 0.365695 0.250000 0.000000
O O13 0.250000 0.416779 0.000000
#
# Coordination Sequence:
#
# PCOD9397815 Si02
#       5
#     8   8   8   8   8
#     4  12  22  39  67 105 143 191 252 311 380 464
#     4  12  25  48  76 109 146 201 269 338 390 453
#     4  12  20  34  63 103 146 186 240 299 362 466
#     4  12  23  41  73 113 152 201 257 319 402 477
#     4  11  19  36  64 105 152 198 240 294 382 481
#
# _framework density 23.078244000000002
#
# number of rings (size 3 to 8) (size 9 to 14) (size 15 to 20)
#    0.000    0.200   10.000    0.600    0.000    0.000 
#    0.000    2.000    0.000   30.000    0.000    0.000 
#    0.000    0.000    0.000    0.000    0.000    0.000 
#
# Total GULP energy -222882.430864 kJ/mol
# GULP energy per Si atom -5572.060772 kJ/mol
# Density = 2.302572 g / cm^3
# Si number density = 23.078244 Si / 1000 Ang^3
#
#
#
# Elastic Constant Matrix: (Units=GPa)
#
#
# Indices 1 2 3 4 5 6 
#
# 1 134.3159 58.7217 26.6751 0.0000 0.0000 0.0000
# 2 58.7217 128.1611 43.6190 0.0000 0.0000 0.0000
# 3 26.6751 43.6190 84.0144 0.0000 0.0000 0.0000
# 4 0.0000 0.0000 0.0000 39.6605 0.0000 0.0000
# 5 0.0000 0.0000 0.0000 0.0000 32.3167 0.0000
# 6 0.0000 0.0000 0.0000 0.0000 0.0000 -58.8222
#
#
#
# Elastic Compliance Matrix: (Units=1/GPa)
#
#
# Indices 1 2 3 4 5 6 
#
# 1 0.009367 -0.003983 -0.000906 0.000000 0.000000 0.000000
# 2 -0.003983 0.011171 -0.004535 0.000000 0.000000 0.000000
# 3 -0.000906 -0.004535 0.014545 0.000000 0.000000 0.000000
# 4 0.000000 0.000000 0.000000 0.025214 0.000000 0.000000
# 5 0.000000 0.000000 0.000000 0.000000 0.030944 0.000000
# 6 0.000000 0.000000 0.000000 0.000000 0.000000 -0.017000
#
#
# Mechanical properties :
#
#
# Convention : Reuss Voigt Hill
#
# Bulk Modulus (GPa) = 61.59921 67.16922 64.38422
# Shear Modulus (GPa) = 50.76126 17.12938 33.94532
#
# Velocity S-wave (km/s) = 4.69500 2.72735 3.83937
# Velocity P-wave (km/s) = 7.49267 6.25189 6.90022
#
# Compressibility (1/GPa) = 0.01623397
#
# Stress axis : x y z
#
# Youngs Moduli (GPa) = 106.76341 89.51482 68.75228
#
# Poissons Ratio (x) = 0.35657 0.06228
# Poissons Ratio (y) = 0.42527 0.31181
# Poissons Ratio (z) = 0.09671 0.40597
#
# Static dielectric constant tensor:
#      x y z
#    x 1.880300 0.000000 0.000000 
#    y 0.000000 4.464810 0.000000 
#    z 0.000000 0.000000 1.868150 
# 
# From -- ./inp_files/21612.got.cif
#   From: 2010.05.17/outbox.cif.g08.bks.cpg/sg50_11_cif.got.tgz:21612.got - 2010.06.03 11:33:33.
