data_PCOD9397941
_publ_section_title
;
Structure prediction by ZEFSAII (Michael W. Deem and Ramdas Pophale) SiO2 
 PCOD9397941
Probable space group: P B A N
;
_chemical_formula_sum "Si O2"
_cell_formula_units_Z 34
_cell_length_a 9.884020
_cell_length_b 13.918873
_cell_length_c 10.737428
_cell_angle_alpha 90.000000
_cell_angle_beta 90.000000
_cell_angle_gamma 90.000000
_cell_volume 1477.195420
_symmetry_space_group_name_H-M "P B A N"
_symmetry_group_IT_number 50
_space_group.IT_coordinate_system_code '2'
_symmetry_cell_setting 'orthorhombic'
loop_
_space_group_symop_operation_xyz
x,y,z
1/2-x,1/2-y,z
x,1/2-y,-z
1/2-x,y,-z
-x,-y,-z
1/2+x,1/2+y,-z
-x,1/2+y,z
1/2+x,-y,z
loop_
_atom_site_type_symbol
_atom_site_label
_atom_site_fract_x
_atom_site_fract_y
_atom_site_fract_z
Si Si1 0.250000 0.250000 0.000000
Si Si2 0.266218 0.917173 0.859653
Si Si3 0.108925 0.378592 0.444616
Si Si4 0.640817 0.389895 0.397290
Si Si5 0.584101 0.608396 0.170655
O O1 0.353191 0.314657 0.921538
O O2 0.196869 0.865322 0.739824
O O3 0.428428 0.926019 0.844351
O O4 0.186071 0.018433 0.850308
O O5 0.250000 0.877316 0.000000
O O6 0.250000 0.351127 0.500000
O O7 0.120082 0.494148 0.414302
O O8 0.084176 0.342574 0.306444
O O9 0.000567 0.353942 0.549889
O O10 0.750000 0.361709 0.500000
#
# Coordination Sequence:
#
# PCOD9397941 Si02
#       5
#     2   8   8   8   8
#     4  12  28  44  64  84 148 178 214 274 356 408
#     4  11  22  37  68  99 130 165 229 278 326 391
#     4   9  18  31  58  94 129 164 209 267 326 384
#     4   9  16  30  52  92 133 153 199 273 323 360
#     4  11  24  42  64  97 131 177 219 276 335 403
#
# _framework density 23.016589
#
# number of rings (size 3 to 8) (size 9 to 14) (size 15 to 20)
#    0.000    1.882    3.529    0.706    9.882    0.000 
#    0.000    1.176    0.000    0.000    0.000    0.000 
#    0.000    0.000    0.000    0.000    0.000    0.000 
#
# Total GULP energy -189698.656075 kJ/mol
# GULP energy per Si atom -5579.372237 kJ/mol
# Density = 2.296420 g / cm^3
# Si number density = 23.016589 Si / 1000 Ang^3
#
#
#
# Elastic Constant Matrix: (Units=GPa)
#
#
# Indices 1 2 3 4 5 6 
#
# 1 251.8994 30.0677 111.6590 0.0000 0.0000 0.0000
# 2 30.0677 64.1502 34.9298 0.0000 0.0000 0.0000
# 3 111.6590 34.9298 228.5756 0.0000 0.0000 0.0000
# 4 0.0000 0.0000 0.0000 44.6222 0.0000 0.0000
# 5 0.0000 0.0000 0.0000 0.0000 64.5758 0.0000
# 6 0.0000 0.0000 0.0000 0.0000 0.0000 -10.2355
#
#
#
# Elastic Compliance Matrix: (Units=1/GPa)
#
#
# Indices 1 2 3 4 5 6 
#
# 1 0.005142 -0.001137 -0.002338 0.000000 0.000000 0.000000
# 2 -0.001137 0.017255 -0.002081 0.000000 0.000000 0.000000
# 3 -0.002338 -0.002081 0.005835 0.000000 0.000000 0.000000
# 4 0.000000 0.000000 0.000000 0.022410 0.000000 0.000000
# 5 0.000000 0.000000 0.000000 0.000000 0.015486 0.000000
# 6 0.000000 0.000000 0.000000 0.000000 0.000000 -0.097700
#
#
# Mechanical properties :
#
#
# Convention : Reuss Voigt Hill
#
# Bulk Modulus (GPa) = 58.41507 99.77091 79.09299
# Shear Modulus (GPa) = -338.92403 44.32374 -147.30015
#
# Velocity S-wave (km/s) = -12.14791 4.39307 -8.00852
# Velocity P-wave (km/s) = 13.08922 8.31707 7.14682
#
# Compressibility (1/GPa) = 0.01711887
#
# Stress axis : x y z
#
# Youngs Moduli (GPa) = 194.47847 57.95542 171.37549
#
# Poissons Ratio (x) = 0.06589 0.40069
# Poissons Ratio (y) = 0.22112 0.35669
# Poissons Ratio (z) = 0.45471 0.12063
#
# Static dielectric constant tensor:
#      x y z
#    x 1.810030 0.000000 0.000000 
#    y 0.000000 1.904980 0.000000 
#    z 0.000000 0.000000 1.880380 
# 
# From -- ./inp_files/18653.got.cif
#   From: 2010.05.17/outbox.cif.g08.bks.cpg/sg50_10_cif.got.tgz:18653.got - 2010.06.03 11:33:33.
