data_PCOD9397786
_publ_section_title
;
Structure prediction by ZEFSAII (Michael W. Deem and Ramdas Pophale) SiO2 
 PCOD9397786
Probable space group: P B A N
;
_chemical_formula_sum "Si O2"
_cell_formula_units_Z 38
_cell_length_a 13.033647
_cell_length_b 22.791343
_cell_length_c 5.687460
_cell_angle_alpha 90.000000
_cell_angle_beta 90.000000
_cell_angle_gamma 90.000000
_cell_volume 1689.484559
_symmetry_space_group_name_H-M "P B A N"
_symmetry_group_IT_number 50
_space_group.IT_coordinate_system_code '2'
_symmetry_cell_setting 'orthorhombic'
loop_
_space_group_symop_operation_xyz
x,y,z
1/2-x,1/2-y,z
x,1/2-y,-z
1/2-x,y,-z
-x,-y,-z
1/2+x,1/2+y,-z
-x,1/2+y,z
1/2+x,-y,z
loop_
_atom_site_type_symbol
_atom_site_label
_atom_site_fract_x
_atom_site_fract_y
_atom_site_fract_z
Si Si1 0.130414 0.437982 0.956476
Si Si2 0.038152 0.545558 0.696838
Si Si3 0.312595 0.176362 0.750056
Si Si4 0.250000 0.750000 0.000000
Si Si5 0.144487 0.833727 0.358127
Si Si6 0.034637 0.250000 0.500000
O O1 0.094245 0.501185 0.872743
O O2 0.121885 0.383706 0.777616
O O3 0.250000 0.442595 0.000000
O O4 0.061284 0.425144 0.182960
O O5 0.116842 0.597783 0.646697
O O6 0.000000 0.500000 0.500000
O O7 0.250000 0.172152 0.500000
O O8 0.389415 0.230545 0.709477
O O9 0.250000 0.180550 0.000000
O O10 0.173413 0.795418 0.129995
O O11 0.250000 0.825856 0.500000
O O12 0.042728 0.803262 0.457425
#
# Coordination Sequence:
#
# PCOD9397786 Si02
#       6
#     8   8   8   2   8   4
#     4  10  26  47  72 113 148 196 258 326 411 476
#     4  11  27  46  79 111 147 208 259 335 409 484
#     4  11  28  50  79 116 160 207 265 335 410 489
#     4  12  26  48  72 106 166 216 274 332 414 482
#     4  12  28  49  74 113 156 212 270 335 403 493
#     4  12  26  50  74 110 156 212 274 324 404 488
#
# _framework density 22.492065
#
# number of rings (size 3 to 8) (size 9 to 14) (size 15 to 20)
#    0.000    0.842    2.105    1.579   19.158    3.368 
#    0.000    0.000    0.000    0.000    0.000    0.000 
#    0.000    0.000    0.000    0.000    0.000    0.000 
#
# Total GULP energy -211988.230003 kJ/mol
# GULP energy per Si atom -5578.637632 kJ/mol
# Density = 2.244087 g / cm^3
# Si number density = 22.492065 Si / 1000 Ang^3
#
#
#
# Elastic Constant Matrix: (Units=GPa)
#
#
# Indices 1 2 3 4 5 6 
#
# 1 121.9454 42.5588 59.9421 0.0000 0.0000 0.0000
# 2 42.5588 150.3654 40.2167 0.0000 0.0000 0.0000
# 3 59.9421 40.2167 98.1487 0.0000 0.0000 0.0000
# 4 0.0000 0.0000 0.0000 19.0264 0.0000 0.0000
# 5 0.0000 0.0000 0.0000 0.0000 25.4653 0.0000
# 6 0.0000 0.0000 0.0000 0.0000 0.0000 56.7048
#
#
#
# Elastic Compliance Matrix: (Units=1/GPa)
#
#
# Indices 1 2 3 4 5 6 
#
# 1 0.012060 -0.001621 -0.006701 0.000000 0.000000 0.000000
# 2 -0.001621 0.007687 -0.002160 0.000000 0.000000 0.000000
# 3 -0.006701 -0.002160 0.015166 0.000000 0.000000 0.000000
# 4 0.000000 0.000000 0.000000 0.052559 0.000000 0.000000
# 5 0.000000 0.000000 0.000000 0.000000 0.039269 0.000000
# 6 0.000000 0.000000 0.000000 0.000000 0.000000 0.017635
#
#
# Mechanical properties :
#
#
# Convention : Reuss Voigt Hill
#
# Bulk Modulus (GPa) = 71.68860 72.87718 72.28289
# Shear Modulus (GPa) = 29.41354 35.42211 32.41782
#
# Velocity S-wave (km/s) = 3.62018 3.97277 3.80056
# Velocity P-wave (km/s) = 7.02967 7.31543 7.17397
#
# Compressibility (1/GPa) = 0.01394922
#
# Stress axis : x y z
#
# Youngs Moduli (GPa) = 82.91790 130.09091 65.93641
#
# Poissons Ratio (x) = 0.21090 0.44185
# Poissons Ratio (y) = 0.13442 0.14240
# Poissons Ratio (z) = 0.55565 0.28095
#
# Static dielectric constant tensor:
#      x y z
#    x 1.847190 0.000000 0.000000 
#    y 0.000000 1.750460 0.000000 
#    z 0.000000 0.000000 1.929700 
# 
# From -- ./inp_files/2444.got.cif
#   From: 2010.05.17/outbox.cif.g08.bks.cpg/sg50_2_cif.got.tgz:2444.got - 2010.06.03 11:33:33.
