data_PCOD9397927
_publ_section_title
;
Structure prediction by ZEFSAII (Michael W. Deem and Ramdas Pophale) SiO2 
 PCOD9397927
Probable space group: P B A N
;
_chemical_formula_sum "Si O2"
_cell_formula_units_Z 36
_cell_length_a 17.366256
_cell_length_b 16.128186
_cell_length_c 6.847124
_cell_angle_alpha 90.000000
_cell_angle_beta 90.000000
_cell_angle_gamma 90.000000
_cell_volume 1917.784989
_symmetry_space_group_name_H-M "P B A N"
_symmetry_group_IT_number 50
_space_group.IT_coordinate_system_code '2'
_symmetry_cell_setting 'orthorhombic'
loop_
_space_group_symop_operation_xyz
x,y,z
1/2-x,1/2-y,z
x,1/2-y,-z
1/2-x,y,-z
-x,-y,-z
1/2+x,1/2+y,-z
-x,1/2+y,z
1/2+x,-y,z
loop_
_atom_site_type_symbol
_atom_site_label
_atom_site_fract_x
_atom_site_fract_y
_atom_site_fract_z
Si Si1 0.028209 0.750000 0.000000
Si Si2 0.075629 0.471950 0.774961
Si Si3 0.669721 0.533824 0.389148
Si Si4 0.593584 0.086004 0.881339
Si Si5 0.621984 0.834051 0.921420
O O1 0.078678 0.683778 0.116644
O O2 0.965993 0.696352 0.873940
O O3 0.104953 0.470515 0.556362
O O4 0.984559 0.457132 0.798933
O O5 0.099117 0.553661 0.895981
O O6 0.113885 0.396879 0.897598
O O7 0.750000 0.535319 0.500000
O O8 0.660365 0.454367 0.247312
O O9 0.658209 0.615197 0.254847
O O10 0.660346 0.750000 0.000000
#
# Coordination Sequence:
#
# PCOD9397927 Si02
#       5
#     4   8   8   8   8
#     4   8  16  36  60  80 106 148 198 246 294 314
#     4   9  18  35  57  82 107 148 195 238 285 333
#     4  11  22  35  56  88 118 155 191 228 291 355
#     4   9  18  35  59  82 110 146 195 244 282 338
#     4   8  18  36  54  77 117 147 192 242 282 340
#
# _framework density 18.771654999999999
#
# number of rings (size 3 to 8) (size 9 to 14) (size 15 to 20)
#    0.667    2.222    0.000    2.000    0.000    4.444 
#    0.000    6.667    0.000    4.000    0.000    0.000 
#    0.000    0.000    0.000    0.000    0.000    0.000 
#
# Total GULP energy -200453.529735 kJ/mol
# GULP energy per Si atom -5568.153604 kJ/mol
# Density = 1.872893 g / cm^3
# Si number density = 18.771655 Si / 1000 Ang^3
#
#
#
# Elastic Constant Matrix: (Units=GPa)
#
#
# Indices 1 2 3 4 5 6 
#
# 1 47.7181 35.0467 32.7487 0.0000 0.0000 0.0000
# 2 35.0467 115.3688 46.3452 0.0000 0.0000 0.0000
# 3 32.7487 46.3452 100.6038 0.0000 0.0000 0.0000
# 4 0.0000 0.0000 0.0000 15.6932 0.0000 0.0000
# 5 0.0000 0.0000 0.0000 0.0000 28.3688 0.0000
# 6 0.0000 0.0000 0.0000 0.0000 0.0000 6.3096
#
#
#
# Elastic Compliance Matrix: (Units=1/GPa)
#
#
# Indices 1 2 3 4 5 6 
#
# 1 0.030469 -0.006469 -0.006938 0.000000 0.000000 0.000000
# 2 -0.006469 0.012009 -0.003427 0.000000 0.000000 0.000000
# 3 -0.006938 -0.003427 0.013777 0.000000 0.000000 0.000000
# 4 0.000000 0.000000 0.000000 0.063722 0.000000 0.000000
# 5 0.000000 0.000000 0.000000 0.000000 0.035250 0.000000
# 6 0.000000 0.000000 0.000000 0.000000 0.000000 0.158489
#
#
# Mechanical properties :
#
#
# Convention : Reuss Voigt Hill
#
# Bulk Modulus (GPa) = 44.27096 54.66355 49.46725
# Shear Modulus (GPa) = 14.08794 20.04433 17.06614
#
# Velocity S-wave (km/s) = 2.74248 3.27126 3.01847
# Velocity P-wave (km/s) = 5.80202 6.59179 6.20947
#
# Compressibility (1/GPa) = 0.02258817
#
# Stress axis : x y z
#
# Youngs Moduli (GPa) = 32.82007 83.26774 72.58373
#
# Poissons Ratio (x) = 0.53863 0.50362
# Poissons Ratio (y) = 0.21230 0.24872
# Poissons Ratio (z) = 0.22772 0.28534
#
# Static dielectric constant tensor:
#      x y z
#    x 1.715090 0.000000 0.000000 
#    y 0.000000 1.671780 0.000000 
#    z 0.000000 0.000000 1.629440 
# 
# From -- ./inp_files/5112.got.cif
#   From: 2010.05.17/outbox.cif.g08.bks.cpg/sg50_3_cif.got.tgz:5112.got - 2010.06.03 11:33:33.
