data_PCOD9397355
_publ_section_title
;
Structure prediction by ZEFSAII (Michael W. Deem and Ramdas Pophale) SiO2 
 PCOD9397355
Probable space group: P B A N
;
_chemical_formula_sum "Si O2"
_cell_formula_units_Z 24
_cell_length_a 10.913844
_cell_length_b 17.562377
_cell_length_c 5.059137
_cell_angle_alpha 90.000000
_cell_angle_beta 90.000000
_cell_angle_gamma 90.000000
_cell_volume 969.700183
_symmetry_space_group_name_H-M "P B A N"
_symmetry_group_IT_number 50
_space_group.IT_coordinate_system_code '2'
_symmetry_cell_setting 'orthorhombic'
loop_
_space_group_symop_operation_xyz
x,y,z
1/2-x,1/2-y,z
x,1/2-y,-z
1/2-x,y,-z
-x,-y,-z
1/2+x,1/2+y,-z
-x,1/2+y,z
1/2+x,-y,z
loop_
_atom_site_type_symbol
_atom_site_label
_atom_site_fract_x
_atom_site_fract_y
_atom_site_fract_z
Si Si1 0.046789 0.328766 0.597651
Si Si2 0.885510 0.362931 0.084467
Si Si3 0.871419 0.990713 0.651763
O O1 0.104365 0.250000 0.500000
O O2 0.942790 0.344480 0.371046
O O3 0.136622 0.399433 0.659150
O O4 0.973340 0.326728 0.869507
O O5 0.883543 0.456071 0.090576
O O6 0.750000 0.339103 0.000000
O O7 0.750000 0.019378 0.500000
O O8 0.000000 0.000000 0.500000
#
# Coordination Sequence:
#
# PCOD9397355 Si02
#       3
#     8   8   8
#     4  11  24  40  62  96 136 176 219 275 343 408
#     4  11  22  41  66  95 131 177 230 280 330 394
#     4  10  22  43  69  98 131 174 227 279 329 395
#
# _framework density 24.749915999999999
#
# number of rings (size 3 to 8) (size 9 to 14) (size 15 to 20)
#    0.000    1.333    0.000    7.000    0.000    7.333 
#    0.000    0.000    0.000    8.000    0.000    0.000 
#    0.000    0.000    0.000    0.000    0.000    0.000 
#
# Total GULP energy -133962.870368 kJ/mol
# GULP energy per Si atom -5581.786265 kJ/mol
# Density = 2.469358 g / cm^3
# Si number density = 24.749916 Si / 1000 Ang^3
#
#
#
# Elastic Constant Matrix: (Units=GPa)
#
#
# Indices 1 2 3 4 5 6 
#
# 1 97.2311 3.5411 23.6844 0.0000 0.0000 0.0000
# 2 3.5411 188.4825 37.3949 0.0000 0.0000 0.0000
# 3 23.6844 37.3949 136.6488 0.0000 0.0000 0.0000
# 4 0.0000 0.0000 0.0000 48.5092 0.0000 0.0000
# 5 0.0000 0.0000 0.0000 0.0000 20.5009 0.0000
# 6 0.0000 0.0000 0.0000 0.0000 0.0000 -131.3127
#
#
#
# Elastic Compliance Matrix: (Units=1/GPa)
#
#
# Indices 1 2 3 4 5 6 
#
# 1 0.010744 0.000177 -0.001911 0.000000 0.000000 0.000000
# 2 0.000177 0.005613 -0.001567 0.000000 0.000000 0.000000
# 3 -0.001911 -0.001567 0.008078 0.000000 0.000000 0.000000
# 4 0.000000 0.000000 0.000000 0.020615 0.000000 0.000000
# 5 0.000000 0.000000 0.000000 0.000000 0.048778 0.000000
# 6 0.000000 0.000000 0.000000 0.000000 0.000000 -0.007615
#
#
# Mechanical properties :
#
#
# Convention : Reuss Voigt Hill
#
# Bulk Modulus (GPa) = 56.07153 61.28925 58.68039
# Shear Modulus (GPa) = 50.62904 11.38893 31.00899
#
# Velocity S-wave (km/s) = 4.52777 2.14746 3.54346
# Velocity P-wave (km/s) = 7.07380 5.56471 6.36414
#
# Compressibility (1/GPa) = 0.01783436
#
# Stress axis : x y z
#
# Youngs Moduli (GPa) = 93.07758 178.15634 123.79395
#
# Poissons Ratio (x) = -0.03157 0.23652
# Poissons Ratio (y) = -0.01650 0.19396
# Poissons Ratio (z) = 0.17784 0.27913
#
# Static dielectric constant tensor:
#      x y z
#    x 2.009600 0.000000 0.000000 
#    y 0.000000 2.253680 0.000000 
#    z 0.000000 0.000000 1.938080 
# 
# From -- ./inp_files/1659.got.cif
#   From: 2010.05.17/outbox.cif.g08.bks.cpg/sg50_1_cif.got.tgz:1659.got - 2010.06.03 11:33:33.
