data_PCOD9397438
_publ_section_title
;
Structure prediction by ZEFSAII (Michael W. Deem and Ramdas Pophale) SiO2 
 PCOD9397438
Probable space group: P B A N
;
_chemical_formula_sum "Si O2"
_cell_formula_units_Z 32
_cell_length_a 12.661321
_cell_length_b 22.516970
_cell_length_c 5.204111
_cell_angle_alpha 90.000000
_cell_angle_beta 90.000000
_cell_angle_gamma 90.000000
_cell_volume 1483.663866
_symmetry_space_group_name_H-M "P B A N"
_symmetry_group_IT_number 50
_space_group.IT_coordinate_system_code '2'
_symmetry_cell_setting 'orthorhombic'
loop_
_space_group_symop_operation_xyz
x,y,z
1/2-x,1/2-y,z
x,1/2-y,-z
1/2-x,y,-z
-x,-y,-z
1/2+x,1/2+y,-z
-x,1/2+y,z
1/2+x,-y,z
loop_
_atom_site_type_symbol
_atom_site_label
_atom_site_fract_x
_atom_site_fract_y
_atom_site_fract_z
Si Si1 0.818075 0.905644 0.246570
Si Si2 0.362513 0.957865 0.103799
Si Si3 0.446414 0.901747 0.631612
Si Si4 0.869287 0.276500 0.252625
O O1 0.750000 0.898508 0.500000
O O2 0.934012 0.880926 0.314805
O O3 0.838421 0.975962 0.198987
O O4 0.750000 0.884344 0.000000
O O5 0.415245 0.922522 0.343548
O O6 0.250000 0.933874 0.000000
O O7 0.429070 0.954148 0.840390
O O8 0.373397 0.846606 0.716142
O O9 0.750000 0.250000 0.251585
O O10 0.924856 0.250000 0.500000
O O11 0.920639 0.250000 0.000000
#
# Coordination Sequence:
#
# PCOD9397438 Si02
#       4
#     8   8   8   8
#     4  11  23  42  60  91 128 166 219 264 296 380
#     4  11  23  36  60  97 128 162 211 253 318 397
#     4  12  23  39  66  87 128 177 203 258 334 368
#     4  10  23  39  58  88 125 152 207 258 312 381
#
# _framework density 21.56823
#
# number of rings (size 3 to 8) (size 9 to 14) (size 15 to 20)
#    0.000    1.000    0.000    8.250   10.500    0.000 
#    0.000    0.000    0.000    4.500    0.000    0.000 
#    0.000    0.000    0.000    0.000    0.000    0.000 
#
# Total GULP energy -178502.337403 kJ/mol
# GULP energy per Si atom -5578.198044 kJ/mol
# Density = 2.151914 g / cm^3
# Si number density = 21.568230 Si / 1000 Ang^3
#
#
#
# Elastic Constant Matrix: (Units=GPa)
#
#
# Indices 1 2 3 4 5 6 
#
# 1 136.6893 -0.1982 41.8365 0.0000 0.0000 0.0000
# 2 -0.1982 53.5061 3.8648 0.0000 0.0000 0.0000
# 3 41.8365 3.8648 197.2771 0.0000 0.0000 0.0000
# 4 0.0000 0.0000 0.0000 14.6272 0.0000 0.0000
# 5 0.0000 0.0000 0.0000 0.0000 36.5728 0.0000
# 6 0.0000 0.0000 0.0000 0.0000 0.0000 14.1326
#
#
#
# Elastic Compliance Matrix: (Units=1/GPa)
#
#
# Indices 1 2 3 4 5 6 
#
# 1 0.007825 0.000149 -0.001662 0.000000 0.000000 0.000000
# 2 0.000149 0.018719 -0.000398 0.000000 0.000000 0.000000
# 3 -0.001662 -0.000398 0.005429 0.000000 0.000000 0.000000
# 4 0.000000 0.000000 0.000000 0.068366 0.000000 0.000000
# 5 0.000000 0.000000 0.000000 0.000000 0.027343 0.000000
# 6 0.000000 0.000000 0.000000 0.000000 0.000000 0.070759
#
#
# Mechanical properties :
#
#
# Convention : Reuss Voigt Hill
#
# Bulk Modulus (GPa) = 35.52423 53.16430 44.34426
# Shear Modulus (GPa) = 23.62430 35.86448 29.74439
#
# Velocity S-wave (km/s) = 3.31317 4.08222 3.71763
# Velocity P-wave (km/s) = 5.58054 6.84998 6.24759
#
# Compressibility (1/GPa) = 0.02814980
#
# Stress axis : x y z
#
# Youngs Moduli (GPa) = 127.79769 53.42225 184.18423
#
# Poissons Ratio (x) = -0.00796 0.30618
# Poissons Ratio (y) = -0.01905 0.07337
# Poissons Ratio (z) = 0.21244 0.02128
#
# Static dielectric constant tensor:
#      x y z
#    x 1.899130 0.000000 0.000000 
#    y 0.000000 2.048560 0.000000 
#    z 0.000000 0.000000 1.820850 
# 
# From -- ./inp_files/1970.got.cif
#   From: 2010.05.17/outbox.cif.g08.bks.cpg/sg50_1_cif.got.tgz:1970.got - 2010.06.03 11:33:33.
