data_PCOD9397291
_publ_section_title
;
Structure prediction by ZEFSAII (Michael W. Deem and Ramdas Pophale) SiO2 
 PCOD9397291
Probable space group: P B A N
;
_chemical_formula_sum "Si O2"
_cell_formula_units_Z 26
_cell_length_a 7.762715
_cell_length_b 25.026041
_cell_length_c 6.450607
_cell_angle_alpha 90.000000
_cell_angle_beta 90.000000
_cell_angle_gamma 90.000000
_cell_volume 1253.159576
_symmetry_space_group_name_H-M "P B A N"
_symmetry_group_IT_number 50
_space_group.IT_coordinate_system_code '2'
_symmetry_cell_setting 'orthorhombic'
loop_
_space_group_symop_operation_xyz
x,y,z
1/2-x,1/2-y,z
x,1/2-y,-z
1/2-x,y,-z
-x,-y,-z
1/2+x,1/2+y,-z
-x,1/2+y,z
1/2+x,-y,z
loop_
_atom_site_type_symbol
_atom_site_label
_atom_site_fract_x
_atom_site_fract_y
_atom_site_fract_z
Si Si1 0.250000 0.036645 0.500000
Si Si2 0.250000 0.250000 0.500000
Si Si3 0.919290 0.805614 0.119623
Si Si4 0.532830 0.038446 0.798123
Si Si5 0.750000 0.372326 0.000000
O O1 0.368840 0.062881 0.675882
O O2 0.370648 0.000157 0.359121
O O3 0.137435 0.212150 0.650590
O O4 0.953048 0.750000 0.000000
O O5 0.750000 0.829292 0.000000
O O6 0.093481 0.839388 0.102372
O O7 0.656708 0.087364 0.844853
O O8 0.500000 0.000000 0.000000
#
# Coordination Sequence:
#
# PCOD9397291 Si02
#       5
#     4   2   8   8   4
#     4  10  22  42  63  86 131 183 226 277 336 388
#     4   8  18  48  76  90 140 174 210 294 346 406
#     4   9  21  45  67 100 136 170 219 288 347 408
#     4  11  22  43  63  92 134 177 230 287 331 393
#     4  12  23  42  72 100 134 184 227 278 348 412
#
# _framework density 20.747555999999999
#
# number of rings (size 3 to 8) (size 9 to 14) (size 15 to 20)
#    0.000    2.154    3.077    0.462    0.000    2.462 
#   11.077    9.231    0.000    0.000    0.000    0.000 
#    0.000    0.000    0.000    0.000    0.000    0.000 
#
# Total GULP energy -144844.421966 kJ/mol
# GULP energy per Si atom -5570.939306 kJ/mol
# Density = 2.070033 g / cm^3
# Si number density = 20.747556 Si / 1000 Ang^3
#
#
#
# Elastic Constant Matrix: (Units=GPa)
#
#
# Indices 1 2 3 4 5 6 
#
# 1 183.6412 68.1688 80.7684 0.0000 0.0000 0.0000
# 2 68.1688 63.7047 41.8934 0.0000 0.0000 0.0000
# 3 80.7684 41.8934 151.8338 0.0000 0.0000 0.0000
# 4 0.0000 0.0000 0.0000 2.5205 0.0000 0.0000
# 5 0.0000 0.0000 0.0000 0.0000 45.2539 0.0000
# 6 0.0000 0.0000 0.0000 0.0000 0.0000 -13.1831
#
#
#
# Elastic Compliance Matrix: (Units=1/GPa)
#
#
# Indices 1 2 3 4 5 6 
#
# 1 0.009970 -0.008773 -0.002883 0.000000 0.000000 0.000000
# 2 -0.008773 0.026896 -0.002754 0.000000 0.000000 0.000000
# 3 -0.002883 -0.002754 0.008880 0.000000 0.000000 0.000000
# 4 0.000000 0.000000 0.000000 0.396746 0.000000 0.000000
# 5 0.000000 0.000000 0.000000 0.000000 0.022098 0.000000
# 6 0.000000 0.000000 0.000000 0.000000 0.000000 -0.075854
#
#
# Mechanical properties :
#
#
# Convention : Reuss Voigt Hill
#
# Bulk Modulus (GPa) = 59.08188 86.76007 72.92098
# Shear Modulus (GPa) = 11.81483 20.80820 16.31151
#
# Velocity S-wave (km/s) = 2.38892 3.17033 2.80695
# Velocity P-wave (km/s) = 6.01229 7.43701 6.76228
#
# Compressibility (1/GPa) = 0.01692566
#
# Stress axis : x y z
#
# Youngs Moduli (GPa) = 100.30283 37.18009 112.61561
#
# Poissons Ratio (x) = 0.32616 0.32467
# Poissons Ratio (y) = 0.87991 0.31020
# Poissons Ratio (z) = 0.28917 0.10241
#
# Static dielectric constant tensor:
#      x y z
#    x 1.785970 0.000000 0.000000 
#    y 0.000000 1.746540 0.000000 
#    z 0.000000 0.000000 1.778800 
# 
# From -- ./inp_files/880.got.cif
#   From: 2010.05.17/outbox.cif.g08.bks.cpg/sg50_1_cif.got.tgz:880.got - 2010.06.03 11:33:33.
