data_PCOD9397805
_publ_section_title
;
Structure prediction by ZEFSAII (Michael W. Deem and Ramdas Pophale) SiO2 
 PCOD9397805
Probable space group: P B A N
;
_chemical_formula_sum "Si O2"
_cell_formula_units_Z 64
_cell_length_a 26.394837
_cell_length_b 8.793195
_cell_length_c 11.732065
_cell_angle_alpha 90.000000
_cell_angle_beta 90.000000
_cell_angle_gamma 90.000000
_cell_volume 2722.953025
_symmetry_space_group_name_H-M "P B A N"
_symmetry_group_IT_number 50
_space_group.IT_coordinate_system_code '2'
_symmetry_cell_setting 'orthorhombic'
loop_
_space_group_symop_operation_xyz
x,y,z
1/2-x,1/2-y,z
x,1/2-y,-z
1/2-x,y,-z
-x,-y,-z
1/2+x,1/2+y,-z
-x,1/2+y,z
1/2+x,-y,z
loop_
_atom_site_type_symbol
_atom_site_label
_atom_site_fract_x
_atom_site_fract_y
_atom_site_fract_z
Si Si1 0.879318 0.634328 0.818034
Si Si2 0.226698 0.079750 0.608708
Si Si3 0.393159 0.095897 0.433701
Si Si4 0.343909 0.912774 0.986155
Si Si5 0.976011 0.967681 0.121636
Si Si6 0.630041 0.361298 0.595784
Si Si7 0.069017 0.705860 0.812140
Si Si8 0.807668 0.572162 0.227560
O O1 0.906524 0.592844 0.697900
O O2 0.931351 0.659295 0.887625
O O3 0.838847 0.767120 0.786782
O O4 0.853637 0.503488 0.896503
O O5 0.250000 0.250000 0.606496
O O6 0.250000 0.994487 0.500000
O O7 0.168051 0.083118 0.582347
O O8 0.249935 0.039419 0.730547
O O9 0.405143 0.250000 0.500000
O O10 0.407603 0.959747 0.516880
O O11 0.394293 0.867212 0.910043
O O12 0.312238 0.011579 0.898986
O O13 0.318550 0.750000 0.000000
O O14 0.952282 0.130217 0.154737
O O15 0.021606 0.907156 0.199981
O O16 0.000000 0.000000 0.000000
O O17 0.654559 0.250000 0.500000
O O18 0.601029 0.275960 0.696565
O O19 0.662947 0.480621 0.671341
#
# Coordination Sequence:
#
# PCOD9397805 Si02
#       8
#     8   8   8   8   8   8   8   8
#     4  12  23  41  69 104 134 182 237 289 360 422
#     4  11  17  39  68 105 139 164 230 295 340 405
#     4  12  22  41  74 103 135 183 232 290 352 435
#     4  11  23  44  64  96 143 182 227 289 360 421
#     4  12  24  42  71 101 136 183 244 300 351 421
#     4  11  24  44  65  96 146 180 224 288 365 428
#     4  11  25  44  65 105 136 176 236 302 348 420
#     4  11  24  39  70 107 132 181 239 293 353 437
#
# _framework density 23.503895
#
# number of rings (size 3 to 8) (size 9 to 14) (size 15 to 20)
#    0.000    0.625    7.500    1.500    5.250    1.000 
#    0.000    5.000    0.000    0.750    0.000    0.000 
#    0.000    0.000    0.000    0.000    0.000    0.000 
#
# Total GULP energy -356409.735720 kJ/mol
# GULP energy per Si atom -5568.902121 kJ/mol
# Density = 2.345040 g / cm^3
# Si number density = 23.503895 Si / 1000 Ang^3
#
#
#
# Elastic Constant Matrix: (Units=GPa)
#
#
# Indices 1 2 3 4 5 6 
#
# 1 48.2396 -0.2915 11.7836 0.0000 0.0000 0.0000
# 2 -0.2915 94.1998 56.7265 0.0000 0.0000 0.0000
# 3 11.7836 56.7265 168.7271 0.0000 0.0000 0.0000
# 4 0.0000 0.0000 0.0000 55.9107 0.0000 0.0000
# 5 0.0000 0.0000 0.0000 0.0000 28.9864 0.0000
# 6 0.0000 0.0000 0.0000 0.0000 0.0000 16.7914
#
#
#
# Elastic Compliance Matrix: (Units=1/GPa)
#
#
# Indices 1 2 3 4 5 6 
#
# 1 0.021197 0.001200 -0.001884 0.000000 0.000000 0.000000
# 2 0.001200 0.013379 -0.004582 0.000000 0.000000 0.000000
# 3 -0.001884 -0.004582 0.007599 0.000000 0.000000 0.000000
# 4 0.000000 0.000000 0.000000 0.017886 0.000000 0.000000
# 5 0.000000 0.000000 0.000000 0.000000 0.034499 0.000000
# 6 0.000000 0.000000 0.000000 0.000000 0.000000 0.059554
#
#
# Mechanical properties :
#
#
# Convention : Reuss Voigt Hill
#
# Bulk Modulus (GPa) = 31.60207 49.73373 40.66790
# Shear Modulus (GPa) = 28.54006 36.53423 32.53714
#
# Velocity S-wave (km/s) = 3.48842 3.94685 3.72469
# Velocity P-wave (km/s) = 5.44978 6.47888 5.98648
#
# Compressibility (1/GPa) = 0.03164349
#
# Stress axis : x y z
#
# Youngs Moduli (GPa) = 47.17581 74.74674 131.60197
#
# Poissons Ratio (x) = -0.08970 0.24792
# Poissons Ratio (y) = -0.05661 0.60296
# Poissons Ratio (z) = 0.08887 0.34247
#
# Static dielectric constant tensor:
#      x y z
#    x 1.992260 0.000000 0.000000 
#    y 0.000000 1.990580 0.000000 
#    z 0.000000 0.000000 1.998540 
# 
# From -- ./inp_files/23431.got.cif
#   From: 2010.05.17/outbox.cif.g08.bks.cpg/sg50_12_cif.got.tgz:23431.got - 2010.06.03 11:33:33.
