data_PCOD9397628
_publ_section_title
;
Structure prediction by ZEFSAII (Michael W. Deem and Ramdas Pophale) SiO2 
 PCOD9397628
Probable space group: P B A N
;
_chemical_formula_sum "Si O2"
_cell_formula_units_Z 36
_cell_length_a 22.353968
_cell_length_b 8.558219
_cell_length_c 9.463653
_cell_angle_alpha 90.000000
_cell_angle_beta 90.000000
_cell_angle_gamma 90.000000
_cell_volume 1810.492910
_symmetry_space_group_name_H-M "P B A N"
_symmetry_group_IT_number 50
_space_group.IT_coordinate_system_code '2'
_symmetry_cell_setting 'orthorhombic'
loop_
_space_group_symop_operation_xyz
x,y,z
1/2-x,1/2-y,z
x,1/2-y,-z
1/2-x,y,-z
-x,-y,-z
1/2+x,1/2+y,-z
-x,1/2+y,z
1/2+x,-y,z
loop_
_atom_site_type_symbol
_atom_site_label
_atom_site_fract_x
_atom_site_fract_y
_atom_site_fract_z
Si Si1 0.750000 0.250000 0.000000
Si Si2 0.333760 0.853704 0.751365
Si Si3 0.681553 0.712583 0.834173
Si Si4 0.075390 0.324885 0.345242
Si Si5 0.750000 0.250000 0.500000
Si Si6 0.454357 0.811005 0.340151
O O1 0.699004 0.239739 0.124631
O O2 0.294675 0.841443 0.606505
O O3 0.399132 0.781132 0.728153
O O4 0.333097 0.032840 0.801143
O O5 0.750000 0.750000 0.794680
O O6 0.635047 0.812451 0.745425
O O7 0.675936 0.750000 0.000000
O O8 0.086729 0.250000 0.500000
O O9 0.056727 0.505101 0.349757
O O10 0.019557 0.229927 0.278326
O O11 0.457755 0.750000 0.500000
#
# Coordination Sequence:
#
# PCOD9397628 Si02
#       6
#     2   8   8   8   2   8
#     4  10  24  38  66  94 136 178 216 262 332 386
#     4  11  23  42  67  97 135 174 225 270 332 400
#     4  11  26  44  65  94 139 175 219 267 331 395
#     4  11  24  42  68  97 129 173 221 277 333 391
#     4  10  24  38  70  98 132 170 224 274 336 386
#     4  11  22  42  69  96 131 169 224 277 333 390
#
# _framework density 19.884087999999998
#
# number of rings (size 3 to 8) (size 9 to 14) (size 15 to 20)
#    0.000    1.111    1.111    6.667    9.333    0.444 
#    2.000    2.222    0.000    0.000    0.000    0.000 
#    0.000    0.000    0.000    0.000    0.000    0.000 
#
# Total GULP energy -200644.732538 kJ/mol
# GULP energy per Si atom -5573.464793 kJ/mol
# Density = 1.983883 g / cm^3
# Si number density = 19.884088 Si / 1000 Ang^3
#
#
#
# Elastic Constant Matrix: (Units=GPa)
#
#
# Indices 1 2 3 4 5 6 
#
# 1 179.4544 20.3014 65.1198 0.0000 0.0000 0.0000
# 2 20.3014 146.6073 23.3861 0.0000 0.0000 0.0000
# 3 65.1198 23.3861 95.3112 0.0000 0.0000 0.0000
# 4 0.0000 0.0000 0.0000 52.0245 0.0000 0.0000
# 5 0.0000 0.0000 0.0000 0.0000 39.4402 0.0000
# 6 0.0000 0.0000 0.0000 0.0000 0.0000 65.0590
#
#
#
# Elastic Compliance Matrix: (Units=1/GPa)
#
#
# Indices 1 2 3 4 5 6 
#
# 1 0.007417 -0.000228 -0.005012 0.000000 0.000000 0.000000
# 2 -0.000228 0.007106 -0.001588 0.000000 0.000000 0.000000
# 3 -0.005012 -0.001588 0.014306 0.000000 0.000000 0.000000
# 4 0.000000 0.000000 0.000000 0.019222 0.000000 0.000000
# 5 0.000000 0.000000 0.000000 0.000000 0.025355 0.000000
# 6 0.000000 0.000000 0.000000 0.000000 0.000000 0.015371
#
#
# Mechanical properties :
#
#
# Convention : Reuss Voigt Hill
#
# Bulk Modulus (GPa) = 65.90276 70.99862 68.45069
# Shear Modulus (GPa) = 46.51699 52.14246 49.32972
#
# Velocity S-wave (km/s) = 4.84199 5.12642 4.98623
# Velocity P-wave (km/s) = 8.02965 8.41570 8.22494
#
# Compressibility (1/GPa) = 0.01517387
#
# Stress axis : x y z
#
# Youngs Moduli (GPa) = 134.82969 140.73070 69.90257
#
# Poissons Ratio (x) = 0.03203 0.35032
# Poissons Ratio (y) = 0.03069 0.11101
# Poissons Ratio (z) = 0.67570 0.22348
#
# Static dielectric constant tensor:
#      x y z
#    x 1.759830 0.000000 0.000000 
#    y 0.000000 1.753920 0.000000 
#    z 0.000000 0.000000 1.667980 
# 
# From -- ./inp_files/14970.got.cif
#   From: 2010.05.17/outbox.cif.g08.bks.cpg/sg50_8_cif.got.tgz:14970.got - 2010.06.03 11:33:33.
