data_PCOD9397611
_publ_section_title
;
Structure prediction by ZEFSAII (Michael W. Deem and Ramdas Pophale) SiO2 
 PCOD9397611
Probable space group: P B A N
;
_chemical_formula_sum "Si O2"
_cell_formula_units_Z 32
_cell_length_a 21.519761
_cell_length_b 11.123988
_cell_length_c 5.354939
_cell_angle_alpha 90.000000
_cell_angle_beta 90.000000
_cell_angle_gamma 90.000000
_cell_volume 1281.895088
_symmetry_space_group_name_H-M "P B A N"
_symmetry_group_IT_number 50
_space_group.IT_coordinate_system_code '2'
_symmetry_cell_setting 'orthorhombic'
loop_
_space_group_symop_operation_xyz
x,y,z
1/2-x,1/2-y,z
x,1/2-y,-z
1/2-x,y,-z
-x,-y,-z
1/2+x,1/2+y,-z
-x,1/2+y,z
1/2+x,-y,z
loop_
_atom_site_type_symbol
_atom_site_label
_atom_site_fract_x
_atom_site_fract_y
_atom_site_fract_z
Si Si1 0.812103 0.917358 0.341855
Si Si2 0.250000 0.750000 0.000000
Si Si3 0.077766 0.250000 0.500000
Si Si4 0.350217 0.867749 0.631164
Si Si5 0.750000 0.750000 0.000000
Si Si6 0.036390 0.035768 0.246968
O O1 0.750000 0.879831 0.500000
O O2 0.875704 0.854926 0.419128
O O3 0.798995 0.852371 0.085569
O O4 0.820938 0.055564 0.402275
O O5 0.296461 0.827819 0.823487
O O6 0.042546 0.180451 0.280459
O O7 0.378398 0.750000 0.500000
O O8 0.400440 0.955562 0.757030
O O9 0.000000 0.000000 0.500000
O O10 0.000000 0.000000 0.000000
#
# Coordination Sequence:
#
# PCOD9397611 Si02
#       6
#     8   2   4   8   2   8
#     4  11  22  45  68 114 155 197 255 314 396 501
#     4  12  26  50  84 122 172 218 274 350 464 536
#     4  10  23  48  72 108 148 199 262 326 406 472
#     4  11  28  50  80 118 163 212 274 345 433 524
#     4  12  22  38  80 102 168 210 250 318 404 492
#     4  11  29  53  83 111 156 216 282 348 409 502
#
# _framework density 24.963038999999998
#
# number of rings (size 3 to 8) (size 9 to 14) (size 15 to 20)
#    0.000    1.000    2.500    1.875    5.250    9.000 
#    0.000    0.000    0.000    0.000    0.000    0.000 
#    0.000    0.000    0.000    0.000    0.000    0.000 
#
# Total GULP energy -178554.455416 kJ/mol
# GULP energy per Si atom -5579.826732 kJ/mol
# Density = 2.490622 g / cm^3
# Si number density = 24.963039 Si / 1000 Ang^3
#
#
#
# Elastic Constant Matrix: (Units=GPa)
#
#
# Indices 1 2 3 4 5 6 
#
# 1 112.4266 59.3397 54.6275 0.0000 0.0000 0.0000
# 2 59.3397 195.9845 66.3894 0.0000 0.0000 0.0000
# 3 54.6275 66.3894 100.3682 0.0000 0.0000 0.0000
# 4 0.0000 0.0000 0.0000 48.0848 0.0000 0.0000
# 5 0.0000 0.0000 0.0000 0.0000 40.1123 0.0000
# 6 0.0000 0.0000 0.0000 0.0000 0.0000 44.5345
#
#
#
# Elastic Compliance Matrix: (Units=1/GPa)
#
#
# Indices 1 2 3 4 5 6 
#
# 1 0.012634 -0.001928 -0.005601 0.000000 0.000000 0.000000
# 2 -0.001928 0.006870 -0.003495 0.000000 0.000000 0.000000
# 3 -0.005601 -0.003495 0.015324 0.000000 0.000000 0.000000
# 4 0.000000 0.000000 0.000000 0.020797 0.000000 0.000000
# 5 0.000000 0.000000 0.000000 0.000000 0.024930 0.000000
# 6 0.000000 0.000000 0.000000 0.000000 0.000000 0.022454
#
#
# Mechanical properties :
#
#
# Convention : Reuss Voigt Hill
#
# Bulk Modulus (GPa) = 78.24911 85.49916 81.87413
# Shear Modulus (GPa) = 38.66497 41.77450 40.21974
#
# Velocity S-wave (km/s) = 3.93986 4.09523 4.01829
# Velocity P-wave (km/s) = 7.21878 7.52900 7.37552
#
# Compressibility (1/GPa) = 0.01277970
#
# Stress axis : x y z
#
# Youngs Moduli (GPa) = 79.15321 145.55857 65.25909
#
# Poissons Ratio (x) = 0.28062 0.36551
# Poissons Ratio (y) = 0.15260 0.22808
# Poissons Ratio (z) = 0.44333 0.50872
#
# Static dielectric constant tensor:
#      x y z
#    x 2.093590 0.000000 0.000000 
#    y 0.000000 2.014920 0.000000 
#    z 0.000000 0.000000 2.132160 
# 
# From -- ./inp_files/4958.got.cif
#   From: 2010.05.17/outbox.cif.g08.bks.cpg/sg50_3_cif.got.tgz:4958.got - 2010.06.03 11:33:33.
