data_PCOD9397087
_publ_section_title
;
Structure prediction by ZEFSAII (Michael W. Deem and Ramdas Pophale) SiO2 
 PCOD9397087
Probable space group: P B A N
;
_chemical_formula_sum "Si O2"
_cell_formula_units_Z 64
_cell_length_a 14.655090
_cell_length_b 24.465174
_cell_length_c 9.360946
_cell_angle_alpha 90.000000
_cell_angle_beta 90.000000
_cell_angle_gamma 90.000000
_cell_volume 3356.267277
_symmetry_space_group_name_H-M "P B A N"
_symmetry_group_IT_number 50
_space_group.IT_coordinate_system_code '2'
_symmetry_cell_setting 'orthorhombic'
loop_
_space_group_symop_operation_xyz
x,y,z
1/2-x,1/2-y,z
x,1/2-y,-z
1/2-x,y,-z
-x,-y,-z
1/2+x,1/2+y,-z
-x,1/2+y,z
1/2+x,-y,z
loop_
_atom_site_type_symbol
_atom_site_label
_atom_site_fract_x
_atom_site_fract_y
_atom_site_fract_z
Si Si1 0.098943 0.494787 0.658642
Si Si2 0.148067 0.859752 0.986597
Si Si3 0.646253 0.318182 0.330867
Si Si4 0.963166 0.385746 0.434190
Si Si5 0.163942 0.090274 0.576367
Si Si6 0.225014 0.480477 0.163707
Si Si7 0.646420 0.196317 0.270379
Si Si8 0.042087 0.957059 0.889925
O O1 0.140174 0.461846 0.524932
O O2 0.184795 0.505551 0.762904
O O3 0.056244 0.550564 0.598044
O O4 0.026466 0.458999 0.752750
O O5 0.133983 0.836432 0.830403
O O6 0.067020 0.904290 0.986311
O O7 0.250000 0.886085 0.000000
O O8 0.153527 0.810427 0.100460
O O9 0.591170 0.359187 0.432348
O O10 0.617456 0.254595 0.332479
O O11 0.756362 0.317442 0.343226
O O12 0.750000 0.617823 0.500000
O O13 0.921995 0.351595 0.305642
O O14 0.070934 0.376586 0.433947
O O15 0.192300 0.069298 0.733517
O O16 0.140159 0.521733 0.163667
O O17 0.250000 0.465531 0.000000
O O18 0.000000 0.000000 0.000000
#
# Coordination Sequence:
#
# PCOD9397087 Si02
#       8
#     8   8   8   8   8   8   8   8
#     4  11  24  39  56  83 121 163 196 244 288 354
#     4  10  22  36  59  84 118 159 196 235 296 362
#     4  10  22  39  59  84 120 153 193 246 302 357
#     4  12  22  37  60  83 113 156 199 238 294 360
#     4  10  24  41  56  81 119 153 198 242 293 356
#     4  11  23  37  56  78 120 157 196 242 290 337
#     4  10  22  38  58  89 117 148 194 252 302 354
#     4  12  22  35  56  87 123 154 204 241 282 350
#
# _framework density 19.068805000000001
#
# number of rings (size 3 to 8) (size 9 to 14) (size 15 to 20)
#    0.000    1.250    2.500    3.375    5.250    4.500 
#    0.000    0.000    0.000    1.500    0.000    0.000 
#    0.000    2.000    0.000    0.000    0.000    0.000 
#
# Total GULP energy -356903.410427 kJ/mol
# GULP energy per Si atom -5576.615788 kJ/mol
# Density = 1.902540 g / cm^3
# Si number density = 19.068805 Si / 1000 Ang^3
#
#
#
# Elastic Constant Matrix: (Units=GPa)
#
#
# Indices 1 2 3 4 5 6 
#
# 1 76.1625 10.0992 16.8492 0.0000 0.0000 0.0000
# 2 10.0992 50.2504 9.8810 0.0000 0.0000 0.0000
# 3 16.8492 9.8810 123.0990 0.0000 0.0000 0.0000
# 4 0.0000 0.0000 0.0000 73.6717 0.0000 0.0000
# 5 0.0000 0.0000 0.0000 0.0000 32.7912 0.0000
# 6 0.0000 0.0000 0.0000 0.0000 0.0000 -22.2533
#
#
#
# Elastic Compliance Matrix: (Units=1/GPa)
#
#
# Indices 1 2 3 4 5 6 
#
# 1 0.013829 -0.002446 -0.001697 0.000000 0.000000 0.000000
# 2 -0.002446 0.020652 -0.001323 0.000000 0.000000 0.000000
# 3 -0.001697 -0.001323 0.008462 0.000000 0.000000 0.000000
# 4 0.000000 0.000000 0.000000 0.013574 0.000000 0.000000
# 5 0.000000 0.000000 0.000000 0.000000 0.030496 0.000000
# 6 0.000000 0.000000 0.000000 0.000000 0.000000 -0.044937
#
#
# Mechanical properties :
#
#
# Convention : Reuss Voigt Hill
#
# Bulk Modulus (GPa) = 31.23752 35.90784 33.57268
# Shear Modulus (GPa) = 78.52061 31.02077 54.77069
#
# Velocity S-wave (km/s) = 6.42393 4.03771 5.36517
# Velocity P-wave (km/s) = 8.45219 6.37252 7.48494
#
# Compressibility (1/GPa) = 0.03201279
#
# Stress axis : x y z
#
# Youngs Moduli (GPa) = 72.30939 48.42139 118.17599
#
# Poissons Ratio (x) = 0.11843 0.20050
# Poissons Ratio (y) = 0.17685 0.15634
# Poissons Ratio (z) = 0.12268 0.06406
#
# Static dielectric constant tensor:
#      x y z
#    x 1.566080 0.000000 0.000000 
#    y 0.000000 1.720820 0.000000 
#    z 0.000000 0.000000 1.765260 
# 
# From -- ./inp_files/11835.got.cif
#   From: 2010.05.17/outbox.cif.g08.bks.cpg/sg50_6_cif.got.tgz:11835.got - 2010.06.03 11:33:33.
