data_PCOD9397926
_publ_section_title
;
Structure prediction by ZEFSAII (Michael W. Deem and Ramdas Pophale) SiO2 
 PCOD9397926
Probable space group: P B A N
;
_chemical_formula_sum "Si O2"
_cell_formula_units_Z 64
_cell_length_a 13.417923
_cell_length_b 22.153621
_cell_length_c 11.744217
_cell_angle_alpha 90.000000
_cell_angle_beta 90.000000
_cell_angle_gamma 90.000000
_cell_volume 3491.034045
_symmetry_space_group_name_H-M "P B A N"
_symmetry_group_IT_number 50
_space_group.IT_coordinate_system_code '2'
_symmetry_cell_setting 'orthorhombic'
loop_
_space_group_symop_operation_xyz
x,y,z
1/2-x,1/2-y,z
x,1/2-y,-z
1/2-x,y,-z
-x,-y,-z
1/2+x,1/2+y,-z
-x,1/2+y,z
1/2+x,-y,z
loop_
_atom_site_type_symbol
_atom_site_label
_atom_site_fract_x
_atom_site_fract_y
_atom_site_fract_z
Si Si1 0.870404 0.677144 0.000001
Si Si2 0.635929 0.375285 0.632351
Si Si3 0.135936 0.624715 0.367643
Si Si4 0.250004 0.178492 0.628028
Si Si5 0.439938 0.128480 0.240047
Si Si6 0.560055 0.628481 0.759951
Si Si7 0.866649 0.979202 0.628665
Si Si8 0.366644 0.020798 0.371330
O O1 0.919175 0.646633 0.110838
O O2 0.885150 0.750000 0.000000
O O3 0.750000 0.667206 0.000000
O O4 0.919177 0.646633 0.889165
O O5 0.749996 0.358279 0.662312
O O6 0.618833 0.358223 0.499997
O O7 0.547824 0.352208 0.712818
O O8 0.630355 0.448543 0.637111
O O9 0.130362 0.551457 0.362884
O O10 0.047834 0.647793 0.287172
O O11 0.250000 0.250000 0.625289
O O12 0.250000 0.154954 0.500000
O O13 0.149619 0.159138 0.690389
O O14 0.350394 0.159140 0.690379
O O15 0.424047 0.058232 0.275438
O O16 0.575946 0.558234 0.724555
O O17 0.750003 0.963176 0.637906
O O18 0.901437 0.962603 0.499996
#
# Coordination Sequence:
#
# PCOD9397926 Si02
#       8
#     8   8   8   8   8   8   8   8
#     4  11  24  42  58  75 103 145 192 241 291 332
#     4   9  19  34  55  86 122 153 179 216 274 346
#     4   9  19  34  55  86 122 153 179 216 274 346
#     4  11  22  33  53  85 109 130 175 243 301 338
#     4  12  20  34  57  78 109 149 191 230 280 330
#     4  12  20  34  57  78 109 149 191 230 280 330
#     4   9  16  29  52  85 119 147 178 221 277 344
#     4   9  16  29  52  85 119 147 178 221 277 344
#
# _framework density 18.332677
#
# number of rings (size 3 to 8) (size 9 to 14) (size 15 to 20)
#    0.000    1.750    2.500    5.250    0.000    2.000 
#    0.000    3.125    0.000    6.750    0.000    8.750 
#    0.000    0.000    0.000    0.000    0.000    0.000 
#
# Total GULP energy -357110.139755 kJ/mol
# GULP energy per Si atom -5579.845934 kJ/mol
# Density = 1.829095 g / cm^3
# Si number density = 18.332677 Si / 1000 Ang^3
#
#
#
# Elastic Constant Matrix: (Units=GPa)
#
#
# Indices 1 2 3 4 5 6 
#
# 1 173.2481 18.8916 90.3721 0.0000 0.0000 0.0000
# 2 18.8916 24.5838 25.0532 0.0000 0.0000 0.0000
# 3 90.3721 25.0532 162.4803 0.0000 0.0000 0.0000
# 4 0.0000 0.0000 0.0000 -16.8951 0.0000 0.0000
# 5 0.0000 0.0000 0.0000 0.0000 25.7113 0.0000
# 6 0.0000 0.0000 0.0000 0.0000 0.0000 12.0661
#
#
#
# Elastic Compliance Matrix: (Units=1/GPa)
#
#
# Indices 1 2 3 4 5 6 
#
# 1 0.008210 -0.001964 -0.004264 0.000000 0.000000 0.000000
# 2 -0.001964 0.048731 -0.006421 0.000000 0.000000 0.000000
# 3 -0.004264 -0.006421 0.009516 0.000000 0.000000 0.000000
# 4 0.000000 0.000000 0.000000 -0.059189 0.000000 0.000000
# 5 0.000000 0.000000 0.000000 0.000000 0.038893 0.000000
# 6 0.000000 0.000000 0.000000 0.000000 0.000000 0.082877
#
#
# Mechanical properties :
#
#
# Convention : Reuss Voigt Hill
#
# Bulk Modulus (GPa) = 24.29632 69.88291 47.08961
# Shear Modulus (GPa) = 29.75179 19.24280 24.49730
#
# Velocity S-wave (km/s) = 4.03287 3.24334 3.65946
# Velocity P-wave (km/s) = 5.91331 7.22687 6.60284
#
# Compressibility (1/GPa) = 0.04115850
#
# Stress axis : x y z
#
# Youngs Moduli (GPa) = 121.79696 20.52102 105.08333
#
# Poissons Ratio (x) = 0.04031 0.44805
# Poissons Ratio (y) = 0.23923 0.67478
# Poissons Ratio (z) = 0.51932 0.13177
#
# Static dielectric constant tensor:
#      x y z
#    x 1.668350 0.000000 0.000000 
#    y 0.000000 1.678570 0.000000 
#    z 0.000000 0.000000 1.619480 
# 
# From -- ./inp_files/20534.got.cif
#   From: 2010.05.17/outbox.cif.g08.bks.cpg/sg50_11_cif.got.tgz:20534.got - 2010.06.03 11:33:33.
