data_PCOD9397432
_publ_section_title
;
Structure prediction by ZEFSAII (Michael W. Deem and Ramdas Pophale) SiO2 
 PCOD9397432
Probable space group: P B A N
;
_chemical_formula_sum "Si O2"
_cell_formula_units_Z 42
_cell_length_a 8.575256
_cell_length_b 22.719140
_cell_length_c 11.642362
_cell_angle_alpha 90.000000
_cell_angle_beta 90.000000
_cell_angle_gamma 90.000000
_cell_volume 2268.193391
_symmetry_space_group_name_H-M "P B A N"
_symmetry_group_IT_number 50
_space_group.IT_coordinate_system_code '2'
_symmetry_cell_setting 'orthorhombic'
loop_
_space_group_symop_operation_xyz
x,y,z
1/2-x,1/2-y,z
x,1/2-y,-z
1/2-x,y,-z
-x,-y,-z
1/2+x,1/2+y,-z
-x,1/2+y,z
1/2+x,-y,z
loop_
_atom_site_type_symbol
_atom_site_label
_atom_site_fract_x
_atom_site_fract_y
_atom_site_fract_z
Si Si1 0.250000 0.750000 0.000000
Si Si2 0.995730 0.342489 0.027888
Si Si3 0.586729 0.479468 0.266276
Si Si4 0.341695 0.961243 0.898710
Si Si5 0.790255 0.681936 0.184315
Si Si6 0.803558 0.581990 0.370825
O O1 0.133164 0.794394 0.064081
O O2 0.918910 0.405901 0.039508
O O3 0.142639 0.340585 0.111503
O O4 0.062259 0.326036 0.901754
O O5 0.469233 0.500575 0.166471
O O6 0.719841 0.442498 0.200817
O O7 0.679047 0.535126 0.318529
O O8 0.475751 0.447031 0.357229
O O9 0.250000 0.995210 0.000000
O O10 0.750000 0.750000 0.208849
O O11 0.806568 0.640623 0.294176
O O12 0.750000 0.593317 0.500000
#
# Coordination Sequence:
#
# PCOD9397432 Si02
#       6
#     2   8   8   8   8   8
#     4  12  20  34  60  84 114 158 184 232 290 348
#     4  11  21  35  58  88 118 151 188 235 292 361
#     4  10  23  38  57  87 120 156 196 252 292 354
#     4  11  20  34  55  88 124 152 185 234 300 361
#     4  11  22  40  58  85 121 156 194 240 298 354
#     4  11  23  41  62  84 114 159 207 251 295 346
#
# _framework density 18.516939000000001
#
# number of rings (size 3 to 8) (size 9 to 14) (size 15 to 20)
#    0.000    1.143    4.762    2.857    0.000    1.905 
#    0.000    0.000    0.000    0.000    0.000    1.333 
#    0.000    0.000    0.000    0.000    0.000    0.000 
#
# Total GULP energy -234418.961879 kJ/mol
# GULP energy per Si atom -5581.403854 kJ/mol
# Density = 1.847479 g / cm^3
# Si number density = 18.516939 Si / 1000 Ang^3
#
#
#
# Elastic Constant Matrix: (Units=GPa)
#
#
# Indices 1 2 3 4 5 6 
#
# 1 103.8624 33.0162 34.0913 0.0000 0.0000 0.0000
# 2 33.0162 91.4082 47.8188 0.0000 0.0000 0.0000
# 3 34.0913 47.8188 100.6197 0.0000 0.0000 0.0000
# 4 0.0000 0.0000 0.0000 10.7528 0.0000 0.0000
# 5 0.0000 0.0000 0.0000 0.0000 23.2231 0.0000
# 6 0.0000 0.0000 0.0000 0.0000 0.0000 22.0359
#
#
#
# Elastic Compliance Matrix: (Units=1/GPa)
#
#
# Indices 1 2 3 4 5 6 
#
# 1 0.011338 -0.002776 -0.002522 0.000000 0.000000 0.000000
# 2 -0.002776 0.015239 -0.006302 0.000000 0.000000 0.000000
# 3 -0.002522 -0.006302 0.013788 0.000000 0.000000 0.000000
# 4 0.000000 0.000000 0.000000 0.092999 0.000000 0.000000
# 5 0.000000 0.000000 0.000000 0.000000 0.043061 0.000000
# 6 0.000000 0.000000 0.000000 0.000000 0.000000 0.045380
#
#
# Mechanical properties :
#
#
# Convention : Reuss Voigt Hill
#
# Bulk Modulus (GPa) = 58.25656 58.41588 58.33622
# Shear Modulus (GPa) = 19.94197 23.26664 21.60431
#
# Velocity S-wave (km/s) = 3.28526 3.54857 3.41945
# Velocity P-wave (km/s) = 6.77644 6.95741 6.86752
#
# Compressibility (1/GPa) = 0.01716545
#
# Stress axis : x y z
#
# Youngs Moduli (GPa) = 88.19541 65.61989 72.52696
#
# Poissons Ratio (x) = 0.18215 0.18294
# Poissons Ratio (y) = 0.24481 0.45706
# Poissons Ratio (z) = 0.22247 0.41353
#
# Static dielectric constant tensor:
#      x y z
#    x 1.699290 0.000000 0.000000 
#    y 0.000000 1.653180 0.000000 
#    z 0.000000 0.000000 1.632760 
# 
# From -- ./inp_files/19015.got.cif
#   From: 2010.05.17/outbox.cif.g08.bks.cpg/sg50_10_cif.got.tgz:19015.got - 2010.06.03 11:33:33.
