data_PCOD9397691
_publ_section_title
;
Structure prediction by ZEFSAII (Michael W. Deem and Ramdas Pophale) SiO2 
 PCOD9397691
Probable space group: P B A N
;
_chemical_formula_sum "Si O2"
_cell_formula_units_Z 32
_cell_length_a 5.596372
_cell_length_b 18.138842
_cell_length_c 13.716390
_cell_angle_alpha 90.000000
_cell_angle_beta 90.000000
_cell_angle_gamma 90.000000
_cell_volume 1392.374169
_symmetry_space_group_name_H-M "P B A N"
_symmetry_group_IT_number 50
_space_group.IT_coordinate_system_code '2'
_symmetry_cell_setting 'orthorhombic'
loop_
_space_group_symop_operation_xyz
x,y,z
1/2-x,1/2-y,z
x,1/2-y,-z
1/2-x,y,-z
-x,-y,-z
1/2+x,1/2+y,-z
-x,1/2+y,z
1/2+x,-y,z
loop_
_atom_site_type_symbol
_atom_site_label
_atom_site_fract_x
_atom_site_fract_y
_atom_site_fract_z
Si Si1 0.900296 0.822228 0.347474
Si Si2 0.750000 0.250000 0.500000
Si Si3 0.277590 0.473791 0.387459
Si Si4 0.886821 0.172059 0.858730
Si Si5 0.250000 0.250000 0.000000
Si Si6 0.250000 0.953052 0.000000
O O1 0.750000 0.750000 0.323437
O O2 0.727141 0.885940 0.384400
O O3 0.087381 0.800306 0.430556
O O4 0.027164 0.847123 0.248810
O O5 0.250000 0.500382 0.500000
O O6 0.525163 0.500752 0.342819
O O7 0.750000 0.250000 0.850601
O O8 0.098201 0.195815 0.931586
O O9 0.752217 0.103597 0.908066
O O10 0.500000 0.000000 0.000000
#
# Coordination Sequence:
#
# PCOD9397691 Si02
#       6
#     8   2   8   8   2   4
#     4  12  27  44  74 109 149 198 260 323 378 452
#     4  12  26  44  68 112 152 192 264 332 386 426
#     4  10  24  44  70  97 142 199 245 299 374 443
#     4  12  25  46  79 108 146 204 252 305 389 473
#     4  12  20  48  80 102 144 190 250 314 366 472
#     4  12  28  48  79 117 160 196 250 332 400 460
#
# _framework density 22.982329
#
# number of rings (size 3 to 8) (size 9 to 14) (size 15 to 20)
#    0.000    0.500    5.000    2.625    8.750    2.000 
#    0.000    0.000    0.000    0.000    0.000    0.000 
#    0.000    0.000    0.000    0.000    0.000    0.000 
#
# Total GULP energy -179028.073429 kJ/mol
# GULP energy per Si atom -5594.627295 kJ/mol
# Density = 2.293002 g / cm^3
# Si number density = 22.982329 Si / 1000 Ang^3
#
#
#
# Elastic Constant Matrix: (Units=GPa)
#
#
# Indices 1 2 3 4 5 6 
#
# 1 124.0902 51.8211 29.3854 0.0000 0.0000 0.0000
# 2 51.8211 126.7460 19.9497 0.0000 0.0000 0.0000
# 3 29.3854 19.9497 127.7564 0.0000 0.0000 0.0000
# 4 0.0000 0.0000 0.0000 -9.7319 0.0000 0.0000
# 5 0.0000 0.0000 0.0000 0.0000 47.2222 0.0000
# 6 0.0000 0.0000 0.0000 0.0000 0.0000 55.4777
#
#
#
# Elastic Compliance Matrix: (Units=1/GPa)
#
#
# Indices 1 2 3 4 5 6 
#
# 1 0.010072 -0.003848 -0.001716 0.000000 0.000000 0.000000
# 2 -0.003848 0.009559 -0.000608 0.000000 0.000000 0.000000
# 3 -0.001716 -0.000608 0.008317 0.000000 0.000000 0.000000
# 4 0.000000 0.000000 0.000000 -0.102755 0.000000 0.000000
# 5 0.000000 0.000000 0.000000 0.000000 0.021177 0.000000
# 6 0.000000 0.000000 0.000000 0.000000 0.000000 0.018025
#
#
# Mechanical properties :
#
#
# Convention : Reuss Voigt Hill
#
# Bulk Modulus (GPa) = 64.08211 64.54497 64.31354
# Shear Modulus (GPa) = -276.82716 37.08936 -119.86890
#
# Velocity S-wave (km/s) = -10.98698 4.02160 -7.22981
# Velocity P-wave (km/s) = 11.53290 7.05052 6.45360
#
# Compressibility (1/GPa) = 0.01560498
#
# Stress axis : x y z
#
# Youngs Moduli (GPa) = 99.28636 104.61703 120.23686
#
# Poissons Ratio (x) = 0.40256 0.20630
# Poissons Ratio (y) = 0.38204 0.07305
# Poissons Ratio (z) = 0.17035 0.06356
#
# Static dielectric constant tensor:
#      x y z
#    x 1.867560 0.000000 0.000000 
#    y 0.000000 1.843930 0.000000 
#    z 0.000000 0.000000 2.108590 
# 
# From -- ./inp_files/23694.got.cif
#   From: 2010.05.17/outbox.cif.g08.bks.cpg/sg50_12_cif.got.tgz:23694.got - 2010.06.03 11:33:33.
