data_PCOD9397280
_publ_section_title
;
Structure prediction by ZEFSAII (Michael W. Deem and Ramdas Pophale) SiO2 
 PCOD9397280
Probable space group: P B A N
;
_chemical_formula_sum "Si O2"
_cell_formula_units_Z 26
_cell_length_a 16.643815
_cell_length_b 10.431486
_cell_length_c 6.591237
_cell_angle_alpha 90.000000
_cell_angle_beta 90.000000
_cell_angle_gamma 90.000000
_cell_volume 1144.368743
_symmetry_space_group_name_H-M "P B A N"
_symmetry_group_IT_number 50
_space_group.IT_coordinate_system_code '2'
_symmetry_cell_setting 'orthorhombic'
loop_
_space_group_symop_operation_xyz
x,y,z
1/2-x,1/2-y,z
x,1/2-y,-z
1/2-x,y,-z
-x,-y,-z
1/2+x,1/2+y,-z
-x,1/2+y,z
1/2+x,-y,z
loop_
_atom_site_type_symbol
_atom_site_label
_atom_site_fract_x
_atom_site_fract_y
_atom_site_fract_z
Si Si1 0.385262 0.439367 0.407022
Si Si2 0.250000 0.250000 0.500000
Si Si3 0.158136 0.782778 0.262675
Si Si4 0.043301 0.561613 0.196179
O O1 0.310828 0.344491 0.385038
O O2 0.364728 0.567248 0.276058
O O3 0.407096 0.028153 0.356413
O O4 0.467966 0.383503 0.322474
O O5 0.250000 0.750000 0.212914
O O6 0.148535 0.750000 0.500000
O O7 0.103608 0.676597 0.154380
O O8 0.000000 0.500000 0.000000
#
# Coordination Sequence:
#
# PCOD9397280 Si02
#       4
#     8   2   8   8
#     4  10  23  40  65  96 137 179 227 288 350 424
#     4  12  24  44  68 104 142 186 236 298 366 424
#     4   9  18  39  66  94 131 180 230 281 346 420
#     4  10  22  41  68  99 132 179 232 287 352 429
#
# _framework density 22.719949
#
# number of rings (size 3 to 8) (size 9 to 14) (size 15 to 20)
#    0.000    2.154    0.000    3.692   10.769    1.231 
#    0.000    9.231    0.000    1.846    0.000    0.000 
#    0.000    0.000    0.000    0.000    0.000    0.000 
#
# Total GULP energy -144989.044715 kJ/mol
# GULP energy per Si atom -5576.501720 kJ/mol
# Density = 2.266824 g / cm^3
# Si number density = 22.719949 Si / 1000 Ang^3
#
#
#
# Elastic Constant Matrix: (Units=GPa)
#
#
# Indices 1 2 3 4 5 6 
#
# 1 190.2668 106.2635 21.4466 0.0000 0.0000 0.0000
# 2 106.2635 135.4113 48.5900 0.0000 0.0000 0.0000
# 3 21.4466 48.5900 112.8256 0.0000 0.0000 0.0000
# 4 0.0000 0.0000 0.0000 35.7682 0.0000 0.0000
# 5 0.0000 0.0000 0.0000 0.0000 125.9016 0.0000
# 6 0.0000 0.0000 0.0000 0.0000 0.0000 53.7160
#
#
#
# Elastic Compliance Matrix: (Units=1/GPa)
#
#
# Indices 1 2 3 4 5 6 
#
# 1 0.009619 -0.008152 0.001682 0.000000 0.000000 0.000000
# 2 -0.008152 0.015644 -0.005188 0.000000 0.000000 0.000000
# 3 0.001682 -0.005188 0.010778 0.000000 0.000000 0.000000
# 4 0.000000 0.000000 0.000000 0.027958 0.000000 0.000000
# 5 0.000000 0.000000 0.000000 0.000000 0.007943 0.000000
# 6 0.000000 0.000000 0.000000 0.000000 0.000000 0.018616
#
#
# Mechanical properties :
#
#
# Convention : Reuss Voigt Hill
#
# Bulk Modulus (GPa) = 78.58167 87.90044 83.24105
# Shear Modulus (GPa) = 42.33180 60.55740 51.44460
#
# Velocity S-wave (km/s) = 4.32116 5.16834 4.76362
# Velocity P-wave (km/s) = 7.71743 8.62486 8.18373
#
# Compressibility (1/GPa) = 0.01272561
#
# Stress axis : x y z
#
# Youngs Moduli (GPa) = 103.95880 63.92263 92.78543
#
# Poissons Ratio (x) = 0.52112 -0.15611
# Poissons Ratio (y) = 0.84751 0.48134
# Poissons Ratio (z) = -0.17491 0.33161
#
# Static dielectric constant tensor:
#      x y z
#    x 1.809880 0.000000 0.000000 
#    y 0.000000 1.868300 0.000000 
#    z 0.000000 0.000000 1.960710 
# 
# From -- ./inp_files/20659.got.cif
#   From: 2010.05.17/outbox.cif.g08.bks.cpg/sg50_11_cif.got.tgz:20659.got - 2010.06.03 11:33:33.
