data_PCOD9397026
_publ_section_title
;
Structure prediction by ZEFSAII (Michael W. Deem and Ramdas Pophale) SiO2 
 PCOD9397026
Probable space group: P B A N
;
_chemical_formula_sum "Si O2"
_cell_formula_units_Z 44
_cell_length_a 13.636083
_cell_length_b 27.643157
_cell_length_c 5.576080
_cell_angle_alpha 90.000000
_cell_angle_beta 90.000000
_cell_angle_gamma 90.000000
_cell_volume 2101.872036
_symmetry_space_group_name_H-M "P B A N"
_symmetry_group_IT_number 50
_space_group.IT_coordinate_system_code '2'
_symmetry_cell_setting 'orthorhombic'
loop_
_space_group_symop_operation_xyz
x,y,z
1/2-x,1/2-y,z
x,1/2-y,-z
1/2-x,y,-z
-x,-y,-z
1/2+x,1/2+y,-z
-x,1/2+y,z
1/2+x,-y,z
loop_
_atom_site_type_symbol
_atom_site_label
_atom_site_fract_x
_atom_site_fract_y
_atom_site_fract_z
Si Si1 0.149896 0.888443 0.872638
Si Si2 0.978518 0.654390 0.789031
Si Si3 0.807056 0.578492 0.749387
Si Si4 0.029869 0.250000 0.000000
Si Si5 0.059208 0.511266 0.252338
Si Si6 0.388200 0.798371 0.387114
O O1 0.099116 0.933791 0.742042
O O2 0.178813 0.840424 0.721501
O O3 0.250000 0.904896 0.000000
O O4 0.062963 0.868254 0.042196
O O5 0.039104 0.673621 0.564197
O O6 0.900594 0.613381 0.739656
O O7 0.921531 0.702363 0.888122
O O8 0.750000 0.585786 0.500000
O O9 0.848032 0.524181 0.754375
O O10 0.750000 0.587586 0.000000
O O11 0.958270 0.274646 0.810104
O O12 0.000000 0.500000 0.500000
O O13 0.000000 0.500000 0.000000
O O14 0.344753 0.750000 0.500000
#
# Coordination Sequence:
#
# PCOD9397026 Si02
#       6
#     8   8   8   4   8   8
#     4  11  24  41  68 103 140 183 238 296 361 438
#     4  10  21  42  68  95 138 180 233 288 359 414
#     4  12  27  45  72 104 138 184 231 289 352 423
#     4   8  18  36  70  90 130 182 228 286 346 420
#     4  12  25  47  74 102 143 188 232 294 362 424
#     4   9  19  40  66  96 133 185 230 289 356 425
#
# _framework density 20.933720000000001
#
# number of rings (size 3 to 8) (size 9 to 14) (size 15 to 20)
#    0.000    1.455    1.818    2.727    5.091    0.727 
#    0.000   21.364    0.000    0.000    0.000    0.000 
#    0.000    0.000    0.000    0.000    0.000    0.000 
#
# Total GULP energy -245308.833939 kJ/mol
# GULP energy per Si atom -5575.200771 kJ/mol
# Density = 2.088607 g / cm^3
# Si number density = 20.933720 Si / 1000 Ang^3
#
#
#
# Elastic Constant Matrix: (Units=GPa)
#
#
# Indices 1 2 3 4 5 6 
#
# 1 87.8934 37.9327 52.4441 0.0000 0.0000 0.0000
# 2 37.9327 155.3563 47.2260 0.0000 0.0000 0.0000
# 3 52.4441 47.2260 123.0585 0.0000 0.0000 0.0000
# 4 0.0000 0.0000 0.0000 42.2250 0.0000 0.0000
# 5 0.0000 0.0000 0.0000 0.0000 31.3438 0.0000
# 6 0.0000 0.0000 0.0000 0.0000 0.0000 -24.7080
#
#
#
# Elastic Compliance Matrix: (Units=1/GPa)
#
#
# Indices 1 2 3 4 5 6 
#
# 1 0.015815 -0.002052 -0.005952 0.000000 0.000000 0.000000
# 2 -0.002052 0.007553 -0.002024 0.000000 0.000000 0.000000
# 3 -0.005952 -0.002024 0.011440 0.000000 0.000000 0.000000
# 4 0.000000 0.000000 0.000000 0.023683 0.000000 0.000000
# 5 0.000000 0.000000 0.000000 0.000000 0.031904 0.000000
# 6 0.000000 0.000000 0.000000 0.000000 0.000000 -0.040473
#
#
# Mechanical properties :
#
#
# Convention : Reuss Voigt Hill
#
# Bulk Modulus (GPa) = 67.79362 71.27932 69.53647
# Shear Modulus (GPa) = 66.75981 25.01918 45.88950
#
# Velocity S-wave (km/s) = 5.65334 3.46086 4.68710
# Velocity P-wave (km/s) = 8.66423 7.07771 7.91084
#
# Compressibility (1/GPa) = 0.01475065
#
# Stress axis : x y z
#
# Youngs Moduli (GPa) = 63.23274 132.39498 87.41478
#
# Poissons Ratio (x) = 0.27167 0.52031
# Poissons Ratio (y) = 0.12975 0.17694
# Poissons Ratio (z) = 0.37638 0.26799
#
# Static dielectric constant tensor:
#      x y z
#    x 1.698700 0.000000 0.000000 
#    y 0.000000 0.976770 0.000000 
#    z 0.000000 0.000000 1.851270 
# 
# From -- ./inp_files/3513.got.cif
#   From: 2010.05.17/outbox.cif.g08.bks.cpg/sg50_2_cif.got.tgz:3513.got - 2010.06.03 11:33:33.
