data_PCOD9397056
_publ_section_title
;
Structure prediction by ZEFSAII (Michael W. Deem and Ramdas Pophale) SiO2 
 PCOD9397056
Probable space group: P B A N
;
_chemical_formula_sum "Si O2"
_cell_formula_units_Z 34
_cell_length_a 12.975776
_cell_length_b 20.158975
_cell_length_c 5.420984
_cell_angle_alpha 90.000000
_cell_angle_beta 90.000000
_cell_angle_gamma 90.000000
_cell_volume 1418.012018
_symmetry_space_group_name_H-M "P B A N"
_symmetry_group_IT_number 50
_space_group.IT_coordinate_system_code '2'
_symmetry_cell_setting 'orthorhombic'
loop_
_space_group_symop_operation_xyz
x,y,z
1/2-x,1/2-y,z
x,1/2-y,-z
1/2-x,y,-z
-x,-y,-z
1/2+x,1/2+y,-z
-x,1/2+y,z
1/2+x,-y,z
loop_
_atom_site_type_symbol
_atom_site_label
_atom_site_fract_x
_atom_site_fract_y
_atom_site_fract_z
Si Si1 0.360404 0.432176 0.239269
Si Si2 0.572258 0.710061 0.734596
Si Si3 0.128855 0.010386 0.744208
Si Si4 0.855233 0.354857 0.665793
Si Si5 0.750000 0.250000 0.000000
O O1 0.356153 0.353539 0.218167
O O2 0.411878 0.457103 0.492267
O O3 0.248490 0.465933 0.248136
O O4 0.414927 0.457944 0.992838
O O5 0.614704 0.750000 0.500000
O O6 0.467964 0.676086 0.611238
O O7 0.559292 0.750000 0.000000
O O8 0.129441 0.930863 0.743128
O O9 0.750000 0.355237 0.500000
O O10 0.822648 0.300797 0.863195
#
# Coordination Sequence:
#
# PCOD9397056 Si02
#       5
#     8   8   8   8   2
#     4  10  21  44  69  98 142 172 235 287 340 412
#     4  12  27  46  67 104 142 184 229 284 350 416
#     4  10  22  43  69 102 130 181 231 286 345 403
#     4  12  25  43  68  97 142 180 234 281 344 422
#     4  12  22  40  64  90 132 190 220 272 346 412
#
# _framework density 23.977226999999999
#
# number of rings (size 3 to 8) (size 9 to 14) (size 15 to 20)
#    0.000    0.941    3.529    4.588    0.000    1.882 
#    0.000   14.118    0.000    0.000    0.000    0.000 
#    0.000    0.000    0.000    0.000    0.000    0.000 
#
# Total GULP energy -189502.614296 kJ/mol
# GULP energy per Si atom -5573.606303 kJ/mol
# Density = 2.392265 g / cm^3
# Si number density = 23.977227 Si / 1000 Ang^3
#
#
#
# Elastic Constant Matrix: (Units=GPa)
#
#
# Indices 1 2 3 4 5 6 
#
# 1 69.3491 27.8130 -2.4849 0.0000 0.0000 0.0000
# 2 27.8130 242.7213 96.0138 0.0000 0.0000 0.0000
# 3 -2.4849 96.0138 210.6901 0.0000 0.0000 0.0000
# 4 0.0000 0.0000 0.0000 51.4141 0.0000 0.0000
# 5 0.0000 0.0000 0.0000 0.0000 6.5363 0.0000
# 6 0.0000 0.0000 0.0000 0.0000 0.0000 47.3022
#
#
#
# Elastic Compliance Matrix: (Units=1/GPa)
#
#
# Indices 1 2 3 4 5 6 
#
# 1 0.015359 -0.002234 0.001199 0.000000 0.000000 0.000000
# 2 -0.002234 0.005351 -0.002465 0.000000 0.000000 0.000000
# 3 0.001199 -0.002465 0.005884 0.000000 0.000000 0.000000
# 4 0.000000 0.000000 0.000000 0.019450 0.000000 0.000000
# 5 0.000000 0.000000 0.000000 0.000000 0.152991 0.000000
# 6 0.000000 0.000000 0.000000 0.000000 0.000000 0.021141
#
#
# Mechanical properties :
#
#
# Convention : Reuss Voigt Hill
#
# Bulk Modulus (GPa) = 51.03639 85.04937 68.04288
# Shear Modulus (GPa) = 21.39435 47.81176 34.60306
#
# Velocity S-wave (km/s) = 2.99034 4.47032 3.80302
# Velocity P-wave (km/s) = 5.76667 7.88625 6.90823
#
# Compressibility (1/GPa) = 0.01959386
#
# Stress axis : x y z
#
# Youngs Moduli (GPa) = 65.10891 186.88025 169.96046
#
# Poissons Ratio (x) = 0.41756 -0.20385
# Poissons Ratio (y) = 0.14548 0.41893
# Poissons Ratio (z) = -0.07809 0.46064
#
# Static dielectric constant tensor:
#      x y z
#    x 2.642930 0.000000 0.000000 
#    y 0.000000 1.821650 0.000000 
#    z 0.000000 0.000000 2.340820 
# 
# From -- ./inp_files/3058.got.cif
#   From: 2010.05.17/outbox.cif.g08.bks.cpg/sg50_2_cif.got.tgz:3058.got - 2010.06.03 11:33:33.
