data_PCOD9397101
_publ_section_title
;
Structure prediction by ZEFSAII (Michael W. Deem and Ramdas Pophale) SiO2 
 PCOD9397101
Probable space group: P B A N
;
_chemical_formula_sum "Si O2"
_cell_formula_units_Z 24
_cell_length_a 13.003715
_cell_length_b 11.549583
_cell_length_c 6.747564
_cell_angle_alpha 90.000000
_cell_angle_beta 90.000000
_cell_angle_gamma 90.000000
_cell_volume 1013.399672
_symmetry_space_group_name_H-M "P B A N"
_symmetry_group_IT_number 50
_space_group.IT_coordinate_system_code '2'
_symmetry_cell_setting 'orthorhombic'
loop_
_space_group_symop_operation_xyz
x,y,z
1/2-x,1/2-y,z
x,1/2-y,-z
1/2-x,y,-z
-x,-y,-z
1/2+x,1/2+y,-z
-x,1/2+y,z
1/2+x,-y,z
loop_
_atom_site_type_symbol
_atom_site_label
_atom_site_fract_x
_atom_site_fract_y
_atom_site_fract_z
Si Si1 0.351435 0.632594 0.140047
Si Si2 0.360453 0.066199 0.539859
Si Si3 0.557953 0.131798 0.743168
O O1 0.343561 0.528594 0.288602
O O2 0.375439 0.749241 0.265057
O O3 0.250000 0.633310 0.000000
O O4 0.443477 0.617700 0.981285
O O5 0.250000 0.120436 0.500000
O O6 0.450363 0.144907 0.629739
O O7 0.396648 0.985311 0.355603
#
# Coordination Sequence:
#
# PCOD9397101 Si02
#       3
#     8   8   8
#     4  11  21  38  64  94 130 174 224 270 325 397
#     4  11  22  37  62  95 129 171 216 275 325 389
#     4  10  22  37  59  95 128 165 220 275 327 380
#
# _framework density 23.682659999999998
#
# number of rings (size 3 to 8) (size 9 to 14) (size 15 to 20)
#    0.000    1.333    3.333    4.000    0.000    1.333 
#    0.000    0.000    0.000   16.000    0.000    0.000 
#    0.000    0.000    0.000    0.000    0.000    0.000 
#
# Total GULP energy -133931.032064 kJ/mol
# GULP energy per Si atom -5580.459669 kJ/mol
# Density = 2.362876 g / cm^3
# Si number density = 23.682660 Si / 1000 Ang^3
#
#
#
# Elastic Constant Matrix: (Units=GPa)
#
#
# Indices 1 2 3 4 5 6 
#
# 1 147.5459 21.5458 14.1411 0.0000 0.0000 0.0000
# 2 21.5458 76.0093 16.0591 0.0000 0.0000 0.0000
# 3 14.1411 16.0591 102.7588 0.0000 0.0000 0.0000
# 4 0.0000 0.0000 0.0000 32.3350 0.0000 0.0000
# 5 0.0000 0.0000 0.0000 0.0000 50.6445 0.0000
# 6 0.0000 0.0000 0.0000 0.0000 0.0000 20.0340
#
#
#
# Elastic Compliance Matrix: (Units=1/GPa)
#
#
# Indices 1 2 3 4 5 6 
#
# 1 0.007117 -0.001872 -0.000687 0.000000 0.000000 0.000000
# 2 -0.001872 0.014098 -0.001946 0.000000 0.000000 0.000000
# 3 -0.000687 -0.001946 0.010130 0.000000 0.000000 0.000000
# 4 0.000000 0.000000 0.000000 0.030926 0.000000 0.000000
# 5 0.000000 0.000000 0.000000 0.000000 0.019745 0.000000
# 6 0.000000 0.000000 0.000000 0.000000 0.000000 0.049915
#
#
# Mechanical properties :
#
#
# Convention : Reuss Voigt Hill
#
# Bulk Modulus (GPa) = 44.77133 47.75620 46.26377
# Shear Modulus (GPa) = 33.69583 38.90723 36.30153
#
# Velocity S-wave (km/s) = 3.77610 4.05761 3.91939
# Velocity P-wave (km/s) = 6.16098 6.49316 6.32925
#
# Compressibility (1/GPa) = 0.02233572
#
# Stress axis : x y z
#
# Youngs Moduli (GPa) = 140.51318 70.93177 98.71576
#
# Poissons Ratio (x) = 0.13280 0.06780
# Poissons Ratio (y) = 0.26307 0.19206
# Poissons Ratio (z) = 0.09650 0.13800
#
# Static dielectric constant tensor:
#      x y z
#    x 2.079820 0.000000 0.000000 
#    y 0.000000 1.927390 0.000000 
#    z 0.000000 0.000000 1.904790 
# 
# From -- ./inp_files/2760.got.cif
#   From: 2010.05.17/outbox.cif.g08.bks.cpg/sg50_2_cif.got.tgz:2760.got - 2010.06.03 11:33:33.
