data_PCOD9397904
_publ_section_title
;
Structure prediction by ZEFSAII (Michael W. Deem and Ramdas Pophale) SiO2 
 PCOD9397904
Probable space group: P B A N
;
_chemical_formula_sum "Si O2"
_cell_formula_units_Z 26
_cell_length_a 10.499532
_cell_length_b 19.131630
_cell_length_c 5.075017
_cell_angle_alpha 90.000000
_cell_angle_beta 90.000000
_cell_angle_gamma 90.000000
_cell_volume 1019.434709
_symmetry_space_group_name_H-M "P B A N"
_symmetry_group_IT_number 50
_space_group.IT_coordinate_system_code '2'
_symmetry_cell_setting 'orthorhombic'
loop_
_space_group_symop_operation_xyz
x,y,z
1/2-x,1/2-y,z
x,1/2-y,-z
1/2-x,y,-z
-x,-y,-z
1/2+x,1/2+y,-z
-x,1/2+y,z
1/2+x,-y,z
loop_
_atom_site_type_symbol
_atom_site_label
_atom_site_fract_x
_atom_site_fract_y
_atom_site_fract_z
Si Si1 0.836775 0.017821 0.744116
Si Si2 0.125638 0.354718 0.679287
Si Si3 0.476512 0.656049 0.195823
Si Si4 0.750000 0.250000 0.000000
O O1 0.750000 0.043007 0.500000
O O2 0.946092 0.073275 0.805565
O O3 0.878788 0.939093 0.682914
O O4 0.750000 0.013364 0.000000
O O5 0.250000 0.336817 0.500000
O O6 0.015811 0.327500 0.491359
O O7 0.088368 0.331833 0.976592
O O8 0.348401 0.697694 0.139629
#
# Coordination Sequence:
#
# PCOD9397904 Si02
#       4
#     8   8   8   2
#     4  11  21  40  71 112 146 183 233 302 376 430
#     4  11  24  44  73 106 142 182 239 300 368 426
#     4  12  25  46  70 102 148 190 240 295 350 441
#     4  12  32  50  74 102 144 198 252 282 368 438
#
# _framework density 25.50433
#
# number of rings (size 3 to 8) (size 9 to 14) (size 15 to 20)
#    0.000    0.615    1.538    8.308    0.000    2.462 
#    0.000    4.615    0.000    0.000    0.000    0.000 
#    0.000    0.000    0.000    0.000    0.000    0.000 
#
# Total GULP energy -145541.690082 kJ/mol
# GULP energy per Si atom -5597.757311 kJ/mol
# Density = 2.544628 g / cm^3
# Si number density = 25.504330 Si / 1000 Ang^3
#
#
#
# Elastic Constant Matrix: (Units=GPa)
#
#
# Indices 1 2 3 4 5 6 
#
# 1 45.5873 -3.9389 29.0209 0.0000 0.0000 0.0000
# 2 -3.9389 89.9462 5.4446 0.0000 0.0000 0.0000
# 3 29.0209 5.4446 169.9919 0.0000 0.0000 0.0000
# 4 0.0000 0.0000 0.0000 -45.8669 0.0000 0.0000
# 5 0.0000 0.0000 0.0000 0.0000 -112.7423 0.0000
# 6 0.0000 0.0000 0.0000 0.0000 0.0000 36.3504
#
#
#
# Elastic Compliance Matrix: (Units=1/GPa)
#
#
# Indices 1 2 3 4 5 6 
#
# 1 0.024772 0.001343 -0.004272 0.000000 0.000000 0.000000
# 2 0.001343 0.011212 -0.000588 0.000000 0.000000 0.000000
# 3 -0.004272 -0.000588 0.006631 0.000000 0.000000 0.000000
# 4 0.000000 0.000000 0.000000 -0.021802 0.000000 0.000000
# 5 0.000000 0.000000 0.000000 0.000000 -0.008870 0.000000
# 6 0.000000 0.000000 0.000000 0.000000 0.000000 0.027510
#
#
# Mechanical properties :
#
#
# Convention : Reuss Voigt Hill
#
# Bulk Modulus (GPa) = 28.10536 40.73096 34.41816
# Shear Modulus (GPa) = 85.69430 -6.11852 39.78789
#
# Velocity S-wave (km/s) = 5.80283 -1.55055 3.95402
# Velocity P-wave (km/s) = 7.47936 3.57761 5.86260
#
# Compressibility (1/GPa) = 0.03558041
#
# Stress axis : x y z
#
# Youngs Moduli (GPa) = 40.36883 89.18847 150.81138
#
# Poissons Ratio (x) = -0.11981 0.64427
# Poissons Ratio (y) = -0.05423 0.08875
# Poissons Ratio (z) = 0.17246 0.05248
#
# Static dielectric constant tensor:
#      x y z
#    x 1.993840 0.000000 0.000000 
#    y 0.000000 2.079050 0.000000 
#    z 0.000000 0.000000 1.951400 
# 
# From -- ./inp_files/1828.got.cif
#   From: 2010.05.17/outbox.cif.g08.bks.cpg/sg50_1_cif.got.tgz:1828.got - 2010.06.03 11:33:33.
