data_PCOD9397732
_publ_section_title
;
Structure prediction by ZEFSAII (Michael W. Deem and Ramdas Pophale) SiO2 
 PCOD9397732
Probable space group: P B A N
;
_chemical_formula_sum "Si O2"
_cell_formula_units_Z 58
_cell_length_a 23.461106
_cell_length_b 11.722295
_cell_length_c 9.482735
_cell_angle_alpha 90.000000
_cell_angle_beta 90.000000
_cell_angle_gamma 90.000000
_cell_volume 2607.922867
_symmetry_space_group_name_H-M "P B A N"
_symmetry_group_IT_number 50
_space_group.IT_coordinate_system_code '2'
_symmetry_cell_setting 'orthorhombic'
loop_
_space_group_symop_operation_xyz
x,y,z
1/2-x,1/2-y,z
x,1/2-y,-z
1/2-x,y,-z
-x,-y,-z
1/2+x,1/2+y,-z
-x,1/2+y,z
1/2+x,-y,z
loop_
_atom_site_type_symbol
_atom_site_label
_atom_site_fract_x
_atom_site_fract_y
_atom_site_fract_z
Si Si1 0.029221 0.242361 0.169699
Si Si2 0.616172 0.549645 0.733105
Si Si3 0.387546 0.049216 0.225957
Si Si4 0.315896 0.116565 0.975390
Si Si5 0.858060 0.314893 0.137731
Si Si6 0.582097 0.309044 0.346239
Si Si7 0.814965 0.614314 0.525115
Si Si8 0.250000 0.750000 0.000000
O O1 0.064297 0.130686 0.221985
O O2 0.065999 0.351474 0.215207
O O3 0.970091 0.238376 0.252723
O O4 0.023259 0.250000 0.000000
O O5 0.610824 0.425356 0.801448
O O6 0.636538 0.554581 0.572356
O O7 0.671066 0.599273 0.812650
O O8 0.359055 0.039381 0.069828
O O9 0.333959 0.090503 0.316721
O O10 0.416002 0.943224 0.307792
O O11 0.329606 0.250000 0.000000
O O12 0.250000 0.096078 0.000000
O O13 0.859951 0.230686 0.270168
O O14 0.792569 0.328554 0.090568
O O15 0.883552 0.250000 0.000000
O O16 0.578274 0.250000 0.500000
O O17 0.818329 0.750000 0.500000
O O18 0.750000 0.576396 0.500000
#
# Coordination Sequence:
#
# PCOD9397732 Si02
#       8
#     8   8   8   8   8   8   8   2
#     4  12  27  46  72 107 135 188 238 303 370 419
#     4  12  22  41  69 102 144 183 242 294 350 439
#     4  12  24  47  72 102 148 185 235 299 363 434
#     4  11  21  38  67 109 147 181 230 291 365 440
#     4  10  24  47  72 106 139 187 241 286 350 425
#     4  12  30  49  71 101 141 191 248 295 350 428
#     4  11  23  40  66 106 149 187 228 291 371 442
#     4   8  24  44  74 100 138 196 226 284 362 422
#
# _framework density 22.239920000000001
#
# number of rings (size 3 to 8) (size 9 to 14) (size 15 to 20)
#    0.414    0.276    4.138    2.897    4.828    4.414 
#    0.000    0.345    0.000    0.000    0.000    0.000 
#    0.000    0.000    0.000    0.000    0.000    0.000 
#
# Total GULP energy -323621.733939 kJ/mol
# GULP energy per Si atom -5579.685068 kJ/mol
# Density = 2.218930 g / cm^3
# Si number density = 22.239920 Si / 1000 Ang^3
#
#
#
# Elastic Constant Matrix: (Units=GPa)
#
#
# Indices 1 2 3 4 5 6 
#
# 1 107.9645 28.6830 35.3886 0.0000 0.0000 0.0000
# 2 28.6830 128.7832 33.6539 0.0000 0.0000 0.0000
# 3 35.3886 33.6539 120.6895 0.0000 0.0000 0.0000
# 4 0.0000 0.0000 0.0000 28.3187 0.0000 0.0000
# 5 0.0000 0.0000 0.0000 0.0000 20.7408 0.0000
# 6 0.0000 0.0000 0.0000 0.0000 0.0000 -0.3646
#
#
#
# Elastic Compliance Matrix: (Units=1/GPa)
#
#
# Indices 1 2 3 4 5 6 
#
# 1 0.010568 -0.001665 -0.002634 0.000000 0.000000 0.000000
# 2 -0.001665 0.008638 -0.001920 0.000000 0.000000 0.000000
# 3 -0.002634 -0.001920 0.009594 0.000000 0.000000 0.000000
# 4 0.000000 0.000000 0.000000 0.035312 0.000000 0.000000
# 5 0.000000 0.000000 0.000000 0.000000 0.048214 0.000000
# 6 0.000000 0.000000 0.000000 0.000000 0.000000 -2.742523
#
#
# Mechanical properties :
#
#
# Convention : Reuss Voigt Hill
#
# Bulk Modulus (GPa) = 61.12670 61.43201 61.27936
# Shear Modulus (GPa) = -1.91402 27.05310 12.56954
#
# Velocity S-wave (km/s) = -0.92870 3.49151 2.37993
# Velocity P-wave (km/s) = 5.13759 6.62846 5.93006
#
# Compressibility (1/GPa) = 0.01635946
#
# Stress axis : x y z
#
# Youngs Moduli (GPa) = 94.62298 115.77136 104.23551
#
# Poissons Ratio (x) = 0.19280 0.27460
# Poissons Ratio (y) = 0.15758 0.20016
# Poissons Ratio (z) = 0.24928 0.22231
#
# Static dielectric constant tensor:
#      x y z
#    x 1.795130 0.000000 0.000000 
#    y 0.000000 1.888440 0.000000 
#    z 0.000000 0.000000 1.783400 
# 
# From -- ./inp_files/16558.got.cif
#   From: 2010.05.17/outbox.cif.g08.bks.cpg/sg50_9_cif.got.tgz:16558.got - 2010.06.03 11:33:33.
