data_PCOD9397655
_publ_section_title
;
Structure prediction by ZEFSAII (Michael W. Deem and Ramdas Pophale) SiO2 
 PCOD9397655
Probable space group: P B A N
;
_chemical_formula_sum "Si O2"
_cell_formula_units_Z 44
_cell_length_a 8.416410
_cell_length_b 14.866365
_cell_length_c 15.602515
_cell_angle_alpha 90.000000
_cell_angle_beta 90.000000
_cell_angle_gamma 90.000000
_cell_volume 1952.208880
_symmetry_space_group_name_H-M "P B A N"
_symmetry_group_IT_number 50
_space_group.IT_coordinate_system_code '2'
_symmetry_cell_setting 'orthorhombic'
loop_
_space_group_symop_operation_xyz
x,y,z
1/2-x,1/2-y,z
x,1/2-y,-z
1/2-x,y,-z
-x,-y,-z
1/2+x,1/2+y,-z
-x,1/2+y,z
1/2+x,-y,z
loop_
_atom_site_type_symbol
_atom_site_label
_atom_site_fract_x
_atom_site_fract_y
_atom_site_fract_z
Si Si1 0.238262 0.532210 0.601598
Si Si2 0.250000 0.750000 0.000000
Si Si3 0.638222 0.120272 0.140025
Si Si4 0.250000 0.250000 0.500000
Si Si5 0.433658 0.363242 0.362391
Si Si6 0.135334 0.034126 0.933911
Si Si7 0.607149 0.304550 0.676592
O O1 0.250000 0.513625 0.500000
O O2 0.195486 0.441841 0.654793
O O3 0.403259 0.580221 0.627759
O O4 0.096219 0.605050 0.620352
O O5 0.354805 0.808631 0.936524
O O6 0.764929 0.045189 0.110599
O O7 0.669931 0.160850 0.232028
O O8 0.459823 0.083562 0.139533
O O9 0.365276 0.314200 0.446139
O O10 0.473256 0.271911 0.308558
O O11 0.250000 0.086040 0.000000
O O12 0.000000 0.000000 0.000000
O O13 0.750000 0.250000 0.631795
#
# Coordination Sequence:
#
# PCOD9397655 Si02
#       7
#     8   2   8   2   8   8   8
#     4  11  23  44  69  98 135 187 232 283 362 431
#     4  12  20  36  74  88 130 194 210 280 356 432
#     4  11  21  40  69  93 138 179 232 288 355 422
#     4  12  24  44  74 100 142 182 246 304 352 436
#     4  11  25  42  70  99 137 179 236 293 351 426
#     4   9  18  37  66  97 124 175 235 281 337 423
#     4  10  24  42  66 101 140 179 232 293 357 420
#
# _framework density 22.538573
#
# number of rings (size 3 to 8) (size 9 to 14) (size 15 to 20)
#    0.000    1.455    4.545    1.636    2.545    5.455 
#    0.000    0.455    0.000    0.000    0.000    0.000 
#    0.000    0.000    0.000    0.000    0.000    0.000 
#
# Total GULP energy -245042.252828 kJ/mol
# GULP energy per Si atom -5569.142110 kJ/mol
# Density = 2.248727 g / cm^3
# Si number density = 22.538573 Si / 1000 Ang^3
#
#
#
# Elastic Constant Matrix: (Units=GPa)
#
#
# Indices 1 2 3 4 5 6 
#
# 1 94.6908 41.6444 14.5294 0.0000 0.0000 0.0000
# 2 41.6444 144.2874 30.7950 0.0000 0.0000 0.0000
# 3 14.5294 30.7950 62.6289 0.0000 0.0000 0.0000
# 4 0.0000 0.0000 0.0000 40.7120 0.0000 0.0000
# 5 0.0000 0.0000 0.0000 0.0000 16.0996 0.0000
# 6 0.0000 0.0000 0.0000 0.0000 0.0000 34.4008
#
#
#
# Elastic Compliance Matrix: (Units=1/GPa)
#
#
# Indices 1 2 3 4 5 6 
#
# 1 0.012180 -0.003254 -0.001226 0.000000 0.000000 0.000000
# 2 -0.003254 0.008612 -0.003480 0.000000 0.000000 0.000000
# 3 -0.001226 -0.003480 0.017963 0.000000 0.000000 0.000000
# 4 0.000000 0.000000 0.000000 0.024563 0.000000 0.000000
# 5 0.000000 0.000000 0.000000 0.000000 0.062113 0.000000
# 6 0.000000 0.000000 0.000000 0.000000 0.000000 0.029069
#
#
# Mechanical properties :
#
#
# Convention : Reuss Voigt Hill
#
# Bulk Modulus (GPa) = 43.79069 52.83830 48.31450
# Shear Modulus (GPa) = 28.08505 32.55170 30.31838
#
# Velocity S-wave (km/s) = 3.53383 3.80447 3.67164
# Velocity P-wave (km/s) = 6.01016 6.54164 6.28152
#
# Compressibility (1/GPa) = 0.02283590
#
# Stress axis : x y z
#
# Youngs Moduli (GPa) = 82.10362 116.11127 55.67145
#
# Poissons Ratio (x) = 0.37779 0.06824
# Poissons Ratio (y) = 0.26714 0.19373
# Poissons Ratio (z) = 0.10064 0.40406
#
# Static dielectric constant tensor:
#      x y z
#    x 1.900150 0.000000 0.000000 
#    y 0.000000 1.950220 0.000000 
#    z 0.000000 0.000000 1.686670 
# 
# From -- ./inp_files/28664.got.cif
#   From: 2010.05.17/outbox.cif.g08.bks.cpg/sg50_15_cif.got.tgz:28664.got - 2010.06.03 11:33:33.
