data_PCOD9397460
_publ_section_title
;
Structure prediction by ZEFSAII (Michael W. Deem and Ramdas Pophale) SiO2 
 PCOD9397460
Probable space group: P B A N
;
_chemical_formula_sum "Si O2"
_cell_formula_units_Z 36
_cell_length_a 18.788406
_cell_length_b 8.047156
_cell_length_c 12.415091
_cell_angle_alpha 90.000000
_cell_angle_beta 90.000000
_cell_angle_gamma 90.000000
_cell_volume 1877.077760
_symmetry_space_group_name_H-M "P B A N"
_symmetry_group_IT_number 50
_space_group.IT_coordinate_system_code '2'
_symmetry_cell_setting 'orthorhombic'
loop_
_space_group_symop_operation_xyz
x,y,z
1/2-x,1/2-y,z
x,1/2-y,-z
1/2-x,y,-z
-x,-y,-z
1/2+x,1/2+y,-z
-x,1/2+y,z
1/2+x,-y,z
loop_
_atom_site_type_symbol
_atom_site_label
_atom_site_fract_x
_atom_site_fract_y
_atom_site_fract_z
Si Si1 0.429378 0.159077 0.385157
Si Si2 0.025659 0.451791 0.751805
Si Si3 0.403384 0.752277 0.128002
Si Si4 0.750000 0.250000 0.769872
Si Si5 0.772203 0.938670 0.376177
O O1 0.432448 0.250000 0.500000
O O2 0.429434 0.297798 0.291637
O O3 0.357626 0.054422 0.376143
O O4 0.496563 0.046621 0.354358
O O5 0.957159 0.385491 0.817802
O O6 0.070515 0.577326 0.823084
O O7 0.321536 0.777976 0.161569
O O8 0.411031 0.750000 0.000000
O O9 0.740980 0.414326 0.696011
O O10 0.750000 0.750000 0.344247
O O11 0.750000 0.959898 0.500000
#
# Coordination Sequence:
#
# PCOD9397460 Si02
#       5
#     8   8   8   4   8
#     4  11  20  39  61  93 125 165 201 253 315 386
#     4  10  23  40  64  92 126 161 210 260 318 388
#     4  11  23  42  66  89 121 165 215 269 317 369
#     4  12  24  42  64  96 128 162 220 266 326 368
#     4  11  22  39  62  87 130 171 205 250 317 388
#
# _framework density 19.178747999999999
#
# number of rings (size 3 to 8) (size 9 to 14) (size 15 to 20)
#    0.000    1.111    4.444    3.333    0.000    0.000 
#    0.000    0.000    0.000    1.333    0.000    0.000 
#    0.000    0.000    0.000    0.000    0.000    0.000 
#
# Total GULP energy -201107.558560 kJ/mol
# GULP energy per Si atom -5586.321071 kJ/mol
# Density = 1.913510 g / cm^3
# Si number density = 19.178748 Si / 1000 Ang^3
#
#
#
# Elastic Constant Matrix: (Units=GPa)
#
#
# Indices 1 2 3 4 5 6 
#
# 1 78.3064 1.4737 26.6090 0.0000 0.0000 0.0000
# 2 1.4737 54.7340 13.3454 0.0000 0.0000 0.0000
# 3 26.6090 13.3454 85.2616 0.0000 0.0000 0.0000
# 4 0.0000 0.0000 0.0000 13.3971 0.0000 0.0000
# 5 0.0000 0.0000 0.0000 0.0000 10.4431 0.0000
# 6 0.0000 0.0000 0.0000 0.0000 0.0000 19.0849
#
#
#
# Elastic Compliance Matrix: (Units=1/GPa)
#
#
# Indices 1 2 3 4 5 6 
#
# 1 0.014313 0.000732 -0.004582 0.000000 0.000000 0.000000
# 2 0.000732 0.019033 -0.003207 0.000000 0.000000 0.000000
# 3 -0.004582 -0.003207 0.013660 0.000000 0.000000 0.000000
# 4 0.000000 0.000000 0.000000 0.074643 0.000000 0.000000
# 5 0.000000 0.000000 0.000000 0.000000 0.095757 0.000000
# 6 0.000000 0.000000 0.000000 0.000000 0.000000 0.052397
#
#
# Mechanical properties :
#
#
# Convention : Reuss Voigt Hill
#
# Bulk Modulus (GPa) = 30.40258 33.46202 31.93230
# Shear Modulus (GPa) = 16.95592 20.37662 18.66627
#
# Velocity S-wave (km/s) = 2.97661 3.26307 3.12313
# Velocity P-wave (km/s) = 5.26310 5.62869 5.44896
#
# Compressibility (1/GPa) = 0.03289194
#
# Stress axis : x y z
#
# Youngs Moduli (GPa) = 69.86458 52.54168 73.20389
#
# Poissons Ratio (x) = -0.03845 0.33539
# Poissons Ratio (y) = -0.05112 0.23479
# Poissons Ratio (z) = 0.32009 0.16852
#
# Static dielectric constant tensor:
#      x y z
#    x 1.675910 0.000000 0.000000 
#    y 0.000000 1.689890 0.000000 
#    z 0.000000 0.000000 1.627080 
# 
# From -- ./inp_files/21616.got.cif
#   From: 2010.05.17/outbox.cif.g08.bks.cpg/sg50_11_cif.got.tgz:21616.got - 2010.06.03 11:33:33.
