data_PCOD9397589
_publ_section_title
;
Structure prediction by ZEFSAII (Michael W. Deem and Ramdas Pophale) SiO2 
 PCOD9397589
Probable space group: P B A N
;
_chemical_formula_sum "Si O2"
_cell_formula_units_Z 22
_cell_length_a 4.976919
_cell_length_b 32.781330
_cell_length_c 5.951465
_cell_angle_alpha 90.000000
_cell_angle_beta 90.000000
_cell_angle_gamma 90.000000
_cell_volume 970.981658
_symmetry_space_group_name_H-M "P B A N"
_symmetry_group_IT_number 50
_space_group.IT_coordinate_system_code '2'
_symmetry_cell_setting 'orthorhombic'
loop_
_space_group_symop_operation_xyz
x,y,z
1/2-x,1/2-y,z
x,1/2-y,-z
1/2-x,y,-z
-x,-y,-z
1/2+x,1/2+y,-z
-x,1/2+y,z
1/2+x,-y,z
loop_
_atom_site_type_symbol
_atom_site_label
_atom_site_fract_x
_atom_site_fract_y
_atom_site_fract_z
Si Si1 0.250000 0.968710 0.500000
Si Si2 0.750000 0.750000 0.500000
Si Si3 0.493518 0.901650 0.161937
Si Si4 0.001402 0.187367 0.167681
O O1 0.373504 0.937482 0.314718
O O2 0.500000 0.000000 0.500000
O O3 0.942198 0.778256 0.650784
O O4 0.524290 0.857838 0.281537
O O5 0.250000 0.892232 0.000000
O O6 0.750000 0.912013 0.000000
O O7 0.250000 0.188064 0.000000
O O8 0.750000 0.193769 0.000000
#
# Coordination Sequence:
#
# PCOD9397589 Si02
#       4
#     4   2   8   8
#     4  12  26  41  68 105 130 165 230 283 336 416
#     4  12  26  44  76 104 144 186 226 300 352 380
#     4  10  23  45  68  93 136 181 218 275 343 406
#     4  10  25  46  68 101 138 181 236 279 336 420
#
# _framework density 22.657484
#
# number of rings (size 3 to 8) (size 9 to 14) (size 15 to 20)
#    0.000    1.455    0.000    2.727    0.000   20.364 
#    0.000    3.636    0.000    0.000    0.000    0.000 
#    0.000    0.000    0.000    0.000    0.000    0.000 
#
# Total GULP energy -122536.891829 kJ/mol
# GULP energy per Si atom -5569.858720 kJ/mol
# Density = 2.260591 g / cm^3
# Si number density = 22.657484 Si / 1000 Ang^3
#
#
#
# Elastic Constant Matrix: (Units=GPa)
#
#
# Indices 1 2 3 4 5 6 
#
# 1 198.0388 54.6000 35.9937 0.0000 0.0000 0.0000
# 2 54.6000 224.9303 92.4228 0.0000 0.0000 0.0000
# 3 35.9937 92.4228 61.7246 0.0000 0.0000 0.0000
# 4 0.0000 0.0000 0.0000 124.4946 0.0000 0.0000
# 5 0.0000 0.0000 0.0000 0.0000 38.4565 0.0000
# 6 0.0000 0.0000 0.0000 0.0000 0.0000 77.5192
#
#
#
# Elastic Compliance Matrix: (Units=1/GPa)
#
#
# Indices 1 2 3 4 5 6 
#
# 1 0.005648 -0.000046 -0.003225 0.000000 0.000000 0.000000
# 2 -0.000046 0.011556 -0.017276 0.000000 0.000000 0.000000
# 3 -0.003225 -0.017276 0.043949 0.000000 0.000000 0.000000
# 4 0.000000 0.000000 0.000000 0.008032 0.000000 0.000000
# 5 0.000000 0.000000 0.000000 0.000000 0.026003 0.000000
# 6 0.000000 0.000000 0.000000 0.000000 0.000000 0.012900
#
#
# Mechanical properties :
#
#
# Convention : Reuss Voigt Hill
#
# Bulk Modulus (GPa) = 49.85072 94.52519 72.18795
# Shear Modulus (GPa) = 32.07827 68.20586 50.14206
#
# Velocity S-wave (km/s) = 3.76678 5.49257 4.70941
# Velocity P-wave (km/s) = 6.40061 9.05728 7.84226
#
# Compressibility (1/GPa) = 0.02005989
#
# Stress axis : x y z
#
# Youngs Moduli (GPa) = 177.04389 86.53879 22.75354
#
# Poissons Ratio (x) = 0.00398 0.07338
# Poissons Ratio (y) = 0.00815 0.39308
# Poissons Ratio (z) = 0.57094 1.49502
#
# Static dielectric constant tensor:
#      x y z
#    x 1.794790 0.000000 0.000000 
#    y 0.000000 2.081750 0.000000 
#    z 0.000000 0.000000 1.844120 
# 
# From -- ./inp_files/446.got.cif
#   From: 2010.05.17/outbox.cif.g08.bks.cpg/sg50_1_cif.got.tgz:446.got - 2010.06.03 11:33:33.
