data_PCOD9397517
_publ_section_title
;
Structure prediction by ZEFSAII (Michael W. Deem and Ramdas Pophale) SiO2 
 PCOD9397517
Probable space group: P B A N
;
_chemical_formula_sum "Si O2"
_cell_formula_units_Z 26
_cell_length_a 12.496845
_cell_length_b 5.200247
_cell_length_c 17.191657
_cell_angle_alpha 90.000000
_cell_angle_beta 90.000000
_cell_angle_gamma 90.000000
_cell_volume 1117.228725
_symmetry_space_group_name_H-M "P B A N"
_symmetry_group_IT_number 50
_space_group.IT_coordinate_system_code '2'
_symmetry_cell_setting 'orthorhombic'
loop_
_space_group_symop_operation_xyz
x,y,z
1/2-x,1/2-y,z
x,1/2-y,-z
1/2-x,y,-z
-x,-y,-z
1/2+x,1/2+y,-z
-x,1/2+y,z
1/2+x,-y,z
loop_
_atom_site_type_symbol
_atom_site_label
_atom_site_fract_x
_atom_site_fract_y
_atom_site_fract_z
Si Si1 0.250000 0.250000 0.250193
Si Si2 0.423593 0.404958 0.622276
Si Si3 0.960804 0.039257 0.088182
Si Si4 0.750000 0.250000 0.148698
Si Si5 0.750000 0.750000 0.500000
O O1 0.350096 0.152100 0.302240
O O2 0.279514 0.504156 0.200925
O O3 0.491988 0.667505 0.618314
O O4 0.333260 0.404784 0.554397
O O5 0.844407 0.152120 0.094477
O O6 0.032122 0.261209 0.126045
O O7 0.000000 0.000000 0.000000
#
# Coordination Sequence:
#
# PCOD9397517 Si02
#       5
#     4   8   8   4   2
#     4  11  26  41  64  99 132 177 228 268 336 411
#     4  11  24  43  67  96 138 180 226 283 332 393
#     4  10  23  42  65  94 124 162 210 263 329 400
#     4  12  24  43  68  97 134 172 218 282 336 405
#     4  10  24  42  68 104 132 180 236 276 340 394
#
# _framework density 23.271868999999999
#
# number of rings (size 3 to 8) (size 9 to 14) (size 15 to 20)
#    0.000    1.231    0.000    4.615    0.000   14.769 
#    0.000    6.154    0.000    0.000    0.000    0.000 
#    0.000    0.000    0.000    0.000    0.000    0.000 
#
# Total GULP energy -145243.640021 kJ/mol
# GULP energy per Si atom -5586.293847 kJ/mol
# Density = 2.321890 g / cm^3
# Si number density = 23.271869 Si / 1000 Ang^3
#
#
#
# Elastic Constant Matrix: (Units=GPa)
#
#
# Indices 1 2 3 4 5 6 
#
# 1 169.7202 61.4627 58.1614 0.0000 0.0000 0.0000
# 2 61.4627 198.9697 34.5997 0.0000 0.0000 0.0000
# 3 58.1614 34.5997 89.2596 0.0000 0.0000 0.0000
# 4 0.0000 0.0000 0.0000 4.2148 0.0000 0.0000
# 5 0.0000 0.0000 0.0000 0.0000 43.1083 0.0000
# 6 0.0000 0.0000 0.0000 0.0000 0.0000 41.4053
#
#
#
# Elastic Compliance Matrix: (Units=1/GPa)
#
#
# Indices 1 2 3 4 5 6 
#
# 1 0.008087 -0.001696 -0.004612 0.000000 0.000000 0.000000
# 2 -0.001696 0.005745 -0.001122 0.000000 0.000000 0.000000
# 3 -0.004612 -0.001122 0.014643 0.000000 0.000000 0.000000
# 4 0.000000 0.000000 0.000000 0.237261 0.000000 0.000000
# 5 0.000000 0.000000 0.000000 0.000000 0.023197 0.000000
# 6 0.000000 0.000000 0.000000 0.000000 0.000000 0.024151
#
#
# Mechanical properties :
#
#
# Convention : Reuss Voigt Hill
#
# Bulk Modulus (GPa) = 73.44583 85.15523 79.30053
# Shear Modulus (GPa) = 15.03841 37.99406 26.51624
#
# Velocity S-wave (km/s) = 2.54482 4.04495 3.37918
# Velocity P-wave (km/s) = 6.34533 7.64764 7.02672
#
# Compressibility (1/GPa) = 0.01361548
#
# Stress axis : x y z
#
# Youngs Moduli (GPa) = 123.66002 174.06832 68.29122
#
# Poissons Ratio (x) = 0.29523 0.31495
# Poissons Ratio (y) = 0.20973 0.07661
# Poissons Ratio (z) = 0.57030 0.19526
#
# Static dielectric constant tensor:
#      x y z
#    x 3.426900 0.000000 0.000000 
#    y 0.000000 1.911820 0.000000 
#    z 0.000000 0.000000 1.863980 
# 
# From -- ./inp_files/29032.got.cif
#   From: 2010.05.17/outbox.cif.g08.bks.cpg/sg50_15_cif.got.tgz:29032.got - 2010.06.03 11:33:33.
