data_PCOD9397630
_publ_section_title
;
Structure prediction by ZEFSAII (Michael W. Deem and Ramdas Pophale) SiO2 
 PCOD9397630
Probable space group: P B A N
;
_chemical_formula_sum "Si O2"
_cell_formula_units_Z 36
_cell_length_a 21.559050
_cell_length_b 9.018762
_cell_length_c 8.942536
_cell_angle_alpha 90.000000
_cell_angle_beta 90.000000
_cell_angle_gamma 90.000000
_cell_volume 1738.750401
_symmetry_space_group_name_H-M "P B A N"
_symmetry_group_IT_number 50
_space_group.IT_coordinate_system_code '2'
_symmetry_cell_setting 'orthorhombic'
loop_
_space_group_symop_operation_xyz
x,y,z
1/2-x,1/2-y,z
x,1/2-y,-z
1/2-x,y,-z
-x,-y,-z
1/2+x,1/2+y,-z
-x,1/2+y,z
1/2+x,-y,z
loop_
_atom_site_type_symbol
_atom_site_label
_atom_site_fract_x
_atom_site_fract_y
_atom_site_fract_z
Si Si1 0.578406 0.008807 0.129704
Si Si2 0.432658 0.575751 0.468897
Si Si3 0.986895 0.750000 0.000000
Si Si4 0.312522 0.415728 0.933259
Si Si5 0.313944 0.410290 0.578617
O O1 0.552478 0.841382 0.120045
O O2 0.591457 0.045944 0.300177
O O3 0.631188 0.009001 0.002898
O O4 0.527359 0.127641 0.081808
O O5 0.439068 0.750000 0.500000
O O6 0.500000 0.500000 0.500000
O O7 0.376295 0.506369 0.562877
O O8 0.305455 0.398764 0.756448
O O9 0.318607 0.250000 0.000000
O O10 0.250000 0.482490 0.000000
O O11 0.324256 0.250000 0.500000
O O12 0.250000 0.468132 0.500000
#
# Coordination Sequence:
#
# PCOD9397630 Si02
#       5
#     8   8   4   8   8
#     4  11  23  42  65  96 132 172 224 268 336 400
#     4  12  27  43  69 100 142 179 228 283 348 411
#     4  10  24  38  68  90 134 170 218 268 330 392
#     4  11  22  40  69  97 129 173 227 277 330 401
#     4  11  24  44  70  99 137 181 229 282 346 410
#
# _framework density 20.704525
#
# number of rings (size 3 to 8) (size 9 to 14) (size 15 to 20)
#    0.000    0.889    1.111    7.333    9.333    0.444 
#    0.000    0.556    0.000    0.000    0.000    0.000 
#    0.000    0.000    0.000    0.000    0.000    0.000 
#
# Total GULP energy -201028.212889 kJ/mol
# GULP energy per Si atom -5584.117025 kJ/mol
# Density = 2.065740 g / cm^3
# Si number density = 20.704525 Si / 1000 Ang^3
#
#
#
# Elastic Constant Matrix: (Units=GPa)
#
#
# Indices 1 2 3 4 5 6 
#
# 1 140.1654 56.0712 40.0848 0.0000 0.0000 0.0000
# 2 56.0712 105.7692 31.9388 0.0000 0.0000 0.0000
# 3 40.0848 31.9388 190.2072 0.0000 0.0000 0.0000
# 4 0.0000 0.0000 0.0000 23.9539 0.0000 0.0000
# 5 0.0000 0.0000 0.0000 0.0000 23.7966 0.0000
# 6 0.0000 0.0000 0.0000 0.0000 0.0000-1910.9392
#
#
#
# Elastic Compliance Matrix: (Units=1/GPa)
#
#
# Indices 1 2 3 4 5 6 
#
# 1 0.009305 -0.004572 -0.001193 0.000000 0.000000 0.000000
# 2 -0.004572 0.012206 -0.001086 0.000000 0.000000 0.000000
# 3 -0.001193 -0.001086 0.005691 0.000000 0.000000 0.000000
# 4 0.000000 0.000000 0.000000 0.041747 0.000000 0.000000
# 5 0.000000 0.000000 0.000000 0.000000 0.042023 0.000000
# 6 0.000000 0.000000 0.000000 0.000000 0.000000 -0.000523
#
#
# Mechanical properties :
#
#
# Convention : Reuss Voigt Hill
#
# Bulk Modulus (GPa) = 74.07818 76.92570 75.50194
# Shear Modulus (GPa) = 38.86460 -352.10127 -156.61834
#
# Velocity S-wave (km/s) = 4.33726 -13.05486 -8.70682
# Velocity P-wave (km/s) = 7.80633 13.78420 8.03323
#
# Compressibility (1/GPa) = 0.01349925
#
# Stress axis : x y z
#
# Youngs Moduli (GPa) = 107.47166 81.92370 175.70878
#
# Poissons Ratio (x) = 0.37459 0.20964
# Poissons Ratio (y) = 0.49141 0.19083
# Poissons Ratio (z) = 0.12823 0.08897
#
# Static dielectric constant tensor:
#      x y z
#    x 1.691380 0.000000 0.000000 
#    y 0.000000 1.704840 0.000000 
#    z 0.000000 0.000000 1.738290 
# 
# From -- ./inp_files/9263.got.cif
#   From: 2010.05.17/outbox.cif.g08.bks.cpg/sg50_5_cif.got.tgz:9263.got - 2010.06.03 11:33:33.
