data_PCOD9397931
_publ_section_title
;
Structure prediction by ZEFSAII (Michael W. Deem and Ramdas Pophale) SiO2 
 PCOD9397931
Probable space group: P B A N
;
_chemical_formula_sum "Si O2"
_cell_formula_units_Z 56
_cell_length_a 18.957780
_cell_length_b 17.135624
_cell_length_c 8.871497
_cell_angle_alpha 90.000000
_cell_angle_beta 90.000000
_cell_angle_gamma 90.000000
_cell_volume 2881.935874
_symmetry_space_group_name_H-M "P B A N"
_symmetry_group_IT_number 50
_space_group.IT_coordinate_system_code '2'
_symmetry_cell_setting 'orthorhombic'
loop_
_space_group_symop_operation_xyz
x,y,z
1/2-x,1/2-y,z
x,1/2-y,-z
1/2-x,y,-z
-x,-y,-z
1/2+x,1/2+y,-z
-x,1/2+y,z
1/2+x,-y,z
loop_
_atom_site_type_symbol
_atom_site_label
_atom_site_fract_x
_atom_site_fract_y
_atom_site_fract_z
Si Si1 0.204396 0.052011 0.230622
Si Si2 0.142568 0.050789 0.891887
Si Si3 0.692598 0.124993 0.217163
Si Si4 0.825058 0.717592 0.331922
Si Si5 0.584447 0.237368 0.326967
Si Si6 0.855701 0.373012 0.874154
Si Si7 0.949780 0.701005 0.849604
O O1 0.288956 0.061546 0.214887
O O2 0.176736 0.123897 0.327327
O O3 0.184878 0.963816 0.275384
O O4 0.173114 0.057589 0.061426
O O5 0.084128 0.116429 0.875977
O O6 0.118354 0.962226 0.862817
O O7 0.655729 0.186507 0.324017
O O8 0.775718 0.134139 0.188578
O O9 0.654745 0.139597 0.054067
O O10 0.750000 0.750000 0.269324
O O11 0.831056 0.750000 0.500000
O O12 0.889490 0.749642 0.235565
O O13 0.565528 0.250000 0.500000
O O14 0.598404 0.313548 0.223193
O O15 0.519769 0.193552 0.248354
O O16 0.965855 0.750000 0.000000
#
# Coordination Sequence:
#
# PCOD9397931 Si02
#       7
#     8   8   8   8   8   8   8
#     4   9  17  36  62  95 121 145 204 255 305 353
#     4   9  18  35  64  95 118 148 201 263 299 350
#     4   9  19  39  69  93 117 153 199 264 306 359
#     4  11  22  36  56  88 129 166 196 246 302 364
#     4  12  26  43  56  88 128 165 205 248 311 381
#     4   9  19  40  68  94 119 149 201 261 310 359
#     4  12  23  39  63  87 119 166 209 254 295 354
#
# _framework density 19.431381999999999
#
# number of rings (size 3 to 8) (size 9 to 14) (size 15 to 20)
#    0.000    1.857    2.857    3.857    0.000    2.571 
#    5.143    2.857    0.000    0.000    0.000    0.000 
#    0.000    0.000    0.000    0.000    0.000    0.000 
#
# Total GULP energy -312593.902104 kJ/mol
# GULP energy per Si atom -5582.033966 kJ/mol
# Density = 1.938716 g / cm^3
# Si number density = 19.431382 Si / 1000 Ang^3
#
#
#
# Elastic Constant Matrix: (Units=GPa)
#
#
# Indices 1 2 3 4 5 6 
#
# 1 47.5012 28.2837 16.9693 0.0000 0.0000 0.0000
# 2 28.2837 101.4338 23.7052 0.0000 0.0000 0.0000
# 3 16.9693 23.7052 40.2773 0.0000 0.0000 0.0000
# 4 0.0000 0.0000 0.0000 23.9784 0.0000 0.0000
# 5 0.0000 0.0000 0.0000 0.0000 34.0988 0.0000
# 6 0.0000 0.0000 0.0000 0.0000 0.0000 218.8785
#
#
#
# Elastic Compliance Matrix: (Units=1/GPa)
#
#
# Indices 1 2 3 4 5 6 
#
# 1 0.027378 -0.005726 -0.008165 0.000000 0.000000 0.000000
# 2 -0.005726 0.012628 -0.005020 0.000000 0.000000 0.000000
# 3 -0.008165 -0.005020 0.031222 0.000000 0.000000 0.000000
# 4 0.000000 0.000000 0.000000 0.041704 0.000000 0.000000
# 5 0.000000 0.000000 0.000000 0.000000 0.029327 0.000000
# 6 0.000000 0.000000 0.000000 0.000000 0.000000 0.004569
#
#
# Mechanical properties :
#
#
# Convention : Reuss Voigt Hill
#
# Bulk Modulus (GPa) = 29.93344 36.34765 33.14054
# Shear Modulus (GPa) = 25.53808 63.40809 44.47309
#
# Velocity S-wave (km/s) = 3.62922 5.71862 4.78925
# Velocity P-wave (km/s) = 5.74454 7.89619 6.90469
#
# Compressibility (1/GPa) = 0.03340745
#
# Stress axis : x y z
#
# Youngs Moduli (GPa) = 36.52527 79.18612 32.02836
#
# Poissons Ratio (x) = 0.45342 0.26150
# Poissons Ratio (y) = 0.20914 0.16078
# Poissons Ratio (z) = 0.29822 0.39752
#
# Static dielectric constant tensor:
#      x y z
#    x 1.655660 0.000000 0.000000 
#    y 0.000000 1.688080 0.000000 
#    z 0.000000 0.000000 1.682310 
# 
# From -- ./inp_files/15364.got.cif
#   From: 2010.05.17/outbox.cif.g08.bks.cpg/sg50_8_cif.got.tgz:15364.got - 2010.06.03 11:33:33.
