data_PCOD9397908
_publ_section_title
;
Structure prediction by ZEFSAII (Michael W. Deem and Ramdas Pophale) SiO2 
 PCOD9397908
Probable space group: P B A N
;
_chemical_formula_sum "Si O2"
_cell_formula_units_Z 24
_cell_length_a 13.489508
_cell_length_b 10.731300
_cell_length_c 8.123823
_cell_angle_alpha 90.000000
_cell_angle_beta 90.000000
_cell_angle_gamma 90.000000
_cell_volume 1176.004270
_symmetry_space_group_name_H-M "P B A N"
_symmetry_group_IT_number 50
_space_group.IT_coordinate_system_code '2'
_symmetry_cell_setting 'orthorhombic'
loop_
_space_group_symop_operation_xyz
x,y,z
1/2-x,1/2-y,z
x,1/2-y,-z
1/2-x,y,-z
-x,-y,-z
1/2+x,1/2+y,-z
-x,1/2+y,z
1/2+x,-y,z
loop_
_atom_site_type_symbol
_atom_site_label
_atom_site_fract_x
_atom_site_fract_y
_atom_site_fract_z
Si Si1 0.025934 0.126532 0.396142
Si Si2 0.720712 0.884516 0.192011
Si Si3 0.696685 0.364393 0.321218
O O1 0.057718 0.250000 0.500000
O O2 0.108190 0.096383 0.257198
O O3 0.918937 0.163815 0.325738
O O4 0.000000 0.000000 0.500000
O O5 0.750000 0.750000 0.261300
O O6 0.784819 0.999040 0.255117
O O7 0.750000 0.880510 0.000000
O O8 0.750000 0.250000 0.229943
O O9 0.750000 0.369531 0.500000
#
# Coordination Sequence:
#
# PCOD9397908 Si02
#       3
#     8   8   8
#     4  12  22  38  70 100 127 180 231 275 336 405
#     4  11  26  43  62  98 142 181 220 281 348 407
#     4  11  21  41  66 100 132 171 231 284 331 399
#
# _framework density 20.408086999999998
#
# number of rings (size 3 to 8) (size 9 to 14) (size 15 to 20)
#    0.000    0.667    6.667    2.000    0.000    2.000 
#    0.000    3.333    0.000    0.000    0.000    0.000 
#    0.000    0.000    0.000    0.000    0.000    0.000 
#
# Total GULP energy -133737.196509 kJ/mol
# GULP energy per Si atom -5572.383188 kJ/mol
# Density = 2.036164 g / cm^3
# Si number density = 20.408087 Si / 1000 Ang^3
#
#
#
# Elastic Constant Matrix: (Units=GPa)
#
#
# Indices 1 2 3 4 5 6 
#
# 1 136.5948 -9.8013 52.0377 0.0000 0.0000 0.0000
# 2 -9.8013 140.5264 40.0205 0.0000 0.0000 0.0000
# 3 52.0377 40.0205 71.7898 0.0000 0.0000 0.0000
# 4 0.0000 0.0000 0.0000 35.3957 0.0000 0.0000
# 5 0.0000 0.0000 0.0000 0.0000 20.1879 0.0000
# 6 0.0000 0.0000 0.0000 0.0000 0.0000 42.3216
#
#
#
# Elastic Compliance Matrix: (Units=1/GPa)
#
#
# Indices 1 2 3 4 5 6 
#
# 1 0.011610 0.003812 -0.010540 0.000000 0.000000 0.000000
# 2 0.003812 0.009710 -0.008176 0.000000 0.000000 0.000000
# 3 -0.010540 -0.008176 0.026128 0.000000 0.000000 0.000000
# 4 0.000000 0.000000 0.000000 0.028252 0.000000 0.000000
# 5 0.000000 0.000000 0.000000 0.000000 0.049535 0.000000
# 6 0.000000 0.000000 0.000000 0.000000 0.000000 0.023629
#
#
# Mechanical properties :
#
#
# Convention : Reuss Voigt Hill
#
# Bulk Modulus (GPa) = 56.69499 57.04722 56.87110
# Shear Modulus (GPa) = 27.09248 37.35797 32.22523
#
# Velocity S-wave (km/s) = 3.64749 4.28313 3.97803
# Velocity P-wave (km/s) = 6.75129 7.24391 7.00193
#
# Compressibility (1/GPa) = 0.01763824
#
# Stress axis : x y z
#
# Youngs Moduli (GPa) = 86.13293 102.98213 38.27328
#
# Poissons Ratio (x) = -0.39252 0.40342
# Poissons Ratio (y) = -0.32830 0.31293
# Poissons Ratio (z) = 0.90788 0.84199
#
# Static dielectric constant tensor:
#      x y z
#    x 1.723210 0.000000 0.000000 
#    y 0.000000 1.778430 0.000000 
#    z 0.000000 0.000000 2.283300 
# 
# From -- ./inp_files/8483.got.cif
#   From: 2010.05.17/outbox.cif.g08.bks.cpg/sg50_5_cif.got.tgz:8483.got - 2010.06.03 11:33:33.
