data_PCOD9397530
_publ_section_title
;
Structure prediction by ZEFSAII (Michael W. Deem and Ramdas Pophale) SiO2 
 PCOD9397530
Probable space group: P B A N
;
_chemical_formula_sum "Si O2"
_cell_formula_units_Z 48
_cell_length_a 17.391108
_cell_length_b 9.520029
_cell_length_c 13.321360
_cell_angle_alpha 90.000000
_cell_angle_beta 90.000000
_cell_angle_gamma 90.000000
_cell_volume 2205.535682
_symmetry_space_group_name_H-M "P B A N"
_symmetry_group_IT_number 50
_space_group.IT_coordinate_system_code '2'
_symmetry_cell_setting 'orthorhombic'
loop_
_space_group_symop_operation_xyz
x,y,z
1/2-x,1/2-y,z
x,1/2-y,-z
1/2-x,y,-z
-x,-y,-z
1/2+x,1/2+y,-z
-x,1/2+y,z
1/2+x,-y,z
loop_
_atom_site_type_symbol
_atom_site_label
_atom_site_fract_x
_atom_site_fract_y
_atom_site_fract_z
Si Si1 0.852544 0.106823 0.789523
Si Si2 0.363235 0.894185 0.338130
Si Si3 0.522879 0.750000 0.500000
Si Si4 0.750000 0.750000 0.000000
Si Si5 0.930305 0.101608 0.002938
Si Si6 0.538383 0.509974 0.624871
Si Si7 0.187995 0.476634 0.156739
Si Si8 0.250000 0.750000 0.500000
O O1 0.853656 0.256868 0.733529
O O2 0.884944 0.104142 0.900273
O O3 0.767964 0.048758 0.811471
O O4 0.909114 0.012991 0.721108
O O5 0.452775 0.924715 0.361419
O O6 0.345719 0.032639 0.269472
O O7 0.305956 0.849688 0.430258
O O8 0.574018 0.635161 0.558445
O O9 0.473400 0.641068 0.430016
O O10 0.703597 0.650935 0.078881
O O11 0.970539 0.250000 0.000000
O O12 0.871508 0.070438 0.092321
O O13 0.000000 0.000000 0.000000
#
# Coordination Sequence:
#
# PCOD9397530 Si02
#       8
#     8   8   4   2   8   8   8   2
#     4  12  24  45  75 109 149 200 255 328 392 478
#     4  12  25  46  76 113 150 203 266 329 393 479
#     4  10  23  42  70 100 157 202 258 318 395 458
#     4  12  28  48  74 102 156 212 248 324 392 490
#     4  12  27  45  76 111 150 195 262 320 388 482
#     4  11  24  44  71 111 151 206 260 331 393 470
#     4  12  26  49  72 105 151 202 256 317 401 466
#     4  12  26  44  80 116 154 200 286 322 406 470
#
# _framework density 21.763418999999999
#
# number of rings (size 3 to 8) (size 9 to 14) (size 15 to 20)
#    0.000    0.333    6.667    1.500    3.500    2.000 
#    0.000    0.000    0.000    1.000    0.000    0.000 
#    0.000    0.000    0.000    0.000    0.000    0.000 
#
# Total GULP energy -267232.927726 kJ/mol
# GULP energy per Si atom -5567.352661 kJ/mol
# Density = 2.171388 g / cm^3
# Si number density = 21.763419 Si / 1000 Ang^3
#
#
#
# Elastic Constant Matrix: (Units=GPa)
#
#
# Indices 1 2 3 4 5 6 
#
# 1 114.1412 44.4366 34.8108 0.0000 0.0000 0.0000
# 2 44.4366 122.2245 26.1353 0.0000 0.0000 0.0000
# 3 34.8108 26.1353 96.8978 0.0000 0.0000 0.0000
# 4 0.0000 0.0000 0.0000 33.4242 0.0000 0.0000
# 5 0.0000 0.0000 0.0000 0.0000 52.0289 0.0000
# 6 0.0000 0.0000 0.0000 0.0000 0.0000 47.2018
#
#
#
# Elastic Compliance Matrix: (Units=1/GPa)
#
#
# Indices 1 2 3 4 5 6 
#
# 1 0.010993 -0.003345 -0.003047 0.000000 0.000000 0.000000
# 2 -0.003345 0.009700 -0.001415 0.000000 0.000000 0.000000
# 3 -0.003047 -0.001415 0.011796 0.000000 0.000000 0.000000
# 4 0.000000 0.000000 0.000000 0.029918 0.000000 0.000000
# 5 0.000000 0.000000 0.000000 0.000000 0.019220 0.000000
# 6 0.000000 0.000000 0.000000 0.000000 0.000000 0.021186
#
#
# Mechanical properties :
#
#
# Convention : Reuss Voigt Hill
#
# Bulk Modulus (GPa) = 59.25555 60.44767 59.85161
# Shear Modulus (GPa) = 40.30572 41.72302 41.01437
#
# Velocity S-wave (km/s) = 4.30815 4.38324 4.34586
# Velocity P-wave (km/s) = 7.21340 7.31110 7.26241
#
# Compressibility (1/GPa) = 0.01687606
#
# Stress axis : x y z
#
# Youngs Moduli (GPa) = 90.97044 103.08966 84.77219
#
# Poissons Ratio (x) = 0.34484 0.25829
# Poissons Ratio (y) = 0.30430 0.11992
# Poissons Ratio (z) = 0.27718 0.14584
#
# Static dielectric constant tensor:
#      x y z
#    x 1.918130 0.000000 0.000000 
#    y 0.000000 1.832840 0.000000 
#    z 0.000000 0.000000 1.672750 
# 
# From -- ./inp_files/26926.got.cif
#   From: 2010.05.17/outbox.cif.g08.bks.cpg/sg50_14_cif.got.tgz:26926.got - 2010.06.03 11:33:33.
