data_PCOD9397360
_publ_section_title
;
Structure prediction by ZEFSAII (Michael W. Deem and Ramdas Pophale) SiO2 
 PCOD9397360
Probable space group: P B A N
;
_chemical_formula_sum "Si O2"
_cell_formula_units_Z 48
_cell_length_a 8.497348
_cell_length_b 15.401129
_cell_length_c 17.533190
_cell_angle_alpha 90.000000
_cell_angle_beta 90.000000
_cell_angle_gamma 90.000000
_cell_volume 2294.546706
_symmetry_space_group_name_H-M "P B A N"
_symmetry_group_IT_number 50
_space_group.IT_coordinate_system_code '2'
_symmetry_cell_setting 'orthorhombic'
loop_
_space_group_symop_operation_xyz
x,y,z
1/2-x,1/2-y,z
x,1/2-y,-z
1/2-x,y,-z
-x,-y,-z
1/2+x,1/2+y,-z
-x,1/2+y,z
1/2+x,-y,z
loop_
_atom_site_type_symbol
_atom_site_label
_atom_site_fract_x
_atom_site_fract_y
_atom_site_fract_z
Si Si1 0.845212 0.413818 0.306673
Si Si2 0.680202 0.932247 0.755974
Si Si3 0.243499 0.097856 0.082986
Si Si4 0.500584 0.746006 0.915978
Si Si5 0.934672 0.220757 0.585152
Si Si6 0.250000 0.750000 0.214728
Si Si7 0.750000 0.750000 0.685462
O O1 0.745473 0.500404 0.305754
O O2 0.913358 0.378990 0.386893
O O3 0.749057 0.335520 0.267008
O O4 0.994346 0.430557 0.253042
O O5 0.728650 0.957667 0.841639
O O6 0.742818 0.836188 0.736822
O O7 0.374161 0.174969 0.083010
O O8 0.083927 0.152592 0.089666
O O9 0.250000 0.053594 0.000000
O O10 0.395739 0.756094 0.842060
O O11 0.424543 0.750000 0.000000
O O12 0.750000 0.250000 0.592394
O O13 0.977664 0.250000 0.500000
O O14 0.084239 0.251485 0.637571
#
# Coordination Sequence:
#
# PCOD9397360 Si02
#       7
#     8   8   8   8   8   4   4
#     4  11  26  39  66  95 129 169 214 268 326 396
#     4  11  24  41  63  98 127 173 222 272 323 390
#     4   9  18  35  56  82 123 172 215 266 328 379
#     4   9  18  32  57  86 117 166 221 273 327 379
#     4  10  22  43  71  97 130 169 209 260 335 393
#     4  12  21  38  59  90 124 162 224 272 327 376
#     4  10  23  42  73  94 134 176 224 270 331 392
#
# _framework density 20.919163999999999
#
# number of rings (size 3 to 8) (size 9 to 14) (size 15 to 20)
#    0.000    1.833    2.500    2.500    7.000    0.000 
#    0.000    3.333    3.667    0.000    0.000    0.000 
#    0.000    0.000    0.000    0.000    0.000    0.000 
#
# Total GULP energy -267482.109470 kJ/mol
# GULP energy per Si atom -5572.543947 kJ/mol
# Density = 2.087155 g / cm^3
# Si number density = 20.919164 Si / 1000 Ang^3
#
#
#
# Elastic Constant Matrix: (Units=GPa)
#
#
# Indices 1 2 3 4 5 6 
#
# 1 73.5554 9.0875 14.0804 0.0000 0.0000 0.0000
# 2 9.0875 67.6535 14.9910 0.0000 0.0000 0.0000
# 3 14.0804 14.9910 123.7583 0.0000 0.0000 0.0000
# 4 0.0000 0.0000 0.0000 13.5861 0.0000 0.0000
# 5 0.0000 0.0000 0.0000 0.0000 -16.9199 0.0000
# 6 0.0000 0.0000 0.0000 0.0000 0.0000 11.0101
#
#
#
# Elastic Compliance Matrix: (Units=1/GPa)
#
#
# Indices 1 2 3 4 5 6 
#
# 1 0.014060 -0.001576 -0.001409 0.000000 0.000000 0.000000
# 2 -0.001576 0.015366 -0.001682 0.000000 0.000000 0.000000
# 3 -0.001409 -0.001682 0.008444 0.000000 0.000000 0.000000
# 4 0.000000 0.000000 0.000000 0.073604 0.000000 0.000000
# 5 0.000000 0.000000 0.000000 0.000000 -0.059102 0.000000
# 6 0.000000 0.000000 0.000000 0.000000 0.000000 0.090825
#
#
# Mechanical properties :
#
#
# Convention : Reuss Voigt Hill
#
# Bulk Modulus (GPa) = 35.04398 37.92055 36.48226
# Shear Modulus (GPa) = 30.85597 16.65583 23.75590
#
# Velocity S-wave (km/s) = 3.84475 2.82476 3.37353
# Velocity P-wave (km/s) = 6.04135 5.36708 5.71417
#
# Compressibility (1/GPa) = 0.02853557
#
# Stress axis : x y z
#
# Youngs Moduli (GPa) = 71.12577 65.08032 118.42352
#
# Poissons Ratio (x) = 0.10259 0.16682
# Poissons Ratio (y) = 0.11212 0.19918
# Poissons Ratio (z) = 0.10019 0.10946
#
# Static dielectric constant tensor:
#      x y z
#    x 1.790820 0.000000 0.000000 
#    y 0.000000 1.731960 0.000000 
#    z 0.000000 0.000000 1.798370 
# 
# From -- ./inp_files/28756.got.cif
#   From: 2010.05.17/outbox.cif.g08.bks.cpg/sg50_15_cif.got.tgz:28756.got - 2010.06.03 11:33:33.
