data_PCOD9397495
_publ_section_title
;
Structure prediction by ZEFSAII (Michael W. Deem and Ramdas Pophale) SiO2 
 PCOD9397495
Probable space group: P B A N
;
_chemical_formula_sum "Si O2"
_cell_formula_units_Z 40
_cell_length_a 14.487129
_cell_length_b 14.625476
_cell_length_c 8.533284
_cell_angle_alpha 90.000000
_cell_angle_beta 90.000000
_cell_angle_gamma 90.000000
_cell_volume 1808.042091
_symmetry_space_group_name_H-M "P B A N"
_symmetry_group_IT_number 50
_space_group.IT_coordinate_system_code '2'
_symmetry_cell_setting 'orthorhombic'
loop_
_space_group_symop_operation_xyz
x,y,z
1/2-x,1/2-y,z
x,1/2-y,-z
1/2-x,y,-z
-x,-y,-z
1/2+x,1/2+y,-z
-x,1/2+y,z
1/2+x,-y,z
loop_
_atom_site_type_symbol
_atom_site_label
_atom_site_fract_x
_atom_site_fract_y
_atom_site_fract_z
Si Si1 0.626706 0.651297 0.930127
Si Si2 0.383599 0.533737 0.601885
Si Si3 0.997582 0.288328 0.653428
Si Si4 0.194149 0.002065 0.256195
Si Si5 0.485682 0.595930 0.197857
O O1 0.562895 0.665002 0.777532
O O2 0.707192 0.593138 0.847638
O O3 0.650775 0.750000 0.000000
O O4 0.558126 0.605290 0.056332
O O5 0.424600 0.636104 0.596471
O O6 0.348566 0.495915 0.433537
O O7 0.294745 0.538484 0.715092
O O8 0.459404 0.465062 0.673936
O O9 0.048664 0.250000 0.500000
O O10 0.962446 0.197349 0.739874
O O11 0.113416 0.948788 0.163747
#
# Coordination Sequence:
#
# PCOD9397495 Si02
#       5
#     8   8   8   8   8
#     4  10  23  41  68  98 131 181 228 273 348 400
#     4  11  24  40  68 102 129 179 229 277 350 398
#     4  11  21  40  68  97 133 176 226 278 341 408
#     4  11  22  41  66  98 135 173 224 280 337 414
#     4  11  22  42  66  95 138 179 219 283 334 407
#
# _framework density 22.123377999999999
#
# number of rings (size 3 to 8) (size 9 to 14) (size 15 to 20)
#    0.000    1.200    4.000    2.400    0.000    1.600 
#    0.000    7.000    0.000   14.400    0.000    0.000 
#    0.000    0.000    0.000    0.000    0.000    0.000 
#
# Total GULP energy -223270.955358 kJ/mol
# GULP energy per Si atom -5581.773884 kJ/mol
# Density = 2.207302 g / cm^3
# Si number density = 22.123378 Si / 1000 Ang^3
#
#
#
# Elastic Constant Matrix: (Units=GPa)
#
#
# Indices 1 2 3 4 5 6 
#
# 1 98.9697 20.0751 18.6200 0.0000 0.0000 0.0000
# 2 20.0751 98.6798 40.6450 0.0000 0.0000 0.0000
# 3 18.6200 40.6450 110.8232 0.0000 0.0000 0.0000
# 4 0.0000 0.0000 0.0000 41.2856 0.0000 0.0000
# 5 0.0000 0.0000 0.0000 0.0000 23.8707 0.0000
# 6 0.0000 0.0000 0.0000 0.0000 0.0000 14.5438
#
#
#
# Elastic Compliance Matrix: (Units=1/GPa)
#
#
# Indices 1 2 3 4 5 6 
#
# 1 0.010667 -0.001687 -0.001174 0.000000 0.000000 0.000000
# 2 -0.001687 0.012204 -0.004192 0.000000 0.000000 0.000000
# 3 -0.001174 -0.004192 0.010758 0.000000 0.000000 0.000000
# 4 0.000000 0.000000 0.000000 0.024222 0.000000 0.000000
# 5 0.000000 0.000000 0.000000 0.000000 0.041892 0.000000
# 6 0.000000 0.000000 0.000000 0.000000 0.000000 0.068758
#
#
# Mechanical properties :
#
#
# Convention : Reuss Voigt Hill
#
# Bulk Modulus (GPa) = 51.22028 51.90589 51.56308
# Shear Modulus (GPa) = 26.43915 31.21554 28.82735
#
# Velocity S-wave (km/s) = 3.46074 3.76037 3.61366
# Velocity P-wave (km/s) = 6.25870 6.50898 6.38507
#
# Compressibility (1/GPa) = 0.01952352
#
# Stress axis : x y z
#
# Youngs Moduli (GPa) = 93.74673 81.94235 92.95283
#
# Poissons Ratio (x) = 0.13821 0.10909
# Poissons Ratio (y) = 0.15812 0.38969
# Poissons Ratio (z) = 0.11002 0.34353
#
# Static dielectric constant tensor:
#      x y z
#    x 1.812180 0.000000 0.000000 
#    y 0.000000 1.859200 0.000000 
#    z 0.000000 0.000000 1.860900 
# 
# From -- ./inp_files/12548.got.cif
#   From: 2010.05.17/outbox.cif.g08.bks.cpg/sg50_7_cif.got.tgz:12548.got - 2010.06.03 11:33:33.
