data_PCOD9397404
_publ_section_title
;
Structure prediction by ZEFSAII (Michael W. Deem and Ramdas Pophale) SiO2 
 PCOD9397404
Probable space group: P B A N
;
_chemical_formula_sum "Si O2"
_cell_formula_units_Z 38
_cell_length_a 16.671422
_cell_length_b 12.021885
_cell_length_c 7.945776
_cell_angle_alpha 90.000000
_cell_angle_beta 90.000000
_cell_angle_gamma 90.000000
_cell_volume 1592.507666
_symmetry_space_group_name_H-M "P B A N"
_symmetry_group_IT_number 50
_space_group.IT_coordinate_system_code '2'
_symmetry_cell_setting 'orthorhombic'
loop_
_space_group_symop_operation_xyz
x,y,z
1/2-x,1/2-y,z
x,1/2-y,-z
1/2-x,y,-z
-x,-y,-z
1/2+x,1/2+y,-z
-x,1/2+y,z
1/2+x,-y,z
loop_
_atom_site_type_symbol
_atom_site_label
_atom_site_fract_x
_atom_site_fract_y
_atom_site_fract_z
Si Si1 0.996021 0.750000 0.500000
Si Si2 0.250000 0.750000 0.000000
Si Si3 0.880568 0.913497 0.308375
Si Si4 0.904240 0.750000 0.000000
Si Si5 0.017867 0.050737 0.179263
Si Si6 0.128861 0.850404 0.276719
Si Si7 0.250000 0.535070 0.500000
O O1 0.059554 0.768325 0.345452
O O2 0.931932 0.847981 0.453075
O O3 0.186560 0.686246 0.877115
O O4 0.794912 0.955311 0.369028
O O5 0.868722 0.838894 0.137514
O O6 0.936643 0.021906 0.277664
O O7 0.951987 0.827910 0.868778
O O8 0.086389 0.969030 0.244514
O O9 0.000000 0.000000 0.000000
O O10 0.186001 0.881576 0.426627
#
# Coordination Sequence:
#
# PCOD9397404 Si02
#       7
#     4   2   8   4   8   8   4
#     4  10  24  48  78 106 144 206 256 308 376 476
#     4  12  28  48  80 112 152 196 252 332 390 444
#     4  10  25  45  76 110 153 196 263 307 389 455
#     4  10  22  45  75 107 147 200 260 308 369 457
#     4   9  22  44  72 108 140 196 255 305 356 470
#     4  11  26  47  75 106 150 196 256 314 392 455
#     4  12  28  48  70 112 166 188 242 336 392 442
#
# _framework density 23.861737999999999
#
# number of rings (size 3 to 8) (size 9 to 14) (size 15 to 20)
#    0.000    1.684    0.000    1.263   11.789    9.684 
#    0.000    1.053    0.000    0.000    0.000    0.000 
#    0.000    0.000    0.000    0.000    0.000    0.000 
#
# Total GULP energy -211675.358870 kJ/mol
# GULP energy per Si atom -5570.404181 kJ/mol
# Density = 2.380743 g / cm^3
# Si number density = 23.861738 Si / 1000 Ang^3
#
#
#
# Elastic Constant Matrix: (Units=GPa)
#
#
# Indices 1 2 3 4 5 6 
#
# 1 57.5629 7.2304 17.1342 0.0000 0.0000 0.0000
# 2 7.2304 106.3494 44.0184 0.0000 0.0000 0.0000
# 3 17.1342 44.0184 73.0486 0.0000 0.0000 0.0000
# 4 0.0000 0.0000 0.0000 62.1550 0.0000 0.0000
# 5 0.0000 0.0000 0.0000 0.0000 94.6373 0.0000
# 6 0.0000 0.0000 0.0000 0.0000 0.0000 24.8268
#
#
#
# Elastic Compliance Matrix: (Units=1/GPa)
#
#
# Indices 1 2 3 4 5 6 
#
# 1 0.018718 0.000726 -0.004828 0.000000 0.000000 0.000000
# 2 0.000726 0.012556 -0.007736 0.000000 0.000000 0.000000
# 3 -0.004828 -0.007736 0.019484 0.000000 0.000000 0.000000
# 4 0.000000 0.000000 0.000000 0.016089 0.000000 0.000000
# 5 0.000000 0.000000 0.000000 0.000000 0.010567 0.000000
# 6 0.000000 0.000000 0.000000 0.000000 0.000000 0.040279
#
#
# Mechanical properties :
#
#
# Convention : Reuss Voigt Hill
#
# Bulk Modulus (GPa) = 36.92631 41.52519 39.22575
# Shear Modulus (GPa) = 33.24571 47.56236 40.40403
#
# Velocity S-wave (km/s) = 3.73669 4.46942 4.11938
# Velocity P-wave (km/s) = 5.84174 6.63886 6.25302
#
# Compressibility (1/GPa) = 0.02708096
#
# Stress axis : x y z
#
# Youngs Moduli (GPa) = 53.42395 79.64553 51.32521
#
# Poissons Ratio (x) = -0.05779 0.24779
# Poissons Ratio (y) = -0.03877 0.39706
# Poissons Ratio (z) = 0.25792 0.61615
#
# Static dielectric constant tensor:
#      x y z
#    x 1.866880 0.000000 0.000000 
#    y 0.000000 1.918170 0.000000 
#    z 0.000000 0.000000 2.013060 
# 
# From -- ./inp_files/13963.got.cif
#   From: 2010.05.17/outbox.cif.g08.bks.cpg/sg50_7_cif.got.tgz:13963.got - 2010.06.03 11:33:33.
