data_PCOD9397856
_publ_section_title
;
Structure prediction by ZEFSAII (Michael W. Deem and Ramdas Pophale) SiO2 
 PCOD9397856
Probable space group: P B A N
;
_chemical_formula_sum "Si O2"
_cell_formula_units_Z 40
_cell_length_a 22.849350
_cell_length_b 9.397841
_cell_length_c 10.589945
_cell_angle_alpha 90.000000
_cell_angle_beta 90.000000
_cell_angle_gamma 90.000000
_cell_volume 2274.027162
_symmetry_space_group_name_H-M "P B A N"
_symmetry_group_IT_number 50
_space_group.IT_coordinate_system_code '2'
_symmetry_cell_setting 'orthorhombic'
loop_
_space_group_symop_operation_xyz
x,y,z
1/2-x,1/2-y,z
x,1/2-y,-z
1/2-x,y,-z
-x,-y,-z
1/2+x,1/2+y,-z
-x,1/2+y,z
1/2+x,-y,z
loop_
_atom_site_type_symbol
_atom_site_label
_atom_site_fract_x
_atom_site_fract_y
_atom_site_fract_z
Si Si1 0.184144 0.742402 0.151562
Si Si2 0.976775 0.371343 0.583829
Si Si3 0.956609 0.764303 0.799680
Si Si4 0.401550 0.984141 0.179676
Si Si5 0.569469 0.082681 0.107605
O O1 0.250000 0.750000 0.203617
O O2 0.160510 0.589193 0.193101
O O3 0.129098 0.853158 0.171304
O O4 0.189378 0.750000 0.000000
O O5 0.945712 0.250000 0.500000
O O6 0.939931 0.432301 0.701443
O O7 0.000000 0.500000 0.500000
O O8 0.030009 0.289831 0.652757
O O9 0.904883 0.653471 0.824318
O O10 0.013593 0.678438 0.852964
O O11 0.943489 0.919756 0.854291
O O12 0.423604 0.923697 0.044080
#
# Coordination Sequence:
#
# PCOD9397856 Si02
#       5
#     8   8   8   8   8
#     4   9  19  37  56  79 111 146 184 227 280 334
#     4  12  23  34  48  77 116 153 179 214 271 326
#     4  12  21  34  54  84 119 142 176 225 284 342
#     4  11  22  34  55  82 114 147 178 226 276 337
#     4  11  21  32  56  88 111 146 174 227 287 338
#
# _framework density 17.589939000000001
#
# number of rings (size 3 to 8) (size 9 to 14) (size 15 to 20)
#    0.000    1.000    6.000    1.200    2.800    0.000 
#    0.000    1.000    0.000    5.400    0.000    0.000 
#    0.000    0.000    0.000    0.000    0.000    0.000 
#
# Total GULP energy -222823.826055 kJ/mol
# GULP energy per Si atom -5570.595651 kJ/mol
# Density = 1.754990 g / cm^3
# Si number density = 17.589939 Si / 1000 Ang^3
#
#
#
# Elastic Constant Matrix: (Units=GPa)
#
#
# Indices 1 2 3 4 5 6 
#
# 1 120.4228 71.3794 14.6561 0.0000 0.0000 0.0000
# 2 71.3794 160.7097 27.2171 0.0000 0.0000 0.0000
# 3 14.6561 27.2171 77.8858 0.0000 0.0000 0.0000
# 4 0.0000 0.0000 0.0000 39.6650 0.0000 0.0000
# 5 0.0000 0.0000 0.0000 0.0000 5.1832 0.0000
# 6 0.0000 0.0000 0.0000 0.0000 0.0000 21.6864
#
#
#
# Elastic Compliance Matrix: (Units=1/GPa)
#
#
# Indices 1 2 3 4 5 6 
#
# 1 0.011283 -0.004944 -0.000395 0.000000 0.000000 0.000000
# 2 -0.004944 0.008781 -0.002138 0.000000 0.000000 0.000000
# 3 -0.000395 -0.002138 0.013661 0.000000 0.000000 0.000000
# 4 0.000000 0.000000 0.000000 0.025211 0.000000 0.000000
# 5 0.000000 0.000000 0.000000 0.000000 0.192930 0.000000
# 6 0.000000 0.000000 0.000000 0.000000 0.000000 0.046112
#
#
# Mechanical properties :
#
#
# Convention : Reuss Voigt Hill
#
# Bulk Modulus (GPa) = 53.27954 65.05815 59.16884
# Shear Modulus (GPa) = 15.66471 29.69130 22.67801
#
# Velocity S-wave (km/s) = 2.98745 4.11295 3.59452
# Velocity P-wave (km/s) = 6.50041 7.72149 7.13711
#
# Compressibility (1/GPa) = 0.01876893
#
# Stress axis : x y z
#
# Youngs Moduli (GPa) = 88.62964 113.88853 73.20209
#
# Poissons Ratio (x) = 0.56311 0.02894
# Poissons Ratio (y) = 0.43822 0.15650
# Poissons Ratio (z) = 0.03504 0.24349
#
# Static dielectric constant tensor:
#      x y z
#    x 1.643850 0.000000 0.000000 
#    y 0.000000 1.659910 0.000000 
#    z 0.000000 0.000000 1.643260 
# 
# From -- ./inp_files/23019.got.cif
#   From: 2010.05.17/outbox.cif.g08.bks.cpg/sg50_12_cif.got.tgz:23019.got - 2010.06.03 11:33:33.
