data_PCOD9397891
_publ_section_title
;
Structure prediction by ZEFSAII (Michael W. Deem and Ramdas Pophale) SiO2 
 PCOD9397891
Probable space group: P B A N
;
_chemical_formula_sum "Si O2"
_cell_formula_units_Z 48
_cell_length_a 14.732723
_cell_length_b 7.939168
_cell_length_c 15.616019
_cell_angle_alpha 90.000000
_cell_angle_beta 90.000000
_cell_angle_gamma 90.000000
_cell_volume 1826.536454
_symmetry_space_group_name_H-M "P B A N"
_symmetry_group_IT_number 50
_space_group.IT_coordinate_system_code '2'
_symmetry_cell_setting 'orthorhombic'
loop_
_space_group_symop_operation_xyz
x,y,z
1/2-x,1/2-y,z
x,1/2-y,-z
1/2-x,y,-z
-x,-y,-z
1/2+x,1/2+y,-z
-x,1/2+y,z
1/2+x,-y,z
loop_
_atom_site_type_symbol
_atom_site_label
_atom_site_fract_x
_atom_site_fract_y
_atom_site_fract_z
Si Si1 0.904547 0.998302 0.331933
Si Si2 0.894721 0.898180 0.697920
Si Si3 0.357242 0.442608 0.487719
Si Si4 0.634521 0.413757 0.159454
Si Si5 0.805649 0.577699 0.115774
Si Si6 0.529410 0.125540 0.081554
O O1 0.888889 0.799010 0.325161
O O2 0.897410 0.045436 0.431842
O O3 0.839200 0.070961 0.259420
O O4 0.001170 0.049765 0.293609
O O5 0.868866 0.995835 0.610526
O O6 0.840826 0.913989 0.785930
O O7 0.392565 0.250000 0.500000
O O8 0.250000 0.437887 0.500000
O O9 0.727051 0.438756 0.108031
O O10 0.582120 0.240858 0.148833
O O11 0.562836 0.555184 0.123546
O O12 0.750000 0.750000 0.097089
O O13 0.896724 0.523997 0.065153
O O14 0.523798 0.250000 0.000000
#
# Coordination Sequence:
#
# PCOD9397891 Si02
#       6
#     8   8   8   8   8   8
#     4  11  21  39  66  99 142 192 251 307 380 446
#     4  11  22  39  66 100 142 196 253 309 380 448
#     4   9  19  34  60  95 138 192 253 313 369 443
#     4  12  24  45  74 105 146 195 247 313 380 460
#     4  12  25  45  76 109 148 194 257 314 379 459
#     4  12  28  52  77 112 151 198 249 317 396 470
#
# _framework density 26.279245
#
# number of rings (size 3 to 8) (size 9 to 14) (size 15 to 20)
#    0.000    0.833    3.333    4.500    2.333    1.333 
#    0.000    0.833    0.000    1.000    0.000    0.000 
#    0.000    0.000    0.000    0.000    0.000    0.000 
#
# Total GULP energy -268438.592461 kJ/mol
# GULP energy per Si atom -5592.470676 kJ/mol
# Density = 2.621943 g / cm^3
# Si number density = 26.279245 Si / 1000 Ang^3
#
#
#
# Elastic Constant Matrix: (Units=GPa)
#
#
# Indices 1 2 3 4 5 6 
#
# 1 100.1939 11.2659 13.6012 0.0000 0.0000 0.0000
# 2 11.2659 80.9962 28.6371 0.0000 0.0000 0.0000
# 3 13.6012 28.6371 181.1859 0.0000 0.0000 0.0000
# 4 0.0000 0.0000 0.0000 23.8229 0.0000 0.0000
# 5 0.0000 0.0000 0.0000 0.0000 -19.6925 0.0000
# 6 0.0000 0.0000 0.0000 0.0000 0.0000 27.7293
#
#
#
# Elastic Compliance Matrix: (Units=1/GPa)
#
#
# Indices 1 2 3 4 5 6 
#
# 1 0.010195 -0.001215 -0.000573 0.000000 0.000000 0.000000
# 2 -0.001215 0.013222 -0.001999 0.000000 0.000000 0.000000
# 3 -0.000573 -0.001999 0.005878 0.000000 0.000000 0.000000
# 4 0.000000 0.000000 0.000000 0.041976 0.000000 0.000000
# 5 0.000000 0.000000 0.000000 0.000000 -0.050781 0.000000
# 6 0.000000 0.000000 0.000000 0.000000 0.000000 0.036063
#
#
# Mechanical properties :
#
#
# Convention : Reuss Voigt Hill
#
# Bulk Modulus (GPa) = 46.03875 52.15383 49.09629
# Shear Modulus (GPa) = 70.05905 26.96339 48.51122
#
# Velocity S-wave (km/s) = 5.16888 3.20665 4.30116
# Velocity P-wave (km/s) = 7.29248 5.79649 6.58709
#
# Compressibility (1/GPa) = 0.02172084
#
# Stress axis : x y z
#
# Youngs Moduli (GPa) = 98.08618 75.63196 170.12300
#
# Poissons Ratio (x) = 0.09192 0.09752
# Poissons Ratio (y) = 0.11921 0.34000
# Poissons Ratio (z) = 0.05623 0.15115
#
# Static dielectric constant tensor:
#      x y z
#    x 2.026110 0.000000 0.000000 
#    y 0.000000 2.135880 0.000000 
#    z 0.000000 0.000000 2.233480 
# 
# From -- ./inp_files/26873.got.cif
#   From: 2010.05.17/outbox.cif.g08.bks.cpg/sg50_14_cif.got.tgz:26873.got - 2010.06.03 11:33:33.
