data_PCOD9397573
_publ_section_title
;
Structure prediction by ZEFSAII (Michael W. Deem and Ramdas Pophale) SiO2 
 PCOD9397573
Probable space group: P B A N
;
_chemical_formula_sum "Si O2"
_cell_formula_units_Z 40
_cell_length_a 9.153475
_cell_length_b 22.171535
_cell_length_c 7.540001
_cell_angle_alpha 90.000000
_cell_angle_beta 90.000000
_cell_angle_gamma 90.000000
_cell_volume 1530.217502
_symmetry_space_group_name_H-M "P B A N"
_symmetry_group_IT_number 50
_space_group.IT_coordinate_system_code '2'
_symmetry_cell_setting 'orthorhombic'
loop_
_space_group_symop_operation_xyz
x,y,z
1/2-x,1/2-y,z
x,1/2-y,-z
1/2-x,y,-z
-x,-y,-z
1/2+x,1/2+y,-z
-x,1/2+y,z
1/2+x,-y,z
loop_
_atom_site_type_symbol
_atom_site_label
_atom_site_fract_x
_atom_site_fract_y
_atom_site_fract_z
Si Si1 0.113567 0.813280 0.135962
Si Si2 0.899519 0.889672 0.905194
Si Si3 0.379770 0.521478 0.739912
Si Si4 0.908281 0.071562 0.657400
Si Si5 0.402276 0.223754 0.699106
O O1 0.134855 0.860370 0.297498
O O2 0.049320 0.750865 0.211270
O O3 0.250000 0.814263 0.000000
O O4 0.977392 0.842913 0.036215
O O5 0.886785 0.848114 0.727170
O O6 0.016907 0.941676 0.870196
O O7 0.750000 0.907670 0.000000
O O8 0.434630 0.453388 0.717318
O O9 0.400118 0.553826 0.547723
O O10 0.208843 0.530903 0.766110
O O11 0.250000 0.250000 0.776736
O O12 0.407966 0.250000 0.500000
#
# Coordination Sequence:
#
# PCOD9397573 Si02
#       5
#     8   8   8   8   8
#     4  12  25  45  69 102 138 178 227 290 355 409
#     4  12  25  43  67 101 139 180 225 287 352 414
#     4  10  23  44  68  97 139 181 231 285 337 420
#     4  10  23  44  68  99 135 182 233 280 345 411
#     4  11  25  46  72 100 137 186 238 284 346 430
#
# _framework density 26.140073999999998
#
# number of rings (size 3 to 8) (size 9 to 14) (size 15 to 20)
#    0.000    1.000    4.000    1.800    2.800    3.200 
#    0.000    1.000    0.000    0.000    0.000    0.000 
#    0.000    0.000    0.000    0.000    0.000    0.000 
#
# Total GULP energy -223776.267759 kJ/mol
# GULP energy per Si atom -5594.406694 kJ/mol
# Density = 2.608058 g / cm^3
# Si number density = 26.140074 Si / 1000 Ang^3
#
#
#
# Elastic Constant Matrix: (Units=GPa)
#
#
# Indices 1 2 3 4 5 6 
#
# 1 121.6558 12.4142 41.4888 0.0000 0.0000 0.0000
# 2 12.4142 82.3861 32.2909 0.0000 0.0000 0.0000
# 3 41.4888 32.2909 112.5880 0.0000 0.0000 0.0000
# 4 0.0000 0.0000 0.0000 36.2840 0.0000 0.0000
# 5 0.0000 0.0000 0.0000 0.0000 48.5314 0.0000
# 6 0.0000 0.0000 0.0000 0.0000 0.0000 34.7374
#
#
#
# Elastic Compliance Matrix: (Units=1/GPa)
#
#
# Indices 1 2 3 4 5 6 
#
# 1 0.009402 -0.000066 -0.003446 0.000000 0.000000 0.000000
# 2 -0.000066 0.013676 -0.003898 0.000000 0.000000 0.000000
# 3 -0.003446 -0.003898 0.011270 0.000000 0.000000 0.000000
# 4 0.000000 0.000000 0.000000 0.027560 0.000000 0.000000
# 5 0.000000 0.000000 0.000000 0.000000 0.020605 0.000000
# 6 0.000000 0.000000 0.000000 0.000000 0.000000 0.028787
#
#
# Mechanical properties :
#
#
# Convention : Reuss Voigt Hill
#
# Bulk Modulus (GPa) = 51.20930 54.33532 52.77231
# Shear Modulus (GPa) = 37.69929 39.27295 38.48612
#
# Velocity S-wave (km/s) = 3.80175 3.88029 3.84122
# Velocity P-wave (km/s) = 6.23731 6.39585 6.31707
#
# Compressibility (1/GPa) = 0.01952770
#
# Stress axis : x y z
#
# Youngs Moduli (GPa) = 106.36354 73.12239 88.73459
#
# Poissons Ratio (x) = 0.00484 0.30574
# Poissons Ratio (y) = 0.00704 0.34588
# Poissons Ratio (z) = 0.36648 0.28502
#
# Static dielectric constant tensor:
#      x y z
#    x 2.056740 0.000000 0.000000 
#    y 0.000000 2.116370 0.000000 
#    z 0.000000 0.000000 2.133640 
# 
# From -- ./inp_files/9497.got.cif
#   From: 2010.05.17/outbox.cif.g08.bks.cpg/sg50_5_cif.got.tgz:9497.got - 2010.06.03 11:33:33.
