data_PCOD9397046
_publ_section_title
;
Structure prediction by ZEFSAII (Michael W. Deem and Ramdas Pophale) SiO2 
 PCOD9397046
Probable space group: P B A N
;
_chemical_formula_sum "Si O2"
_cell_formula_units_Z 30
_cell_length_a 4.933420
_cell_length_b 13.323155
_cell_length_c 19.332849
_cell_angle_alpha 90.000000
_cell_angle_beta 90.000000
_cell_angle_gamma 90.000000
_cell_volume 1270.723406
_symmetry_space_group_name_H-M "P B A N"
_symmetry_group_IT_number 50
_space_group.IT_coordinate_system_code '2'
_symmetry_cell_setting 'orthorhombic'
loop_
_space_group_symop_operation_xyz
x,y,z
1/2-x,1/2-y,z
x,1/2-y,-z
1/2-x,y,-z
-x,-y,-z
1/2+x,1/2+y,-z
-x,1/2+y,z
1/2+x,-y,z
loop_
_atom_site_type_symbol
_atom_site_label
_atom_site_fract_x
_atom_site_fract_y
_atom_site_fract_z
Si Si1 0.689527 0.937762 0.744453
Si Si2 0.539894 0.575299 0.405528
Si Si3 0.750000 0.750000 0.500000
Si Si4 0.750000 0.425555 0.000000
Si Si5 0.986629 0.310560 0.128931
O O1 0.593006 0.887396 0.673295
O O2 0.612671 0.885411 0.815503
O O3 0.507326 0.038971 0.743191
O O4 0.263220 0.513563 0.415236
O O5 0.577224 0.671621 0.453870
O O6 0.684810 0.359423 0.933113
O O7 0.500000 0.500000 0.000000
O O8 0.750000 0.250000 0.167623
O O9 0.250000 0.250000 0.101905
#
# Coordination Sequence:
#
# PCOD9397046 Si02
#       5
#     8   8   2   4   8
#     4  10  21  43  66  93 132 178 220 275 340 410
#     4  10  24  43  66  99 140 180 234 288 340 417
#     4  12  24  42  72 100 140 190 230 282 364 404
#     4  12  25  44  67  92 130 184 222 264 345 424
#     4  12  25  41  67 101 135 166 225 290 336 401
#
# _framework density 23.608599000000002
#
# number of rings (size 3 to 8) (size 9 to 14) (size 15 to 20)
#    0.000    1.067    0.000    6.000    1.867    3.200 
#    0.000    0.000    0.000    0.000    0.000    0.000 
#    0.000    0.000    0.000    0.000    0.000    0.000 
#
# Total GULP energy -167701.713163 kJ/mol
# GULP energy per Si atom -5590.057105 kJ/mol
# Density = 2.355486 g / cm^3
# Si number density = 23.608599 Si / 1000 Ang^3
#
#
#
# Elastic Constant Matrix: (Units=GPa)
#
#
# Indices 1 2 3 4 5 6 
#
# 1 135.8104 23.6955 10.3496 0.0000 0.0000 0.0000
# 2 23.6955 76.0385 50.5635 0.0000 0.0000 0.0000
# 3 10.3496 50.5635 150.3325 0.0000 0.0000 0.0000
# 4 0.0000 0.0000 0.0000 3.9085 0.0000 0.0000
# 5 0.0000 0.0000 0.0000 0.0000 24.3061 0.0000
# 6 0.0000 0.0000 0.0000 0.0000 0.0000 28.5076
#
#
#
# Elastic Compliance Matrix: (Units=1/GPa)
#
#
# Indices 1 2 3 4 5 6 
#
# 1 0.007802 -0.002672 0.000361 0.000000 0.000000 0.000000
# 2 -0.002672 0.017855 -0.005821 0.000000 0.000000 0.000000
# 3 0.000361 -0.005821 0.008585 0.000000 0.000000 0.000000
# 4 0.000000 0.000000 0.000000 0.255855 0.000000 0.000000
# 5 0.000000 0.000000 0.000000 0.000000 0.041142 0.000000
# 6 0.000000 0.000000 0.000000 0.000000 0.000000 0.035078
#
#
# Mechanical properties :
#
#
# Convention : Reuss Voigt Hill
#
# Bulk Modulus (GPa) = 55.62189 59.04428 57.33309
# Shear Modulus (GPa) = 12.86760 29.84929 21.35844
#
# Velocity S-wave (km/s) = 2.33714 3.55961 3.01107
# Velocity P-wave (km/s) = 5.55825 6.47753 6.03542
#
# Compressibility (1/GPa) = 0.01797853
#
# Stress axis : x y z
#
# Youngs Moduli (GPa) = 128.17576 56.00707 116.48149
#
# Poissons Ratio (x) = 0.14963 -0.04210
# Poissons Ratio (y) = 0.34243 0.67809
# Poissons Ratio (z) = -0.04633 0.32604
#
# Static dielectric constant tensor:
#      x y z
#    x 1.861030 0.000000 0.000000 
#    y 0.000000 1.876510 0.000000 
#    z 0.000000 0.000000 1.967080 
# 
# From -- ./inp_files/30158.got.cif
#   From: 2010.05.17/outbox.cif.g08.bks.cpg/sg50_16_cif.got.tgz:30158.got - 2010.06.03 11:33:33.
