data_PCOD9397935
_publ_section_title
;
Structure prediction by ZEFSAII (Michael W. Deem and Ramdas Pophale) SiO2 
 PCOD9397935
Probable space group: P B A N
;
_chemical_formula_sum "Si O2"
_cell_formula_units_Z 40
_cell_length_a 16.344332
_cell_length_b 24.342859
_cell_length_c 4.974745
_cell_angle_alpha 90.000000
_cell_angle_beta 90.000000
_cell_angle_gamma 90.000000
_cell_volume 1979.290696
_symmetry_space_group_name_H-M "P B A N"
_symmetry_group_IT_number 50
_space_group.IT_coordinate_system_code '2'
_symmetry_cell_setting 'orthorhombic'
loop_
_space_group_symop_operation_xyz
x,y,z
1/2-x,1/2-y,z
x,1/2-y,-z
1/2-x,y,-z
-x,-y,-z
1/2+x,1/2+y,-z
-x,1/2+y,z
1/2+x,-y,z
loop_
_atom_site_type_symbol
_atom_site_label
_atom_site_fract_x
_atom_site_fract_y
_atom_site_fract_z
Si Si1 0.663063 0.381641 0.104558
Si Si2 0.564534 0.646182 0.467829
Si Si3 0.154111 0.314277 0.959260
Si Si4 0.988267 0.040712 0.251120
Si Si5 0.881770 0.311864 0.411841
O O1 0.635037 0.335604 0.885613
O O2 0.750000 0.403477 0.000000
O O3 0.595660 0.428183 0.164524
O O4 0.667536 0.350118 0.384227
O O5 0.601020 0.648392 0.166498
O O6 0.544818 0.590379 0.632651
O O7 0.478283 0.677882 0.460560
O O8 0.630638 0.675091 0.653335
O O9 0.135179 0.250000 0.000000
O O10 0.250000 0.324003 0.000000
O O11 0.000000 0.000000 0.500000
O O12 0.000000 0.000000 0.000000
O O13 0.862348 0.250000 0.500000
#
# Coordination Sequence:
#
# PCOD9397935 Si02
#       5
#     8   8   8   8   8
#     4  11  24  41  61  90 126 158 198 252 305 362
#     4  11  22  39  61  87 119 157 209 254 294 367
#     4  11  22  37  59  89 127 163 194 243 310 369
#     4  11  23  43  66  86 115 161 211 260 310 354
#     4  11  22  37  62  92 123 163 200 237 296 372
#
# _framework density 20.209257999999998
#
# number of rings (size 3 to 8) (size 9 to 14) (size 15 to 20)
#    0.000    1.000    0.000    9.600    0.000    4.000 
#    0.000    6.000    0.000    0.000    0.000    0.000 
#    0.000    0.000    0.000    0.000    0.000    0.000 
#
# Total GULP energy -222915.235925 kJ/mol
# GULP energy per Si atom -5572.880898 kJ/mol
# Density = 2.016326 g / cm^3
# Si number density = 20.209258 Si / 1000 Ang^3
#
#
#
# Elastic Constant Matrix: (Units=GPa)
#
#
# Indices 1 2 3 4 5 6 
#
# 1 82.3264 31.5794 23.7173 0.0000 0.0000 0.0000
# 2 31.5794 104.8843 16.7195 0.0000 0.0000 0.0000
# 3 23.7173 16.7195 117.8739 0.0000 0.0000 0.0000
# 4 0.0000 0.0000 0.0000 34.7236 0.0000 0.0000
# 5 0.0000 0.0000 0.0000 0.0000 40.2414 0.0000
# 6 0.0000 0.0000 0.0000 0.0000 0.0000 -1.1799
#
#
#
# Elastic Compliance Matrix: (Units=1/GPa)
#
#
# Indices 1 2 3 4 5 6 
#
# 1 0.014329 -0.003944 -0.002324 0.000000 0.000000 0.000000
# 2 -0.003944 0.010840 -0.000744 0.000000 0.000000 0.000000
# 3 -0.002324 -0.000744 0.009057 0.000000 0.000000 0.000000
# 4 0.000000 0.000000 0.000000 0.028799 0.000000 0.000000
# 5 0.000000 0.000000 0.000000 0.000000 0.024850 0.000000
# 6 0.000000 0.000000 0.000000 0.000000 0.000000 -0.847506
#
#
# Mechanical properties :
#
#
# Convention : Reuss Voigt Hill
#
# Bulk Modulus (GPa) = 49.49810 49.90188 49.69999
# Shear Modulus (GPa) = -6.76706 30.29490 11.76392
#
# Velocity S-wave (km/s) = -1.83187 3.87597 2.41530
# Velocity P-wave (km/s) = 4.48013 6.69157 5.69424
#
# Compressibility (1/GPa) = 0.02020280
#
# Stress axis : x y z
#
# Youngs Moduli (GPa) = 69.78834 92.24772 110.41505
#
# Poissons Ratio (x) = 0.36381 0.25657
# Poissons Ratio (y) = 0.27524 0.08216
# Poissons Ratio (z) = 0.16217 0.06864
#
# Static dielectric constant tensor:
#      x y z
#    x 1.852190 0.000000 0.000000 
#    y 0.000000 1.502840 0.000000 
#    z 0.000000 0.000000 1.711460 
# 
# From -- ./inp_files/3381.got.cif
#   From: 2010.05.17/outbox.cif.g08.bks.cpg/sg50_2_cif.got.tgz:3381.got - 2010.06.03 11:33:33.
