data_PCOD9397689
_publ_section_title
;
Structure prediction by ZEFSAII (Michael W. Deem and Ramdas Pophale) SiO2 
 PCOD9397689
Probable space group: P B A N
;
_chemical_formula_sum "Si O2"
_cell_formula_units_Z 26
_cell_length_a 9.371150
_cell_length_b 10.287736
_cell_length_c 14.881782
_cell_angle_alpha 90.000000
_cell_angle_beta 90.000000
_cell_angle_gamma 90.000000
_cell_volume 1434.721607
_symmetry_space_group_name_H-M "P B A N"
_symmetry_group_IT_number 50
_space_group.IT_coordinate_system_code '2'
_symmetry_cell_setting 'orthorhombic'
loop_
_space_group_symop_operation_xyz
x,y,z
1/2-x,1/2-y,z
x,1/2-y,-z
1/2-x,y,-z
-x,-y,-z
1/2+x,1/2+y,-z
-x,1/2+y,z
1/2+x,-y,z
loop_
_atom_site_type_symbol
_atom_site_label
_atom_site_fract_x
_atom_site_fract_y
_atom_site_fract_z
Si Si1 0.662341 0.874137 0.176503
Si Si2 0.592852 0.385493 0.460581
Si Si3 0.157115 0.880583 0.751176
Si Si4 0.250000 0.250000 0.000000
O O1 0.750000 0.750000 0.215992
O O2 0.496900 0.876847 0.201666
O O3 0.669095 0.844653 0.069518
O O4 0.746948 0.000702 0.211167
O O5 0.533678 0.250000 0.500000
O O6 0.750000 0.397694 0.500000
O O7 0.500000 0.500000 0.500000
O O8 0.614668 0.390485 0.353901
O O9 0.250000 0.750000 0.763276
#
# Coordination Sequence:
#
# PCOD9397689 Si02
#       4
#     8   8   8   2
#     4  10  24  44  69  93 135 170 217 274 334 400
#     4  11  24  42  62  94 135 172 223 268 314 388
#     4  12  23  43  68  98 132 177 223 271 333 385
#     4   8  24  48  64 100 134 160 232 268 340 404
#
# _framework density 18.121984000000001
#
# number of rings (size 3 to 8) (size 9 to 14) (size 15 to 20)
#    0.923    0.308    3.077    3.692    4.308    1.846 
#    0.000    0.000    0.000    0.000    0.000    0.000 
#    0.000    0.000    0.000    0.000    0.000    0.000 
#
# Total GULP energy -144865.539772 kJ/mol
# GULP energy per Si atom -5571.751530 kJ/mol
# Density = 1.808074 g / cm^3
# Si number density = 18.121984 Si / 1000 Ang^3
#
#
#
# Elastic Constant Matrix: (Units=GPa)
#
#
# Indices 1 2 3 4 5 6 
#
# 1 159.0304 99.0930 76.8748 0.0000 0.0000 0.0000
# 2 99.0930 209.5060 71.2257 0.0000 0.0000 0.0000
# 3 76.8748 71.2257 178.2841 0.0000 0.0000 0.0000
# 4 0.0000 0.0000 0.0000 35.7354 0.0000 0.0000
# 5 0.0000 0.0000 0.0000 0.0000 41.2657 0.0000
# 6 0.0000 0.0000 0.0000 0.0000 0.0000 40.1332
#
#
#
# Elastic Compliance Matrix: (Units=1/GPa)
#
#
# Indices 1 2 3 4 5 6 
#
# 1 0.009994 -0.003775 -0.002801 0.000000 0.000000 0.000000
# 2 -0.003775 0.006949 -0.001149 0.000000 0.000000 0.000000
# 3 -0.002801 -0.001149 0.007276 0.000000 0.000000 0.000000
# 4 0.000000 0.000000 0.000000 0.027983 0.000000 0.000000
# 5 0.000000 0.000000 0.000000 0.000000 0.024233 0.000000
# 6 0.000000 0.000000 0.000000 0.000000 0.000000 0.024917
#
#
# Mechanical properties :
#
#
# Convention : Reuss Voigt Hill
#
# Bulk Modulus (GPa) = 114.02864 115.68972 114.85918
# Shear Modulus (GPa) = 41.76212 43.40200 42.58206
#
# Velocity S-wave (km/s) = 4.80573 4.89917 4.85268
# Velocity P-wave (km/s) = 9.68777 9.79697 9.74252
#
# Compressibility (1/GPa) = 0.00876973
#
# Stress axis : x y z
#
# Youngs Moduli (GPa) = 100.05579 143.90543 137.44126
#
# Poissons Ratio (x) = 0.54321 0.38504
# Poissons Ratio (y) = 0.37769 0.15785
# Poissons Ratio (z) = 0.28030 0.16528
#
# Static dielectric constant tensor:
#      x y z
#    x 1.580880 0.000000 0.000000 
#    y 0.000000 1.672640 0.000000 
#    z 0.000000 0.000000 1.714820 
# 
# From -- ./inp_files/25569.got.cif
#   From: 2010.05.17/outbox.cif.g08.bks.cpg/sg50_13_cif.got.tgz:25569.got - 2010.06.03 11:33:33.
