data_PCOD9397715
_publ_section_title
;
Structure prediction by ZEFSAII (Michael W. Deem and Ramdas Pophale) SiO2 
 PCOD9397715
Probable space group: P B A N
;
_chemical_formula_sum "Si O2"
_cell_formula_units_Z 30
_cell_length_a 19.092093
_cell_length_b 12.760852
_cell_length_c 5.398638
_cell_angle_alpha 90.000000
_cell_angle_beta 90.000000
_cell_angle_gamma 90.000000
_cell_volume 1315.277589
_symmetry_space_group_name_H-M "P B A N"
_symmetry_group_IT_number 50
_space_group.IT_coordinate_system_code '2'
_symmetry_cell_setting 'orthorhombic'
loop_
_space_group_symop_operation_xyz
x,y,z
1/2-x,1/2-y,z
x,1/2-y,-z
1/2-x,y,-z
-x,-y,-z
1/2+x,1/2+y,-z
-x,1/2+y,z
1/2+x,-y,z
loop_
_atom_site_type_symbol
_atom_site_label
_atom_site_fract_x
_atom_site_fract_y
_atom_site_fract_z
Si Si1 0.250000 0.750000 0.500000
Si Si2 0.641348 0.358756 0.155080
Si Si3 0.750000 0.524874 0.000000
Si Si4 0.163242 0.180595 0.253857
Si Si5 0.009169 0.320040 0.748778
O O1 0.303554 0.673645 0.636553
O O2 0.681824 0.453015 0.027887
O O3 0.562498 0.385718 0.234542
O O4 0.637636 0.250000 0.000000
O O5 0.773193 0.600538 0.222397
O O6 0.167636 0.250000 0.500000
O O7 0.085688 0.127933 0.264123
O O8 0.163767 0.250000 0.000000
O O9 0.002087 0.250000 0.500000
O O10 0.010716 0.250000 0.000000
#
# Coordination Sequence:
#
# PCOD9397715 Si02
#       5
#     2   8   4   8   8
#     4  12  18  36  64  90 142 172 208 276 334 412
#     4  11  22  39  61 101 137 172 217 275 343 412
#     4  12  24  40  68 100 136 176 224 282 342 402
#     4  10  24  46  65  93 132 179 231 280 325 387
#     4   9  19  39  66  88 130 180 217 271 334 391
#
# _framework density 22.808872999999998
#
# number of rings (size 3 to 8) (size 9 to 14) (size 15 to 20)
#    0.000    1.600    4.000    0.400    0.000    5.333 
#    0.000    0.000    0.000   14.400    0.000    0.000 
#    0.000    0.000    0.000    0.000    0.000    0.000 
#
# Total GULP energy -167328.252941 kJ/mol
# GULP energy per Si atom -5577.608431 kJ/mol
# Density = 2.275696 g / cm^3
# Si number density = 22.808873 Si / 1000 Ang^3
#
#
#
# Elastic Constant Matrix: (Units=GPa)
#
#
# Indices 1 2 3 4 5 6 
#
# 1 206.4278 54.2912 23.7172 0.0000 0.0000 0.0000
# 2 54.2912 61.1259 33.9377 0.0000 0.0000 0.0000
# 3 23.7172 33.9377 123.6542 0.0000 0.0000 0.0000
# 4 0.0000 0.0000 0.0000 22.8783 0.0000 0.0000
# 5 0.0000 0.0000 0.0000 0.0000 38.7211 0.0000
# 6 0.0000 0.0000 0.0000 0.0000 0.0000 125.4147
#
#
#
# Elastic Compliance Matrix: (Units=1/GPa)
#
#
# Indices 1 2 3 4 5 6 
#
# 1 0.006337 -0.005844 0.000388 0.000000 0.000000 0.000000
# 2 -0.005844 0.024690 -0.005655 0.000000 0.000000 0.000000
# 3 0.000388 -0.005655 0.009565 0.000000 0.000000 0.000000
# 4 0.000000 0.000000 0.000000 0.043710 0.000000 0.000000
# 5 0.000000 0.000000 0.000000 0.000000 0.025826 0.000000
# 6 0.000000 0.000000 0.000000 0.000000 0.000000 0.007974
#
#
# Mechanical properties :
#
#
# Convention : Reuss Voigt Hill
#
# Bulk Modulus (GPa) = 54.43714 68.34445 61.39080
# Shear Modulus (GPa) = 34.14248 56.02027 45.08138
#
# Velocity S-wave (km/s) = 3.87317 4.96126 4.45059
# Velocity P-wave (km/s) = 6.62725 7.92766 7.30644
#
# Compressibility (1/GPa) = 0.01836981
#
# Stress axis : x y z
#
# Youngs Moduli (GPa) = 157.81308 40.50215 104.55063
#
# Poissons Ratio (x) = 0.23669 -0.04062
# Poissons Ratio (y) = 0.92223 0.59129
# Poissons Ratio (z) = -0.06131 0.22906
#
# Static dielectric constant tensor:
#      x y z
#    x 1.894600 0.000000 0.000000 
#    y 0.000000 1.926790 0.000000 
#    z 0.000000 0.000000 1.886850 
# 
# From -- ./inp_files/4942.got.cif
#   From: 2010.05.17/outbox.cif.g08.bks.cpg/sg50_3_cif.got.tgz:4942.got - 2010.06.03 11:33:33.
