data_PCOD9397027
_publ_section_title
;
Structure prediction by ZEFSAII (Michael W. Deem and Ramdas Pophale) SiO2 
 PCOD9397027
Probable space group: P B A N
;
_chemical_formula_sum "Si O2"
_cell_formula_units_Z 32
_cell_length_a 11.786745
_cell_length_b 13.501325
_cell_length_c 8.286817
_cell_angle_alpha 90.000000
_cell_angle_beta 90.000000
_cell_angle_gamma 90.000000
_cell_volume 1318.736503
_symmetry_space_group_name_H-M "P B A N"
_symmetry_group_IT_number 50
_space_group.IT_coordinate_system_code '2'
_symmetry_cell_setting 'orthorhombic'
loop_
_space_group_symop_operation_xyz
x,y,z
1/2-x,1/2-y,z
x,1/2-y,-z
1/2-x,y,-z
-x,-y,-z
1/2+x,1/2+y,-z
-x,1/2+y,z
1/2+x,-y,z
loop_
_atom_site_type_symbol
_atom_site_label
_atom_site_fract_x
_atom_site_fract_y
_atom_site_fract_z
Si Si1 0.132289 0.914265 0.942213
Si Si2 0.377078 0.635753 0.560176
Si Si3 0.598486 0.857168 0.931337
Si Si4 0.372381 0.137441 0.442839
O O1 0.117395 0.891830 0.751290
O O2 0.130362 0.031851 0.992858
O O3 0.250000 0.872929 0.000000
O O4 0.035236 0.861298 0.042710
O O5 0.378660 0.750000 0.500000
O O6 0.250000 0.604028 0.500000
O O7 0.501622 0.600283 0.494339
O O8 0.633338 0.861994 0.748021
O O9 0.634546 0.750000 0.000000
O O10 0.372022 0.250000 0.500000
O O11 0.250000 0.095862 0.500000
#
# Coordination Sequence:
#
# PCOD9397027 Si02
#       4
#     8   8   8   8
#     4  11  26  44  70 107 142 187 245 302 362 438
#     4  10  21  42  69 101 143 188 238 299 365 434
#     4  11  25  46  71 100 145 192 239 299 369 439
#     4  10  22  40  66 100 136 181 234 289 355 428
#
# _framework density 24.265650999999998
#
# number of rings (size 3 to 8) (size 9 to 14) (size 15 to 20)
#    0.000    1.500    0.000    4.500    0.000   13.000 
#    0.000    0.000    0.000    0.000    0.000    0.000 
#    0.000    0.000    0.000    0.000    0.000    0.000 
#
# Total GULP energy -178236.585992 kJ/mol
# GULP energy per Si atom -5569.893312 kJ/mol
# Density = 2.421042 g / cm^3
# Si number density = 24.265651 Si / 1000 Ang^3
#
#
#
# Elastic Constant Matrix: (Units=GPa)
#
#
# Indices 1 2 3 4 5 6 
#
# 1 271.5353 36.3996 49.3040 0.0000 0.0000 0.0000
# 2 36.3996 204.8306 12.3221 0.0000 0.0000 0.0000
# 3 49.3040 12.3221 92.7164 0.0000 0.0000 0.0000
# 4 0.0000 0.0000 0.0000 18.8106 0.0000 0.0000
# 5 0.0000 0.0000 0.0000 0.0000 52.6636 0.0000
# 6 0.0000 0.0000 0.0000 0.0000 0.0000 25.1588
#
#
#
# Elastic Compliance Matrix: (Units=1/GPa)
#
#
# Indices 1 2 3 4 5 6 
#
# 1 0.004151 -0.000610 -0.002126 0.000000 0.000000 0.000000
# 2 -0.000610 0.005011 -0.000342 0.000000 0.000000 0.000000
# 3 -0.002126 -0.000342 0.011962 0.000000 0.000000 0.000000
# 4 0.000000 0.000000 0.000000 0.053162 0.000000 0.000000
# 5 0.000000 0.000000 0.000000 0.000000 0.018988 0.000000
# 6 0.000000 0.000000 0.000000 0.000000 0.000000 0.039748
#
#
# Mechanical properties :
#
#
# Convention : Reuss Voigt Hill
#
# Bulk Modulus (GPa) = 66.80900 85.01483 75.91191
# Shear Modulus (GPa) = 34.68243 50.73036 42.70640
#
# Velocity S-wave (km/s) = 3.78468 4.57729 4.19973
# Velocity P-wave (km/s) = 6.83305 7.94019 7.40733
#
# Compressibility (1/GPa) = 0.01496804
#
# Stress axis : x y z
#
# Youngs Moduli (GPa) = 240.93256 199.56154 83.60079
#
# Poissons Ratio (x) = 0.12167 0.17774
# Poissons Ratio (y) = 0.14689 0.02857
# Poissons Ratio (z) = 0.51225 0.06820
#
# Static dielectric constant tensor:
#      x y z
#    x 1.926180 0.000000 0.000000 
#    y 0.000000 2.119840 0.000000 
#    z 0.000000 0.000000 1.833760 
# 
# From -- ./inp_files/10689.got.cif
#   From: 2010.05.17/outbox.cif.g08.bks.cpg/sg50_6_cif.got.tgz:10689.got - 2010.06.03 11:33:33.
