data_PCOD9397556
_publ_section_title
;
Structure prediction by ZEFSAII (Michael W. Deem and Ramdas Pophale) SiO2 
 PCOD9397556
Probable space group: P B A N
;
_chemical_formula_sum "Si O2"
_cell_formula_units_Z 28
_cell_length_a 8.075386
_cell_length_b 29.021553
_cell_length_c 5.204492
_cell_angle_alpha 90.000000
_cell_angle_beta 90.000000
_cell_angle_gamma 90.000000
_cell_volume 1219.726009
_symmetry_space_group_name_H-M "P B A N"
_symmetry_group_IT_number 50
_space_group.IT_coordinate_system_code '2'
_symmetry_cell_setting 'orthorhombic'
loop_
_space_group_symop_operation_xyz
x,y,z
1/2-x,1/2-y,z
x,1/2-y,-z
1/2-x,y,-z
-x,-y,-z
1/2+x,1/2+y,-z
-x,1/2+y,z
1/2+x,-y,z
loop_
_atom_site_type_symbol
_atom_site_label
_atom_site_fract_x
_atom_site_fract_y
_atom_site_fract_z
Si Si1 0.750000 0.501790 0.500000
Si Si2 0.929380 0.370255 0.853897
Si Si3 0.439344 0.270821 0.246379
Si Si4 0.967355 0.429433 0.330743
O O1 0.681497 0.465835 0.710842
O O2 0.887186 0.535951 0.601133
O O3 0.036489 0.324976 0.786008
O O4 0.927564 0.397483 0.581029
O O5 0.750000 0.360289 0.000000
O O6 0.010244 0.400505 0.079233
O O7 0.250000 0.250000 0.247477
O O8 0.517663 0.250000 0.500000
O O9 0.525200 0.250000 0.000000
#
# Coordination Sequence:
#
# PCOD9397556 Si02
#       4
#     4   8   8   8
#     4  10  24  44  68 102 140 188 228 282 326 398
#     4  12  24  44  68  99 137 179 224 279 341 406
#     4  10  23  43  68  95 129 166 219 282 340 406
#     4  11  25  43  69 100 141 181 230 274 334 393
#
# _framework density 22.955974000000001
#
# number of rings (size 3 to 8) (size 9 to 14) (size 15 to 20)
#    0.000    1.143    2.857    1.714    0.000   15.429 
#    0.000    1.429    0.000    0.000    0.000    0.000 
#    0.000    0.000    0.000    0.000    0.000    0.000 
#
# Total GULP energy -156014.638253 kJ/mol
# GULP energy per Si atom -5571.951366 kJ/mol
# Density = 2.290373 g / cm^3
# Si number density = 22.955974 Si / 1000 Ang^3
#
#
#
# Elastic Constant Matrix: (Units=GPa)
#
#
# Indices 1 2 3 4 5 6 
#
# 1 60.9082 61.9666 15.3732 0.0000 0.0000 0.0000
# 2 61.9666 212.2197 89.5096 0.0000 0.0000 0.0000
# 3 15.3732 89.5096 214.9999 0.0000 0.0000 0.0000
# 4 0.0000 0.0000 0.0000 166.9101 0.0000 0.0000
# 5 0.0000 0.0000 0.0000 0.0000 -13.3442 0.0000
# 6 0.0000 0.0000 0.0000 0.0000 0.0000 31.7614
#
#
#
# Elastic Compliance Matrix: (Units=1/GPa)
#
#
# Indices 1 2 3 4 5 6 
#
# 1 0.023719 -0.007533 0.001440 0.000000 0.000000 0.000000
# 2 -0.007533 0.008108 -0.002837 0.000000 0.000000 0.000000
# 3 0.001440 -0.002837 0.005729 0.000000 0.000000 0.000000
# 4 0.000000 0.000000 0.000000 0.005991 0.000000 0.000000
# 5 0.000000 0.000000 0.000000 0.000000 -0.074939 0.000000
# 6 0.000000 0.000000 0.000000 0.000000 0.000000 0.031485
#
#
# Mechanical properties :
#
#
# Convention : Reuss Voigt Hill
#
# Bulk Modulus (GPa) = 50.77052 91.31406 71.04229
# Shear Modulus (GPa) = 203.92532 58.48402 131.20467
#
# Velocity S-wave (km/s) = 9.43536 5.05291 7.56829
# Velocity P-wave (km/s) = 11.86869 8.59691 10.36274
#
# Compressibility (1/GPa) = 0.01969647
#
# Stress axis : x y z
#
# Youngs Moduli (GPa) = 42.16082 123.32992 174.54103
#
# Poissons Ratio (x) = 0.92906 -0.25139
# Poissons Ratio (y) = 0.31760 0.49518
# Poissons Ratio (z) = -0.06072 0.34989
#
# Static dielectric constant tensor:
#      x y z
#    x 1.978240 0.000000 0.000000 
#    y 0.000000 1.860410 0.000000 
#    z 0.000000 0.000000 1.867550 
# 
# From -- ./inp_files/1003.got.cif
#   From: 2010.05.17/outbox.cif.g08.bks.cpg/sg50_1_cif.got.tgz:1003.got - 2010.06.03 11:33:33.
