data_PCOD9397282
_publ_section_title
;
Structure prediction by ZEFSAII (Michael W. Deem and Ramdas Pophale) SiO2 
 PCOD9397282
Probable space group: P B A N
;
_chemical_formula_sum "Si O2"
_cell_formula_units_Z 64
_cell_length_a 9.573122
_cell_length_b 32.366114
_cell_length_c 10.572485
_cell_angle_alpha 90.000000
_cell_angle_beta 90.000000
_cell_angle_gamma 90.000000
_cell_volume 3275.829056
_symmetry_space_group_name_H-M "P B A N"
_symmetry_group_IT_number 50
_space_group.IT_coordinate_system_code '2'
_symmetry_cell_setting 'orthorhombic'
loop_
_space_group_symop_operation_xyz
x,y,z
1/2-x,1/2-y,z
x,1/2-y,-z
1/2-x,y,-z
-x,-y,-z
1/2+x,1/2+y,-z
-x,1/2+y,z
1/2+x,-y,z
loop_
_atom_site_type_symbol
_atom_site_label
_atom_site_fract_x
_atom_site_fract_y
_atom_site_fract_z
Si Si1 0.597235 0.241449 0.147332
Si Si2 0.495426 0.825858 0.240909
Si Si3 0.854355 0.466861 0.622599
Si Si4 0.784639 0.612939 0.142853
Si Si5 0.185038 0.455069 0.637327
Si Si6 0.086155 0.203965 0.500112
Si Si7 0.011227 0.157250 0.754080
Si Si8 0.245379 0.878098 0.654364
O O1 0.750000 0.250000 0.205498
O O2 0.500458 0.277941 0.200964
O O3 0.550021 0.194608 0.163309
O O4 0.605408 0.250000 0.000000
O O5 0.584731 0.855233 0.149956
O O6 0.556709 0.824967 0.381449
O O7 0.341774 0.843721 0.268643
O O8 0.750000 0.464892 0.500000
O O9 0.786555 0.507608 0.684041
O O10 0.826539 0.421962 0.680948
O O11 0.023383 0.469125 0.610662
O O12 0.813173 0.578859 0.251772
O O13 0.648289 0.638068 0.186655
O O14 0.750000 0.597997 0.000000
O O15 0.250000 0.441275 0.500000
O O16 0.019528 0.250000 0.500000
O O17 0.250000 0.209459 0.500000
O O18 0.042787 0.180630 0.624430
O O19 0.898802 0.122998 0.713993
O O20 0.250000 0.870829 0.500000
#
# Coordination Sequence:
#
# PCOD9397282 Si02
#       8
#     8   8   8   8   8   8   8   8
#     4  11  24  41  60  84 125 181 226 266 324 394
#     4  12  22  42  64  90 136 163 220 276 326 384
#     4  10  22  41  69 108 139 164 213 266 335 400
#     4  12  29  46  65  95 136 177 225 271 326 395
#     4  11  24  43  75 103 134 172 215 273 330 396
#     4  11  22  36  58  95 124 162 209 275 330 379
#     4  12  24  40  65  93 129 174 219 271 335 385
#     4  11  23  36  66 103 134 161 211 275 337 396
#
# _framework density 19.537039
#
# number of rings (size 3 to 8) (size 9 to 14) (size 15 to 20)
#    0.000    0.750    6.250    2.250    7.000    0.500 
#    0.000    3.750    0.000    0.000    0.000    0.000 
#    0.000    0.000    0.000    0.000    0.000    0.000 
#
# Total GULP energy -356663.986101 kJ/mol
# GULP energy per Si atom -5572.874783 kJ/mol
# Density = 1.949257 g / cm^3
# Si number density = 19.537039 Si / 1000 Ang^3
#
#
#
# Elastic Constant Matrix: (Units=GPa)
#
#
# Indices 1 2 3 4 5 6 
#
# 1 108.0936 27.9291 20.0252 0.0000 0.0000 0.0000
# 2 27.9291 78.3164 21.9989 0.0000 0.0000 0.0000
# 3 20.0252 21.9989 79.5362 0.0000 0.0000 0.0000
# 4 0.0000 0.0000 0.0000 11.2283 0.0000 0.0000
# 5 0.0000 0.0000 0.0000 0.0000 11.4455 0.0000
# 6 0.0000 0.0000 0.0000 0.0000 0.0000 37.2879
#
#
#
# Elastic Compliance Matrix: (Units=1/GPa)
#
#
# Indices 1 2 3 4 5 6 
#
# 1 0.010405 -0.003225 -0.001728 0.000000 0.000000 0.000000
# 2 -0.003225 0.014844 -0.003294 0.000000 0.000000 0.000000
# 3 -0.001728 -0.003294 0.013919 0.000000 0.000000 0.000000
# 4 0.000000 0.000000 0.000000 0.089060 0.000000 0.000000
# 5 0.000000 0.000000 0.000000 0.000000 0.087371 0.000000
# 6 0.000000 0.000000 0.000000 0.000000 0.000000 0.026818
#
#
# Mechanical properties :
#
#
# Convention : Reuss Voigt Hill
#
# Bulk Modulus (GPa) = 44.10219 45.09474 44.59847
# Shear Modulus (GPa) = 18.76396 25.05855 21.91125
#
# Velocity S-wave (km/s) = 3.10244 3.58525 3.35255
# Velocity P-wave (km/s) = 5.95451 6.34590 6.15332
#
# Compressibility (1/GPa) = 0.02267461
#
# Stress axis : x y z
#
# Youngs Moduli (GPa) = 96.11127 67.36697 71.84500
#
# Poissons Ratio (x) = 0.21727 0.12412
# Poissons Ratio (y) = 0.30998 0.23664
# Poissons Ratio (z) = 0.16604 0.22189
#
# Static dielectric constant tensor:
#      x y z
#    x 1.804920 0.000000 0.000000 
#    y 0.000000 1.766440 0.000000 
#    z 0.000000 0.000000 1.700420 
# 
# From -- ./inp_files/19545.got.cif
#   From: 2010.05.17/outbox.cif.g08.bks.cpg/sg50_10_cif.got.tgz:19545.got - 2010.06.03 11:33:33.
