data_PCOD9397084
_publ_section_title
;
Structure prediction by ZEFSAII (Michael W. Deem and Ramdas Pophale) SiO2 
 PCOD9397084
Probable space group: P B A N
;
_chemical_formula_sum "Si O2"
_cell_formula_units_Z 40
_cell_length_a 8.584002
_cell_length_b 22.838229
_cell_length_c 10.081410
_cell_angle_alpha 90.000000
_cell_angle_beta 90.000000
_cell_angle_gamma 90.000000
_cell_volume 1976.393928
_symmetry_space_group_name_H-M "P B A N"
_symmetry_group_IT_number 50
_space_group.IT_coordinate_system_code '2'
_symmetry_cell_setting 'orthorhombic'
loop_
_space_group_symop_operation_xyz
x,y,z
1/2-x,1/2-y,z
x,1/2-y,-z
1/2-x,y,-z
-x,-y,-z
1/2+x,1/2+y,-z
-x,1/2+y,z
1/2+x,-y,z
loop_
_atom_site_type_symbol
_atom_site_label
_atom_site_fract_x
_atom_site_fract_y
_atom_site_fract_z
Si Si1 0.936172 0.434774 0.529061
Si Si2 0.529148 0.377051 0.731686
Si Si3 0.064786 0.184122 0.978716
Si Si4 0.371742 0.023629 0.097850
Si Si5 0.372807 0.602653 0.810284
O O1 0.750000 0.438388 0.500000
O O2 0.995357 0.386995 0.423206
O O3 0.971207 0.412479 0.677928
O O4 0.000000 0.500000 0.500000
O O5 0.452536 0.328614 0.822639
O O6 0.450739 0.435668 0.794689
O O7 0.712578 0.367795 0.763563
O O8 0.006344 0.250000 0.000000
O O9 0.250000 0.182103 0.000000
O O10 0.965568 0.138251 0.074018
O O11 0.308552 0.962351 0.152307
O O12 0.250000 0.054456 0.000000
O O13 0.500000 0.000000 0.000000
#
# Coordination Sequence:
#
# PCOD9397084 Si02
#       5
#     8   8   8   8   8
#     4  10  22  36  56  89 128 160 193 228 288 358
#     4  11  22  37  58  88 123 157 194 241 291 353
#     4  11  25  43  64  86 110 149 205 258 301 346
#     4  12  20  30  54  89 120 155 196 238 291 348
#     4  11  22  38  58  87 121 158 196 239 292 353
#
# _framework density 20.238880999999999
#
# number of rings (size 3 to 8) (size 9 to 14) (size 15 to 20)
#    0.000    1.000    6.000    1.200    0.000    3.200 
#    0.000    1.000    0.000    6.000    0.000    0.000 
#    0.000    0.000    0.000    0.000    0.000    0.000 
#
# Total GULP energy -222721.820912 kJ/mol
# GULP energy per Si atom -5568.045523 kJ/mol
# Density = 2.019282 g / cm^3
# Si number density = 20.238881 Si / 1000 Ang^3
#
#
#
# Elastic Constant Matrix: (Units=GPa)
#
#
# Indices 1 2 3 4 5 6 
#
# 1 48.7965 0.8119 6.7555 0.0000 0.0000 0.0000
# 2 0.8119 95.1658 24.6485 0.0000 0.0000 0.0000
# 3 6.7555 24.6485 114.8277 0.0000 0.0000 0.0000
# 4 0.0000 0.0000 0.0000 8.0643 0.0000 0.0000
# 5 0.0000 0.0000 0.0000 0.0000 23.2265 0.0000
# 6 0.0000 0.0000 0.0000 0.0000 0.0000 12.1566
#
#
#
# Elastic Compliance Matrix: (Units=1/GPa)
#
#
# Indices 1 2 3 4 5 6 
#
# 1 0.020664 0.000147 -0.001247 0.000000 0.000000 0.000000
# 2 0.000147 0.011128 -0.002397 0.000000 0.000000 0.000000
# 3 -0.001247 -0.002397 0.009297 0.000000 0.000000 0.000000
# 4 0.000000 0.000000 0.000000 0.124003 0.000000 0.000000
# 5 0.000000 0.000000 0.000000 0.000000 0.043054 0.000000
# 6 0.000000 0.000000 0.000000 0.000000 0.000000 0.082260
#
#
# Mechanical properties :
#
#
# Convention : Reuss Voigt Hill
#
# Bulk Modulus (GPa) = 29.33203 35.91353 32.62278
# Shear Modulus (GPa) = 16.19360 23.79443 19.99401
#
# Velocity S-wave (km/s) = 2.83171 3.43254 3.14650
# Velocity P-wave (km/s) = 5.02154 5.78732 5.41798
#
# Compressibility (1/GPa) = 0.03409243
#
# Stress axis : x y z
#
# Youngs Moduli (GPa) = 48.39451 89.86643 107.56555
#
# Poissons Ratio (x) = -0.01319 0.13415
# Poissons Ratio (y) = -0.00710 0.25786
# Poissons Ratio (z) = 0.06036 0.21543
#
# Static dielectric constant tensor:
#      x y z
#    x 1.845170 0.000000 0.000000 
#    y 0.000000 1.899520 0.000000 
#    z 0.000000 0.000000 1.726570 
# 
# From -- ./inp_files/9542.got.cif
#   From: 2010.05.17/outbox.cif.g08.bks.cpg/sg50_5_cif.got.tgz:9542.got - 2010.06.03 11:33:33.
