data_PCOD9397254
_publ_section_title
;
Structure prediction by ZEFSAII (Michael W. Deem and Ramdas Pophale) SiO2 
 PCOD9397254
Probable space group: P B A N
;
_chemical_formula_sum "Si O2"
_cell_formula_units_Z 54
_cell_length_a 30.053949
_cell_length_b 14.335719
_cell_length_c 6.403446
_cell_angle_alpha 90.000000
_cell_angle_beta 90.000000
_cell_angle_gamma 90.000000
_cell_volume 2758.892485
_symmetry_space_group_name_H-M "P B A N"
_symmetry_group_IT_number 50
_space_group.IT_coordinate_system_code '2'
_symmetry_cell_setting 'orthorhombic'
loop_
_space_group_symop_operation_xyz
x,y,z
1/2-x,1/2-y,z
x,1/2-y,-z
1/2-x,y,-z
-x,-y,-z
1/2+x,1/2+y,-z
-x,1/2+y,z
1/2+x,-y,z
loop_
_atom_site_type_symbol
_atom_site_label
_atom_site_fract_x
_atom_site_fract_y
_atom_site_fract_z
Si Si1 0.857492 0.997338 0.729443
Si Si2 0.930671 0.026773 0.022756
Si Si3 0.557443 0.750000 0.500000
Si Si4 0.250000 0.750000 0.000000
Si Si5 0.994345 0.574832 0.310860
Si Si6 0.802424 0.639000 0.967681
Si Si7 0.703947 0.159507 0.382388
Si Si8 0.620516 0.888467 0.671549
O O1 0.881420 0.934130 0.556806
O O2 0.826474 0.070424 0.613163
O O3 0.828923 0.926124 0.869939
O O4 0.890946 0.059037 0.871281
O O5 0.960038 0.089842 0.178206
O O6 0.905884 0.954783 0.173161
O O7 0.962565 0.972046 0.862331
O O8 0.526813 0.831272 0.403986
O O9 0.591837 0.794094 0.666601
O O10 0.281203 0.688422 0.149690
O O11 0.000000 0.500000 0.500000
O O12 0.828587 0.621123 0.749343
O O13 0.807646 0.750000 0.000000
O O14 0.750000 0.618067 0.000000
O O15 0.684312 0.250000 0.500000
O O16 0.750000 0.139479 0.500000
#
# Coordination Sequence:
#
# PCOD9397254 Si02
#       8
#     8   8   4   2   8   8   8   8
#     4  11  22  39  66  91 131 175 213 275 336 390
#     4  10  22  41  64  90 128 162 211 266 327 401
#     4  12  22  40  74  93 126 178 216 281 338 400
#     4   8  18  40  60  90 114 152 226 276 320 386
#     4  11  22  43  67  94 125 160 214 274 328 400
#     4  10  24  39  57  95 136 175 223 268 318 394
#     4   9  21  37  64  93 122 166 225 275 327 395
#     4  11  23  39  64  93 128 170 221 263 330 397
#
# _framework density 19.573070999999999
#
# number of rings (size 3 to 8) (size 9 to 14) (size 15 to 20)
#    0.000    1.778    2.963    0.889    5.185    3.556 
#    0.000    1.481   16.296    0.000    0.000    0.000 
#    0.000    0.000    0.000    0.000    0.000    0.000 
#
# Total GULP energy -300967.622338 kJ/mol
# GULP energy per Si atom -5573.474488 kJ/mol
# Density = 1.952852 g / cm^3
# Si number density = 19.573071 Si / 1000 Ang^3
#
#
#
# Elastic Constant Matrix: (Units=GPa)
#
#
# Indices 1 2 3 4 5 6 
#
# 1 106.3957 42.1828 43.7032 0.0000 0.0000 0.0000
# 2 42.1828 84.1786 27.5284 0.0000 0.0000 0.0000
# 3 43.7032 27.5284 92.3953 0.0000 0.0000 0.0000
# 4 0.0000 0.0000 0.0000 4.4153 0.0000 0.0000
# 5 0.0000 0.0000 0.0000 0.0000 22.1224 0.0000
# 6 0.0000 0.0000 0.0000 0.0000 0.0000 30.7998
#
#
#
# Elastic Compliance Matrix: (Units=1/GPa)
#
#
# Indices 1 2 3 4 5 6 
#
# 1 0.013417 -0.005150 -0.004812 0.000000 0.000000 0.000000
# 2 -0.005150 0.015139 -0.002074 0.000000 0.000000 0.000000
# 3 -0.004812 -0.002074 0.013717 0.000000 0.000000 0.000000
# 4 0.000000 0.000000 0.000000 0.226485 0.000000 0.000000
# 5 0.000000 0.000000 0.000000 0.000000 0.045203 0.000000
# 6 0.000000 0.000000 0.000000 0.000000 0.000000 0.032468
#
#
# Mechanical properties :
#
#
# Convention : Reuss Voigt Hill
#
# Bulk Modulus (GPa) = 54.94431 56.64425 55.79428
# Shear Modulus (GPa) = 13.27780 22.77117 18.02448
#
# Velocity S-wave (km/s) = 2.60738 3.41455 3.03790
# Velocity P-wave (km/s) = 6.09893 6.67445 6.39317
#
# Compressibility (1/GPa) = 0.01820025
#
# Stress axis : x y z
#
# Youngs Moduli (GPa) = 74.53087 66.05643 72.90090
#
# Poissons Ratio (x) = 0.34018 0.35080
# Poissons Ratio (y) = 0.38383 0.15123
# Poissons Ratio (z) = 0.35865 0.13703
#
# Static dielectric constant tensor:
#      x y z
#    x 1.731460 0.000000 0.000000 
#    y 0.000000 1.674670 0.000000 
#    z 0.000000 0.000000 1.660930 
# 
# From -- ./inp_files/7212.got.cif
#   From: 2010.05.17/outbox.cif.g08.bks.cpg/sg50_4_cif.got.tgz:7212.got - 2010.06.03 11:33:33.
