data_PCOD9397164
_publ_section_title
;
Structure prediction by ZEFSAII (Michael W. Deem and Ramdas Pophale) SiO2 
 PCOD9397164
Probable space group: P B A N
;
_chemical_formula_sum "Si O2"
_cell_formula_units_Z 28
_cell_length_a 15.336179
_cell_length_b 16.906507
_cell_length_c 4.578013
_cell_angle_alpha 90.000000
_cell_angle_beta 90.000000
_cell_angle_gamma 90.000000
_cell_volume 1186.992785
_symmetry_space_group_name_H-M "P B A N"
_symmetry_group_IT_number 50
_space_group.IT_coordinate_system_code '2'
_symmetry_cell_setting 'orthorhombic'
loop_
_space_group_symop_operation_xyz
x,y,z
1/2-x,1/2-y,z
x,1/2-y,-z
1/2-x,y,-z
-x,-y,-z
1/2+x,1/2+y,-z
-x,1/2+y,z
1/2+x,-y,z
loop_
_atom_site_type_symbol
_atom_site_label
_atom_site_fract_x
_atom_site_fract_y
_atom_site_fract_z
Si Si1 0.591362 0.561832 0.293074
Si Si2 0.750000 0.750000 0.500000
Si Si3 0.122179 0.750000 0.500000
Si Si4 0.750000 0.250000 0.000000
Si Si5 0.477717 0.606349 0.796941
Si Si6 0.250000 0.354571 0.000000
O O1 0.563819 0.576617 0.623584
O O2 0.586388 0.468674 0.230017
O O3 0.681235 0.596670 0.184204
O O4 0.513559 0.608268 0.123972
O O5 0.798128 0.697124 0.255930
O O6 0.183419 0.712130 0.759315
O O7 0.064950 0.815671 0.665872
#
# Coordination Sequence:
#
# PCOD9397164 Si02
#       6
#     8   2   4   2   8   4
#     4  10  22  39  61  90 127 167 214 257 315 386
#     4  10  24  36  56  92 124 160 216 256 308 384
#     4  11  22  41  66  90 126 164 208 271 324 369
#     4  10  24  40  60  96 120 152 216 260 312 392
#     4  10  22  40  62  92 124 165 213 260 317 390
#     4  11  22  41  62  91 134 171 210 273 318 365
#
# _framework density 23.589022
#
# number of rings (size 3 to 8) (size 9 to 14) (size 15 to 20)
#    0.000    1.714    0.000    3.429    0.000    8.000 
#    0.000    8.571    0.000    1.714    0.000    0.000 
#    0.000    0.000    0.000    0.000    0.000    0.000 
#
# Total GULP energy -156042.240335 kJ/mol
# GULP energy per Si atom -5572.937155 kJ/mol
# Density = 2.353533 g / cm^3
# Si number density = 23.589022 Si / 1000 Ang^3
#
#
#
# Elastic Constant Matrix: (Units=GPa)
#
#
# Indices 1 2 3 4 5 6 
#
# 1 41.6371 37.9974 -0.8292 0.0000 0.0000 0.0000
# 2 37.9974 104.2303 24.5170 0.0000 0.0000 0.0000
# 3 -0.8292 24.5170 105.8203 0.0000 0.0000 0.0000
# 4 0.0000 0.0000 0.0000 38.1290 0.0000 0.0000
# 5 0.0000 0.0000 0.0000 0.0000 39.6635 0.0000
# 6 0.0000 0.0000 0.0000 0.0000 0.0000 16.4990
#
#
#
# Elastic Compliance Matrix: (Units=1/GPa)
#
#
# Indices 1 2 3 4 5 6 
#
# 1 0.037269 -0.014442 0.003638 0.000000 0.000000 0.000000
# 2 -0.014442 0.015744 -0.003761 0.000000 0.000000 0.000000
# 3 0.003638 -0.003761 0.010350 0.000000 0.000000 0.000000
# 4 0.000000 0.000000 0.000000 0.026227 0.000000 0.000000
# 5 0.000000 0.000000 0.000000 0.000000 0.025212 0.000000
# 6 0.000000 0.000000 0.000000 0.000000 0.000000 0.060610
#
#
# Mechanical properties :
#
#
# Convention : Reuss Voigt Hill
#
# Bulk Modulus (GPa) = 29.21165 41.67310 35.44238
# Shear Modulus (GPa) = 23.15322 31.52514 27.33918
#
# Velocity S-wave (km/s) = 3.13633 3.65969 3.40807
# Velocity P-wave (km/s) = 5.05231 5.96343 5.52668
#
# Compressibility (1/GPa) = 0.03423292
#
# Stress axis : x y z
#
# Youngs Moduli (GPa) = 26.83165 63.51729 96.62025
#
# Poissons Ratio (x) = 0.91734 -0.35152
# Poissons Ratio (y) = 0.38751 0.36337
# Poissons Ratio (z) = -0.09762 0.23887
#
# Static dielectric constant tensor:
#      x y z
#    x 1.901920 0.000000 0.000000 
#    y 0.000000 1.951130 0.000000 
#    z 0.000000 0.000000 1.877750 
# 
# From -- ./inp_files/2888.got.cif
#   From: 2010.05.17/outbox.cif.g08.bks.cpg/sg50_2_cif.got.tgz:2888.got - 2010.06.03 11:33:33.
