data_PCOD9397668
_publ_section_title
;
Structure prediction by ZEFSAII (Michael W. Deem and Ramdas Pophale) SiO2 
 PCOD9397668
Probable space group: P B A N
;
_chemical_formula_sum "Si O2"
_cell_formula_units_Z 32
_cell_length_a 21.390064
_cell_length_b 7.926051
_cell_length_c 8.320275
_cell_angle_alpha 90.000000
_cell_angle_beta 90.000000
_cell_angle_gamma 90.000000
_cell_volume 1410.608925
_symmetry_space_group_name_H-M "P B A N"
_symmetry_group_IT_number 50
_space_group.IT_coordinate_system_code '2'
_symmetry_cell_setting 'orthorhombic'
loop_
_space_group_symop_operation_xyz
x,y,z
1/2-x,1/2-y,z
x,1/2-y,-z
1/2-x,y,-z
-x,-y,-z
1/2+x,1/2+y,-z
-x,1/2+y,z
1/2+x,-y,z
loop_
_atom_site_type_symbol
_atom_site_label
_atom_site_fract_x
_atom_site_fract_y
_atom_site_fract_z
Si Si1 0.250000 0.250000 0.500000
Si Si2 0.344013 0.750000 0.500000
Si Si3 0.947623 0.828415 0.823845
Si Si4 0.448068 0.507464 0.639679
Si Si5 0.750000 0.750000 0.000000
Si Si6 0.822604 0.980661 0.743255
O O1 0.204155 0.138493 0.394858
O O2 0.388790 0.606935 0.575484
O O3 0.311604 0.661712 0.344588
O O4 0.932720 0.678168 0.699919
O O5 0.895826 0.969891 0.787852
O O6 0.016421 0.896997 0.784650
O O7 0.943046 0.750000 0.000000
O O8 0.500000 0.500000 0.500000
O O9 0.790275 0.616063 0.105493
#
# Coordination Sequence:
#
# PCOD9397668 Si02
#       6
#     2   4   8   8   2   8
#     4  10  24  42  76  90 128 182 244 286 348 406
#     4  12  24  40  74 106 140 178 234 282 346 418
#     4  12  23  40  67  98 143 185 222 277 353 417
#     4  12  22  39  66 105 141 182 227 274 333 435
#     4  10  24  50  76 100 136 184 244 306 368 406
#     4  11  23  44  72 102 131 183 234 295 351 411
#
# _framework density 22.685238999999999
#
# number of rings (size 3 to 8) (size 9 to 14) (size 15 to 20)
#    0.000    0.500    6.250    2.250    0.000    0.500 
#    0.000    0.000    5.500    0.000    0.000    0.000 
#    0.000    0.000    0.000    0.000    0.000    0.000 
#
# Total GULP energy -178634.381746 kJ/mol
# GULP energy per Si atom -5582.324430 kJ/mol
# Density = 2.263361 g / cm^3
# Si number density = 22.685239 Si / 1000 Ang^3
#
#
#
# Elastic Constant Matrix: (Units=GPa)
#
#
# Indices 1 2 3 4 5 6 
#
# 1 76.6904 27.4863 31.3276 0.0000 0.0000 0.0000
# 2 27.4863 94.9335 30.2792 0.0000 0.0000 0.0000
# 3 31.3276 30.2792 119.3792 0.0000 0.0000 0.0000
# 4 0.0000 0.0000 0.0000 46.1568 0.0000 0.0000
# 5 0.0000 0.0000 0.0000 0.0000 -8.6010 0.0000
# 6 0.0000 0.0000 0.0000 0.0000 0.0000 17.6659
#
#
#
# Elastic Compliance Matrix: (Units=1/GPa)
#
#
# Indices 1 2 3 4 5 6 
#
# 1 0.015602 -0.003494 -0.003208 0.000000 0.000000 0.000000
# 2 -0.003494 0.012243 -0.002188 0.000000 0.000000 0.000000
# 3 -0.003208 -0.002188 0.009774 0.000000 0.000000 0.000000
# 4 0.000000 0.000000 0.000000 0.021665 0.000000 0.000000
# 5 0.000000 0.000000 0.000000 0.000000 -0.116266 0.000000
# 6 0.000000 0.000000 0.000000 0.000000 0.000000 0.056606
#
#
# Mechanical properties :
#
#
# Convention : Reuss Voigt Hill
#
# Bulk Modulus (GPa) = 50.40868 52.13213 51.27040
# Shear Modulus (GPa) = 208.17209 24.50502 116.33855
#
# Velocity S-wave (km/s) = 9.58982 3.29023 7.16904
# Velocity P-wave (km/s) = 12.03697 6.12084 9.54865
#
# Compressibility (1/GPa) = 0.01983785
#
# Stress axis : x y z
#
# Youngs Moduli (GPa) = 64.09337 81.67693 102.31616
#
# Poissons Ratio (x) = 0.28539 0.32824
# Poissons Ratio (y) = 0.22395 0.22391
# Poissons Ratio (z) = 0.20562 0.17875
#
# Static dielectric constant tensor:
#      x y z
#    x 1.872890 0.000000 0.000000 
#    y 0.000000 1.626240 0.000000 
#    z 0.000000 0.000000 1.869870 
# 
# From -- ./inp_files/9188.got.cif
#   From: 2010.05.17/outbox.cif.g08.bks.cpg/sg50_5_cif.got.tgz:9188.got - 2010.06.03 11:33:33.
