data_PCOD9397351
_publ_section_title
;
Structure prediction by ZEFSAII (Michael W. Deem and Ramdas Pophale) SiO2 
 PCOD9397351
Probable space group: P B A N
;
_chemical_formula_sum "Si O2"
_cell_formula_units_Z 18
_cell_length_a 9.842463
_cell_length_b 10.483599
_cell_length_c 8.683618
_cell_angle_alpha 90.000000
_cell_angle_beta 90.000000
_cell_angle_gamma 90.000000
_cell_volume 896.014219
_symmetry_space_group_name_H-M "P B A N"
_symmetry_group_IT_number 50
_space_group.IT_coordinate_system_code '2'
_symmetry_cell_setting 'orthorhombic'
loop_
_space_group_symop_operation_xyz
x,y,z
1/2-x,1/2-y,z
x,1/2-y,-z
1/2-x,y,-z
-x,-y,-z
1/2+x,1/2+y,-z
-x,1/2+y,z
1/2+x,-y,z
loop_
_atom_site_type_symbol
_atom_site_label
_atom_site_fract_x
_atom_site_fract_y
_atom_site_fract_z
Si Si1 0.509911 0.370210 0.595143
Si Si2 0.402454 0.610256 0.061035
Si Si3 0.250000 0.250000 0.500000
O O1 0.569803 0.250000 0.500000
O O2 0.500000 0.500000 0.500000
O O3 0.585967 0.387831 0.754592
O O4 0.351424 0.328818 0.608947
O O5 0.445281 0.750000 0.000000
O O6 0.250000 0.589218 0.000000
O O7 0.500000 0.500000 0.000000
#
# Coordination Sequence:
#
# PCOD9397351 Si02
#       3
#     8   8   2
#     4  10  22  43  69 102 139 189 235 288 347 431
#     4  11  26  44  67 104 144 183 232 289 359 416
#     4   8  24  40  72  98 144 172 256 278 368 376
#
# _framework density 20.088965000000002
#
# number of rings (size 3 to 8) (size 9 to 14) (size 15 to 20)
#    1.333    0.444    0.000    2.667    6.222    0.889 
#    0.000    0.000    0.000    0.000    0.000    0.000 
#    0.000    0.000    0.000    0.000    0.000    0.000 
#
# Total GULP energy -100397.203613 kJ/mol
# GULP energy per Si atom -5577.622423 kJ/mol
# Density = 2.004324 g / cm^3
# Si number density = 20.088965 Si / 1000 Ang^3
#
#
#
# Elastic Constant Matrix: (Units=GPa)
#
#
# Indices 1 2 3 4 5 6 
#
# 1 127.5104 68.4188 63.5365 0.0000 0.0000 0.0000
# 2 68.4188 199.1028 91.2433 0.0000 0.0000 0.0000
# 3 63.5365 91.2433 204.2533 0.0000 0.0000 0.0000
# 4 0.0000 0.0000 0.0000 39.3817 0.0000 0.0000
# 5 0.0000 0.0000 0.0000 0.0000 40.1667 0.0000
# 6 0.0000 0.0000 0.0000 0.0000 0.0000 20.8483
#
#
#
# Elastic Compliance Matrix: (Units=1/GPa)
#
#
# Indices 1 2 3 4 5 6 
#
# 1 0.010243 -0.002590 -0.002029 0.000000 0.000000 0.000000
# 2 -0.002590 0.006970 -0.002308 0.000000 0.000000 0.000000
# 3 -0.002029 -0.002308 0.006558 0.000000 0.000000 0.000000
# 4 0.000000 0.000000 0.000000 0.025393 0.000000 0.000000
# 5 0.000000 0.000000 0.000000 0.000000 0.024896 0.000000
# 6 0.000000 0.000000 0.000000 0.000000 0.000000 0.047965
#
#
# Mechanical properties :
#
#
# Convention : Reuss Voigt Hill
#
# Bulk Modulus (GPa) = 100.83705 108.58485 104.71095
# Shear Modulus (GPa) = 35.92297 40.59056 38.25677
#
# Velocity S-wave (km/s) = 4.23329 4.49992 4.36864
# Velocity P-wave (km/s) = 8.61386 9.00935 8.81382
#
# Compressibility (1/GPa) = 0.00991699
#
# Stress axis : x y z
#
# Youngs Moduli (GPa) = 97.62347 143.46657 152.48051
#
# Poissons Ratio (x) = 0.37158 0.30945
# Poissons Ratio (y) = 0.25284 0.35194
# Poissons Ratio (z) = 0.19812 0.33113
#
# Static dielectric constant tensor:
#      x y z
#    x 1.714310 0.000000 0.000000 
#    y 0.000000 1.729390 0.000000 
#    z 0.000000 0.000000 1.707080 
# 
# From -- ./inp_files/8196.got.cif
#   From: 2010.05.17/outbox.cif.g08.bks.cpg/sg50_5_cif.got.tgz:8196.got - 2010.06.03 11:33:33.
