data_PCOD9397186
_publ_section_title
;
Structure prediction by ZEFSAII (Michael W. Deem and Ramdas Pophale) SiO2 
 PCOD9397186
Probable space group: P B A N
;
_chemical_formula_sum "Si O2"
_cell_formula_units_Z 64
_cell_length_a 9.290254
_cell_length_b 29.482241
_cell_length_c 11.412970
_cell_angle_alpha 90.000000
_cell_angle_beta 90.000000
_cell_angle_gamma 90.000000
_cell_volume 3125.984035
_symmetry_space_group_name_H-M "P B A N"
_symmetry_group_IT_number 50
_space_group.IT_coordinate_system_code '2'
_symmetry_cell_setting 'orthorhombic'
loop_
_space_group_symop_operation_xyz
x,y,z
1/2-x,1/2-y,z
x,1/2-y,-z
1/2-x,y,-z
-x,-y,-z
1/2+x,1/2+y,-z
-x,1/2+y,z
1/2+x,-y,z
loop_
_atom_site_type_symbol
_atom_site_label
_atom_site_fract_x
_atom_site_fract_y
_atom_site_fract_z
Si Si1 0.907791 0.315159 0.301532
Si Si2 0.387195 0.476960 0.588221
Si Si3 0.867845 0.061353 0.233968
Si Si4 0.590336 0.163267 0.718629
Si Si5 0.906577 0.803839 0.519780
Si Si6 0.420991 0.047332 0.982150
Si Si7 0.043067 0.585160 0.786545
Si Si8 0.580336 0.261750 0.124158
O O1 0.736932 0.311982 0.322051
O O2 0.933631 0.361648 0.233106
O O3 0.966797 0.272180 0.228486
O O4 0.982917 0.321206 0.424590
O O5 0.250000 0.465253 0.500000
O O6 0.500000 0.500000 0.500000
O O7 0.361217 0.517706 0.681792
O O8 0.461364 0.438196 0.673303
O O9 0.890386 0.109964 0.296420
O O10 0.702603 0.064275 0.189764
O O11 0.999894 0.061374 0.139992
O O12 0.459111 0.181420 0.645084
O O13 0.568628 0.185000 0.846843
O O14 0.903494 0.750000 0.500000
O O15 0.750000 0.823149 0.500000
O O16 0.459794 0.078357 0.092823
O O17 0.250000 0.041049 0.000000
O O18 0.500000 0.000000 0.000000
O O19 0.750000 0.250000 0.116087
O O20 0.511955 0.250000 0.000000
#
# Coordination Sequence:
#
# PCOD9397186 Si02
#       8
#     8   8   8   8   8   8   8   8
#     4  10  22  39  66  95 125 164 215 267 314 380
#     4  12  26  43  65  90 134 176 214 264 331 395
#     4  11  25  44  67  98 130 170 217 273 326 386
#     4  10  22  39  67  94 125 166 215 264 317 380
#     4  11  23  39  60  89 131 170 209 260 319 382
#     4  12  26  44  70  95 129 171 220 269 322 388
#     4  11  25  44  66  99 130 169 219 273 326 385
#     4   9  18  35  61  93 125 160 207 264 319 368
#
# _framework density 20.473554
#
# number of rings (size 3 to 8) (size 9 to 14) (size 15 to 20)
#    0.000    1.250    3.750    1.500    5.250    2.000 
#    0.000    0.000    0.000    0.750    0.000    0.000 
#    0.000    0.000    0.000    0.000    0.000    0.000 
#
# Total GULP energy -356405.642456 kJ/mol
# GULP energy per Si atom -5568.838163 kJ/mol
# Density = 2.042695 g / cm^3
# Si number density = 20.473554 Si / 1000 Ang^3
#
#
#
# Elastic Constant Matrix: (Units=GPa)
#
#
# Indices 1 2 3 4 5 6 
#
# 1 118.8818 7.4292 29.8237 0.0000 0.0000 0.0000
# 2 7.4292 55.8544 -11.4694 0.0000 0.0000 0.0000
# 3 29.8237 -11.4694 57.0967 0.0000 0.0000 0.0000
# 4 0.0000 0.0000 0.0000 20.1237 0.0000 0.0000
# 5 0.0000 0.0000 0.0000 0.0000 28.6278 0.0000
# 6 0.0000 0.0000 0.0000 0.0000 0.0000 16.4709
#
#
#
# Elastic Compliance Matrix: (Units=1/GPa)
#
#
# Indices 1 2 3 4 5 6 
#
# 1 0.010006 -0.002508 -0.005730 0.000000 0.000000 0.000000
# 2 -0.002508 0.019302 0.005187 0.000000 0.000000 0.000000
# 3 -0.005730 0.005187 0.021549 0.000000 0.000000 0.000000
# 4 0.000000 0.000000 0.000000 0.049693 0.000000 0.000000
# 5 0.000000 0.000000 0.000000 0.000000 0.034931 0.000000
# 6 0.000000 0.000000 0.000000 0.000000 0.000000 0.060713
#
#
# Mechanical properties :
#
#
# Convention : Reuss Voigt Hill
#
# Bulk Modulus (GPa) = 22.34313 31.48886 26.91600
# Shear Modulus (GPa) = 23.01874 26.78110 24.89992
#
# Velocity S-wave (km/s) = 3.35672 3.62067 3.49119
# Velocity P-wave (km/s) = 5.09512 5.73521 5.42461
#
# Compressibility (1/GPa) = 0.04475649
#
# Stress axis : x y z
#
# Youngs Moduli (GPa) = 99.94057 51.80703 46.40536
#
# Poissons Ratio (x) = 0.12991 0.26591
# Poissons Ratio (y) = 0.25061 -0.24071
# Poissons Ratio (z) = 0.57268 -0.26873
#
# Static dielectric constant tensor:
#      x y z
#    x 1.792680 0.000000 0.000000 
#    y 0.000000 1.675160 0.000000 
#    z 0.000000 0.000000 1.780080 
# 
# From -- ./inp_files/19561.got.cif
#   From: 2010.05.17/outbox.cif.g08.bks.cpg/sg50_10_cif.got.tgz:19561.got - 2010.06.03 11:33:33.
