data_PCOD9397845
_publ_section_title
;
Structure prediction by ZEFSAII (Michael W. Deem and Ramdas Pophale) SiO2 
 PCOD9397845
Probable space group: P B A N
;
_chemical_formula_sum "Si O2"
_cell_formula_units_Z 56
_cell_length_a 19.122977
_cell_length_b 14.637454
_cell_length_c 9.364289
_cell_angle_alpha 90.000000
_cell_angle_beta 90.000000
_cell_angle_gamma 90.000000
_cell_volume 2621.174018
_symmetry_space_group_name_H-M "P B A N"
_symmetry_group_IT_number 50
_space_group.IT_coordinate_system_code '2'
_symmetry_cell_setting 'orthorhombic'
loop_
_space_group_symop_operation_xyz
x,y,z
1/2-x,1/2-y,z
x,1/2-y,-z
1/2-x,y,-z
-x,-y,-z
1/2+x,1/2+y,-z
-x,1/2+y,z
1/2+x,-y,z
loop_
_atom_site_type_symbol
_atom_site_label
_atom_site_fract_x
_atom_site_fract_y
_atom_site_fract_z
Si Si1 0.518437 0.389426 0.244542
Si Si2 0.217365 0.649327 0.844719
Si Si3 0.892685 0.841444 0.580341
Si Si4 0.619942 0.152697 0.532214
Si Si5 0.510140 0.592978 0.344315
Si Si6 0.053814 0.649681 0.936849
Si Si7 0.295657 0.004120 0.620020
O O1 0.457249 0.324108 0.308319
O O2 0.592007 0.354158 0.307839
O O3 0.500348 0.485251 0.320750
O O4 0.532007 0.406642 0.078076
O O5 0.250000 0.750000 0.799320
O O6 0.132466 0.643582 0.869322
O O7 0.234131 0.562675 0.742659
O O8 0.250000 0.634768 0.000000
O O9 0.865875 0.750000 0.500000
O O10 0.921998 0.894211 0.440260
O O11 0.844667 0.912592 0.667807
O O12 0.653100 0.250000 0.500000
O O13 0.550535 0.141742 0.435463
O O14 0.666200 0.070651 0.479370
O O15 0.501808 0.632664 0.187008
O O16 0.049075 0.750000 0.000000
O O17 0.250000 0.053457 0.500000
#
# Coordination Sequence:
#
# PCOD9397845 Si02
#       7
#     8   8   8   8   8   8   8
#     4  11  21  36  63  93 127 167 210 269 329 385
#     4  11  25  43  59  90 142 184 205 260 321 400
#     4  11  22  45  66  92 130 166 219 284 334 370
#     4  11  21  36  60  90 126 161 207 263 324 398
#     4  11  20  39  60  92 128 166 208 274 329 380
#     4  12  22  36  59  94 128 171 216 242 324 399
#     4  12  27  41  64  94 124 174 231 266 328 400
#
# _framework density 21.364473
#
# number of rings (size 3 to 8) (size 9 to 14) (size 15 to 20)
#    0.000    0.714    5.714    4.714    4.000    0.286 
#    0.000    0.000    0.000    0.000    0.000    3.000 
#    0.000    0.000    0.000    0.000    0.000    0.000 
#
# Total GULP energy -312059.593458 kJ/mol
# GULP energy per Si atom -5572.492740 kJ/mol
# Density = 2.131585 g / cm^3
# Si number density = 21.364473 Si / 1000 Ang^3
#
#
#
# Elastic Constant Matrix: (Units=GPa)
#
#
# Indices 1 2 3 4 5 6 
#
# 1 26.4890 11.0395 8.0752 0.0000 0.0000 0.0000
# 2 11.0395 97.7958 20.1404 0.0000 0.0000 0.0000
# 3 8.0752 20.1404 115.5881 0.0000 0.0000 0.0000
# 4 0.0000 0.0000 0.0000 33.5165 0.0000 0.0000
# 5 0.0000 0.0000 0.0000 0.0000 25.8265 0.0000
# 6 0.0000 0.0000 0.0000 0.0000 0.0000 16.0417
#
#
#
# Elastic Compliance Matrix: (Units=1/GPa)
#
#
# Indices 1 2 3 4 5 6 
#
# 1 0.040095 -0.004096 -0.002087 0.000000 0.000000 0.000000
# 2 -0.004096 0.011024 -0.001635 0.000000 0.000000 0.000000
# 3 -0.002087 -0.001635 0.009082 0.000000 0.000000 0.000000
# 4 0.000000 0.000000 0.000000 0.029836 0.000000 0.000000
# 5 0.000000 0.000000 0.000000 0.000000 0.038720 0.000000
# 6 0.000000 0.000000 0.000000 0.000000 0.000000 0.062338
#
#
# Mechanical properties :
#
#
# Convention : Reuss Voigt Hill
#
# Bulk Modulus (GPa) = 22.43919 35.37589 28.90754
# Shear Modulus (GPa) = 22.56454 28.45147 25.50800
#
# Velocity S-wave (km/s) = 3.25340 3.65323 3.45910
# Velocity P-wave (km/s) = 4.96374 5.86422 5.43267
#
# Compressibility (1/GPa) = 0.04456490
#
# Stress axis : x y z
#
# Youngs Moduli (GPa) = 24.94076 90.70750 110.10694
#
# Poissons Ratio (x) = 0.37155 0.22984
# Poissons Ratio (y) = 0.10216 0.18000
# Poissons Ratio (z) = 0.05206 0.14829
#
# Static dielectric constant tensor:
#      x y z
#    x 1.931580 0.000000 0.000000 
#    y 0.000000 1.832070 0.000000 
#    z 0.000000 0.000000 1.898900 
# 
# From -- ./inp_files/15381.got.cif
#   From: 2010.05.17/outbox.cif.g08.bks.cpg/sg50_8_cif.got.tgz:15381.got - 2010.06.03 11:33:33.
