data_PCOD9397395
_publ_section_title
;
Structure prediction by ZEFSAII (Michael W. Deem and Ramdas Pophale) SiO2 
 PCOD9397395
Probable space group: P B A N
;
_chemical_formula_sum "Si O2"
_cell_formula_units_Z 34
_cell_length_a 9.974545
_cell_length_b 9.124236
_cell_length_c 17.263691
_cell_angle_alpha 90.000000
_cell_angle_beta 90.000000
_cell_angle_gamma 90.000000
_cell_volume 1571.170289
_symmetry_space_group_name_H-M "P B A N"
_symmetry_group_IT_number 50
_space_group.IT_coordinate_system_code '2'
_symmetry_cell_setting 'orthorhombic'
loop_
_space_group_symop_operation_xyz
x,y,z
1/2-x,1/2-y,z
x,1/2-y,-z
1/2-x,y,-z
-x,-y,-z
1/2+x,1/2+y,-z
-x,1/2+y,z
1/2+x,-y,z
loop_
_atom_site_type_symbol
_atom_site_label
_atom_site_fract_x
_atom_site_fract_y
_atom_site_fract_z
Si Si1 0.604962 0.702905 0.877815
Si Si2 0.390600 0.588660 0.049400
Si Si3 0.367340 0.652770 0.650793
Si Si4 0.250000 0.750000 0.500000
Si Si5 0.885132 0.675190 0.704238
O O1 0.750000 0.750000 0.913245
O O2 0.470780 0.767526 0.919782
O O3 0.620931 0.526672 0.879080
O O4 0.599721 0.774563 0.793322
O O5 0.250000 0.599166 0.000000
O O6 0.500000 0.500000 0.000000
O O7 0.250000 0.750000 0.689090
O O8 0.329492 0.646811 0.560035
O O9 0.496465 0.751638 0.657672
O O10 0.382135 0.497869 0.691717
O O11 0.750000 0.750000 0.675811
#
# Coordination Sequence:
#
# PCOD9397395 Si02
#       5
#     8   8   8   2   8
#     4  11  25  46  67 101 137 176 231 289 349 416
#     4  12  25  45  71  97 136 180 229 290 356 420
#     4  10  22  45  68 103 144 178 234 279 351 423
#     4   8  24  44  68 100 152 176 226 280 348 424
#     4  11  23  43  73 102 138 186 232 296 343 415
#
# _framework density 21.639921000000001
#
# number of rings (size 3 to 8) (size 9 to 14) (size 15 to 20)
#    0.706    0.471    2.353    3.529    0.000    4.706 
#    4.235    0.000    0.000    0.000    0.000    0.000 
#    0.000    0.000    0.000    0.000    0.000    0.000 
#
# Total GULP energy -189484.146554 kJ/mol
# GULP energy per Si atom -5573.063134 kJ/mol
# Density = 2.159067 g / cm^3
# Si number density = 21.639921 Si / 1000 Ang^3
#
#
#
# Elastic Constant Matrix: (Units=GPa)
#
#
# Indices 1 2 3 4 5 6 
#
# 1 179.0828 54.0104 28.9835 0.0000 0.0000 0.0000
# 2 54.0104 187.7034 38.7108 0.0000 0.0000 0.0000
# 3 28.9835 38.7108 105.8873 0.0000 0.0000 0.0000
# 4 0.0000 0.0000 0.0000 41.4932 0.0000 0.0000
# 5 0.0000 0.0000 0.0000 0.0000 33.9507 0.0000
# 6 0.0000 0.0000 0.0000 0.0000 0.0000 34.7200
#
#
#
# Elastic Compliance Matrix: (Units=1/GPa)
#
#
# Indices 1 2 3 4 5 6 
#
# 1 0.006239 -0.001561 -0.001137 0.000000 0.000000 0.000000
# 2 -0.001561 0.006152 -0.001822 0.000000 0.000000 0.000000
# 3 -0.001137 -0.001822 0.010421 0.000000 0.000000 0.000000
# 4 0.000000 0.000000 0.000000 0.024100 0.000000 0.000000
# 5 0.000000 0.000000 0.000000 0.000000 0.029454 0.000000
# 6 0.000000 0.000000 0.000000 0.000000 0.000000 0.028802
#
#
# Mechanical properties :
#
#
# Convention : Reuss Voigt Hill
#
# Bulk Modulus (GPa) = 72.60646 79.56477 76.08562
# Shear Modulus (GPa) = 42.08767 45.43071 43.75919
#
# Velocity S-wave (km/s) = 4.41490 4.58688 4.50171
# Velocity P-wave (km/s) = 7.72097 8.05606 7.89029
#
# Compressibility (1/GPa) = 0.01377288
#
# Stress axis : x y z
#
# Youngs Moduli (GPa) = 160.28917 162.53859 95.95671
#
# Poissons Ratio (x) = 0.25366 0.10911
# Poissons Ratio (y) = 0.25015 0.17484
# Poissons Ratio (z) = 0.18227 0.29615
#
# Static dielectric constant tensor:
#      x y z
#    x 1.871830 0.000000 0.000000 
#    y 0.000000 1.845820 0.000000 
#    z 0.000000 0.000000 1.846520 
# 
# From -- ./inp_files/30541.got.cif
#   From: 2010.05.17/outbox.cif.g08.bks.cpg/sg50_16_cif.got.tgz:30541.got - 2010.06.03 11:33:33.
