data_PCOD9397075
_publ_section_title
;
Structure prediction by ZEFSAII (Michael W. Deem and Ramdas Pophale) SiO2 
 PCOD9397075
Probable space group: P B A N
;
_chemical_formula_sum "Si O2"
_cell_formula_units_Z 32
_cell_length_a 34.390094
_cell_length_b 5.460031
_cell_length_c 8.339329
_cell_angle_alpha 90.000000
_cell_angle_beta 90.000000
_cell_angle_gamma 90.000000
_cell_volume 1565.883973
_symmetry_space_group_name_H-M "P B A N"
_symmetry_group_IT_number 50
_space_group.IT_coordinate_system_code '2'
_symmetry_cell_setting 'orthorhombic'
loop_
_space_group_symop_operation_xyz
x,y,z
1/2-x,1/2-y,z
x,1/2-y,-z
1/2-x,y,-z
-x,-y,-z
1/2+x,1/2+y,-z
-x,1/2+y,z
1/2+x,-y,z
loop_
_atom_site_type_symbol
_atom_site_label
_atom_site_fract_x
_atom_site_fract_y
_atom_site_fract_z
Si Si1 0.524908 0.750000 0.500000
Si Si2 0.629943 0.239939 0.189881
Si Si3 0.287598 0.915420 0.252677
Si Si4 0.082336 0.258859 0.194613
Si Si5 0.750000 0.750000 0.500000
Si Si6 0.250000 0.250000 0.000000
O O1 0.500000 0.500000 0.500000
O O2 0.549428 0.747886 0.667393
O O3 0.672399 0.273047 0.264344
O O4 0.604430 0.483056 0.224565
O O5 0.609017 0.982184 0.224269
O O6 0.636548 0.250000 0.000000
O O7 0.250000 0.750000 0.248181
O O8 0.279444 0.088370 0.399885
O O9 0.280230 0.084649 0.098818
O O10 0.071620 0.250000 0.000000
#
# Coordination Sequence:
#
# PCOD9397075 Si02
#       6
#     4   8   8   8   2   2
#     4  12  26  47  76 106 139 176 223 268 338 426
#     4  10  22  40  69  93 135 178 226 284 344 401
#     4  11  23  40  59  88 128 178 238 289 340 399
#     4  10  24  45  68 107 139 176 223 275 344 413
#     4  10  26  40  52  84 128 170 246 298 350 402
#     4  10  22  34  64  88 120 166 246 282 342 382
#
# _framework density 20.435742000000001
#
# number of rings (size 3 to 8) (size 9 to 14) (size 15 to 20)
#    0.000    1.500    0.000    3.750   12.250    2.000 
#    4.500    0.000    0.000    0.000    0.000    0.000 
#    0.000    0.000    0.000    0.000    0.000    0.000 
#
# Total GULP energy -178510.032698 kJ/mol
# GULP energy per Si atom -5578.438522 kJ/mol
# Density = 2.038923 g / cm^3
# Si number density = 20.435742 Si / 1000 Ang^3
#
#
#
# Elastic Constant Matrix: (Units=GPa)
#
#
# Indices 1 2 3 4 5 6 
#
# 1 139.8203 82.9842 85.5394 0.0000 0.0000 0.0000
# 2 82.9842 174.8973 71.1950 0.0000 0.0000 0.0000
# 3 85.5394 71.1950 107.1509 0.0000 0.0000 0.0000
# 4 0.0000 0.0000 0.0000 45.3513 0.0000 0.0000
# 5 0.0000 0.0000 0.0000 0.0000 -135.9340 0.0000
# 6 0.0000 0.0000 0.0000 0.0000 0.0000 39.9952
#
#
#
# Elastic Compliance Matrix: (Units=1/GPa)
#
#
# Indices 1 2 3 4 5 6 
#
# 1 0.015112 -0.003097 -0.010006 0.000000 0.000000 0.000000
# 2 -0.003097 0.008472 -0.003157 0.000000 0.000000 0.000000
# 3 -0.010006 -0.003157 0.019418 0.000000 0.000000 0.000000
# 4 0.000000 0.000000 0.000000 0.022050 0.000000 0.000000
# 5 0.000000 0.000000 0.000000 0.000000 -0.007357 0.000000
# 6 0.000000 0.000000 0.000000 0.000000 0.000000 0.025003
#
#
# Mechanical properties :
#
#
# Convention : Reuss Voigt Hill
#
# Bulk Modulus (GPa) = 95.40030 100.14507 97.77268
# Shear Modulus (GPa) = 42.11882 2.02582 22.07232
#
# Velocity S-wave (km/s) = 4.54479 0.99673 3.29003
# Velocity P-wave (km/s) = 8.62117 7.10182 7.89811
#
# Compressibility (1/GPa) = 0.01048215
#
# Stress axis : x y z
#
# Youngs Moduli (GPa) = 66.17466 118.03430 51.49860
#
# Poissons Ratio (x) = 0.36554 0.51529
# Poissons Ratio (y) = 0.20494 0.16257
# Poissons Ratio (z) = 0.66214 0.37262
#
# Static dielectric constant tensor:
#      x y z
#    x 1.580380 0.000000 0.000000 
#    y 0.000000 1.701430 0.000000 
#    z 0.000000 0.000000 1.766740 
# 
# From -- ./inp_files/8050.got.cif
#   From: 2010.05.17/outbox.cif.g08.bks.cpg/sg50_5_cif.got.tgz:8050.got - 2010.06.03 11:33:33.
