data_PCOD9397783
_publ_section_title
;
Structure prediction by ZEFSAII (Michael W. Deem and Ramdas Pophale) SiO2 
 PCOD9397783
Probable space group: P B A N
;
_chemical_formula_sum "Si O2"
_cell_formula_units_Z 40
_cell_length_a 28.043601
_cell_length_b 5.094939
_cell_length_c 11.980238
_cell_angle_alpha 90.000000
_cell_angle_beta 90.000000
_cell_angle_gamma 90.000000
_cell_volume 1711.741634
_symmetry_space_group_name_H-M "P B A N"
_symmetry_group_IT_number 50
_space_group.IT_coordinate_system_code '2'
_symmetry_cell_setting 'orthorhombic'
loop_
_space_group_symop_operation_xyz
x,y,z
1/2-x,1/2-y,z
x,1/2-y,-z
1/2-x,y,-z
-x,-y,-z
1/2+x,1/2+y,-z
-x,1/2+y,z
1/2+x,-y,z
loop_
_atom_site_type_symbol
_atom_site_label
_atom_site_fract_x
_atom_site_fract_y
_atom_site_fract_z
Si Si1 0.900804 0.150162 0.383980
Si Si2 0.663559 0.657174 0.647672
Si Si3 0.832405 0.932505 0.894084
Si Si4 0.750000 0.250000 0.000000
Si Si5 0.750000 0.750000 0.500000
Si Si6 0.911776 0.250000 0.000000
Si Si7 0.030343 0.025317 0.815893
O O1 0.924345 0.250000 0.500000
O O2 0.868806 0.398883 0.350973
O O3 0.937037 0.054883 0.289285
O O4 0.864582 0.907113 0.401599
O O5 0.671292 0.717411 0.778423
O O6 0.712967 0.605379 0.582818
O O7 0.877267 0.125958 0.906401
O O8 0.839449 0.750000 0.000000
O O9 0.783961 0.084021 0.920081
O O10 0.943561 0.455636 0.931730
O O11 0.985265 0.827237 0.810768
#
# Coordination Sequence:
#
# PCOD9397783 Si02
#       7
#     8   8   8   2   2   4   8
#     4  12  25  51  74 103 146 195 239 303 371 432
#     4  12  27  47  74 107 149 187 249 296 364 439
#     4  11  25  44  72 102 146 201 236 302 372 449
#     4  10  26  44  60 112 140 188 254 288 364 446
#     4  12  28  46  78 114 136 202 240 312 344 422
#     4  11  24  45  72 102 148 190 238 301 382 435
#     4  12  27  45  74 110 142 188 248 305 369 447
#
# _framework density 23.368010999999999
#
# number of rings (size 3 to 8) (size 9 to 14) (size 15 to 20)
#    0.000    0.400    4.000    3.300    8.400    2.400 
#    0.000    0.000    0.000    0.000    0.000    0.000 
#    0.000    0.000    0.000    0.000    0.000    0.000 
#
# Total GULP energy -223938.496126 kJ/mol
# GULP energy per Si atom -5598.462403 kJ/mol
# Density = 2.331482 g / cm^3
# Si number density = 23.368011 Si / 1000 Ang^3
#
#
#
# Elastic Constant Matrix: (Units=GPa)
#
#
# Indices 1 2 3 4 5 6 
#
# 1 87.2834 4.7552 23.4075 0.0000 0.0000 0.0000
# 2 4.7552 75.5068 -3.0544 0.0000 0.0000 0.0000
# 3 23.4075 -3.0544 142.1567 0.0000 0.0000 0.0000
# 4 0.0000 0.0000 0.0000 38.9986 0.0000 0.0000
# 5 0.0000 0.0000 0.0000 0.0000 -66.4214 0.0000
# 6 0.0000 0.0000 0.0000 0.0000 0.0000 378.1416
#
#
#
# Elastic Compliance Matrix: (Units=1/GPa)
#
#
# Indices 1 2 3 4 5 6 
#
# 1 0.012039 -0.000839 -0.002000 0.000000 0.000000 0.000000
# 2 -0.000839 0.013314 0.000424 0.000000 0.000000 0.000000
# 3 -0.002000 0.000424 0.007373 0.000000 0.000000 0.000000
# 4 0.000000 0.000000 0.000000 0.025642 0.000000 0.000000
# 5 0.000000 0.000000 0.000000 0.000000 -0.015055 0.000000
# 6 0.000000 0.000000 0.000000 0.000000 0.000000 0.002645
#
#
# Mechanical properties :
#
#
# Convention : Reuss Voigt Hill
#
# Bulk Modulus (GPa) = 35.84819 39.46261 37.65540
# Shear Modulus (GPa) = 83.21410 88.79969 86.00689
#
# Velocity S-wave (km/s) = 5.97391 6.17114 6.07333
# Velocity P-wave (km/s) = 7.93457 8.22809 8.08266
#
# Compressibility (1/GPa) = 0.02789541
#
# Stress axis : x y z
#
# Youngs Moduli (GPa) = 83.06268 75.10976 135.63025
#
# Poissons Ratio (x) = 0.06303 0.27131
# Poissons Ratio (y) = 0.06970 -0.05754
# Poissons Ratio (z) = 0.16616 -0.03186
#
# Static dielectric constant tensor:
#      x y z
#    x 1.746860 0.000000 0.000000 
#    y 0.000000 1.894170 0.000000 
#    z 0.000000 0.000000 1.803340 
# 
# From -- ./inp_files/23003.got.cif
#   From: 2010.05.17/outbox.cif.g08.bks.cpg/sg50_12_cif.got.tgz:23003.got - 2010.06.03 11:33:33.
