data_PCOD9397801
_publ_section_title
;
Structure prediction by ZEFSAII (Michael W. Deem and Ramdas Pophale) SiO2 
 PCOD9397801
Probable space group: P B A N
;
_chemical_formula_sum "Si O2"
_cell_formula_units_Z 60
_cell_length_a 12.494728
_cell_length_b 11.208505
_cell_length_c 21.532313
_cell_angle_alpha 90.000000
_cell_angle_beta 90.000000
_cell_angle_gamma 90.000000
_cell_volume 3015.540603
_symmetry_space_group_name_H-M "P B A N"
_symmetry_group_IT_number 50
_space_group.IT_coordinate_system_code '2'
_symmetry_cell_setting 'orthorhombic'
loop_
_space_group_symop_operation_xyz
x,y,z
1/2-x,1/2-y,z
x,1/2-y,-z
1/2-x,y,-z
-x,-y,-z
1/2+x,1/2+y,-z
-x,1/2+y,z
1/2+x,-y,z
loop_
_atom_site_type_symbol
_atom_site_label
_atom_site_fract_x
_atom_site_fract_y
_atom_site_fract_z
Si Si1 0.740028 0.570205 0.074177
Si Si2 0.814312 0.375148 0.722945
Si Si3 0.516576 0.359050 0.386978
Si Si4 0.452358 0.250000 0.500000
Si Si5 0.568068 0.771893 0.074605
Si Si6 0.336996 0.468146 0.541904
Si Si7 0.220150 0.114874 0.333754
Si Si8 0.150431 0.839176 0.860801
O O1 0.649681 0.666451 0.092932
O O2 0.860104 0.611571 0.091695
O O3 0.695340 0.447319 0.098548
O O4 0.750000 0.570578 0.000000
O O5 0.750000 0.250000 0.723073
O O6 0.898426 0.356441 0.667931
O O7 0.749168 0.499005 0.709067
O O8 0.868861 0.383504 0.790501
O O9 0.511494 0.245881 0.433755
O O10 0.563407 0.456512 0.434478
O O11 0.403340 0.383493 0.354727
O O12 0.376815 0.363863 0.497489
O O13 0.455131 0.781790 0.108771
O O14 0.551500 0.750000 0.000000
O O15 0.250000 0.538068 0.500000
O O16 0.287070 0.410051 0.603501
O O17 0.250000 0.250000 0.310732
O O18 0.250000 0.750000 0.858315
#
# Coordination Sequence:
#
# PCOD9397801 Si02
#       8
#     8   8   8   4   8   8   8   8
#     4   9  21  41  66 101 137 172 221 283 337 397
#     4  10  27  48  60  91 138 174 222 279 329 396
#     4  11  25  38  67  90 124 174 214 277 338 404
#     4  12  21  36  61  94 122 156 211 268 339 398
#     4   9  21  41  66 100 141 175 220 283 340 395
#     4  11  21  37  59  93 131 151 205 277 337 405
#     4  11  22  43  68  93 122 171 224 273 333 403
#     4  11  25  42  66  97 133 185 226 276 334 411
#
# _framework density 19.896929
#
# number of rings (size 3 to 8) (size 9 to 14) (size 15 to 20)
#    0.000    1.600    2.667    1.400    5.600    3.200 
#    7.200    0.000    0.000    0.000    0.000    0.000 
#    0.000    0.000    0.000    0.000    0.000    0.000 
#
# Total GULP energy -334284.023281 kJ/mol
# GULP energy per Si atom -5571.400388 kJ/mol
# Density = 1.985164 g / cm^3
# Si number density = 19.896929 Si / 1000 Ang^3
#
#
#
# Elastic Constant Matrix: (Units=GPa)
#
#
# Indices 1 2 3 4 5 6 
#
# 1 124.7109 44.0746 60.5251 0.0000 0.0000 0.0000
# 2 44.0746 84.0313 27.8296 0.0000 0.0000 0.0000
# 3 60.5251 27.8296 58.5087 0.0000 0.0000 0.0000
# 4 0.0000 0.0000 0.0000 32.5810 0.0000 0.0000
# 5 0.0000 0.0000 0.0000 0.0000 25.8852 0.0000
# 6 0.0000 0.0000 0.0000 0.0000 0.0000 19.7759
#
#
#
# Elastic Compliance Matrix: (Units=1/GPa)
#
#
# Indices 1 2 3 4 5 6 
#
# 1 0.017007 -0.003672 -0.015846 0.000000 0.000000 0.000000
# 2 -0.003672 0.014918 -0.003297 0.000000 0.000000 0.000000
# 3 -0.015846 -0.003297 0.035052 0.000000 0.000000 0.000000
# 4 0.000000 0.000000 0.000000 0.030693 0.000000 0.000000
# 5 0.000000 0.000000 0.000000 0.000000 0.038632 0.000000
# 6 0.000000 0.000000 0.000000 0.000000 0.000000 0.050567
#
#
# Mechanical properties :
#
#
# Convention : Reuss Voigt Hill
#
# Bulk Modulus (GPa) = 46.84697 59.12328 52.98512
# Shear Modulus (GPa) = 20.86671 24.63652 22.75161
#
# Velocity S-wave (km/s) = 3.24194 3.52263 3.38520
# Velocity P-wave (km/s) = 6.13266 6.80621 6.47820
#
# Compressibility (1/GPa) = 0.02134610
#
# Stress axis : x y z
#
# Youngs Moduli (GPa) = 58.79933 67.03159 28.52877
#
# Poissons Ratio (x) = 0.24615 0.45208
# Poissons Ratio (y) = 0.21592 0.09406
# Poissons Ratio (z) = 0.93176 0.22102
#
# Static dielectric constant tensor:
#      x y z
#    x 1.738360 0.000000 0.000000 
#    y 0.000000 1.763000 0.000000 
#    z 0.000000 0.000000 1.730600 
# 
# From -- ./inp_files/30882.got.cif
#   From: 2010.05.17/outbox.cif.g08.bks.cpg/sg50_16_cif.got.tgz:30882.got - 2010.06.03 11:33:33.
