data_PCOD9397538
_publ_section_title
;
Structure prediction by ZEFSAII (Michael W. Deem and Ramdas Pophale) SiO2 
 PCOD9397538
Probable space group: P B A N
;
_chemical_formula_sum "Si O2"
_cell_formula_units_Z 64
_cell_length_a 13.361411
_cell_length_b 18.806658
_cell_length_c 12.917411
_cell_angle_alpha 90.000000
_cell_angle_beta 90.000000
_cell_angle_gamma 90.000000
_cell_volume 3245.932080
_symmetry_space_group_name_H-M "P B A N"
_symmetry_group_IT_number 50
_space_group.IT_coordinate_system_code '2'
_symmetry_cell_setting 'orthorhombic'
loop_
_space_group_symop_operation_xyz
x,y,z
1/2-x,1/2-y,z
x,1/2-y,-z
1/2-x,y,-z
-x,-y,-z
1/2+x,1/2+y,-z
-x,1/2+y,z
1/2+x,-y,z
loop_
_atom_site_type_symbol
_atom_site_label
_atom_site_fract_x
_atom_site_fract_y
_atom_site_fract_z
Si Si1 0.395214 0.428713 0.446225
Si Si2 0.192751 0.322982 0.720075
Si Si3 0.992605 0.169489 0.174149
Si Si4 0.861403 0.334336 0.020346
Si Si5 0.290066 0.920298 0.611067
Si Si6 0.426709 0.953387 0.315966
Si Si7 0.113487 0.394549 0.312229
Si Si8 0.076843 0.816799 0.250922
O O1 0.359647 0.361403 0.377875
O O2 0.344282 0.502935 0.408380
O O3 0.513270 0.440042 0.423166
O O4 0.061770 0.466869 0.277060
O O5 0.250000 0.250000 0.692972
O O6 0.109420 0.311286 0.808800
O O7 0.283382 0.377058 0.744244
O O8 0.978080 0.098733 0.237899
O O9 0.925195 0.231772 0.228591
O O10 0.949459 0.151015 0.061602
O O11 0.896412 0.347286 0.137361
O O12 0.850285 0.250000 0.000000
O O13 0.750000 0.365555 0.000000
O O14 0.250000 0.894701 0.500000
O O15 0.189782 0.937242 0.674535
O O16 0.352726 0.858695 0.668160
O O17 0.370838 0.089598 0.434884
O O18 0.034367 0.333216 0.291292
#
# Coordination Sequence:
#
# PCOD9397538 Si02
#       8
#     8   8   8   8   8   8   8   8
#     4  11  22  38  60  88 128 181 218 246 302 392
#     4  11  22  39  63  93 127 170 210 263 309 368
#     4  10  23  43  62  92 126 158 212 270 323 370
#     4   9  19  41  69  89 116 164 212 257 322 391
#     4  12  21  36  61  89 125 170 213 253 315 373
#     4  11  22  37  60  89 125 166 211 263 308 371
#     4  12  21  38  61  90 127 170 216 249 308 382
#     4  11  23  39  66  93 121 161 215 264 314 381
#
# _framework density 19.716987
#
# number of rings (size 3 to 8) (size 9 to 14) (size 15 to 20)
#    0.000    1.125    5.000    2.250    0.000    2.500 
#    0.000    3.750    0.000    1.500    0.000    0.000 
#    0.000    0.000    0.000    0.000    0.000    0.000 
#
# Total GULP energy -356616.624803 kJ/mol
# GULP energy per Si atom -5572.134763 kJ/mol
# Density = 1.967211 g / cm^3
# Si number density = 19.716987 Si / 1000 Ang^3
#
#
#
# Elastic Constant Matrix: (Units=GPa)
#
#
# Indices 1 2 3 4 5 6 
#
# 1 107.0370 10.8887 29.0677 0.0000 0.0000 0.0000
# 2 10.8887 69.7849 29.6789 0.0000 0.0000 0.0000
# 3 29.0677 29.6789 86.0998 0.0000 0.0000 0.0000
# 4 0.0000 0.0000 0.0000 12.0090 0.0000 0.0000
# 5 0.0000 0.0000 0.0000 0.0000 21.6462 0.0000
# 6 0.0000 0.0000 0.0000 0.0000 0.0000 32.8546
#
#
#
# Elastic Compliance Matrix: (Units=1/GPa)
#
#
# Indices 1 2 3 4 5 6 
#
# 1 0.010287 -0.000150 -0.003421 0.000000 0.000000 0.000000
# 2 -0.000150 0.016794 -0.005738 0.000000 0.000000 0.000000
# 3 -0.003421 -0.005738 0.014747 0.000000 0.000000 0.000000
# 4 0.000000 0.000000 0.000000 0.083271 0.000000 0.000000
# 5 0.000000 0.000000 0.000000 0.000000 0.046197 0.000000
# 6 0.000000 0.000000 0.000000 0.000000 0.000000 0.030437
#
#
# Mechanical properties :
#
#
# Convention : Reuss Voigt Hill
#
# Bulk Modulus (GPa) = 43.08664 44.68805 43.88734
# Shear Modulus (GPa) = 21.92134 26.18773 24.05453
#
# Velocity S-wave (km/s) = 3.33798 3.64838 3.49663
# Velocity P-wave (km/s) = 6.06269 6.36093 6.21360
#
# Compressibility (1/GPa) = 0.02320905
#
# Stress axis : x y z
#
# Youngs Moduli (GPa) = 97.21088 59.54671 67.80864
#
# Poissons Ratio (x) = 0.00894 0.23199
# Poissons Ratio (y) = 0.01459 0.38909
# Poissons Ratio (z) = 0.33258 0.34169
#
# Static dielectric constant tensor:
#      x y z
#    x 1.784030 0.000000 0.000000 
#    y 0.000000 1.722930 0.000000 
#    z 0.000000 0.000000 1.704970 
# 
# From -- ./inp_files/26067.got.cif
#   From: 2010.05.17/outbox.cif.g08.bks.cpg/sg50_14_cif.got.tgz:26067.got - 2010.06.03 11:33:33.
