data_PCOD9397819
_publ_section_title
;
Structure prediction by ZEFSAII (Michael W. Deem and Ramdas Pophale) SiO2 
 PCOD9397819
Probable space group: P B A N
;
_chemical_formula_sum "Si O2"
_cell_formula_units_Z 40
_cell_length_a 16.281133
_cell_length_b 18.177608
_cell_length_c 5.380759
_cell_angle_alpha 90.000000
_cell_angle_beta 90.000000
_cell_angle_gamma 90.000000
_cell_volume 1592.446675
_symmetry_space_group_name_H-M "P B A N"
_symmetry_group_IT_number 50
_space_group.IT_coordinate_system_code '2'
_symmetry_cell_setting 'orthorhombic'
loop_
_space_group_symop_operation_xyz
x,y,z
1/2-x,1/2-y,z
x,1/2-y,-z
1/2-x,y,-z
-x,-y,-z
1/2+x,1/2+y,-z
-x,1/2+y,z
1/2+x,-y,z
loop_
_atom_site_type_symbol
_atom_site_label
_atom_site_fract_x
_atom_site_fract_y
_atom_site_fract_z
Si Si1 0.559931 0.178870 0.110880
Si Si2 0.362211 0.452152 0.540754
Si Si3 0.124759 0.205414 0.745360
Si Si4 0.525931 0.053230 0.774882
Si Si5 0.296017 0.922288 0.741075
O O1 0.474846 0.199127 0.244778
O O2 0.617806 0.121319 0.249136
O O3 0.604420 0.250000 0.000000
O O4 0.530864 0.134853 0.870542
O O5 0.342472 0.378105 0.691920
O O6 0.453460 0.442666 0.425208
O O7 0.384111 0.521864 0.712386
O O8 0.309545 0.489771 0.319781
O O9 0.149007 0.250000 0.500000
O O10 0.148007 0.250000 0.000000
O O11 0.500000 0.000000 0.000000
O O12 0.250000 0.891808 0.500000
O O13 0.250000 0.910507 0.000000
#
# Coordination Sequence:
#
# PCOD9397819 Si02
#       5
#     8   8   8   8   8
#     4  11  23  43  66 100 143 176 223 287 350 415
#     4  11  22  40  67  96 138 175 227 299 344 418
#     4  11  24  39  68 109 136 166 211 287 387 437
#     4  11  19  38  69  99 127 174 226 286 367 413
#     4  12  28  45  65  93 132 197 254 277 325 406
#
# _framework density 25.118579
#
# number of rings (size 3 to 8) (size 9 to 14) (size 15 to 20)
#    0.000    0.800    4.000    4.800    0.000    3.600 
#    0.000    3.000    0.000    0.600    0.000    9.800 
#    0.000    0.000    0.000    0.000    0.000    0.000 
#
# Total GULP energy -223427.655887 kJ/mol
# GULP energy per Si atom -5585.691397 kJ/mol
# Density = 2.506141 g / cm^3
# Si number density = 25.118579 Si / 1000 Ang^3
#
#
#
# Elastic Constant Matrix: (Units=GPa)
#
#
# Indices 1 2 3 4 5 6 
#
# 1 60.3619 4.2068 19.4152 0.0000 0.0000 0.0000
# 2 4.2068 146.9780 35.9105 0.0000 0.0000 0.0000
# 3 19.4152 35.9105 115.2430 0.0000 0.0000 0.0000
# 4 0.0000 0.0000 0.0000 46.5293 0.0000 0.0000
# 5 0.0000 0.0000 0.0000 0.0000 39.9441 0.0000
# 6 0.0000 0.0000 0.0000 0.0000 0.0000 25.3644
#
#
#
# Elastic Compliance Matrix: (Units=1/GPa)
#
#
# Indices 1 2 3 4 5 6 
#
# 1 0.017524 0.000238 -0.003026 0.000000 0.000000 0.000000
# 2 0.000238 0.007368 -0.002336 0.000000 0.000000 0.000000
# 3 -0.003026 -0.002336 0.009915 0.000000 0.000000 0.000000
# 4 0.000000 0.000000 0.000000 0.021492 0.000000 0.000000
# 5 0.000000 0.000000 0.000000 0.000000 0.025035 0.000000
# 6 0.000000 0.000000 0.000000 0.000000 0.000000 0.039425
#
#
# Mechanical properties :
#
#
# Convention : Reuss Voigt Hill
#
# Bulk Modulus (GPa) = 40.72069 49.07198 44.89633
# Shear Modulus (GPa) = 35.92135 39.90426 37.91281
#
# Velocity S-wave (km/s) = 3.78573 3.99009 3.88925
# Velocity P-wave (km/s) = 5.94606 6.38798 6.17098
#
# Compressibility (1/GPa) = 0.02455754
#
# Stress axis : x y z
#
# Youngs Moduli (GPa) = 57.06593 135.72856 100.85685
#
# Poissons Ratio (x) = -0.03228 0.30523
# Poissons Ratio (y) = -0.01357 0.23559
# Poissons Ratio (z) = 0.17270 0.31705
#
# Static dielectric constant tensor:
#      x y z
#    x 2.059700 0.000000 0.000000 
#    y 0.000000 1.678230 0.000000 
#    z 0.000000 0.000000 2.016210 
# 
# From -- ./inp_files/4201.got.cif
#   From: 2010.05.17/outbox.cif.g08.bks.cpg/sg50_3_cif.got.tgz:4201.got - 2010.06.03 11:33:33.
