data_PCOD9397764
_publ_section_title
;
Structure prediction by ZEFSAII (Michael W. Deem and Ramdas Pophale) SiO2 
 PCOD9397764
Probable space group: P B A N
;
_chemical_formula_sum "Si O2"
_cell_formula_units_Z 52
_cell_length_a 12.143488
_cell_length_b 22.123061
_cell_length_c 9.377488
_cell_angle_alpha 90.000000
_cell_angle_beta 90.000000
_cell_angle_gamma 90.000000
_cell_volume 2519.272708
_symmetry_space_group_name_H-M "P B A N"
_symmetry_group_IT_number 50
_space_group.IT_coordinate_system_code '2'
_symmetry_cell_setting 'orthorhombic'
loop_
_space_group_symop_operation_xyz
x,y,z
1/2-x,1/2-y,z
x,1/2-y,-z
1/2-x,y,-z
-x,-y,-z
1/2+x,1/2+y,-z
-x,1/2+y,z
1/2+x,-y,z
loop_
_atom_site_type_symbol
_atom_site_label
_atom_site_fract_x
_atom_site_fract_y
_atom_site_fract_z
Si Si1 0.608662 0.907481 0.353865
Si Si2 0.451777 0.793794 0.320598
Si Si3 0.057302 0.967498 0.865930
Si Si4 0.626984 0.339608 0.026531
Si Si5 0.054899 0.844023 0.296396
Si Si6 0.146971 0.432159 0.331559
Si Si7 0.250000 0.658105 0.500000
O O1 0.541692 0.844042 0.369874
O O2 0.538747 0.944677 0.239880
O O3 0.624539 0.944752 0.500877
O O4 0.735503 0.900104 0.308688
O O5 0.473644 0.723605 0.349885
O O6 0.333327 0.808185 0.392381
O O7 0.435016 0.803277 0.150668
O O8 0.865943 0.988684 0.227130
O O9 0.122960 0.908706 0.917825
O O10 0.000000 0.000000 0.000000
O O11 0.578315 0.338374 0.870019
O O12 0.750000 0.318349 0.000000
O O13 0.158889 0.869444 0.389607
O O14 0.951853 0.887104 0.302293
#
# Coordination Sequence:
#
# PCOD9397764 Si02
#       7
#     8   8   8   8   8   8   4
#     4  10  25  45  64  97 133 171 216 268 325 392
#     4  11  23  41  64  98 134 170 219 265 328 395
#     4  11  24  43  66  91 123 169 223 269 322 386
#     4  11  24  40  63  93 127 169 217 273 332 386
#     4  12  23  40  66  97 131 175 214 269 329 388
#     4  11  24  44  68  94 133 171 215 270 325 389
#     4  12  23  38  66  98 136 170 216 274 319 392
#
# _framework density 20.640878000000001
#
# number of rings (size 3 to 8) (size 9 to 14) (size 15 to 20)
#    0.000    0.923    4.615    2.308    2.154    1.231 
#    0.000    1.538    0.000    1.846    0.000    0.000 
#    0.000    0.000    0.000    0.000    0.000    0.000 
#
# Total GULP energy -290239.377889 kJ/mol
# GULP energy per Si atom -5581.526498 kJ/mol
# Density = 2.059390 g / cm^3
# Si number density = 20.640878 Si / 1000 Ang^3
#
#
#
# Elastic Constant Matrix: (Units=GPa)
#
#
# Indices 1 2 3 4 5 6 
#
# 1 110.0256 49.2339 29.8501 0.0000 0.0000 0.0000
# 2 49.2339 89.2328 17.6242 0.0000 0.0000 0.0000
# 3 29.8501 17.6242 117.6314 0.0000 0.0000 0.0000
# 4 0.0000 0.0000 0.0000 42.7735 0.0000 0.0000
# 5 0.0000 0.0000 0.0000 0.0000 23.6887 0.0000
# 6 0.0000 0.0000 0.0000 0.0000 0.0000 1.8764
#
#
#
# Elastic Compliance Matrix: (Units=1/GPa)
#
#
# Indices 1 2 3 4 5 6 
#
# 1 0.012608 -0.006518 -0.002223 0.000000 0.000000 0.000000
# 2 -0.006518 0.014917 -0.000581 0.000000 0.000000 0.000000
# 3 -0.002223 -0.000581 0.009152 0.000000 0.000000 0.000000
# 4 0.000000 0.000000 0.000000 0.023379 0.000000 0.000000
# 5 0.000000 0.000000 0.000000 0.000000 0.042214 0.000000
# 6 0.000000 0.000000 0.000000 0.000000 0.000000 0.532928
#
#
# Mechanical properties :
#
#
# Convention : Reuss Voigt Hill
#
# Bulk Modulus (GPa) = 55.44847 56.70069 56.07458
# Shear Modulus (GPa) = 7.57744 28.34649 17.96196
#
# Velocity S-wave (km/s) = 1.91809 3.70985 2.95314
# Velocity P-wave (km/s) = 5.64156 6.77351 6.23328
#
# Compressibility (1/GPa) = 0.01803476
#
# Stress axis : x y z
#
# Youngs Moduli (GPa) = 79.31253 67.03553 109.26213
#
# Poissons Ratio (x) = 0.43691 0.24289
# Poissons Ratio (y) = 0.51692 0.06350
# Poissons Ratio (z) = 0.17631 0.03896
#
# Static dielectric constant tensor:
#      x y z
#    x 1.683840 0.000000 0.000000 
#    y 0.000000 1.753310 0.000000 
#    z 0.000000 0.000000 1.799620 
# 
# From -- ./inp_files/11686.got.cif
#   From: 2010.05.17/outbox.cif.g08.bks.cpg/sg50_6_cif.got.tgz:11686.got - 2010.06.03 11:33:33.
