data_PCOD9397256
_publ_section_title
;
Structure prediction by ZEFSAII (Michael W. Deem and Ramdas Pophale) SiO2 
 PCOD9397256
Probable space group: P B A N
;
_chemical_formula_sum "Si O2"
_cell_formula_units_Z 26
_cell_length_a 23.395126
_cell_length_b 10.675380
_cell_length_c 5.176370
_cell_angle_alpha 90.000000
_cell_angle_beta 90.000000
_cell_angle_gamma 90.000000
_cell_volume 1292.808037
_symmetry_space_group_name_H-M "P B A N"
_symmetry_group_IT_number 50
_space_group.IT_coordinate_system_code '2'
_symmetry_cell_setting 'orthorhombic'
loop_
_space_group_symop_operation_xyz
x,y,z
1/2-x,1/2-y,z
x,1/2-y,-z
1/2-x,y,-z
-x,-y,-z
1/2+x,1/2+y,-z
-x,1/2+y,z
1/2+x,-y,z
loop_
_atom_site_type_symbol
_atom_site_label
_atom_site_fract_x
_atom_site_fract_y
_atom_site_fract_z
Si Si1 0.120378 0.882635 0.934204
Si Si2 0.750000 0.750000 0.500000
Si Si3 0.152331 0.369170 0.828584
Si Si4 0.063828 0.968921 0.420770
O O1 0.069483 0.896922 0.147784
O O2 0.157959 0.005524 0.997571
O O3 0.148521 0.750000 0.000000
O O4 0.095401 0.894401 0.648990
O O5 0.790774 0.665809 0.323071
O O6 0.101676 0.406858 0.632464
O O7 0.136392 0.250000 0.000000
O O8 0.000000 0.000000 0.500000
#
# Coordination Sequence:
#
# PCOD9397256 Si02
#       4
#     8   2   8   8
#     4  10  22  42  64  99 135 182 219 284 346 408
#     4  12  22  48  68 104 132 182 244 298 340 406
#     4  10  24  40  72  96 138 180 238 290 349 407
#     4  10  22  41  65 102 139 182 227 272 346 418
#
# _framework density 20.111262
#
# number of rings (size 3 to 8) (size 9 to 14) (size 15 to 20)
#    1.846    0.000    0.000    4.154    0.000    1.231 
#   11.077    0.000    0.000   25.846    0.000    0.000 
#    0.000    0.000    0.000    0.000    0.000    0.000 
#
# Total GULP energy -144895.477102 kJ/mol
# GULP energy per Si atom -5572.902965 kJ/mol
# Density = 2.006549 g / cm^3
# Si number density = 20.111262 Si / 1000 Ang^3
#
#
#
# Elastic Constant Matrix: (Units=GPa)
#
#
# Indices 1 2 3 4 5 6 
#
# 1 88.0719 35.1900 21.4162 0.0000 0.0000 0.0000
# 2 35.1900 158.9065 34.8743 0.0000 0.0000 0.0000
# 3 21.4162 34.8743 107.6713 0.0000 0.0000 0.0000
# 4 0.0000 0.0000 0.0000 23.8741 0.0000 0.0000
# 5 0.0000 0.0000 0.0000 0.0000 20.3320 0.0000
# 6 0.0000 0.0000 0.0000 0.0000 0.0000 14.4461
#
#
#
# Elastic Compliance Matrix: (Units=1/GPa)
#
#
# Indices 1 2 3 4 5 6 
#
# 1 0.012754 -0.002441 -0.001746 0.000000 0.000000 0.000000
# 2 -0.002441 0.007242 -0.001860 0.000000 0.000000 0.000000
# 3 -0.001746 -0.001860 0.010237 0.000000 0.000000 0.000000
# 4 0.000000 0.000000 0.000000 0.041886 0.000000 0.000000
# 5 0.000000 0.000000 0.000000 0.000000 0.049184 0.000000
# 6 0.000000 0.000000 0.000000 0.000000 0.000000 0.069223
#
#
# Mechanical properties :
#
#
# Convention : Reuss Voigt Hill
#
# Bulk Modulus (GPa) = 55.13101 59.73453 57.43277
# Shear Modulus (GPa) = 23.96154 29.27504 26.61829
#
# Velocity S-wave (km/s) = 3.45548 3.81944 3.64201
# Velocity P-wave (km/s) = 6.58733 7.01551 6.80479
#
# Compressibility (1/GPa) = 0.01813861
#
# Stress axis : x y z
#
# Youngs Moduli (GPa) = 78.40429 138.08660 97.68197
#
# Poissons Ratio (x) = 0.33710 0.17057
# Poissons Ratio (y) = 0.19140 0.18169
# Poissons Ratio (z) = 0.13691 0.25684
#
# Static dielectric constant tensor:
#      x y z
#    x 1.660000 0.000000 0.000000 
#    y 0.000000 1.751710 0.000000 
#    z 0.000000 0.000000 1.738230 
# 
# From -- ./inp_files/1819.got.cif
#   From: 2010.05.17/outbox.cif.g08.bks.cpg/sg50_1_cif.got.tgz:1819.got - 2010.06.03 11:33:33.
