data_PCOD9397567
_publ_section_title
;
Structure prediction by ZEFSAII (Michael W. Deem and Ramdas Pophale) SiO2 
 PCOD9397567
Probable space group: P B A N
;
_chemical_formula_sum "Si O2"
_cell_formula_units_Z 30
_cell_length_a 22.170725
_cell_length_b 5.112324
_cell_length_c 12.019930
_cell_angle_alpha 90.000000
_cell_angle_beta 90.000000
_cell_angle_gamma 90.000000
_cell_volume 1362.386099
_symmetry_space_group_name_H-M "P B A N"
_symmetry_group_IT_number 50
_space_group.IT_coordinate_system_code '2'
_symmetry_cell_setting 'orthorhombic'
loop_
_space_group_symop_operation_xyz
x,y,z
1/2-x,1/2-y,z
x,1/2-y,-z
1/2-x,y,-z
-x,-y,-z
1/2+x,1/2+y,-z
-x,1/2+y,z
1/2+x,-y,z
loop_
_atom_site_type_symbol
_atom_site_label
_atom_site_fract_x
_atom_site_fract_y
_atom_site_fract_z
Si Si1 0.115089 0.111588 0.783810
Si Si2 0.808719 0.094406 0.808041
Si Si3 0.250000 0.250000 0.000000
Si Si4 0.542150 0.750000 0.000000
Si Si5 0.067798 0.002230 0.551350
O O1 0.160747 0.345506 0.746031
O O2 0.081531 0.234110 0.888923
O O3 0.145925 0.838868 0.821108
O O4 0.070744 0.031965 0.683052
O O5 0.750000 0.250000 0.761499
O O6 0.787483 0.945647 0.920832
O O7 0.500000 0.500000 0.000000
O O8 0.098262 0.750000 0.500000
O O9 0.099563 0.250000 0.500000
O O10 0.000000 0.000000 0.500000
#
# Coordination Sequence:
#
# PCOD9397567 Si02
#       5
#     8   8   2   4   8
#     4  12  26  44  72 109 149 194 246 297 382 434
#     4  12  25  42  71 107 149 187 246 296 352 454
#     4  12  24  40  74 104 152 196 250 278 366 438
#     4  12  29  42  63 100 159 196 224 305 374 452
#     4  10  23  43  75  99 136 185 255 305 346 429
#
# _framework density 22.020189999999999
#
# number of rings (size 3 to 8) (size 9 to 14) (size 15 to 20)
#    0.000    0.533    2.667    4.400   11.200    0.000 
#    0.000    0.000    0.000   12.000    0.000    0.000 
#    0.000    0.000    0.000    0.000    0.000    0.000 
#
# Total GULP energy -167348.756245 kJ/mol
# GULP energy per Si atom -5578.291875 kJ/mol
# Density = 2.197007 g / cm^3
# Si number density = 22.020190 Si / 1000 Ang^3
#
#
#
# Elastic Constant Matrix: (Units=GPa)
#
#
# Indices 1 2 3 4 5 6 
#
# 1 84.6387 50.9005 54.9991 0.0000 0.0000 0.0000
# 2 50.9005 232.3412 42.6654 0.0000 0.0000 0.0000
# 3 54.9991 42.6654 144.2413 0.0000 0.0000 0.0000
# 4 0.0000 0.0000 0.0000 32.2684 0.0000 0.0000
# 5 0.0000 0.0000 0.0000 0.0000 26.6412 0.0000
# 6 0.0000 0.0000 0.0000 0.0000 0.0000 25.5416
#
#
#
# Elastic Compliance Matrix: (Units=1/GPa)
#
#
# Indices 1 2 3 4 5 6 
#
# 1 0.017180 -0.002708 -0.005750 0.000000 0.000000 0.000000
# 2 -0.002708 0.004978 -0.000440 0.000000 0.000000 0.000000
# 3 -0.005750 -0.000440 0.009255 0.000000 0.000000 0.000000
# 4 0.000000 0.000000 0.000000 0.030990 0.000000 0.000000
# 5 0.000000 0.000000 0.000000 0.000000 0.037536 0.000000
# 6 0.000000 0.000000 0.000000 0.000000 0.000000 0.039152
#
#
# Mechanical properties :
#
#
# Convention : Reuss Voigt Hill
#
# Bulk Modulus (GPa) = 73.43184 84.26124 78.84654
# Shear Modulus (GPa) = 30.97420 37.73398 34.35409
#
# Velocity S-wave (km/s) = 3.75457 4.14407 3.95412
# Velocity P-wave (km/s) = 7.22604 7.82600 7.53199
#
# Compressibility (1/GPa) = 0.01361807
#
# Stress axis : x y z
#
# Youngs Moduli (GPa) = 58.20890 200.88277 108.04646
#
# Poissons Ratio (x) = 0.54395 0.62122
# Poissons Ratio (y) = 0.15762 0.04754
# Poissons Ratio (z) = 0.33468 0.08838
#
# Static dielectric constant tensor:
#      x y z
#    x 1.906080 0.000000 0.000000 
#    y 0.000000 1.837080 0.000000 
#    z 0.000000 0.000000 1.829840 
# 
# From -- ./inp_files/22113.got.cif
#   From: 2010.05.17/outbox.cif.g08.bks.cpg/sg50_12_cif.got.tgz:22113.got - 2010.06.03 11:33:33.
