data_PCOD9397690
_publ_section_title
;
Structure prediction by ZEFSAII (Michael W. Deem and Ramdas Pophale) SiO2 
 PCOD9397690
Probable space group: P B A N
;
_chemical_formula_sum "Si O2"
_cell_formula_units_Z 34
_cell_length_a 9.609746
_cell_length_b 8.873467
_cell_length_c 18.834768
_cell_angle_alpha 90.000000
_cell_angle_beta 90.000000
_cell_angle_gamma 90.000000
_cell_volume 1606.073892
_symmetry_space_group_name_H-M "P B A N"
_symmetry_group_IT_number 50
_space_group.IT_coordinate_system_code '2'
_symmetry_cell_setting 'orthorhombic'
loop_
_space_group_symop_operation_xyz
x,y,z
1/2-x,1/2-y,z
x,1/2-y,-z
1/2-x,y,-z
-x,-y,-z
1/2+x,1/2+y,-z
-x,1/2+y,z
1/2+x,-y,z
loop_
_atom_site_type_symbol
_atom_site_label
_atom_site_fract_x
_atom_site_fract_y
_atom_site_fract_z
Si Si1 0.750000 0.750000 0.000000
Si Si2 0.037249 0.831464 0.365608
Si Si3 0.695508 0.465426 0.419764
Si Si4 0.397862 0.678773 0.209095
Si Si5 0.873847 0.643258 0.137253
O O1 0.840093 0.853114 0.946696
O O2 0.164390 0.951166 0.373701
O O3 0.099657 0.679108 0.399615
O O4 0.014042 0.819250 0.281716
O O5 0.900743 0.891448 0.404633
O O6 0.750000 0.457646 0.500000
O O7 0.250000 0.750000 0.227888
O O8 0.479787 0.779176 0.152718
O O9 0.374684 0.515952 0.175456
O O10 0.750000 0.750000 0.166716
#
# Coordination Sequence:
#
# PCOD9397690 Si02
#       5
#     2   8   8   8   8
#     4   8  24  48  64 100 144 180 230 276 332 412
#     4  11  24  43  66  99 136 171 227 281 341 402
#     4  11  24  44  67  94 135 177 225 279 337 414
#     4  12  23  43  70 105 137 180 226 290 341 403
#     4  10  24  44  70  97 142 177 231 272 342 410
#
# _framework density 21.169636000000001
#
# number of rings (size 3 to 8) (size 9 to 14) (size 15 to 20)
#    0.706    0.471    2.353    4.941    3.294    1.882 
#    0.000    2.353    0.000    0.000    0.000    0.000 
#    0.000    0.000    0.000    0.000    0.000    0.000 
#
# Total GULP energy -189985.195990 kJ/mol
# GULP energy per Si atom -5587.799882 kJ/mol
# Density = 2.112145 g / cm^3
# Si number density = 21.169636 Si / 1000 Ang^3
#
#
#
# Elastic Constant Matrix: (Units=GPa)
#
#
# Indices 1 2 3 4 5 6 
#
# 1 58.3471 12.4366 23.2336 0.0000 0.0000 0.0000
# 2 12.4366 86.5201 43.9661 0.0000 0.0000 0.0000
# 3 23.2336 43.9661 157.7610 0.0000 0.0000 0.0000
# 4 0.0000 0.0000 0.0000 104.5444 0.0000 0.0000
# 5 0.0000 0.0000 0.0000 0.0000 -5.4325 0.0000
# 6 0.0000 0.0000 0.0000 0.0000 0.0000 18.5484
#
#
#
# Elastic Compliance Matrix: (Units=1/GPa)
#
#
# Indices 1 2 3 4 5 6 
#
# 1 0.018367 -0.001474 -0.002294 0.000000 0.000000 0.000000
# 2 -0.001474 0.013583 -0.003568 0.000000 0.000000 0.000000
# 3 -0.002294 -0.003568 0.007671 0.000000 0.000000 0.000000
# 4 0.000000 0.000000 0.000000 0.009565 0.000000 0.000000
# 5 0.000000 0.000000 0.000000 0.000000 -0.184076 0.000000
# 6 0.000000 0.000000 0.000000 0.000000 0.000000 0.053913
#
#
# Mechanical properties :
#
#
# Convention : Reuss Voigt Hill
#
# Bulk Modulus (GPa) = 40.08435 51.32233 45.70334
# Shear Modulus (GPa) = -86.22512 38.39819 -23.91346
#
# Velocity S-wave (km/s) = -6.38897 4.26353 -3.36462
# Velocity P-wave (km/s) = 5.95394 6.96656 2.55769
#
# Compressibility (1/GPa) = 0.02494739
#
# Stress axis : x y z
#
# Youngs Moduli (GPa) = 54.44694 73.62016 130.36114
#
# Poissons Ratio (x) = 0.10854 0.29904
# Poissons Ratio (y) = 0.08027 0.46518
# Poissons Ratio (z) = 0.12490 0.26270
#
# Static dielectric constant tensor:
#      x y z
#    x 1.750730 0.000000 0.000000 
#    y 0.000000 1.760270 0.000000 
#    z 0.000000 0.000000 1.777420 
# 
# From -- ./inp_files/30527.got.cif
#   From: 2010.05.17/outbox.cif.g08.bks.cpg/sg50_16_cif.got.tgz:30527.got - 2010.06.03 11:33:33.
