data_PCOD9397560
_publ_section_title
;
Structure prediction by ZEFSAII (Michael W. Deem and Ramdas Pophale) SiO2 
 PCOD9397560
Probable space group: P B A N
;
_chemical_formula_sum "Si O2"
_cell_formula_units_Z 32
_cell_length_a 7.577143
_cell_length_b 18.714560
_cell_length_c 8.506013
_cell_angle_alpha 90.000000
_cell_angle_beta 90.000000
_cell_angle_gamma 90.000000
_cell_volume 1206.177288
_symmetry_space_group_name_H-M "P B A N"
_symmetry_group_IT_number 50
_space_group.IT_coordinate_system_code '2'
_symmetry_cell_setting 'orthorhombic'
loop_
_space_group_symop_operation_xyz
x,y,z
1/2-x,1/2-y,z
x,1/2-y,-z
1/2-x,y,-z
-x,-y,-z
1/2+x,1/2+y,-z
-x,1/2+y,z
1/2+x,-y,z
loop_
_atom_site_type_symbol
_atom_site_label
_atom_site_fract_x
_atom_site_fract_y
_atom_site_fract_z
Si Si1 0.451933 0.230041 0.255308
Si Si2 0.010561 0.595499 0.897411
Si Si3 0.367575 0.456536 0.218697
Si Si4 0.552224 0.138743 0.553831
O O1 0.250000 0.250000 0.215749
O O2 0.537019 0.179240 0.124544
O O3 0.456015 0.178952 0.410005
O O4 0.550955 0.301469 0.308135
O O5 0.820695 0.577206 0.819594
O O6 0.138594 0.541527 0.806078
O O7 0.991960 0.571992 0.077038
O O8 0.446970 0.428806 0.380645
O O9 0.750000 0.123618 0.500000
#
# Coordination Sequence:
#
# PCOD9397560 Si02
#       4
#     8   8   8   8
#     4  11  22  42  66  96 134 175 225 277 342 404
#     4  10  23  43  69  97 131 174 227 283 341 404
#     4  10  23  44  66  98 132 174 223 284 340 409
#     4  11  24  42  63  96 137 175 221 280 339 406
#
# _framework density 26.530096
#
# number of rings (size 3 to 8) (size 9 to 14) (size 15 to 20)
#    0.000    1.500    2.500    3.000    3.500    2.000 
#    0.000    0.000    0.000    6.000    0.000    0.000 
#    0.000    0.000    0.000    0.000    0.000    0.000 
#
# Total GULP energy -179463.000643 kJ/mol
# GULP energy per Si atom -5608.218770 kJ/mol
# Density = 2.646971 g / cm^3
# Si number density = 26.530096 Si / 1000 Ang^3
#
#
#
# Elastic Constant Matrix: (Units=GPa)
#
#
# Indices 1 2 3 4 5 6 
#
# 1 105.3353 33.0364 27.1119 0.0000 0.0000 0.0000
# 2 33.0364 99.5747 38.8603 0.0000 0.0000 0.0000
# 3 27.1119 38.8603 52.2025 0.0000 0.0000 0.0000
# 4 0.0000 0.0000 0.0000 46.6642 0.0000 0.0000
# 5 0.0000 0.0000 0.0000 0.0000 22.0939 0.0000
# 6 0.0000 0.0000 0.0000 0.0000 0.0000 34.9642
#
#
#
# Elastic Compliance Matrix: (Units=1/GPa)
#
#
# Indices 1 2 3 4 5 6 
#
# 1 0.011247 -0.002046 -0.004318 0.000000 0.000000 0.000000
# 2 -0.002046 0.014527 -0.009752 0.000000 0.000000 0.000000
# 3 -0.004318 -0.009752 0.028658 0.000000 0.000000 0.000000
# 4 0.000000 0.000000 0.000000 0.021430 0.000000 0.000000
# 5 0.000000 0.000000 0.000000 0.000000 0.045261 0.000000
# 6 0.000000 0.000000 0.000000 0.000000 0.000000 0.028601
#
#
# Mechanical properties :
#
#
# Convention : Reuss Voigt Hill
#
# Bulk Modulus (GPa) = 45.04396 50.56996 47.80696
# Shear Modulus (GPa) = 26.40544 31.28472 28.84508
#
# Velocity S-wave (km/s) = 3.15826 3.43770 3.30094
# Velocity P-wave (km/s) = 5.50589 5.90421 5.70853
#
# Compressibility (1/GPa) = 0.02220053
#
# Stress axis : x y z
#
# Youngs Moduli (GPa) = 88.91567 68.83590 34.89443
#
# Poissons Ratio (x) = 0.14086 0.15067
# Poissons Ratio (y) = 0.18195 0.34028
# Poissons Ratio (z) = 0.38392 0.67126
#
# Static dielectric constant tensor:
#      x y z
#    x 2.055910 0.000000 0.000000 
#    y 0.000000 2.085330 0.000000 
#    z 0.000000 0.000000 2.127240 
# 
# From -- ./inp_files/9121.got.cif
#   From: 2010.05.17/outbox.cif.g08.bks.cpg/sg50_5_cif.got.tgz:9121.got - 2010.06.03 11:33:33.
