data_PCOD9397983
_publ_section_title
;
Structure prediction by ZEFSAII (Michael W. Deem and Ramdas Pophale) SiO2 
 PCOD9397983
Probable space group: P B A N
;
_chemical_formula_sum "Si O2"
_cell_formula_units_Z 38
_cell_length_a 25.277784
_cell_length_b 10.913435
_cell_length_c 5.774934
_cell_angle_alpha 90.000000
_cell_angle_beta 90.000000
_cell_angle_gamma 90.000000
_cell_volume 1593.116332
_symmetry_space_group_name_H-M "P B A N"
_symmetry_group_IT_number 50
_space_group.IT_coordinate_system_code '2'
_symmetry_cell_setting 'orthorhombic'
loop_
_space_group_symop_operation_xyz
x,y,z
1/2-x,1/2-y,z
x,1/2-y,-z
1/2-x,y,-z
-x,-y,-z
1/2+x,1/2+y,-z
-x,1/2+y,z
1/2+x,-y,z
loop_
_atom_site_type_symbol
_atom_site_label
_atom_site_fract_x
_atom_site_fract_y
_atom_site_fract_z
Si Si1 0.250000 0.750000 0.000000
Si Si2 0.824412 0.817344 0.243723
Si Si3 0.561595 0.878343 0.645244
Si Si4 0.948215 0.373667 0.340879
Si Si5 0.333829 0.862684 0.678364
Si Si6 0.750000 0.958004 0.500000
O O1 0.288836 0.666993 0.142221
O O2 0.826660 0.750000 0.500000
O O3 0.881935 0.884541 0.231165
O O4 0.768621 0.886006 0.274462
O O5 0.823599 0.750000 0.000000
O O6 0.561722 0.750000 0.500000
O O7 0.505407 0.875287 0.782717
O O8 0.556805 0.001035 0.490044
O O9 0.948515 0.250000 0.500000
O O10 0.891827 0.374718 0.212076
O O11 0.336177 0.750000 0.500000
O O12 0.305520 0.973154 0.546097
#
# Coordination Sequence:
#
# PCOD9397983 Si02
#       6
#     2   8   8   8   8   4
#     4  12  22  36  60  94 146 184 234 292 374 448
#     4  11  26  46  69 102 142 189 247 304 367 443
#     4   9  18  38  66  99 135 183 235 299 363 434
#     4   9  18  36  69  95 134 182 237 295 362 437
#     4  11  22  41  60  97 138 178 236 296 365 444
#     4  12  22  44  70  94 136 194 238 310 368 450
#
# _framework density 23.852623000000001
#
# number of rings (size 3 to 8) (size 9 to 14) (size 15 to 20)
#    0.000    1.684    4.211    0.316    0.000    3.368 
#    1.895    0.000    0.000   11.368    0.000    0.000 
#    0.000    0.000    0.000    0.000    0.000    0.000 
#
# Total GULP energy -211565.236274 kJ/mol
# GULP energy per Si atom -5567.506218 kJ/mol
# Density = 2.379833 g / cm^3
# Si number density = 23.852623 Si / 1000 Ang^3
#
#
#
# Elastic Constant Matrix: (Units=GPa)
#
#
# Indices 1 2 3 4 5 6 
#
# 1 258.2471 22.1410 39.2723 0.0000 0.0000 0.0000
# 2 22.1410 111.4797 18.8119 0.0000 0.0000 0.0000
# 3 39.2723 18.8119 68.5602 0.0000 0.0000 0.0000
# 4 0.0000 0.0000 0.0000 14.2451 0.0000 0.0000
# 5 0.0000 0.0000 0.0000 0.0000 29.3742 0.0000
# 6 0.0000 0.0000 0.0000 0.0000 0.0000-1443.0369
#
#
#
# Elastic Compliance Matrix: (Units=1/GPa)
#
#
# Indices 1 2 3 4 5 6 
#
# 1 0.004264 -0.000456 -0.002317 0.000000 0.000000 0.000000
# 2 -0.000456 0.009454 -0.002333 0.000000 0.000000 0.000000
# 3 -0.002317 -0.002333 0.016553 0.000000 0.000000 0.000000
# 4 0.000000 0.000000 0.000000 0.070199 0.000000 0.000000
# 5 0.000000 0.000000 0.000000 0.000000 0.034043 0.000000
# 6 0.000000 0.000000 0.000000 0.000000 0.000000 -0.000693
#
#
# Mechanical properties :
#
#
# Convention : Reuss Voigt Hill
#
# Bulk Modulus (GPa) = 49.85251 66.52638 58.18945
# Shear Modulus (GPa) = 33.17411 -256.01273 -111.41931
#
# Velocity S-wave (km/s) = 3.73338 -10.37131 -6.84200
# Velocity P-wave (km/s) = 6.28727 10.74559 6.16189
#
# Compressibility (1/GPa) = 0.02005917
#
# Stress axis : x y z
#
# Youngs Moduli (GPa) = 234.53641 105.77009 60.41112
#
# Poissons Ratio (x) = 0.04821 0.13999
# Poissons Ratio (y) = 0.10690 0.14094
# Poissons Ratio (z) = 0.54348 0.24677
#
# Static dielectric constant tensor:
#      x y z
#    x 1.955850 0.000000 0.000000 
#    y 0.000000 2.534130 0.000000 
#    z 0.000000 0.000000 1.477700 
# 
# From -- ./inp_files/6435.got.cif
#   From: 2010.05.17/outbox.cif.g08.bks.cpg/sg50_4_cif.got.tgz:6435.got - 2010.06.03 11:33:33.
