data_PCOD9397915
_publ_section_title
;
Structure prediction by ZEFSAII (Michael W. Deem and Ramdas Pophale) SiO2 
 PCOD9397915
Probable space group: P B A N
;
_chemical_formula_sum "Si O2"
_cell_formula_units_Z 26
_cell_length_a 5.111590
_cell_length_b 30.316374
_cell_length_c 7.087730
_cell_angle_alpha 90.000000
_cell_angle_beta 90.000000
_cell_angle_gamma 90.000000
_cell_volume 1098.349188
_symmetry_space_group_name_H-M "P B A N"
_symmetry_group_IT_number 50
_space_group.IT_coordinate_system_code '2'
_symmetry_cell_setting 'orthorhombic'
loop_
_space_group_symop_operation_xyz
x,y,z
1/2-x,1/2-y,z
x,1/2-y,-z
1/2-x,y,-z
-x,-y,-z
1/2+x,1/2+y,-z
-x,1/2+y,z
1/2+x,-y,z
loop_
_atom_site_type_symbol
_atom_site_label
_atom_site_fract_x
_atom_site_fract_y
_atom_site_fract_z
Si Si1 0.750000 0.750000 0.500000
Si Si2 0.658585 0.375263 0.282045
Si Si3 0.145674 0.180539 0.799971
Si Si4 0.757318 0.474659 0.729190
O O1 0.902871 0.781969 0.356754
O O2 0.750000 0.375813 0.500000
O O3 0.379283 0.351692 0.268004
O O4 0.656117 0.425752 0.214844
O O5 0.884203 0.347567 0.179563
O O6 0.250000 0.198240 0.000000
O O7 0.750000 0.474875 0.500000
O O8 0.469410 0.489161 0.789472
#
# Coordination Sequence:
#
# PCOD9397915 Si02
#       4
#     2   8   8   8
#     4  12  26  50  72 100 128 170 226 274 332 412
#     4  11  21  42  67  97 138 180 219 272 330 391
#     4  12  26  44  70  99 135 173 217 276 335 397
#     4   9  17  30  57  95 129 170 224 267 309 377
#
# _framework density 23.671886000000001
#
# number of rings (size 3 to 8) (size 9 to 14) (size 15 to 20)
#    0.000    1.231    3.077    3.231    0.000    7.385 
#    0.000    3.077    0.000   18.462    0.000    0.000 
#    0.000    0.000    0.000    0.000    0.000    0.000 
#
# Total GULP energy -145538.001790 kJ/mol
# GULP energy per Si atom -5597.615453 kJ/mol
# Density = 2.361801 g / cm^3
# Si number density = 23.671886 Si / 1000 Ang^3
#
#
#
# Elastic Constant Matrix: (Units=GPa)
#
#
# Indices 1 2 3 4 5 6 
#
# 1 137.9070 50.7421 2.1695 0.0000 0.0000 0.0000
# 2 50.7421 152.1071 21.8840 0.0000 0.0000 0.0000
# 3 2.1695 21.8840 126.3257 0.0000 0.0000 0.0000
# 4 0.0000 0.0000 0.0000 -17.2837 0.0000 0.0000
# 5 0.0000 0.0000 0.0000 0.0000 25.1621 0.0000
# 6 0.0000 0.0000 0.0000 0.0000 0.0000 23.3867
#
#
#
# Elastic Compliance Matrix: (Units=1/GPa)
#
#
# Indices 1 2 3 4 5 6 
#
# 1 0.008280 -0.002812 0.000345 0.000000 0.000000 0.000000
# 2 -0.002812 0.007697 -0.001285 0.000000 0.000000 0.000000
# 3 0.000345 -0.001285 0.008133 0.000000 0.000000 0.000000
# 4 0.000000 0.000000 0.000000 -0.057858 0.000000 0.000000
# 5 0.000000 0.000000 0.000000 0.000000 0.039742 0.000000
# 6 0.000000 0.000000 0.000000 0.000000 0.000000 0.042759
#
#
# Mechanical properties :
#
#
# Convention : Reuss Voigt Hill
#
# Bulk Modulus (GPa) = 60.21867 62.88124 61.54995
# Shear Modulus (GPa) = 80.91408 29.02263 54.96836
#
# Velocity S-wave (km/s) = 5.85284 3.50528 4.82404
# Velocity P-wave (km/s) = 8.43614 6.55774 7.55554
#
# Compressibility (1/GPa) = 0.01660615
#
# Stress axis : x y z
#
# Youngs Moduli (GPa) = 120.76601 129.91632 122.95963
#
# Poissons Ratio (x) = 0.36532 -0.04241
# Poissons Ratio (y) = 0.33959 0.15802
# Poissons Ratio (z) = -0.04165 0.16696
#
# Static dielectric constant tensor:
#      x y z
#    x 1.800890 0.000000 0.000000 
#    y 0.000000 1.856730 0.000000 
#    z 0.000000 0.000000 1.866060 
# 
# From -- ./inp_files/7782.got.cif
#   From: 2010.05.17/outbox.cif.g08.bks.cpg/sg50_4_cif.got.tgz:7782.got - 2010.06.03 11:33:33.
