data_PCOD9397445
_publ_section_title
;
Structure prediction by ZEFSAII (Michael W. Deem and Ramdas Pophale) SiO2 
 PCOD9397445
Probable space group: P B A N
;
_chemical_formula_sum "Si O2"
_cell_formula_units_Z 32
_cell_length_a 13.218429
_cell_length_b 10.376994
_cell_length_c 10.752779
_cell_angle_alpha 90.000000
_cell_angle_beta 90.000000
_cell_angle_gamma 90.000000
_cell_volume 1474.932442
_symmetry_space_group_name_H-M "P B A N"
_symmetry_group_IT_number 50
_space_group.IT_coordinate_system_code '2'
_symmetry_cell_setting 'orthorhombic'
loop_
_space_group_symop_operation_xyz
x,y,z
1/2-x,1/2-y,z
x,1/2-y,-z
1/2-x,y,-z
-x,-y,-z
1/2+x,1/2+y,-z
-x,1/2+y,z
1/2+x,-y,z
loop_
_atom_site_type_symbol
_atom_site_label
_atom_site_fract_x
_atom_site_fract_y
_atom_site_fract_z
Si Si1 0.750000 0.047189 0.000000
Si Si2 0.429280 0.750000 0.000000
Si Si3 0.073315 0.468719 0.383987
Si Si4 0.265760 0.099937 0.742438
Si Si5 0.980737 0.695033 0.261104
O O1 0.739172 0.970231 0.871159
O O2 0.648507 0.131774 0.017233
O O3 0.499719 0.726382 0.881987
O O4 0.193844 0.439482 0.372113
O O5 0.069252 0.602524 0.307228
O O6 0.000000 0.500000 0.500000
O O7 0.031134 0.332441 0.328901
O O8 0.250000 0.250000 0.767005
O O9 0.384883 0.100383 0.717175
#
# Coordination Sequence:
#
# PCOD9397445 Si02
#       5
#     4   4   8   8   8
#     4  11  21  40  62 104 151 183 234 298 376 451
#     4  11  24  38  69 100 152 188 235 308 375 456
#     4  11  24  45  68  98 141 193 247 304 363 445
#     4  10  23  39  66 101 138 183 238 297 367 435
#     4  11  24  43  68 104 140 193 247 303 379 434
#
# _framework density 21.695909
#
# number of rings (size 3 to 8) (size 9 to 14) (size 15 to 20)
#    0.000    1.250    2.500    2.625    7.000    3.000 
#    0.000    3.750    0.000    3.000    0.000    0.000 
#    0.000    0.000    0.000    0.000    0.000    0.000 
#
# Total GULP energy -178290.161523 kJ/mol
# GULP energy per Si atom -5571.567548 kJ/mol
# Density = 2.164653 g / cm^3
# Si number density = 21.695909 Si / 1000 Ang^3
#
#
#
# Elastic Constant Matrix: (Units=GPa)
#
#
# Indices 1 2 3 4 5 6 
#
# 1 118.2636 33.7252 69.4938 0.0000 0.0000 0.0000
# 2 33.7252 86.4554 59.4481 0.0000 0.0000 0.0000
# 3 69.4938 59.4481 153.0935 0.0000 0.0000 0.0000
# 4 0.0000 0.0000 0.0000 22.3585 0.0000 0.0000
# 5 0.0000 0.0000 0.0000 0.0000 28.3384 0.0000
# 6 0.0000 0.0000 0.0000 0.0000 0.0000 16.6847
#
#
#
# Elastic Compliance Matrix: (Units=1/GPa)
#
#
# Indices 1 2 3 4 5 6 
#
# 1 0.011628 -0.001237 -0.004798 0.000000 0.000000 0.000000
# 2 -0.001237 0.015912 -0.005617 0.000000 0.000000 0.000000
# 3 -0.004798 -0.005617 0.010891 0.000000 0.000000 0.000000
# 4 0.000000 0.000000 0.000000 0.044726 0.000000 0.000000
# 5 0.000000 0.000000 0.000000 0.000000 0.035288 0.000000
# 6 0.000000 0.000000 0.000000 0.000000 0.000000 0.059935
#
#
# Mechanical properties :
#
#
# Convention : Reuss Voigt Hill
#
# Bulk Modulus (GPa) = 66.10869 75.90518 71.00694
# Shear Modulus (GPa) = 24.18670 26.48602 25.33636
#
# Velocity S-wave (km/s) = 3.34249 3.49776 3.42101
# Velocity P-wave (km/s) = 6.74041 7.16759 6.95728
#
# Compressibility (1/GPa) = 0.01512660
#
# Stress axis : x y z
#
# Youngs Moduli (GPa) = 86.00139 62.84715 91.81754
#
# Poissons Ratio (x) = 0.07772 0.44054
# Poissons Ratio (y) = 0.10636 0.51577
# Poissons Ratio (z) = 0.41263 0.35303
#
# Static dielectric constant tensor:
#      x y z
#    x 2.019090 0.000000 0.000000 
#    y 0.000000 1.799130 0.000000 
#    z 0.000000 0.000000 1.827130 
# 
# From -- ./inp_files/19782.got.cif
#   From: 2010.05.17/outbox.cif.g08.bks.cpg/sg50_10_cif.got.tgz:19782.got - 2010.06.03 11:33:33.
