data_PCOD9397218
_publ_section_title
;
Structure prediction by ZEFSAII (Michael W. Deem and Ramdas Pophale) SiO2 
 PCOD9397218
Probable space group: P B A N
;
_chemical_formula_sum "Si O2"
_cell_formula_units_Z 64
_cell_length_a 24.312999
_cell_length_b 15.768956
_cell_length_c 8.837320
_cell_angle_alpha 90.000000
_cell_angle_beta 90.000000
_cell_angle_gamma 90.000000
_cell_volume 3388.145518
_symmetry_space_group_name_H-M "P B A N"
_symmetry_group_IT_number 50
_space_group.IT_coordinate_system_code '2'
_symmetry_cell_setting 'orthorhombic'
loop_
_space_group_symop_operation_xyz
x,y,z
1/2-x,1/2-y,z
x,1/2-y,-z
1/2-x,y,-z
-x,-y,-z
1/2+x,1/2+y,-z
-x,1/2+y,z
1/2+x,-y,z
loop_
_atom_site_type_symbol
_atom_site_label
_atom_site_fract_x
_atom_site_fract_y
_atom_site_fract_z
Si Si1 0.441106 0.250000 0.316949
Si Si2 0.633573 0.401049 0.318768
Si Si3 0.135933 0.092616 0.681436
Si Si4 0.633573 0.098951 0.318768
Si Si5 0.250000 0.349347 0.819356
Si Si6 0.635933 0.907384 0.318565
Si Si7 0.250000 0.647630 0.177989
Si Si8 0.937652 0.250000 0.819421
O O1 0.447417 0.250000 0.500000
O O2 0.406130 0.166671 0.273553
O O3 0.406130 0.333329 0.273553
O O4 0.500339 0.250000 0.240984
O O5 0.616491 0.497572 0.283030
O O6 0.633074 0.389792 0.500000
O O7 0.695184 0.386514 0.257275
O O8 0.594300 0.332087 0.243271
O O9 0.194997 0.108864 0.755259
O O10 0.142680 0.098081 0.500000
O O11 0.695184 0.113486 0.257274
O O12 0.594299 0.167913 0.243271
O O13 0.616491 0.002428 0.283030
O O14 0.250000 0.250000 0.775199
O O15 0.194997 0.391136 0.755259
O O16 0.250000 0.354937 0.000000
O O17 0.250000 0.750000 0.189430
O O18 0.250000 0.625266 0.000000
O O19 0.935902 0.250000 0.000000
#
# Coordination Sequence:
#
# PCOD9397218 Si02
#       8
#     8   8   8   8   8   8   8   8
#     4  10  22  43  66  87 117 158 203 252 298 350
#     4  11  23  40  64  93 121 156 203 251 298 355
#     4  10  22  40  65  92 120 158 204 250 298 352
#     4  11  23  40  64  93 121 156 203 251 298 355
#     4  11  22  35  58  93 131 165 196 239 299 360
#     4  10  22  40  65  92 120 158 204 250 298 352
#     4  11  22  37  60  91 126 160 196 241 300 363
#     4  12  26  43  62  87 120 160 201 248 305 362
#
# _framework density 18.889388
#
# number of rings (size 3 to 8) (size 9 to 14) (size 15 to 20)
#    0.000    1.250    2.500    3.375    0.000    8.000 
#    0.000    5.000    0.000    0.000    0.000    0.000 
#    0.000    0.000    0.000    0.000    0.000    0.000 
#
# Total GULP energy -357923.911201 kJ/mol
# GULP energy per Si atom -5592.561113 kJ/mol
# Density = 1.884639 g / cm^3
# Si number density = 18.889388 Si / 1000 Ang^3
#
#
#
# Elastic Constant Matrix: (Units=GPa)
#
#
# Indices 1 2 3 4 5 6 
#
# 1 165.3689 98.8303 62.9448 0.0000 0.0000 0.0000
# 2 98.8303 183.5021 76.7714 0.0000 0.0000 0.0000
# 3 62.9448 76.7714 71.2873 0.0000 0.0000 0.0000
# 4 0.0000 0.0000 0.0000 15.9565 0.0000 0.0000
# 5 0.0000 0.0000 0.0000 0.0000 76.9040 0.0000
# 6 0.0000 0.0000 0.0000 0.0000 0.0000 -7.3198
#
#
#
# Elastic Compliance Matrix: (Units=1/GPa)
#
#
# Indices 1 2 3 4 5 6 
#
# 1 0.009977 -0.003072 -0.005501 0.000000 0.000000 0.000000
# 2 -0.003072 0.010864 -0.008987 0.000000 0.000000 0.000000
# 3 -0.005501 -0.008987 0.028564 0.000000 0.000000 0.000000
# 4 0.000000 0.000000 0.000000 0.062671 0.000000 0.000000
# 5 0.000000 0.000000 0.000000 0.000000 0.013003 0.000000
# 6 0.000000 0.000000 0.000000 0.000000 0.000000 -0.136616
#
#
# Mechanical properties :
#
#
# Convention : Reuss Voigt Hill
#
# Bulk Modulus (GPa) = 70.00853 99.69457 84.85155
# Shear Modulus (GPa) = 176.40021 29.21559 102.80790
#
# Velocity S-wave (km/s) = 9.67412 3.93704 7.38542
# Velocity P-wave (km/s) = 12.72508 8.57669 10.85097
#
# Compressibility (1/GPa) = 0.01428397
#
# Stress axis : x y z
#
# Youngs Moduli (GPa) = 100.23242 92.04731 35.00922
#
# Poissons Ratio (x) = 0.28275 0.19259
# Poissons Ratio (y) = 0.30789 0.31464
# Poissons Ratio (z) = 0.55139 0.82727
#
# Static dielectric constant tensor:
#      x y z
#    x 1.601040 0.000000 0.000000 
#    y 0.000000 1.670400 0.000000 
#    z 0.000000 0.000000 1.627470 
# 
# From -- ./inp_files/16136.got.cif
#   From: 2010.05.17/outbox.cif.g08.bks.cpg/sg50_9_cif.got.tgz:16136.got - 2010.06.03 11:33:33.
