data_PCOD9397222
_publ_section_title
;
Structure prediction by ZEFSAII (Michael W. Deem and Ramdas Pophale) SiO2 
 PCOD9397222
Probable space group: P B A N
;
_chemical_formula_sum "Si O2"
_cell_formula_units_Z 56
_cell_length_a 20.975768
_cell_length_b 15.521736
_cell_length_c 8.023185
_cell_angle_alpha 90.000000
_cell_angle_beta 90.000000
_cell_angle_gamma 90.000000
_cell_volume 2612.191246
_symmetry_space_group_name_H-M "P B A N"
_symmetry_group_IT_number 50
_space_group.IT_coordinate_system_code '2'
_symmetry_cell_setting 'orthorhombic'
loop_
_space_group_symop_operation_xyz
x,y,z
1/2-x,1/2-y,z
x,1/2-y,-z
1/2-x,y,-z
-x,-y,-z
1/2+x,1/2+y,-z
-x,1/2+y,z
1/2+x,-y,z
loop_
_atom_site_type_symbol
_atom_site_label
_atom_site_fract_x
_atom_site_fract_y
_atom_site_fract_z
Si Si1 0.033598 0.568178 0.772338
Si Si2 0.152719 0.472522 0.618445
Si Si3 0.711740 0.511662 0.247438
Si Si4 0.088247 0.288631 0.667084
Si Si5 0.193645 0.300026 0.172583
Si Si6 0.536440 0.266088 0.188249
Si Si7 0.918781 0.443189 0.843024
O O1 0.088236 0.524202 0.659871
O O2 0.033159 0.670657 0.734003
O O3 0.965578 0.516774 0.761518
O O4 0.056152 0.560897 0.966011
O O5 0.213226 0.507264 0.726773
O O6 0.179769 0.478630 0.431150
O O7 0.132143 0.372986 0.650862
O O8 0.711438 0.602775 0.155789
O O9 0.657007 0.458828 0.154008
O O10 0.057733 0.250000 0.500000
O O11 0.130722 0.209436 0.724610
O O12 0.035410 0.303180 0.806144
O O13 0.250000 0.250000 0.265319
O O14 0.184473 0.250000 0.000000
O O15 0.573447 0.350665 0.249586
O O16 0.558252 0.250000 0.000000
#
# Coordination Sequence:
#
# PCOD9397222 Si02
#       7
#     8   8   8   8   8   8   8
#     4  10  22  40  66  93 123 163 211 266 312 379
#     4  11  24  40  60  89 131 166 208 259 318 373
#     4  11  24  41  59  88 129 169 209 263 311 378
#     4  12  22  36  59  90 125 165 198 253 312 382
#     4  11  23  34  54  84 121 161 204 247 305 376
#     4  10  22  42  64  94 128 158 209 268 317 369
#     4  10  22  40  66  93 122 165 210 262 320 370
#
# _framework density 21.437940999999999
#
# number of rings (size 3 to 8) (size 9 to 14) (size 15 to 20)
#    0.000    1.286    4.286    1.286    2.000    2.571 
#    0.000    0.714    0.000    4.286    0.000    0.000 
#    0.000    0.000    0.000    0.000    0.000    0.000 
#
# Total GULP energy -311988.371774 kJ/mol
# GULP energy per Si atom -5571.220925 kJ/mol
# Density = 2.138915 g / cm^3
# Si number density = 21.437941 Si / 1000 Ang^3
#
#
#
# Elastic Constant Matrix: (Units=GPa)
#
#
# Indices 1 2 3 4 5 6 
#
# 1 86.0987 30.3930 11.5940 0.0000 0.0000 0.0000
# 2 30.3930 97.7277 18.3491 0.0000 0.0000 0.0000
# 3 11.5940 18.3491 37.6069 0.0000 0.0000 0.0000
# 4 0.0000 0.0000 0.0000 4.6344 0.0000 0.0000
# 5 0.0000 0.0000 0.0000 0.0000 33.7850 0.0000
# 6 0.0000 0.0000 0.0000 0.0000 0.0000 -0.5204
#
#
#
# Elastic Compliance Matrix: (Units=1/GPa)
#
#
# Indices 1 2 3 4 5 6 
#
# 1 0.013222 -0.003684 -0.002279 0.000000 0.000000 0.000000
# 2 -0.003684 0.012291 -0.004861 0.000000 0.000000 0.000000
# 3 -0.002279 -0.004861 0.029665 0.000000 0.000000 0.000000
# 4 0.000000 0.000000 0.000000 0.215776 0.000000 0.000000
# 5 0.000000 0.000000 0.000000 0.000000 0.029599 0.000000
# 6 0.000000 0.000000 0.000000 0.000000 0.000000 -1.921776
#
#
# Mechanical properties :
#
#
# Convention : Reuss Voigt Hill
#
# Bulk Modulus (GPa) = 29.82395 38.01173 33.91784
# Shear Modulus (GPa) = -3.14783 18.31964 7.58591
#
# Velocity S-wave (km/s) = -1.21307 2.92643 1.88314
# Velocity P-wave (km/s) = 3.46120 5.40261 4.53697
#
# Compressibility (1/GPa) = 0.03353009
#
# Stress axis : x y z
#
# Youngs Moduli (GPa) = 75.63194 81.36037 33.70950
#
# Poissons Ratio (x) = 0.29974 0.07681
# Poissons Ratio (y) = 0.27864 0.16387
# Poissons Ratio (z) = 0.17234 0.39551
#
# Static dielectric constant tensor:
#      x y z
#    x 1.806960 0.000000 0.000000 
#    y 0.000000 1.824510 0.000000 
#    z 0.000000 0.000000 1.860540 
# 
# From -- ./inp_files/15367.got.cif
#   From: 2010.05.17/outbox.cif.g08.bks.cpg/sg50_8_cif.got.tgz:15367.got - 2010.06.03 11:33:33.
