data_PCOD9397762
_publ_section_title
;
Structure prediction by ZEFSAII (Michael W. Deem and Ramdas Pophale) SiO2 
 PCOD9397762
Probable space group: P B A N
;
_chemical_formula_sum "Si O2"
_cell_formula_units_Z 32
_cell_length_a 9.631152
_cell_length_b 9.051246
_cell_length_c 15.128083
_cell_angle_alpha 90.000000
_cell_angle_beta 90.000000
_cell_angle_gamma 90.000000
_cell_volume 1318.774388
_symmetry_space_group_name_H-M "P B A N"
_symmetry_group_IT_number 50
_space_group.IT_coordinate_system_code '2'
_symmetry_cell_setting 'orthorhombic'
loop_
_space_group_symop_operation_xyz
x,y,z
1/2-x,1/2-y,z
x,1/2-y,-z
1/2-x,y,-z
-x,-y,-z
1/2+x,1/2+y,-z
-x,1/2+y,z
1/2+x,-y,z
loop_
_atom_site_type_symbol
_atom_site_label
_atom_site_fract_x
_atom_site_fract_y
_atom_site_fract_z
Si Si1 0.097477 0.573514 0.303628
Si Si2 0.382444 0.071884 0.938492
Si Si3 0.811962 0.906393 0.598971
Si Si4 0.475649 0.828882 0.822425
O O1 0.240339 0.539340 0.350177
O O2 0.089998 0.719121 0.246913
O O3 0.974501 0.583604 0.377943
O O4 0.069963 0.441002 0.233801
O O5 0.439002 0.219500 0.889299
O O6 0.365061 0.937805 0.868762
O O7 0.250000 0.091573 0.000000
O O8 0.500000 0.000000 0.000000
O O9 0.750000 0.750000 0.633413
O O10 0.750000 0.914148 0.500000
#
# Coordination Sequence:
#
# PCOD9397762 Si02
#       4
#     8   8   8   8
#     4  11  23  46  72 105 144 188 241 288 358 421
#     4  11  26  45  69 101 142 180 236 291 361 420
#     4  11  24  44  71 107 149 190 235 295 357 417
#     4  10  25  44  73 104 138 188 235 293 355 428
#
# _framework density 24.264953999999999
#
# number of rings (size 3 to 8) (size 9 to 14) (size 15 to 20)
#    0.000    1.250    2.500    1.500    0.000   17.000 
#    0.000    5.000    0.000    0.000    0.000    0.000 
#    0.000    0.000    0.000    0.000    0.000    0.000 
#
# Total GULP energy -179123.572100 kJ/mol
# GULP energy per Si atom -5597.611628 kJ/mol
# Density = 2.420973 g / cm^3
# Si number density = 24.264954 Si / 1000 Ang^3
#
#
#
# Elastic Constant Matrix: (Units=GPa)
#
#
# Indices 1 2 3 4 5 6 
#
# 1 101.8607 30.2509 34.2229 0.0000 0.0000 0.0000
# 2 30.2509 180.3065 64.3568 0.0000 0.0000 0.0000
# 3 34.2229 64.3568 111.1017 0.0000 0.0000 0.0000
# 4 0.0000 0.0000 0.0000 44.5961 0.0000 0.0000
# 5 0.0000 0.0000 0.0000 0.0000 31.8292 0.0000
# 6 0.0000 0.0000 0.0000 0.0000 0.0000 25.1699
#
#
#
# Elastic Compliance Matrix: (Units=1/GPa)
#
#
# Indices 1 2 3 4 5 6 
#
# 1 0.011043 -0.000805 -0.002935 0.000000 0.000000 0.000000
# 2 -0.000805 0.007050 -0.003836 0.000000 0.000000 0.000000
# 3 -0.002935 -0.003836 0.012127 0.000000 0.000000 0.000000
# 4 0.000000 0.000000 0.000000 0.022423 0.000000 0.000000
# 5 0.000000 0.000000 0.000000 0.000000 0.031418 0.000000
# 6 0.000000 0.000000 0.000000 0.000000 0.000000 0.039730
#
#
# Mechanical properties :
#
#
# Convention : Reuss Voigt Hill
#
# Bulk Modulus (GPa) = 66.36814 72.32557 69.34685
# Shear Modulus (GPa) = 34.73044 37.94826 36.33935
#
# Velocity S-wave (km/s) = 3.78736 3.95892 3.87409
# Velocity P-wave (km/s) = 6.82175 7.12522 6.97513
#
# Compressibility (1/GPa) = 0.01506747
#
# Stress axis : x y z
#
# Youngs Moduli (GPa) = 90.55883 141.83656 82.46105
#
# Poissons Ratio (x) = 0.11418 0.24204
# Poissons Ratio (y) = 0.07290 0.31632
# Poissons Ratio (z) = 0.26580 0.54409
#
# Static dielectric constant tensor:
#      x y z
#    x 1.951890 0.000000 0.000000 
#    y 0.000000 1.959330 0.000000 
#    z 0.000000 0.000000 2.043170 
# 
# From -- ./inp_files/25599.got.cif
#   From: 2010.05.17/outbox.cif.g08.bks.cpg/sg50_13_cif.got.tgz:25599.got - 2010.06.03 11:33:33.
