data_PCOD9397877
_publ_section_title
;
Structure prediction by ZEFSAII (Michael W. Deem and Ramdas Pophale) SiO2 
 PCOD9397877
Probable space group: P B A N
;
_chemical_formula_sum "Si O2"
_cell_formula_units_Z 34
_cell_length_a 10.424707
_cell_length_b 15.365809
_cell_length_c 10.373185
_cell_angle_alpha 90.000000
_cell_angle_beta 90.000000
_cell_angle_gamma 90.000000
_cell_volume 1661.618854
_symmetry_space_group_name_H-M "P B A N"
_symmetry_group_IT_number 50
_space_group.IT_coordinate_system_code '2'
_symmetry_cell_setting 'orthorhombic'
loop_
_space_group_symop_operation_xyz
x,y,z
1/2-x,1/2-y,z
x,1/2-y,-z
1/2-x,y,-z
-x,-y,-z
1/2+x,1/2+y,-z
-x,1/2+y,z
1/2+x,-y,z
loop_
_atom_site_type_symbol
_atom_site_label
_atom_site_fract_x
_atom_site_fract_y
_atom_site_fract_z
Si Si1 0.084939 0.141774 0.626350
Si Si2 0.616041 0.649845 0.655024
Si Si3 0.370320 0.084790 0.926667
Si Si4 0.408745 0.601336 0.136587
Si Si5 0.250000 0.750000 0.000000
O O1 0.057042 0.114994 0.478481
O O2 0.234214 0.119704 0.654796
O O3 0.095582 0.246651 0.640330
O O4 0.979134 0.108591 0.725880
O O5 0.571776 0.626541 0.797570
O O6 0.329627 0.987953 0.879879
O O7 0.250000 0.127936 0.000000
O O8 0.478522 0.088233 0.033698
O O9 0.331893 0.686232 0.092258
#
# Coordination Sequence:
#
# PCOD9397877 Si02
#       5
#     8   8   8   8   2
#     4   9  18  35  57  86 110 154 188 254 306 356
#     4   9  18  34  59  84 116 139 202 252 302 359
#     4  11  21  38  59  88 117 160 206 259 302 374
#     4  11  23  37  60  82 124 161 204 249 316 366
#     4  12  24  40  54  94 128 174 196 268 316 384
#
# _framework density 20.461974000000001
#
# number of rings (size 3 to 8) (size 9 to 14) (size 15 to 20)
#    0.000    1.882    3.529    2.824    0.000    0.941 
#    0.000    0.000    0.000   11.294    0.000    0.000 
#    0.000    0.000    0.000    0.000    0.000    0.000 
#
# Total GULP energy -189356.067627 kJ/mol
# GULP energy per Si atom -5569.296107 kJ/mol
# Density = 2.041540 g / cm^3
# Si number density = 20.461974 Si / 1000 Ang^3
#
#
#
# Elastic Constant Matrix: (Units=GPa)
#
#
# Indices 1 2 3 4 5 6 
#
# 1 34.6363 8.5529 28.1388 0.0000 0.0000 0.0000
# 2 8.5529 53.5180 21.5517 0.0000 0.0000 0.0000
# 3 28.1388 21.5517 179.4887 0.0000 0.0000 0.0000
# 4 0.0000 0.0000 0.0000 -123.8911 0.0000 0.0000
# 5 0.0000 0.0000 0.0000 0.0000 33.5535 0.0000
# 6 0.0000 0.0000 0.0000 0.0000 0.0000 16.9947
#
#
#
# Elastic Compliance Matrix: (Units=1/GPa)
#
#
# Indices 1 2 3 4 5 6 
#
# 1 0.033671 -0.003421 -0.004868 0.000000 0.000000 0.000000
# 2 -0.003421 0.019982 -0.001863 0.000000 0.000000 0.000000
# 3 -0.004868 -0.001863 0.006558 0.000000 0.000000 0.000000
# 4 0.000000 0.000000 0.000000 -0.008072 0.000000 0.000000
# 5 0.000000 0.000000 0.000000 0.000000 0.029803 0.000000
# 6 0.000000 0.000000 0.000000 0.000000 0.000000 0.058842
#
#
# Mechanical properties :
#
#
# Convention : Reuss Voigt Hill
#
# Bulk Modulus (GPa) = 25.05770 42.68109 33.86940
# Shear Modulus (GPa) = 28.67127 -0.70859 13.98134
#
# Velocity S-wave (km/s) = 3.74732 -0.58911 2.61681
# Velocity P-wave (km/s) = 5.56738 4.52120 5.07134
#
# Compressibility (1/GPa) = 0.03990789
#
# Stress axis : x y z
#
# Youngs Moduli (GPa) = 29.69930 50.04450 152.48008
#
# Poissons Ratio (x) = 0.17119 0.74226
# Poissons Ratio (y) = 0.10159 0.28408
# Poissons Ratio (z) = 0.14457 0.09323
#
# Static dielectric constant tensor:
#      x y z
#    x 1.721730 0.000000 0.000000 
#    y 0.000000 1.802800 0.000000 
#    z 0.000000 0.000000 1.780930 
# 
# From -- ./inp_files/10720.got.cif
#   From: 2010.05.17/outbox.cif.g08.bks.cpg/sg50_6_cif.got.tgz:10720.got - 2010.06.03 11:33:33.
