data_PCOD9397962
_publ_section_title
;
Structure prediction by ZEFSAII (Michael W. Deem and Ramdas Pophale) SiO2 
 PCOD9397962
Probable space group: P B A N
;
_chemical_formula_sum "Si O2"
_cell_formula_units_Z 40
_cell_length_a 13.097402
_cell_length_b 8.464800
_cell_length_c 15.891660
_cell_angle_alpha 90.000000
_cell_angle_beta 90.000000
_cell_angle_gamma 90.000000
_cell_volume 1761.858896
_symmetry_space_group_name_H-M "P B A N"
_symmetry_group_IT_number 50
_space_group.IT_coordinate_system_code '2'
_symmetry_cell_setting 'orthorhombic'
loop_
_space_group_symop_operation_xyz
x,y,z
1/2-x,1/2-y,z
x,1/2-y,-z
1/2-x,y,-z
-x,-y,-z
1/2+x,1/2+y,-z
-x,1/2+y,z
1/2+x,-y,z
loop_
_atom_site_type_symbol
_atom_site_label
_atom_site_fract_x
_atom_site_fract_y
_atom_site_fract_z
Si Si1 0.897950 0.463653 0.322210
Si Si2 0.690135 0.901147 0.664414
Si Si3 0.043124 0.414470 0.183507
Si Si4 0.549701 0.151616 0.585262
Si Si5 0.365891 0.706613 0.901674
O O1 0.779849 0.482837 0.306655
O O2 0.922466 0.283060 0.345266
O O3 0.966597 0.513370 0.243598
O O4 0.939416 0.575763 0.397271
O O5 0.750000 0.750000 0.630665
O O6 0.623477 0.853229 0.745941
O O7 0.623054 0.000777 0.598811
O O8 0.106378 0.525165 0.120100
O O9 0.961855 0.301135 0.138407
O O10 0.558729 0.250000 0.500000
O O11 0.250000 0.750000 0.871341
O O12 0.366726 0.750000 0.000000
#
# Coordination Sequence:
#
# PCOD9397962 Si02
#       5
#     8   8   8   8   8
#     4  11  22  39  64  93 125 174 227 278 339 407
#     4  11  23  40  65  97 130 175 232 281 339 413
#     4  11  22  41  66  94 133 175 222 276 329 401
#     4  11  24  43  65  95 136 177 226 287 353 413
#     4  11  24  42  67 100 137 178 222 276 343 407
#
# _framework density 22.703294
#
# number of rings (size 3 to 8) (size 9 to 14) (size 15 to 20)
#    0.000    1.000    0.000    9.000    0.000    1.600 
#    0.000    1.000    0.000    6.000    0.000    0.000 
#    0.000    0.000    0.000    0.000    0.000    0.000 
#
# Total GULP energy -223343.541089 kJ/mol
# GULP energy per Si atom -5583.588527 kJ/mol
# Density = 2.265162 g / cm^3
# Si number density = 22.703294 Si / 1000 Ang^3
#
#
#
# Elastic Constant Matrix: (Units=GPa)
#
#
# Indices 1 2 3 4 5 6 
#
# 1 159.3603 42.7377 28.6026 0.0000 0.0000 0.0000
# 2 42.7377 113.6018 33.0646 0.0000 0.0000 0.0000
# 3 28.6026 33.0646 87.8290 0.0000 0.0000 0.0000
# 4 0.0000 0.0000 0.0000 34.3225 0.0000 0.0000
# 5 0.0000 0.0000 0.0000 0.0000 10.4185 0.0000
# 6 0.0000 0.0000 0.0000 0.0000 0.0000 53.1297
#
#
#
# Elastic Compliance Matrix: (Units=1/GPa)
#
#
# Indices 1 2 3 4 5 6 
#
# 1 0.007146 -0.002258 -0.001477 0.000000 0.000000 0.000000
# 2 -0.002258 0.010600 -0.003255 0.000000 0.000000 0.000000
# 3 -0.001477 -0.003255 0.013092 0.000000 0.000000 0.000000
# 4 0.000000 0.000000 0.000000 0.029135 0.000000 0.000000
# 5 0.000000 0.000000 0.000000 0.000000 0.095983 0.000000
# 6 0.000000 0.000000 0.000000 0.000000 0.000000 0.018822
#
#
# Mechanical properties :
#
#
# Convention : Reuss Voigt Hill
#
# Bulk Modulus (GPa) = 59.32227 63.28899 61.30563
# Shear Modulus (GPa) = 25.72317 36.66656 31.19486
#
# Velocity S-wave (km/s) = 3.36968 4.02311 3.71080
# Velocity P-wave (km/s) = 6.42851 7.03687 6.73956
#
# Compressibility (1/GPa) = 0.01685708
#
# Stress axis : x y z
#
# Youngs Moduli (GPa) = 139.94141 94.34242 76.38188
#
# Poissons Ratio (x) = 0.21307 0.11281
# Poissons Ratio (y) = 0.31605 0.24862
# Poissons Ratio (z) = 0.20668 0.30708
#
# Static dielectric constant tensor:
#      x y z
#    x 1.878930 0.000000 0.000000 
#    y 0.000000 1.924690 0.000000 
#    z 0.000000 0.000000 1.899700 
# 
# From -- ./inp_files/29065.got.cif
#   From: 2010.05.17/outbox.cif.g08.bks.cpg/sg50_15_cif.got.tgz:29065.got - 2010.06.03 11:33:33.
