data_PCOD9397167
_publ_section_title
;
Structure prediction by ZEFSAII (Michael W. Deem and Ramdas Pophale) SiO2 
 PCOD9397167
Probable space group: P B A N
;
_chemical_formula_sum "Si O2"
_cell_formula_units_Z 40
_cell_length_a 9.641141
_cell_length_b 19.645190
_cell_length_c 10.753001
_cell_angle_alpha 90.000000
_cell_angle_beta 90.000000
_cell_angle_gamma 90.000000
_cell_volume 2036.640398
_symmetry_space_group_name_H-M "P B A N"
_symmetry_group_IT_number 50
_space_group.IT_coordinate_system_code '2'
_symmetry_cell_setting 'orthorhombic'
loop_
_space_group_symop_operation_xyz
x,y,z
1/2-x,1/2-y,z
x,1/2-y,-z
1/2-x,y,-z
-x,-y,-z
1/2+x,1/2+y,-z
-x,1/2+y,z
1/2+x,-y,z
loop_
_atom_site_type_symbol
_atom_site_label
_atom_site_fract_x
_atom_site_fract_y
_atom_site_fract_z
Si Si1 0.750000 0.750000 0.500000
Si Si2 0.750000 0.250000 0.000000
Si Si3 0.140895 0.067094 0.780045
Si Si4 0.750000 0.012493 0.000000
Si Si5 0.158947 0.569904 0.377137
Si Si6 0.141217 0.869719 0.175056
Si Si7 0.354864 0.376603 0.391610
O O1 0.655654 0.703593 0.586980
O O2 0.833937 0.197836 0.908393
O O3 0.284960 0.101112 0.736736
O O4 0.013055 0.119132 0.770812
O O5 0.155802 0.036081 0.916588
O O6 0.127220 0.001065 0.692271
O O7 0.666088 0.063712 0.088675
O O8 0.250000 0.560352 0.500000
O O9 0.244494 0.619330 0.283474
O O10 0.009000 0.598983 0.409094
O O11 0.250000 0.402198 0.500000
#
# Coordination Sequence:
#
# PCOD9397167 Si02
#       7
#     2   2   8   4   8   8   8
#     4   8  24  44  54  78 120 168 198 242 294 368
#     4  10  24  44  58  86 128 166 220 246 296 362
#     4  11  21  37  65  94 123 159 205 255 318 363
#     4   9  20  37  60  91 124 155 198 260 316 357
#     4  11  22  38  64 101 124 153 202 261 326 368
#     4  10  22  39  62  89 127 164 203 258 300 365
#     4  10  22  41  61  84 126 165 200 252 304 374
#
# _framework density 19.640188999999999
#
# number of rings (size 3 to 8) (size 9 to 14) (size 15 to 20)
#    0.600    1.200    0.000    4.800    0.000    7.200 
#    0.000    0.000    0.000    1.200    0.000    0.000 
#    0.000    0.000    0.000    0.000    0.000    0.000 
#
# Total GULP energy -223053.048513 kJ/mol
# GULP energy per Si atom -5576.326213 kJ/mol
# Density = 1.959549 g / cm^3
# Si number density = 19.640189 Si / 1000 Ang^3
#
#
#
# Elastic Constant Matrix: (Units=GPa)
#
#
# Indices 1 2 3 4 5 6 
#
# 1 156.6577 49.1836 47.4939 0.0000 0.0000 0.0000
# 2 49.1836 105.5065 30.4680 0.0000 0.0000 0.0000
# 3 47.4939 30.4680 91.7622 0.0000 0.0000 0.0000
# 4 0.0000 0.0000 0.0000 16.0446 0.0000 0.0000
# 5 0.0000 0.0000 0.0000 0.0000 21.3162 0.0000
# 6 0.0000 0.0000 0.0000 0.0000 0.0000 7.3580
#
#
#
# Elastic Compliance Matrix: (Units=1/GPa)
#
#
# Indices 1 2 3 4 5 6 
#
# 1 0.008308 -0.002910 -0.003334 0.000000 0.000000 0.000000
# 2 -0.002910 0.011503 -0.002313 0.000000 0.000000 0.000000
# 3 -0.003334 -0.002313 0.013391 0.000000 0.000000 0.000000
# 4 0.000000 0.000000 0.000000 0.062326 0.000000 0.000000
# 5 0.000000 0.000000 0.000000 0.000000 0.046913 0.000000
# 6 0.000000 0.000000 0.000000 0.000000 0.000000 0.135906
#
#
# Mechanical properties :
#
#
# Convention : Reuss Voigt Hill
#
# Bulk Modulus (GPa) = 62.15834 67.57970 64.86902
# Shear Modulus (GPa) = 16.62109 24.06250 20.34180
#
# Velocity S-wave (km/s) = 2.91224 3.50404 3.22176
# Velocity P-wave (km/s) = 6.55938 7.13124 6.85128
#
# Compressibility (1/GPa) = 0.01608795
#
# Stress axis : x y z
#
# Youngs Moduli (GPa) = 120.37146 86.93664 74.67630
#
# Poissons Ratio (x) = 0.25299 0.24894
# Poissons Ratio (y) = 0.35029 0.17273
# Poissons Ratio (z) = 0.40127 0.20109
#
# Static dielectric constant tensor:
#      x y z
#    x 2.050300 0.000000 0.000000 
#    y 0.000000 1.704750 0.000000 
#    z 0.000000 0.000000 1.737610 
# 
# From -- ./inp_files/19028.got.cif
#   From: 2010.05.17/outbox.cif.g08.bks.cpg/sg50_10_cif.got.tgz:19028.got - 2010.06.03 11:33:33.
