data_PCOD9397102
_publ_section_title
;
Structure prediction by ZEFSAII (Michael W. Deem and Ramdas Pophale) SiO2 
 PCOD9397102
Probable space group: P B A N
;
_chemical_formula_sum "Si O2"
_cell_formula_units_Z 40
_cell_length_a 20.638390
_cell_length_b 20.201639
_cell_length_c 5.374889
_cell_angle_alpha 90.000000
_cell_angle_beta 90.000000
_cell_angle_gamma 90.000000
_cell_volume 2240.948732
_symmetry_space_group_name_H-M "P B A N"
_symmetry_group_IT_number 50
_space_group.IT_coordinate_system_code '2'
_symmetry_cell_setting 'orthorhombic'
loop_
_space_group_symop_operation_xyz
x,y,z
1/2-x,1/2-y,z
x,1/2-y,-z
1/2-x,y,-z
-x,-y,-z
1/2+x,1/2+y,-z
-x,1/2+y,z
1/2+x,-y,z
loop_
_atom_site_type_symbol
_atom_site_label
_atom_site_fract_x
_atom_site_fract_y
_atom_site_fract_z
Si Si1 0.250000 0.459964 0.500000
Si Si2 0.386243 0.513824 0.435682
Si Si3 0.931409 0.624686 0.223947
Si Si4 0.116147 0.250000 0.500000
Si Si5 0.449072 0.940892 0.048324
Si Si6 0.312921 0.350344 0.854650
O O1 0.309603 0.503128 0.404199
O O2 0.285124 0.411447 0.695431
O O3 0.418933 0.440544 0.395263
O O4 0.407462 0.541175 0.705753
O O5 0.409891 0.559860 0.208451
O O6 0.924842 0.693117 0.368375
O O7 0.001936 0.618863 0.102502
O O8 0.871912 0.625211 0.027959
O O9 0.160378 0.208999 0.689250
O O10 0.500000 0.000000 0.000000
O O11 0.250000 0.327118 0.000000
#
# Coordination Sequence:
#
# PCOD9397102 Si02
#       6
#     4   8   8   4   8   8
#     4  12  22  35  60  82 118 155 202 242 296 354
#     4  11  22  38  59  83 112 153 196 244 291 353
#     4  11  23  37  56  78 112 156 204 245 291 344
#     4  12  26  37  54  80 112 167 206 250 288 345
#     4  10  22  37  60  80 108 152 200 243 295 342
#     4  12  24  39  51  78 120 163 205 244 282 338
#
# _framework density 17.849582999999999
#
# number of rings (size 3 to 8) (size 9 to 14) (size 15 to 20)
#    0.000    0.800    4.000    5.400    2.800    6.000 
#    0.000    0.000    0.000    0.000    0.000    0.000 
#    0.000    0.800    1.600    0.000    0.000    0.000 
#
# Total GULP energy -223425.576375 kJ/mol
# GULP energy per Si atom -5585.639409 kJ/mol
# Density = 1.780896 g / cm^3
# Si number density = 17.849583 Si / 1000 Ang^3
#
#
#
# Elastic Constant Matrix: (Units=GPa)
#
#
# Indices 1 2 3 4 5 6 
#
# 1 79.4617 58.3443 33.2235 0.0000 0.0000 0.0000
# 2 58.3443 59.8625 44.7056 0.0000 0.0000 0.0000
# 3 33.2235 44.7056 100.1684 0.0000 0.0000 0.0000
# 4 0.0000 0.0000 0.0000 18.5058 0.0000 0.0000
# 5 0.0000 0.0000 0.0000 0.0000 26.6948 0.0000
# 6 0.0000 0.0000 0.0000 0.0000 0.0000 -16.3214
#
#
#
# Elastic Compliance Matrix: (Units=1/GPa)
#
#
# Indices 1 2 3 4 5 6 
#
# 1 0.047634 -0.051938 0.007381 0.000000 0.000000 0.000000
# 2 -0.051938 0.081688 -0.019231 0.000000 0.000000 0.000000
# 3 0.007381 -0.019231 0.016118 0.000000 0.000000 0.000000
# 4 0.000000 0.000000 0.000000 0.054037 0.000000 0.000000
# 5 0.000000 0.000000 0.000000 0.000000 0.037460 0.000000
# 6 0.000000 0.000000 0.000000 0.000000 0.000000 -0.061269
#
#
# Mechanical properties :
#
#
# Convention : Reuss Voigt Hill
#
# Bulk Modulus (GPa) = 55.97955 56.89325 56.43640
# Shear Modulus (GPa) = 16.17088 12.65710 14.41399
#
# Velocity S-wave (km/s) = 3.01317 2.66578 2.84478
# Velocity P-wave (km/s) = 6.59814 6.43569 6.51742
#
# Compressibility (1/GPa) = 0.01786367
#
# Stress axis : x y z
#
# Youngs Moduli (GPa) = 20.99350 12.24177 62.04295
#
# Poissons Ratio (x) = 0.63581 -0.45795
# Poissons Ratio (y) = 1.09036 1.19314
# Poissons Ratio (z) = -0.15496 0.23542
#
# Static dielectric constant tensor:
#      x y z
#    x 1.652290 0.000000 0.000000 
#    y 0.000000 1.608120 0.000000 
#    z 0.000000 0.000000 1.428640 
# 
# From -- ./inp_files/4387.got.cif
#   From: 2010.05.17/outbox.cif.g08.bks.cpg/sg50_3_cif.got.tgz:4387.got - 2010.06.03 11:33:33.
