data_PCOD9397552
_publ_section_title
;
Structure prediction by ZEFSAII (Michael W. Deem and Ramdas Pophale) SiO2 
 PCOD9397552
Probable space group: P B A N
;
_chemical_formula_sum "Si O2"
_cell_formula_units_Z 48
_cell_length_a 8.716297
_cell_length_b 29.640467
_cell_length_c 7.576246
_cell_angle_alpha 90.000000
_cell_angle_beta 90.000000
_cell_angle_gamma 90.000000
_cell_volume 1957.361896
_symmetry_space_group_name_H-M "P B A N"
_symmetry_group_IT_number 50
_space_group.IT_coordinate_system_code '2'
_symmetry_cell_setting 'orthorhombic'
loop_
_space_group_symop_operation_xyz
x,y,z
1/2-x,1/2-y,z
x,1/2-y,-z
1/2-x,y,-z
-x,-y,-z
1/2+x,1/2+y,-z
-x,1/2+y,z
1/2+x,-y,z
loop_
_atom_site_type_symbol
_atom_site_label
_atom_site_fract_x
_atom_site_fract_y
_atom_site_fract_z
Si Si1 0.927819 0.759314 0.797632
Si Si2 0.953513 0.052111 0.320056
Si Si3 0.611617 0.037003 0.264810
Si Si4 0.832587 0.297522 0.318311
Si Si5 0.966094 0.872204 0.165274
Si Si6 0.875551 0.858108 0.760342
O O1 0.750000 0.750000 0.810440
O O2 0.946134 0.809271 0.723146
O O3 0.999213 0.723196 0.668601
O O4 0.986154 0.750000 0.000000
O O5 0.788537 0.048021 0.227295
O O6 0.918742 0.042034 0.524998
O O7 0.032435 0.100573 0.320286
O O8 0.063679 0.014584 0.232747
O O9 0.507347 0.075266 0.177876
O O10 0.750000 0.250000 0.249782
O O11 0.750000 0.308740 0.500000
O O12 0.880263 0.342985 0.213341
O O13 0.807441 0.862340 0.272722
O O14 0.913128 0.860936 0.968831
#
# Coordination Sequence:
#
# PCOD9397552 Si02
#       6
#     8   8   8   8   8   8
#     4  11  20  45  73  99 134 188 242 288 345 421
#     4  10  23  43  69 102 136 185 231 278 348 422
#     4  10  23  43  67  98 143 181 226 285 348 415
#     4  11  26  43  64  98 143 182 227 288 350 414
#     4  11  23  44  70 101 138 181 231 293 339 417
#     4  11  23  42  74 104 130 184 239 283 351 405
#
# _framework density 24.522801000000001
#
# number of rings (size 3 to 8) (size 9 to 14) (size 15 to 20)
#    0.000    1.333    3.333    2.000    4.667    5.000 
#    0.000    1.667    0.000    0.000    0.000    0.000 
#    0.000    0.000    0.000    0.000    0.000    0.000 
#
# Total GULP energy -268060.533590 kJ/mol
# GULP energy per Si atom -5584.594450 kJ/mol
# Density = 2.446699 g / cm^3
# Si number density = 24.522801 Si / 1000 Ang^3
#
#
#
# Elastic Constant Matrix: (Units=GPa)
#
#
# Indices 1 2 3 4 5 6 
#
# 1 108.1913 38.7114 35.1267 0.0000 0.0000 0.0000
# 2 38.7114 174.3878 10.3731 0.0000 0.0000 0.0000
# 3 35.1267 10.3731 53.4197 0.0000 0.0000 0.0000
# 4 0.0000 0.0000 0.0000 -10.3188 0.0000 0.0000
# 5 0.0000 0.0000 0.0000 0.0000 25.7076 0.0000
# 6 0.0000 0.0000 0.0000 0.0000 0.0000 46.5415
#
#
#
# Elastic Compliance Matrix: (Units=1/GPa)
#
#
# Indices 1 2 3 4 5 6 
#
# 1 0.012627 -0.002336 -0.007850 0.000000 0.000000 0.000000
# 2 -0.002336 0.006234 0.000326 0.000000 0.000000 0.000000
# 3 -0.007850 0.000326 0.023818 0.000000 0.000000 0.000000
# 4 0.000000 0.000000 0.000000 -0.096910 0.000000 0.000000
# 5 0.000000 0.000000 0.000000 0.000000 0.038899 0.000000
# 6 0.000000 0.000000 0.000000 0.000000 0.000000 0.021486
#
#
# Mechanical properties :
#
#
# Convention : Reuss Voigt Hill
#
# Bulk Modulus (GPa) = 43.55619 56.04680 49.80149
# Shear Modulus (GPa) = 149.13432 29.17191 89.15311
#
# Velocity S-wave (km/s) = 7.80683 3.45277 6.03607
# Velocity P-wave (km/s) = 9.95300 6.22897 8.30248
#
# Compressibility (1/GPa) = 0.02295885
#
# Stress axis : x y z
#
# Youngs Moduli (GPa) = 79.19342 160.42198 41.98504
#
# Poissons Ratio (x) = 0.37477 0.32957
# Poissons Ratio (y) = 0.18501 -0.01368
# Poissons Ratio (z) = 0.62164 -0.05225
#
# Static dielectric constant tensor:
#      x y z
#    x 2.027220 0.000000 0.000000 
#    y 0.000000 1.953020 0.000000 
#    z 0.000000 0.000000 2.319190 
# 
# From -- ./inp_files/10042.got.cif
#   From: 2010.05.17/outbox.cif.g08.bks.cpg/sg50_6_cif.got.tgz:10042.got - 2010.06.03 11:33:33.
