data_PCOD9397773
_publ_section_title
;
Structure prediction by ZEFSAII (Michael W. Deem and Ramdas Pophale) SiO2 
 PCOD9397773
Probable space group: P B A N
;
_chemical_formula_sum "Si O2"
_cell_formula_units_Z 56
_cell_length_a 16.740238
_cell_length_b 20.755455
_cell_length_c 7.743648
_cell_angle_alpha 90.000000
_cell_angle_beta 90.000000
_cell_angle_gamma 90.000000
_cell_volume 2690.540227
_symmetry_space_group_name_H-M "P B A N"
_symmetry_group_IT_number 50
_space_group.IT_coordinate_system_code '2'
_symmetry_cell_setting 'orthorhombic'
loop_
_space_group_symop_operation_xyz
x,y,z
1/2-x,1/2-y,z
x,1/2-y,-z
1/2-x,y,-z
-x,-y,-z
1/2+x,1/2+y,-z
-x,1/2+y,z
1/2+x,-y,z
loop_
_atom_site_type_symbol
_atom_site_label
_atom_site_fract_x
_atom_site_fract_y
_atom_site_fract_z
Si Si1 0.225438 0.886275 0.794548
Si Si2 0.576438 0.000972 0.193937
Si Si3 0.894713 0.996952 0.194282
Si Si4 0.023051 0.179666 0.409478
Si Si5 0.105903 0.868659 0.339364
Si Si6 0.894538 0.272771 0.807244
Si Si7 0.655281 0.918802 0.484876
O O1 0.169239 0.947580 0.769671
O O2 0.301421 0.888308 0.668910
O O3 0.174490 0.822379 0.759156
O O4 0.250000 0.884777 0.000000
O O5 0.572394 0.079055 0.202365
O O6 0.485469 0.978554 0.217782
O O7 0.630111 0.974589 0.349237
O O8 0.609690 0.979833 0.008717
O O9 0.877650 0.940095 0.328042
O O10 0.030635 0.250000 0.500000
O O11 0.106645 0.143217 0.417631
O O12 0.957737 0.133590 0.506016
O O13 0.980159 0.194474 0.228013
O O14 0.109411 0.793429 0.295632
O O15 0.883598 0.250000 0.000000
O O16 0.750000 0.910525 0.500000
#
# Coordination Sequence:
#
# PCOD9397773 Si02
#       7
#     8   8   8   8   8   8   8
#     4  12  22  36  62  98 139 177 223 270 333 400
#     4  11  23  43  68  97 136 182 230 269 347 407
#     4  11  24  42  67  97 142 181 226 283 331 412
#     4  10  25  47  65  96 129 170 232 273 344 419
#     4  11  22  39  61  88 137 177 213 276 321 402
#     4  11  22  39  66  91 131 179 219 272 330 406
#     4  12  26  43  72  99 132 177 225 296 346 402
#
# _framework density 20.813662999999998
#
# number of rings (size 3 to 8) (size 9 to 14) (size 15 to 20)
#    0.000    0.857    4.286    2.571    2.000    2.000 
#    0.000    2.143    0.000    0.000    0.000    0.000 
#    0.000    0.000    0.000    0.000    0.000    0.000 
#
# Total GULP energy -312784.894767 kJ/mol
# GULP energy per Si atom -5585.444549 kJ/mol
# Density = 2.076629 g / cm^3
# Si number density = 20.813663 Si / 1000 Ang^3
#
#
#
# Elastic Constant Matrix: (Units=GPa)
#
#
# Indices 1 2 3 4 5 6 
#
# 1 135.7241 32.8542 19.1941 0.0000 0.0000 0.0000
# 2 32.8542 80.7087 1.3322 0.0000 0.0000 0.0000
# 3 19.1941 1.3322 36.6140 0.0000 0.0000 0.0000
# 4 0.0000 0.0000 0.0000 23.7049 0.0000 0.0000
# 5 0.0000 0.0000 0.0000 0.0000 32.2762 0.0000
# 6 0.0000 0.0000 0.0000 0.0000 0.0000 39.0459
#
#
#
# Elastic Compliance Matrix: (Units=1/GPa)
#
#
# Indices 1 2 3 4 5 6 
#
# 1 0.008862 -0.003533 -0.004517 0.000000 0.000000 0.000000
# 2 -0.003533 0.013806 0.001350 0.000000 0.000000 0.000000
# 3 -0.004517 0.001350 0.029631 0.000000 0.000000 0.000000
# 4 0.000000 0.000000 0.000000 0.042185 0.000000 0.000000
# 5 0.000000 0.000000 0.000000 0.000000 0.030983 0.000000
# 6 0.000000 0.000000 0.000000 0.000000 0.000000 0.025611
#
#
# Mechanical properties :
#
#
# Convention : Reuss Voigt Hill
#
# Bulk Modulus (GPa) = 25.70810 39.97864 32.84337
# Shear Modulus (GPa) = 28.17788 32.31650 30.24719
#
# Velocity S-wave (km/s) = 3.68342 3.94465 3.81627
# Velocity P-wave (km/s) = 5.51982 6.32429 5.93570
#
# Compressibility (1/GPa) = 0.03889824
#
# Stress axis : x y z
#
# Youngs Moduli (GPa) = 112.84291 72.43181 33.74867
#
# Poissons Ratio (x) = 0.25589 0.15245
# Poissons Ratio (y) = 0.39866 -0.04555
# Poissons Ratio (z) = 0.50972 -0.09776
#
# Static dielectric constant tensor:
#      x y z
#    x 1.766560 0.000000 0.000000 
#    y 0.000000 1.702260 0.000000 
#    z 0.000000 0.000000 1.801310 
# 
# From -- ./inp_files/13265.got.cif
#   From: 2010.05.17/outbox.cif.g08.bks.cpg/sg50_7_cif.got.tgz:13265.got - 2010.06.03 11:33:33.
