data_PCOD9397325
_publ_section_title
;
Structure prediction by ZEFSAII (Michael W. Deem and Ramdas Pophale) SiO2 
 PCOD9397325
Probable space group: P B A N
;
_chemical_formula_sum "Si O2"
_cell_formula_units_Z 18
_cell_length_a 28.178528
_cell_length_b 4.726170
_cell_length_c 6.069779
_cell_angle_alpha 90.000000
_cell_angle_beta 90.000000
_cell_angle_gamma 90.000000
_cell_volume 808.352006
_symmetry_space_group_name_H-M "P B A N"
_symmetry_group_IT_number 50
_space_group.IT_coordinate_system_code '2'
_symmetry_cell_setting 'orthorhombic'
loop_
_space_group_symop_operation_xyz
x,y,z
1/2-x,1/2-y,z
x,1/2-y,-z
1/2-x,y,-z
-x,-y,-z
1/2+x,1/2+y,-z
-x,1/2+y,z
1/2+x,-y,z
loop_
_atom_site_type_symbol
_atom_site_label
_atom_site_fract_x
_atom_site_fract_y
_atom_site_fract_z
Si Si1 0.889188 0.508253 0.348718
Si Si2 0.316889 0.750000 0.000000
Si Si3 0.462771 0.250000 0.000000
Si Si4 0.250000 0.250000 0.000000
O O1 0.908296 0.250000 0.500000
O O2 0.850543 0.376563 0.186811
O O3 0.928519 0.672424 0.204084
O O4 0.866972 0.750000 0.500000
O O5 0.285991 0.487801 0.901546
O O6 0.500000 0.500000 0.000000
#
# Coordination Sequence:
#
# PCOD9397325 Si02
#       4
#     8   4   4   2
#     4  12  25  44  72  99 135 183 224 273 342 404
#     4  11  23  46  69 101 140 175 225 280 337 403
#     4  12  26  44  67 101 138 175 229 284 328 394
#     4  10  22  42  74 100 136 178 216 286 340 390
#
# _framework density 22.267527999999999
#
# number of rings (size 3 to 8) (size 9 to 14) (size 15 to 20)
#    0.000    0.444    0.000   10.667    0.000    5.333 
#    0.000   16.667    0.000    0.000    0.000    0.000 
#    0.000    0.000    0.000    0.000    0.000    0.000 
#
# Total GULP energy -100356.452123 kJ/mol
# GULP energy per Si atom -5575.358451 kJ/mol
# Density = 2.221685 g / cm^3
# Si number density = 22.267528 Si / 1000 Ang^3
#
#
#
# Elastic Constant Matrix: (Units=GPa)
#
#
# Indices 1 2 3 4 5 6 
#
# 1 130.3566 79.6513 63.4663 0.0000 0.0000 0.0000
# 2 79.6513 230.8106 79.5739 0.0000 0.0000 0.0000
# 3 63.4663 79.5739 121.6659 0.0000 0.0000 0.0000
# 4 0.0000 0.0000 0.0000 59.3410 0.0000 0.0000
# 5 0.0000 0.0000 0.0000 0.0000 -6.5558 0.0000
# 6 0.0000 0.0000 0.0000 0.0000 0.0000 128.8998
#
#
#
# Elastic Compliance Matrix: (Units=1/GPa)
#
#
# Indices 1 2 3 4 5 6 
#
# 1 0.011222 -0.002394 -0.004288 0.000000 0.000000 0.000000
# 2 -0.002394 0.006105 -0.002744 0.000000 0.000000 0.000000
# 3 -0.004288 -0.002744 0.012250 0.000000 0.000000 0.000000
# 4 0.000000 0.000000 0.000000 0.016852 0.000000 0.000000
# 5 0.000000 0.000000 0.000000 0.000000 -0.152536 0.000000
# 6 0.000000 0.000000 0.000000 0.000000 0.000000 0.007758
#
#
# Mechanical properties :
#
#
# Convention : Reuss Voigt Hill
#
# Bulk Modulus (GPa) = 93.23782 103.13511 98.18647
# Shear Modulus (GPa) = -65.85705 53.67976 -6.08865
#
# Velocity S-wave (km/s) = -5.44422 4.91519 -1.65537
# Velocity P-wave (km/s) = 1.56305 8.86730 6.36679
#
# Compressibility (1/GPa) = 0.01072526
#
# Stress axis : x y z
#
# Youngs Moduli (GPa) = 89.11175 163.80681 81.62954
#
# Poissons Ratio (x) = 0.39221 0.35001
# Poissons Ratio (y) = 0.21336 0.22397
# Poissons Ratio (z) = 0.38210 0.44944
#
# Static dielectric constant tensor:
#      x y z
#    x 1.445830 0.000000 0.000000 
#    y 0.000000 1.804910 0.000000 
#    z 0.000000 0.000000 1.811770 
# 
# From -- ./inp_files/358.got.cif
#   From: 2010.05.17/outbox.cif.g08.bks.cpg/sg50_1_cif.got.tgz:358.got - 2010.06.03 11:33:33.
