data_PCOD9397955
_publ_section_title
;
Structure prediction by ZEFSAII (Michael W. Deem and Ramdas Pophale) SiO2 
 PCOD9397955
Probable space group: P B A N
;
_chemical_formula_sum "Si O2"
_cell_formula_units_Z 28
_cell_length_a 10.428117
_cell_length_b 19.599980
_cell_length_c 6.887232
_cell_angle_alpha 90.000000
_cell_angle_beta 90.000000
_cell_angle_gamma 90.000000
_cell_volume 1407.687441
_symmetry_space_group_name_H-M "P B A N"
_symmetry_group_IT_number 50
_space_group.IT_coordinate_system_code '2'
_symmetry_cell_setting 'orthorhombic'
loop_
_space_group_symop_operation_xyz
x,y,z
1/2-x,1/2-y,z
x,1/2-y,-z
1/2-x,y,-z
-x,-y,-z
1/2+x,1/2+y,-z
-x,1/2+y,z
1/2+x,-y,z
loop_
_atom_site_type_symbol
_atom_site_label
_atom_site_fract_x
_atom_site_fract_y
_atom_site_fract_z
Si Si1 0.371707 0.820669 0.615233
Si Si2 0.111551 0.086565 0.529509
Si Si3 0.440695 0.965542 0.189252
Si Si4 0.250000 0.643491 0.000000
O O1 0.393367 0.750000 0.500000
O O2 0.250000 0.853212 0.500000
O O3 0.499029 0.865448 0.609608
O O4 0.172835 0.814830 0.162692
O O5 0.250000 0.119635 0.500000
O O6 0.054970 0.061876 0.324410
O O7 0.127028 0.022406 0.675204
O O8 0.347374 0.906074 0.115860
O O9 0.500000 0.000000 0.000000
#
# Coordination Sequence:
#
# PCOD9397955 Si02
#       4
#     8   8   8   4
#     4  11  25  45  67  95 130 182 226 273 326 395
#     4  11  24  40  64 101 138 170 214 275 342 397
#     4  11  22  38  65  98 138 171 212 273 341 401
#     4  12  22  43  70 102 130 175 234 274 334 416
#
# _framework density 19.890778000000001
#
# number of rings (size 3 to 8) (size 9 to 14) (size 15 to 20)
#    0.000    0.857    5.714    1.714    4.000    2.857 
#    0.000    0.000    0.000    0.000    0.000    0.000 
#    0.000    0.000    0.000    0.000    0.000    0.000 
#
# Total GULP energy -156446.555189 kJ/mol
# GULP energy per Si atom -5587.376971 kJ/mol
# Density = 1.984551 g / cm^3
# Si number density = 19.890778 Si / 1000 Ang^3
#
#
#
# Elastic Constant Matrix: (Units=GPa)
#
#
# Indices 1 2 3 4 5 6 
#
# 1 131.1373 38.0873 40.7248 0.0000 0.0000 0.0000
# 2 38.0873 79.8149 50.8067 0.0000 0.0000 0.0000
# 3 40.7248 50.8067 170.5621 0.0000 0.0000 0.0000
# 4 0.0000 0.0000 0.0000 40.1316 0.0000 0.0000
# 5 0.0000 0.0000 0.0000 0.0000 22.2261 0.0000
# 6 0.0000 0.0000 0.0000 0.0000 0.0000 -63.1031
#
#
#
# Elastic Compliance Matrix: (Units=1/GPa)
#
#
# Indices 1 2 3 4 5 6 
#
# 1 0.009009 -0.003615 -0.001074 0.000000 0.000000 0.000000
# 2 -0.003615 0.016911 -0.004174 0.000000 0.000000 0.000000
# 3 -0.001074 -0.004174 0.007363 0.000000 0.000000 0.000000
# 4 0.000000 0.000000 0.000000 0.024918 0.000000 0.000000
# 5 0.000000 0.000000 0.000000 0.000000 0.044992 0.000000
# 6 0.000000 0.000000 0.000000 0.000000 0.000000 -0.015847
#
#
# Mechanical properties :
#
#
# Convention : Reuss Voigt Hill
#
# Bulk Modulus (GPa) = 64.28469 71.19465 67.73967
# Shear Modulus (GPa) = 45.34758 16.64398 30.99578
#
# Velocity S-wave (km/s) = 4.77994 2.89583 3.95181
# Velocity P-wave (km/s) = 7.92797 6.85942 7.41297
#
# Compressibility (1/GPa) = 0.01555580
#
# Stress axis : x y z
#
# Youngs Moduli (GPa) = 110.99736 59.13165 135.81649
#
# Poissons Ratio (x) = 0.21378 0.14589
# Poissons Ratio (y) = 0.40130 0.56694
# Poissons Ratio (z) = 0.11923 0.24683
#
# Static dielectric constant tensor:
#      x y z
#    x 1.703720 0.000000 0.000000 
#    y 0.000000 1.753930 0.000000 
#    z 0.000000 0.000000 1.694750 
# 
# From -- ./inp_files/2121.got.cif
#   From: 2010.05.17/outbox.cif.g08.bks.cpg/sg50_2_cif.got.tgz:2121.got - 2010.06.03 11:33:33.
