data_PCOD9397287
_publ_section_title
;
Structure prediction by ZEFSAII (Michael W. Deem and Ramdas Pophale) SiO2 
 PCOD9397287
Probable space group: P B A N
;
_chemical_formula_sum "Si O2"
_cell_formula_units_Z 26
_cell_length_a 5.374214
_cell_length_b 32.474525
_cell_length_c 7.383081
_cell_angle_alpha 90.000000
_cell_angle_beta 90.000000
_cell_angle_gamma 90.000000
_cell_volume 1288.532558
_symmetry_space_group_name_H-M "P B A N"
_symmetry_group_IT_number 50
_space_group.IT_coordinate_system_code '2'
_symmetry_cell_setting 'orthorhombic'
loop_
_space_group_symop_operation_xyz
x,y,z
1/2-x,1/2-y,z
x,1/2-y,-z
1/2-x,y,-z
-x,-y,-z
1/2+x,1/2+y,-z
-x,1/2+y,z
1/2+x,-y,z
loop_
_atom_site_type_symbol
_atom_site_label
_atom_site_fract_x
_atom_site_fract_y
_atom_site_fract_z
Si Si1 0.750000 0.750000 0.500000
Si Si2 0.501025 0.517654 0.294799
Si Si3 0.501061 0.101190 0.116440
Si Si4 0.991952 0.670555 0.607901
O O1 0.920320 0.718935 0.616463
O O2 0.500000 0.500000 0.500000
O O3 0.251372 0.499849 0.209300
O O4 0.500511 0.566591 0.273988
O O5 0.509396 0.146062 0.206610
O O6 0.250000 0.096657 0.000000
O O7 0.750000 0.094860 0.000000
O O8 0.750000 0.653075 0.500000
O O9 0.250000 0.665681 0.500000
#
# Coordination Sequence:
#
# PCOD9397287 Si02
#       4
#     2   8   8   8
#     4   8  22  40  76  96 122 164 236 252 302 396
#     4  10  23  39  64  91 125 176 224 259 310 386
#     4  12  26  42  65 100 137 167 212 276 338 375
#     4  10  22  41  73  93 128 173 218 262 311 399
#
# _framework density 20.177994999999999
#
# number of rings (size 3 to 8) (size 9 to 14) (size 15 to 20)
#    0.923    0.615    0.000    4.154    8.615    3.692 
#    0.000    0.769    0.000    0.000    0.000    0.000 
#    0.000    0.000    0.000    0.000    0.000    0.000 
#
# Total GULP energy -144937.405442 kJ/mol
# GULP energy per Si atom -5574.515594 kJ/mol
# Density = 2.013207 g / cm^3
# Si number density = 20.177995 Si / 1000 Ang^3
#
#
#
# Elastic Constant Matrix: (Units=GPa)
#
#
# Indices 1 2 3 4 5 6 
#
# 1 200.8315 30.1621 36.8878 0.0000 0.0000 0.0000
# 2 30.1621 141.9793 51.2437 0.0000 0.0000 0.0000
# 3 36.8878 51.2437 90.6632 0.0000 0.0000 0.0000
# 4 0.0000 0.0000 0.0000 19.5021 0.0000 0.0000
# 5 0.0000 0.0000 0.0000 0.0000 6.6732 0.0000
# 6 0.0000 0.0000 0.0000 0.0000 0.0000 12.5278
#
#
#
# Elastic Compliance Matrix: (Units=1/GPa)
#
#
# Indices 1 2 3 4 5 6 
#
# 1 0.005404 -0.000445 -0.001947 0.000000 0.000000 0.000000
# 2 -0.000445 0.008885 -0.004841 0.000000 0.000000 0.000000
# 3 -0.001947 -0.004841 0.014558 0.000000 0.000000 0.000000
# 4 0.000000 0.000000 0.000000 0.051277 0.000000 0.000000
# 5 0.000000 0.000000 0.000000 0.000000 0.149853 0.000000
# 6 0.000000 0.000000 0.000000 0.000000 0.000000 0.079823
#
#
# Mechanical properties :
#
#
# Convention : Reuss Voigt Hill
#
# Bulk Modulus (GPa) = 69.53665 74.45124 71.99395
# Shear Modulus (GPa) = 15.19488 28.75265 21.97376
#
# Velocity S-wave (km/s) = 2.74714 3.77895 3.30357
# Velocity P-wave (km/s) = 6.67823 7.48451 7.09284
#
# Compressibility (1/GPa) = 0.01438091
#
# Stress axis : x y z
#
# Youngs Moduli (GPa) = 185.05570 112.54920 68.69075
#
# Poissons Ratio (x) = 0.05012 0.13374
# Poissons Ratio (y) = 0.08240 0.33251
# Poissons Ratio (z) = 0.36029 0.54482
#
# Static dielectric constant tensor:
#      x y z
#    x 1.752960 0.000000 0.000000 
#    y 0.000000 1.722050 0.000000 
#    z 0.000000 0.000000 1.696150 
# 
# From -- ./inp_files/7740.got.cif
#   From: 2010.05.17/outbox.cif.g08.bks.cpg/sg50_4_cif.got.tgz:7740.got - 2010.06.03 11:33:33.
