data_PCOD9397370
_publ_section_title
;
Structure prediction by ZEFSAII (Michael W. Deem and Ramdas Pophale) SiO2 
 PCOD9397370
Probable space group: P B A N
;
_chemical_formula_sum "Si O2"
_cell_formula_units_Z 38
_cell_length_a 6.046929
_cell_length_b 26.207240
_cell_length_c 10.658359
_cell_angle_alpha 90.000000
_cell_angle_beta 90.000000
_cell_angle_gamma 90.000000
_cell_volume 1689.065532
_symmetry_space_group_name_H-M "P B A N"
_symmetry_group_IT_number 50
_space_group.IT_coordinate_system_code '2'
_symmetry_cell_setting 'orthorhombic'
loop_
_space_group_symop_operation_xyz
x,y,z
1/2-x,1/2-y,z
x,1/2-y,-z
1/2-x,y,-z
-x,-y,-z
1/2+x,1/2+y,-z
-x,1/2+y,z
1/2+x,-y,z
loop_
_atom_site_type_symbol
_atom_site_label
_atom_site_fract_x
_atom_site_fract_y
_atom_site_fract_z
Si Si1 0.750000 0.449424 0.000000
Si Si2 0.250000 0.750000 0.000000
Si Si3 0.888912 0.800735 0.172813
Si Si4 0.330755 0.012624 0.745232
Si Si5 0.769945 0.312145 0.354425
Si Si6 0.045232 0.119312 0.176586
O O1 0.664730 0.484463 0.883664
O O2 0.918152 0.410738 0.932682
O O3 0.408567 0.785173 0.916300
O O4 0.750000 0.750000 0.195355
O O5 0.721141 0.841791 0.124589
O O6 0.987542 0.822173 0.301157
O O7 0.332127 0.073416 0.753491
O O8 0.583057 0.001386 0.692639
O O9 0.750000 0.250000 0.339295
O O10 0.750000 0.323965 0.500000
O O11 0.608271 0.346621 0.269155
#
# Coordination Sequence:
#
# PCOD9397370 Si02
#       6
#     4   2   8   8   8   8
#     4  10  24  47  67 106 151 180 234 293 372 448
#     4  12  26  46  54 102 160 172 226 284 352 434
#     4  12  25  46  64  99 140 190 233 286 355 431
#     4  10  22  44  66 103 145 187 236 293 362 442
#     4  11  25  49  68  97 136 183 247 305 351 417
#     4  11  24  43  72 101 139 191 233 290 358 439
#
# _framework density 22.497647000000001
#
# number of rings (size 3 to 8) (size 9 to 14) (size 15 to 20)
#    0.000    1.053    3.158    2.842    5.895    5.895 
#   11.368    0.000    0.000    5.053    0.000    0.000 
#    0.000    0.000    0.000    0.000    0.000    0.000 
#
# Total GULP energy -212103.245220 kJ/mol
# GULP energy per Si atom -5581.664348 kJ/mol
# Density = 2.244644 g / cm^3
# Si number density = 22.497647 Si / 1000 Ang^3
#
#
#
# Elastic Constant Matrix: (Units=GPa)
#
#
# Indices 1 2 3 4 5 6 
#
# 1 157.1437 71.4758 54.4649 0.0000 0.0000 0.0000
# 2 71.4758 161.0375 40.8360 0.0000 0.0000 0.0000
# 3 54.4649 40.8360 86.9046 0.0000 0.0000 0.0000
# 4 0.0000 0.0000 0.0000 20.8956 0.0000 0.0000
# 5 0.0000 0.0000 0.0000 0.0000 1.8570 0.0000
# 6 0.0000 0.0000 0.0000 0.0000 0.0000 -27.5772
#
#
#
# Elastic Compliance Matrix: (Units=1/GPa)
#
#
# Indices 1 2 3 4 5 6 
#
# 1 0.009245 -0.002990 -0.004389 0.000000 0.000000 0.000000
# 2 -0.002990 0.008017 -0.001893 0.000000 0.000000 0.000000
# 3 -0.004389 -0.001893 0.015147 0.000000 0.000000 0.000000
# 4 0.000000 0.000000 0.000000 0.047857 0.000000 0.000000
# 5 0.000000 0.000000 0.000000 0.000000 0.538509 0.000000
# 6 0.000000 0.000000 0.000000 0.000000 0.000000 -0.036262
#
#
# Mechanical properties :
#
#
# Convention : Reuss Voigt Hill
#
# Bulk Modulus (GPa) = 72.12688 82.07099 77.09894
# Shear Modulus (GPa) = 8.25520 14.92235 11.58877
#
# Velocity S-wave (km/s) = 1.91764 2.57823 2.27207
# Velocity P-wave (km/s) = 6.08543 6.73958 6.42084
#
# Compressibility (1/GPa) = 0.01386446
#
# Stress axis : x y z
#
# Youngs Moduli (GPa) = 108.16790 124.73430 66.01992
#
# Poissons Ratio (x) = 0.37300 0.28975
# Poissons Ratio (y) = 0.32346 0.12498
# Poissons Ratio (z) = 0.47473 0.23613
#
# Static dielectric constant tensor:
#      x y z
#    x 1.831780 0.000000 0.000000 
#    y 0.000000 1.844580 0.000000 
#    z 0.000000 0.000000 2.121270 
# 
# From -- ./inp_files/18020.got.cif
#   From: 2010.05.17/outbox.cif.g08.bks.cpg/sg50_10_cif.got.tgz:18020.got - 2010.06.03 11:33:33.
