data_PCOD9397104
_publ_section_title
;
Structure prediction by ZEFSAII (Michael W. Deem and Ramdas Pophale) SiO2 
 PCOD9397104
Probable space group: P B A N
;
_chemical_formula_sum "Si O2"
_cell_formula_units_Z 58
_cell_length_a 12.338221
_cell_length_b 27.182799
_cell_length_c 8.966381
_cell_angle_alpha 90.000000
_cell_angle_beta 90.000000
_cell_angle_gamma 90.000000
_cell_volume 3007.211045
_symmetry_space_group_name_H-M "P B A N"
_symmetry_group_IT_number 50
_space_group.IT_coordinate_system_code '2'
_symmetry_cell_setting 'orthorhombic'
loop_
_space_group_symop_operation_xyz
x,y,z
1/2-x,1/2-y,z
x,1/2-y,-z
1/2-x,y,-z
-x,-y,-z
1/2+x,1/2+y,-z
-x,1/2+y,z
1/2+x,-y,z
loop_
_atom_site_type_symbol
_atom_site_label
_atom_site_fract_x
_atom_site_fract_y
_atom_site_fract_z
Si Si1 0.128081 0.152954 0.002107
Si Si2 0.432061 0.201921 0.291554
Si Si3 0.250000 0.250000 0.500000
Si Si4 0.127036 0.946069 0.965312
Si Si5 0.021047 0.630323 0.264232
Si Si6 0.119629 0.103486 0.538760
Si Si7 0.576001 0.552642 0.161015
Si Si8 0.637019 0.269049 0.331696
O O1 0.074515 0.186462 0.879033
O O2 0.126007 0.097345 0.936046
O O3 0.250000 0.169826 0.000000
O O4 0.071160 0.155341 0.160825
O O5 0.330950 0.224109 0.382809
O O6 0.436721 0.150419 0.380750
O O7 0.530780 0.239095 0.288119
O O8 0.080400 0.907623 0.845534
O O9 0.119279 0.000585 0.896107
O O10 0.250000 0.933736 0.000000
O O11 0.050660 0.945358 0.112580
O O12 0.104104 0.673251 0.317988
O O13 0.953158 0.600819 0.390030
O O14 0.250000 0.109236 0.500000
O O15 0.103907 0.061911 0.665672
O O16 0.750000 0.250000 0.257815
O O17 0.646410 0.250000 0.500000
#
# Coordination Sequence:
#
# PCOD9397104 Si02
#       8
#     8   8   2   8   8   8   8   8
#     4  10  22  37  60  94 128 164 203 260 325 399
#     4  11  22  38  61  89 123 166 210 255 328 376
#     4  12  20  36  60  84 124 156 206 270 300 376
#     4  10  22  43  67  93 128 171 211 266 317 385
#     4  11  23  41  61  94 125 160 225 264 314 384
#     4  11  21  38  65  96 131 165 202 267 322 387
#     4   9  21  40  66  92 127 169 209 248 333 395
#     4  11  24  43  62  82 120 174 216 269 321 374
#
# _framework density 19.286974000000001
#
# number of rings (size 3 to 8) (size 9 to 14) (size 15 to 20)
#    0.000    1.517    2.759    2.069    1.931    6.621 
#    0.000    0.690    0.000    0.000    0.000    0.000 
#    0.000    0.000    0.000    0.000    0.000    0.000 
#
# Total GULP energy -322917.847831 kJ/mol
# GULP energy per Si atom -5567.549101 kJ/mol
# Density = 1.924308 g / cm^3
# Si number density = 19.286974 Si / 1000 Ang^3
#
#
#
# Elastic Constant Matrix: (Units=GPa)
#
#
# Indices 1 2 3 4 5 6 
#
# 1 92.0974 24.4011 32.0350 0.0000 0.0000 0.0000
# 2 24.4011 61.9581 15.4602 0.0000 0.0000 0.0000
# 3 32.0350 15.4602 92.8855 0.0000 0.0000 0.0000
# 4 0.0000 0.0000 0.0000 -84.4759 0.0000 0.0000
# 5 0.0000 0.0000 0.0000 0.0000 -91.6067 0.0000
# 6 0.0000 0.0000 0.0000 0.0000 0.0000 3.2687
#
#
#
# Elastic Compliance Matrix: (Units=1/GPa)
#
#
# Indices 1 2 3 4 5 6 
#
# 1 0.013347 -0.004286 -0.003890 0.000000 0.000000 0.000000
# 2 -0.004286 0.018216 -0.001554 0.000000 0.000000 0.000000
# 3 -0.003890 -0.001554 0.012366 0.000000 0.000000 0.000000
# 4 0.000000 0.000000 0.000000 -0.011838 0.000000 0.000000
# 5 0.000000 0.000000 0.000000 0.000000 -0.010916 0.000000
# 6 0.000000 0.000000 0.000000 0.000000 0.000000 0.305927
#
#
# Mechanical properties :
#
#
# Convention : Reuss Voigt Hill
#
# Bulk Modulus (GPa) = 40.86684 43.41486 42.14085
# Shear Modulus (GPa) = 14.09576 -22.89312 -4.39868
#
# Velocity S-wave (km/s) = 2.70634 -3.44899 -1.51182
# Velocity P-wave (km/s) = 5.56781 2.58808 4.34158
#
# Compressibility (1/GPa) = 0.02446972
#
# Stress axis : x y z
#
# Youngs Moduli (GPa) = 74.92568 54.89826 80.86647
#
# Poissons Ratio (x) = 0.23528 0.31455
# Poissons Ratio (y) = 0.32111 0.12565
# Poissons Ratio (z) = 0.29144 0.08530
#
# Static dielectric constant tensor:
#      x y z
#    x 1.923040 0.000000 0.000000 
#    y 0.000000 1.705230 0.000000 
#    z 0.000000 0.000000 1.689010 
# 
# From -- ./inp_files/11743.got.cif
#   From: 2010.05.17/outbox.cif.g08.bks.cpg/sg50_6_cif.got.tgz:11743.got - 2010.06.03 11:33:33.
