data_PCOD9397190
_publ_section_title
;
Structure prediction by ZEFSAII (Michael W. Deem and Ramdas Pophale) SiO2 
 PCOD9397190
Probable space group: P B A N
;
_chemical_formula_sum "Si O2"
_cell_formula_units_Z 32
_cell_length_a 11.371237
_cell_length_b 10.447771
_cell_length_c 11.798883
_cell_angle_alpha 90.000000
_cell_angle_beta 90.000000
_cell_angle_gamma 90.000000
_cell_volume 1401.755442
_symmetry_space_group_name_H-M "P B A N"
_symmetry_group_IT_number 50
_space_group.IT_coordinate_system_code '2'
_symmetry_cell_setting 'orthorhombic'
loop_
_space_group_symop_operation_xyz
x,y,z
1/2-x,1/2-y,z
x,1/2-y,-z
1/2-x,y,-z
-x,-y,-z
1/2+x,1/2+y,-z
-x,1/2+y,z
1/2+x,-y,z
loop_
_atom_site_type_symbol
_atom_site_label
_atom_site_fract_x
_atom_site_fract_y
_atom_site_fract_z
Si Si1 0.250000 0.462773 0.000000
Si Si2 0.887538 0.408255 0.175743
Si Si3 0.504591 0.653180 0.741201
Si Si4 0.750000 0.750000 0.190383
Si Si5 0.287867 0.603336 0.617105
O O1 0.154901 0.558870 0.949075
O O2 0.279692 0.366369 0.896583
O O3 0.983547 0.517673 0.197249
O O4 0.784535 0.436362 0.270164
O O5 0.931596 0.264802 0.195674
O O6 0.635690 0.712195 0.736761
O O7 0.427939 0.613023 0.632624
O O8 0.250000 0.750000 0.608325
O O9 0.250000 0.536536 0.500000
#
# Coordination Sequence:
#
# PCOD9397190 Si02
#       5
#     4   8   8   4   8
#     4   9  20  40  61  94 136 179 215 274 328 407
#     4  10  22  41  66  96 133 172 231 270 338 398
#     4  10  22  39  69  95 131 180 216 283 332 398
#     4   9  20  40  60  99 141 172 220 274 343 391
#     4   9  20  42  66  92 130 179 227 274 336 400
#
# _framework density 22.828519
#
# number of rings (size 3 to 8) (size 9 to 14) (size 15 to 20)
#    0.000    2.500    0.000    0.000    7.000    2.000 
#   13.500    4.375    0.000    0.000    0.000    0.000 
#    0.000    0.000    0.000    0.000    0.000    0.000 
#
# Total GULP energy -178201.766633 kJ/mol
# GULP energy per Si atom -5568.805207 kJ/mol
# Density = 2.277656 g / cm^3
# Si number density = 22.828519 Si / 1000 Ang^3
#
#
#
# Elastic Constant Matrix: (Units=GPa)
#
#
# Indices 1 2 3 4 5 6 
#
# 1 132.1702 18.4067 72.6856 0.0000 0.0000 0.0000
# 2 18.4067 108.0732 31.8839 0.0000 0.0000 0.0000
# 3 72.6856 31.8839 84.2558 0.0000 0.0000 0.0000
# 4 0.0000 0.0000 0.0000 16.0295 0.0000 0.0000
# 5 0.0000 0.0000 0.0000 0.0000 -45.4159 0.0000
# 6 0.0000 0.0000 0.0000 0.0000 0.0000 -51.2393
#
#
#
# Elastic Compliance Matrix: (Units=1/GPa)
#
#
# Indices 1 2 3 4 5 6 
#
# 1 0.014576 0.001381 -0.013098 0.000000 0.000000 0.000000
# 2 0.001381 0.010547 -0.005183 0.000000 0.000000 0.000000
# 3 -0.013098 -0.005183 0.025129 0.000000 0.000000 0.000000
# 4 0.000000 0.000000 0.000000 0.062385 0.000000 0.000000
# 5 0.000000 0.000000 0.000000 0.000000 -0.022019 0.000000
# 6 0.000000 0.000000 0.000000 0.000000 0.000000 -0.019516
#
#
# Mechanical properties :
#
#
# Convention : Reuss Voigt Hill
#
# Bulk Modulus (GPa) = 60.77472 63.38352 62.07912
# Shear Modulus (GPa) = 45.29611 -2.69028 21.30291
#
# Velocity S-wave (km/s) = 4.45926 -1.08675 3.05810
# Velocity P-wave (km/s) = 7.29338 5.12354 6.30254
#
# Compressibility (1/GPa) = 0.01645421
#
# Stress axis : x y z
#
# Youngs Moduli (GPa) = 68.60361 94.81593 39.79483
#
# Poissons Ratio (x) = -0.13098 0.52122
# Poissons Ratio (y) = -0.09477 0.20625
# Poissons Ratio (z) = 0.89854 0.49141
#
# Static dielectric constant tensor:
#      x y z
#    x 2.612350 0.000000 0.000000 
#    y 0.000000 1.842600 0.000000 
#    z 0.000000 0.000000 1.979350 
# 
# From -- ./inp_files/19798.got.cif
#   From: 2010.05.17/outbox.cif.g08.bks.cpg/sg50_10_cif.got.tgz:19798.got - 2010.06.03 11:33:33.
