data_PCOD9397409
_publ_section_title
;
Structure prediction by ZEFSAII (Michael W. Deem and Ramdas Pophale) SiO2 
 PCOD9397409
Probable space group: P B A N
;
_chemical_formula_sum "Si O2"
_cell_formula_units_Z 38
_cell_length_a 11.328435
_cell_length_b 27.685003
_cell_length_c 5.342163
_cell_angle_alpha 90.000000
_cell_angle_beta 90.000000
_cell_angle_gamma 90.000000
_cell_volume 1675.450599
_symmetry_space_group_name_H-M "P B A N"
_symmetry_group_IT_number 50
_space_group.IT_coordinate_system_code '2'
_symmetry_cell_setting 'orthorhombic'
loop_
_space_group_symop_operation_xyz
x,y,z
1/2-x,1/2-y,z
x,1/2-y,-z
1/2-x,y,-z
-x,-y,-z
1/2+x,1/2+y,-z
-x,1/2+y,z
1/2+x,-y,z
loop_
_atom_site_type_symbol
_atom_site_label
_atom_site_fract_x
_atom_site_fract_y
_atom_site_fract_z
Si Si1 0.680725 0.841914 0.750153
Si Si2 0.250000 0.750000 0.000000
Si Si3 0.429965 0.700186 0.351747
Si Si4 0.904737 0.052288 0.231023
Si Si5 0.438079 0.057997 0.261756
Si Si6 0.250000 0.620779 0.500000
O O1 0.750000 0.827429 0.500000
O O2 0.553035 0.817603 0.751892
O O3 0.656161 0.899247 0.740888
O O4 0.750000 0.829251 0.000000
O O5 0.334772 0.715248 0.149545
O O6 0.448266 0.750000 0.500000
O O7 0.363124 0.656271 0.487871
O O8 0.788638 0.084178 0.279775
O O9 0.989334 0.059600 0.476521
O O10 0.881025 0.994881 0.230068
O O11 0.974793 0.064892 0.977003
#
# Coordination Sequence:
#
# PCOD9397409 Si02
#       6
#     8   2   8   8   8   4
#     4  12  29  50  78 106 152 205 253 302 368 456
#     4  12  26  48  86 106 152 188 242 342 402 444
#     4  12  28  50  76 113 148 193 256 322 394 447
#     4  10  23  40  73 107 150 192 246 303 369 443
#     4  10  22  46  67 105 151 198 246 299 360 445
#     4  12  23  46  76 114 150 194 249 324 388 462
#
# _framework density 22.680468000000001
#
# number of rings (size 3 to 8) (size 9 to 14) (size 15 to 20)
#    0.000    0.842    4.211    1.263    7.368    1.263 
#    0.000    0.000    0.000    0.000    0.000    0.000 
#    0.000    0.000    0.000    0.000    0.000    0.000 
#
# Total GULP energy -212647.051168 kJ/mol
# GULP energy per Si atom -5595.975031 kJ/mol
# Density = 2.262885 g / cm^3
# Si number density = 22.680468 Si / 1000 Ang^3
#
#
#
# Elastic Constant Matrix: (Units=GPa)
#
#
# Indices 1 2 3 4 5 6 
#
# 1 141.4211 61.9708 62.5694 0.0000 0.0000 0.0000
# 2 61.9708 116.1678 34.7679 0.0000 0.0000 0.0000
# 3 62.5694 34.7679 149.2915 0.0000 0.0000 0.0000
# 4 0.0000 0.0000 0.0000 84.9900 0.0000 0.0000
# 5 0.0000 0.0000 0.0000 0.0000 40.6556 0.0000
# 6 0.0000 0.0000 0.0000 0.0000 0.0000 23.0962
#
#
#
# Elastic Compliance Matrix: (Units=1/GPa)
#
#
# Indices 1 2 3 4 5 6 
#
# 1 0.010592 -0.004646 -0.003357 0.000000 0.000000 0.000000
# 2 -0.004646 0.011291 -0.000682 0.000000 0.000000 0.000000
# 3 -0.003357 -0.000682 0.008264 0.000000 0.000000 0.000000
# 4 0.000000 0.000000 0.000000 0.011766 0.000000 0.000000
# 5 0.000000 0.000000 0.000000 0.000000 0.024597 0.000000
# 6 0.000000 0.000000 0.000000 0.000000 0.000000 0.043297
#
#
# Mechanical properties :
#
#
# Convention : Reuss Voigt Hill
#
# Bulk Modulus (GPa) = 78.26951 80.61072 79.44011
# Shear Modulus (GPa) = 38.04096 46.25317 42.14706
#
# Velocity S-wave (km/s) = 4.09987 4.52080 4.31547
# Velocity P-wave (km/s) = 7.54960 7.92902 7.74163
#
# Compressibility (1/GPa) = 0.01277637
#
# Stress axis : x y z
#
# Youngs Moduli (GPa) = 94.40861 88.56792 121.00181
#
# Poissons Ratio (x) = 0.41146 0.40625
# Poissons Ratio (y) = 0.43859 0.08257
# Poissons Ratio (z) = 0.31697 0.06044
#
# Static dielectric constant tensor:
#      x y z
#    x 1.813000 0.000000 0.000000 
#    y 0.000000 1.788210 0.000000 
#    z 0.000000 0.000000 1.844110 
# 
# From -- ./inp_files/2454.got.cif
#   From: 2010.05.17/outbox.cif.g08.bks.cpg/sg50_2_cif.got.tgz:2454.got - 2010.06.03 11:33:33.
