data_PCOD9397281
_publ_section_title
;
Structure prediction by ZEFSAII (Michael W. Deem and Ramdas Pophale) SiO2 
 PCOD9397281
Probable space group: P B A N
;
_chemical_formula_sum "Si O2"
_cell_formula_units_Z 18
_cell_length_a 15.758950
_cell_length_b 9.186147
_cell_length_c 4.991807
_cell_angle_alpha 90.000000
_cell_angle_beta 90.000000
_cell_angle_gamma 90.000000
_cell_volume 722.634105
_symmetry_space_group_name_H-M "P B A N"
_symmetry_group_IT_number 50
_space_group.IT_coordinate_system_code '2'
_symmetry_cell_setting 'orthorhombic'
loop_
_space_group_symop_operation_xyz
x,y,z
1/2-x,1/2-y,z
x,1/2-y,-z
1/2-x,y,-z
-x,-y,-z
1/2+x,1/2+y,-z
-x,1/2+y,z
1/2+x,-y,z
loop_
_atom_site_type_symbol
_atom_site_label
_atom_site_fract_x
_atom_site_fract_y
_atom_site_fract_z
Si Si1 0.934582 0.857826 0.749273
Si Si2 0.118777 0.594525 0.124117
Si Si3 0.250000 0.750000 0.500000
O O1 0.913933 0.750000 0.500000
O O2 0.028798 0.930772 0.726209
O O3 0.935488 0.750000 0.000000
O O4 0.873375 0.982578 0.875931
O O5 0.194276 0.636710 0.323221
O O6 0.104798 0.750000 0.000000
#
# Coordination Sequence:
#
# PCOD9397281 Si02
#       3
#     8   8   2
#     4  10  22  41  69 102 143 193 254 316 374 458
#     4  10  23  38  67 103 145 195 255 315 384 464
#     4  12  22  40  64 108 152 204 254 326 392 478
#
# _framework density 24.90887
#
# number of rings (size 3 to 8) (size 9 to 14) (size 15 to 20)
#    0.000    1.778    2.222    0.667    6.222    5.333 
#    0.000    0.000    0.000    8.000    0.000    0.000 
#    0.000    0.000    0.000    4.000    0.000    1.778 
#
# Total GULP energy -100236.515327 kJ/mol
# GULP energy per Si atom -5568.695296 kJ/mol
# Density = 2.485218 g / cm^3
# Si number density = 24.908870 Si / 1000 Ang^3
#
#
#
# Elastic Constant Matrix: (Units=GPa)
#
#
# Indices 1 2 3 4 5 6 
#
# 1 104.7252 54.0826 86.5802 0.0000 0.0000 0.0000
# 2 54.0826 161.8274 95.5995 0.0000 0.0000 0.0000
# 3 86.5802 95.5995 231.2628 0.0000 0.0000 0.0000
# 4 0.0000 0.0000 0.0000 83.9206 0.0000 0.0000
# 5 0.0000 0.0000 0.0000 0.0000 55.2658 0.0000
# 6 0.0000 0.0000 0.0000 0.0000 0.0000 28.7872
#
#
#
# Elastic Compliance Matrix: (Units=1/GPa)
#
#
# Indices 1 2 3 4 5 6 
#
# 1 0.014373 -0.002150 -0.004492 0.000000 0.000000 0.000000
# 2 -0.002150 0.008498 -0.002708 0.000000 0.000000 0.000000
# 3 -0.004492 -0.002708 0.007125 0.000000 0.000000 0.000000
# 4 0.000000 0.000000 0.000000 0.011916 0.000000 0.000000
# 5 0.000000 0.000000 0.000000 0.000000 0.018094 0.000000
# 6 0.000000 0.000000 0.000000 0.000000 0.000000 0.034738
#
#
# Mechanical properties :
#
#
# Convention : Reuss Voigt Hill
#
# Bulk Modulus (GPa) = 88.52662 107.81556 98.17109
# Shear Modulus (GPa) = 42.65889 51.03159 46.84524
#
# Velocity S-wave (km/s) = 4.14284 4.53120 4.34137
# Velocity P-wave (km/s) = 7.64863 8.41152 8.03913
#
# Compressibility (1/GPa) = 0.01129604
#
# Stress axis : x y z
#
# Youngs Moduli (GPa) = 69.57559 117.68123 140.34412
#
# Poissons Ratio (x) = 0.25296 0.63047
# Poissons Ratio (y) = 0.14956 0.38005
# Poissons Ratio (z) = 0.31256 0.31868
#
# Static dielectric constant tensor:
#      x y z
#    x 2.169500 0.000000 0.000000 
#    y 0.000000 2.053490 0.000000 
#    z 0.000000 0.000000 2.002000 
# 
# From -- ./inp_files/613.got.cif
#   From: 2010.05.17/outbox.cif.g08.bks.cpg/sg50_1_cif.got.tgz:613.got - 2010.06.03 11:33:33.
