data_PCOD9397450
_publ_section_title
;
Structure prediction by ZEFSAII (Michael W. Deem and Ramdas Pophale) SiO2 
 PCOD9397450
Probable space group: P B A N
;
_chemical_formula_sum "Si O2"
_cell_formula_units_Z 44
_cell_length_a 8.648148
_cell_length_b 14.445225
_cell_length_c 15.480993
_cell_angle_alpha 90.000000
_cell_angle_beta 90.000000
_cell_angle_gamma 90.000000
_cell_volume 1933.954438
_symmetry_space_group_name_H-M "P B A N"
_symmetry_group_IT_number 50
_space_group.IT_coordinate_system_code '2'
_symmetry_cell_setting 'orthorhombic'
loop_
_space_group_symop_operation_xyz
x,y,z
1/2-x,1/2-y,z
x,1/2-y,-z
1/2-x,y,-z
-x,-y,-z
1/2+x,1/2+y,-z
-x,1/2+y,z
1/2+x,-y,z
loop_
_atom_site_type_symbol
_atom_site_label
_atom_site_fract_x
_atom_site_fract_y
_atom_site_fract_z
Si Si1 0.079873 0.717300 0.901728
Si Si2 0.223070 0.555576 0.824834
Si Si3 0.072819 0.127529 0.188600
Si Si4 0.564329 0.603465 0.610512
Si Si5 0.301946 0.594209 0.377208
Si Si6 0.250000 0.250000 0.500000
Si Si7 0.750000 0.250000 0.500000
O O1 0.250000 0.750000 0.867645
O O2 0.105903 0.609137 0.888538
O O3 0.946408 0.770396 0.850388
O O4 0.068406 0.750000 0.000000
O O5 0.198627 0.446875 0.841319
O O6 0.403730 0.581525 0.830917
O O7 0.173207 0.588648 0.726888
O O8 0.098113 0.129873 0.290457
O O9 0.380735 0.595816 0.607361
O O10 0.628019 0.501390 0.589617
O O11 0.644025 0.681238 0.554811
O O12 0.347614 0.684336 0.433385
#
# Coordination Sequence:
#
# PCOD9397450 Si02
#       7
#     8   8   8   8   8   2   2
#     4   9  18  34  61  91 119 154 198 241 290 359
#     4   9  19  37  60  84 117 156 193 243 292 354
#     4   9  19  38  59  86 117 155 197 237 299 349
#     4  10  23  42  60  86 120 157 197 250 295 354
#     4  10  23  40  59  85 119 155 201 244 298 353
#     4  12  24  40  64  92 120 156 206 254 298 346
#     4  12  24  32  60  88 108 156 198 250 290 342
#
# _framework density 22.75131
#
# number of rings (size 3 to 8) (size 9 to 14) (size 15 to 20)
#    0.000    2.364    0.000    1.091    6.364    5.091 
#    9.818    0.000    0.000    1.091    0.000    0.000 
#    0.000    0.000    0.000    0.000    0.000    0.000 
#
# Total GULP energy -245570.460108 kJ/mol
# GULP energy per Si atom -5581.146821 kJ/mol
# Density = 2.269953 g / cm^3
# Si number density = 22.751310 Si / 1000 Ang^3
#
#
#
# Elastic Constant Matrix: (Units=GPa)
#
#
# Indices 1 2 3 4 5 6 
#
# 1 47.3586 34.4763 12.7700 0.0000 0.0000 0.0000
# 2 34.4763 97.7295 21.8527 0.0000 0.0000 0.0000
# 3 12.7700 21.8527 46.1755 0.0000 0.0000 0.0000
# 4 0.0000 0.0000 0.0000 27.8002 0.0000 0.0000
# 5 0.0000 0.0000 0.0000 0.0000 -215.1576 0.0000
# 6 0.0000 0.0000 0.0000 0.0000 0.0000 21.7778
#
#
#
# Elastic Compliance Matrix: (Units=1/GPa)
#
#
# Indices 1 2 3 4 5 6 
#
# 1 0.028922 -0.009410 -0.003545 0.000000 0.000000 0.000000
# 2 -0.009410 0.014505 -0.004262 0.000000 0.000000 0.000000
# 3 -0.003545 -0.004262 0.024654 0.000000 0.000000 0.000000
# 4 0.000000 0.000000 0.000000 0.035971 0.000000 0.000000
# 5 0.000000 0.000000 0.000000 0.000000 -0.004648 0.000000
# 6 0.000000 0.000000 0.000000 0.000000 0.000000 0.045918
#
#
# Mechanical properties :
#
#
# Convention : Reuss Voigt Hill
#
# Bulk Modulus (GPa) = 29.72109 36.60685 33.16397
# Shear Modulus (GPa) = 26.18179 -24.97161 0.60509
#
# Velocity S-wave (km/s) = 3.39600 -3.31658 0.51627
# Velocity P-wave (km/s) = 5.33562 1.20773 3.86830
#
# Compressibility (1/GPa) = 0.03364614
#
# Stress axis : x y z
#
# Youngs Moduli (GPa) = 34.57596 68.94173 40.56145
#
# Poissons Ratio (x) = 0.64875 0.14379
# Poissons Ratio (y) = 0.32537 0.17288
# Poissons Ratio (z) = 0.12257 0.29384
#
# Static dielectric constant tensor:
#      x y z
#    x 1.852240 0.000000 0.000000 
#    y 0.000000 1.936360 0.000000 
#    z 0.000000 0.000000 1.866150 
# 
# From -- ./inp_files/28665.got.cif
#   From: 2010.05.17/outbox.cif.g08.bks.cpg/sg50_15_cif.got.tgz:28665.got - 2010.06.03 11:33:33.
