data_PCOD9397184
_publ_section_title
;
Structure prediction by ZEFSAII (Michael W. Deem and Ramdas Pophale) SiO2 
 PCOD9397184
Probable space group: P B A N
;
_chemical_formula_sum "Si O2"
_cell_formula_units_Z 44
_cell_length_a 7.194841
_cell_length_b 14.252275
_cell_length_c 17.736625
_cell_angle_alpha 90.000000
_cell_angle_beta 90.000000
_cell_angle_gamma 90.000000
_cell_volume 1818.764121
_symmetry_space_group_name_H-M "P B A N"
_symmetry_group_IT_number 50
_space_group.IT_coordinate_system_code '2'
_symmetry_cell_setting 'orthorhombic'
loop_
_space_group_symop_operation_xyz
x,y,z
1/2-x,1/2-y,z
x,1/2-y,-z
1/2-x,y,-z
-x,-y,-z
1/2+x,1/2+y,-z
-x,1/2+y,z
1/2+x,-y,z
loop_
_atom_site_type_symbol
_atom_site_label
_atom_site_fract_x
_atom_site_fract_y
_atom_site_fract_z
Si Si1 0.027397 0.854815 0.502285
Si Si2 0.250000 0.491653 0.000000
Si Si3 0.004572 0.000373 0.628495
Si Si4 0.785812 0.139267 0.877841
Si Si5 0.745947 0.005978 0.256689
Si Si6 0.779035 0.639256 0.872721
O O1 0.956589 0.750000 0.500000
O O2 0.250000 0.852334 0.500000
O O3 0.977133 0.907143 0.579187
O O4 0.970020 0.914274 0.429486
O O5 0.308058 0.569157 0.937195
O O6 0.175701 0.414542 0.939805
O O7 0.253726 0.985737 0.649783
O O8 0.005179 0.007163 0.722265
O O9 0.750000 0.250000 0.885802
O O10 0.741832 0.099053 0.794847
O O11 0.004440 0.123625 0.890395
O O12 0.734123 0.912837 0.205114
O O13 0.750000 0.750000 0.869434
#
# Coordination Sequence:
#
# PCOD9397184 Si02
#       6
#     8   4   8   8   8   8
#     4  10  22  39  65  93 122 166 214 256 311 376
#     4  10  24  44  68  90 130 168 212 258 312 370
#     4  11  22  42  64  92 128 167 205 262 315 372
#     4  11  25  42  66  96 126 168 214 258 314 376
#     4  11  24  42  64  91 132 167 208 260 318 375
#     4  11  25  42  65  97 128 166 212 261 315 372
#
# _framework density 24.192253000000001
#
# number of rings (size 3 to 8) (size 9 to 14) (size 15 to 20)
#    0.000    1.273    3.636    1.091    2.545    7.273 
#    0.000    0.909    0.000    0.000    0.000    0.000 
#    0.000    0.000    0.000    0.000    0.000    0.000 
#
# Total GULP energy -245039.522080 kJ/mol
# GULP energy per Si atom -5569.080047 kJ/mol
# Density = 2.413719 g / cm^3
# Si number density = 24.192253 Si / 1000 Ang^3
#
#
#
# Elastic Constant Matrix: (Units=GPa)
#
#
# Indices 1 2 3 4 5 6 
#
# 1 154.7451 -0.1435 35.3911 0.0000 0.0000 0.0000
# 2 -0.1435 226.4444 101.0645 0.0000 0.0000 0.0000
# 3 35.3911 101.0645 192.0798 0.0000 0.0000 0.0000
# 4 0.0000 0.0000 0.0000 285.0869 0.0000 0.0000
# 5 0.0000 0.0000 0.0000 0.0000 -6.2885 0.0000
# 6 0.0000 0.0000 0.0000 0.0000 0.0000 12.2476
#
#
#
# Elastic Compliance Matrix: (Units=1/GPa)
#
#
# Indices 1 2 3 4 5 6 
#
# 1 0.006840 0.000741 -0.001650 0.000000 0.000000 0.000000
# 2 0.000741 0.005852 -0.003215 0.000000 0.000000 0.000000
# 3 -0.001650 -0.003215 0.007202 0.000000 0.000000 0.000000
# 4 0.000000 0.000000 0.000000 0.003508 0.000000 0.000000
# 5 0.000000 0.000000 0.000000 0.000000 -0.159020 0.000000
# 6 0.000000 0.000000 0.000000 0.000000 0.000000 0.081648
#
#
# Mechanical properties :
#
#
# Convention : Reuss Voigt Hill
#
# Bulk Modulus (GPa) = 85.87708 93.98818 89.93263
# Shear Modulus (GPa) = -119.50457 87.33968 -16.08244
#
# Velocity S-wave (km/s) = -7.03599 6.01504 -2.58112
# Velocity P-wave (km/s) = 5.51652 9.33680 5.32653
#
# Compressibility (1/GPa) = 0.01164455
#
# Stress axis : x y z
#
# Youngs Moduli (GPa) = 146.19202 170.89280 138.85017
#
# Poissons Ratio (x) = -0.12660 0.22912
# Poissons Ratio (y) = -0.10830 0.44646
# Poissons Ratio (z) = 0.24123 0.54948
#
# Static dielectric constant tensor:
#      x y z
#    x 3.769060 0.000000 0.000000 
#    y 0.000000 1.778050 0.000000 
#    z 0.000000 0.000000 1.560380 
# 
# From -- ./inp_files/28623.got.cif
#   From: 2010.05.17/outbox.cif.g08.bks.cpg/sg50_15_cif.got.tgz:28623.got - 2010.06.03 11:33:33.
