data_PCOD9397328
_publ_section_title
;
Structure prediction by ZEFSAII (Michael W. Deem and Ramdas Pophale) SiO2 
 PCOD9397328
Probable space group: P B A N
;
_chemical_formula_sum "Si O2"
_cell_formula_units_Z 40
_cell_length_a 15.363540
_cell_length_b 9.192141
_cell_length_c 13.212593
_cell_angle_alpha 90.000000
_cell_angle_beta 90.000000
_cell_angle_gamma 90.000000
_cell_volume 1865.932934
_symmetry_space_group_name_H-M "P B A N"
_symmetry_group_IT_number 50
_space_group.IT_coordinate_system_code '2'
_symmetry_cell_setting 'orthorhombic'
loop_
_space_group_symop_operation_xyz
x,y,z
1/2-x,1/2-y,z
x,1/2-y,-z
1/2-x,y,-z
-x,-y,-z
1/2+x,1/2+y,-z
-x,1/2+y,z
1/2+x,-y,z
loop_
_atom_site_type_symbol
_atom_site_label
_atom_site_fract_x
_atom_site_fract_y
_atom_site_fract_z
Si Si1 0.750000 0.514217 0.000000
Si Si2 0.828927 0.347289 0.806664
Si Si3 0.526966 0.750000 0.500000
Si Si4 0.078915 0.153687 0.090257
Si Si5 0.015067 0.625768 0.809593
Si Si6 0.064805 0.506804 0.367140
O O1 0.702608 0.423267 0.089310
O O2 0.825313 0.605252 0.056715
O O3 0.750000 0.250000 0.767493
O O4 0.905957 0.233988 0.828788
O O5 0.864505 0.451190 0.717940
O O6 0.466195 0.850747 0.427823
O O7 0.583171 0.629028 0.440271
O O8 0.069775 0.271632 0.179746
O O9 0.024076 0.011371 0.116664
O O10 0.040234 0.250000 0.000000
O O11 0.016055 0.553420 0.699697
#
# Coordination Sequence:
#
# PCOD9397328 Si02
#       6
#     4   8   4   8   8   8
#     4  12  28  44  64 102 152 196 244 300 362 430
#     4  12  25  43  70 100 146 194 238 301 369 434
#     4  10  22  42  83 105 136 170 250 308 390 422
#     4  12  26  41  63  97 137 191 245 294 348 428
#     4  12  24  43  72  96 137 189 245 290 368 437
#     4  11  22  45  74 109 133 182 239 310 364 459
#
# _framework density 21.436997999999999
#
# number of rings (size 3 to 8) (size 9 to 14) (size 15 to 20)
#    0.000    0.400    6.000    2.400    2.800    0.000 
#    0.000    0.500    0.000    1.200    0.000    0.000 
#    0.000    0.000    0.000    0.000    0.000    0.000 
#
# Total GULP energy -223312.546538 kJ/mol
# GULP energy per Si atom -5582.813663 kJ/mol
# Density = 2.138821 g / cm^3
# Si number density = 21.436998 Si / 1000 Ang^3
#
#
#
# Elastic Constant Matrix: (Units=GPa)
#
#
# Indices 1 2 3 4 5 6 
#
# 1 87.8485 69.5658 45.3804 0.0000 0.0000 0.0000
# 2 69.5658 201.1026 89.2040 0.0000 0.0000 0.0000
# 3 45.3804 89.2040 121.7569 0.0000 0.0000 0.0000
# 4 0.0000 0.0000 0.0000 54.4818 0.0000 0.0000
# 5 0.0000 0.0000 0.0000 0.0000 27.5344 0.0000
# 6 0.0000 0.0000 0.0000 0.0000 0.0000 49.9357
#
#
#
# Elastic Compliance Matrix: (Units=1/GPa)
#
#
# Indices 1 2 3 4 5 6 
#
# 1 0.016335 -0.004370 -0.002886 0.000000 0.000000 0.000000
# 2 -0.004370 0.008536 -0.004625 0.000000 0.000000 0.000000
# 3 -0.002886 -0.004625 0.012677 0.000000 0.000000 0.000000
# 4 0.000000 0.000000 0.000000 0.018355 0.000000 0.000000
# 5 0.000000 0.000000 0.000000 0.000000 0.036318 0.000000
# 6 0.000000 0.000000 0.000000 0.000000 0.000000 0.020026
#
#
# Mechanical properties :
#
#
# Convention : Reuss Voigt Hill
#
# Bulk Modulus (GPa) = 72.54258 91.00091 81.77175
# Shear Modulus (GPa) = 35.56063 40.16089 37.86076
#
# Velocity S-wave (km/s) = 4.07731 4.33302 4.20711
# Velocity P-wave (km/s) = 7.48861 8.22046 7.86305
#
# Compressibility (1/GPa) = 0.01378501
#
# Stress axis : x y z
#
# Youngs Moduli (GPa) = 61.21793 117.15338 78.88166
#
# Poissons Ratio (x) = 0.51200 0.22769
# Poissons Ratio (y) = 0.26754 0.36481
# Poissons Ratio (z) = 0.17670 0.54181
#
# Static dielectric constant tensor:
#      x y z
#    x 1.807870 0.000000 0.000000 
#    y 0.000000 1.816880 0.000000 
#    z 0.000000 0.000000 1.915300 
# 
# From -- ./inp_files/26309.got.cif
#   From: 2010.05.17/outbox.cif.g08.bks.cpg/sg50_14_cif.got.tgz:26309.got - 2010.06.03 11:33:33.
