data_PCOD9397219
_publ_section_title
;
Structure prediction by ZEFSAII (Michael W. Deem and Ramdas Pophale) SiO2 
 PCOD9397219
Probable space group: P B A N
;
_chemical_formula_sum "Si O2"
_cell_formula_units_Z 40
_cell_length_a 7.637492
_cell_length_b 16.294425
_cell_length_c 14.203722
_cell_angle_alpha 90.000000
_cell_angle_beta 90.000000
_cell_angle_gamma 90.000000
_cell_volume 1767.632474
_symmetry_space_group_name_H-M "P B A N"
_symmetry_group_IT_number 50
_space_group.IT_coordinate_system_code '2'
_symmetry_cell_setting 'orthorhombic'
loop_
_space_group_symop_operation_xyz
x,y,z
1/2-x,1/2-y,z
x,1/2-y,-z
1/2-x,y,-z
-x,-y,-z
1/2+x,1/2+y,-z
-x,1/2+y,z
1/2+x,-y,z
loop_
_atom_site_type_symbol
_atom_site_label
_atom_site_fract_x
_atom_site_fract_y
_atom_site_fract_z
Si Si1 0.517154 0.415929 0.669918
Si Si2 0.750000 0.056143 0.000000
Si Si3 0.960443 0.236915 0.321036
Si Si4 0.367205 0.923833 0.407299
Si Si5 0.077973 0.089765 0.886414
Si Si6 0.750000 0.750000 0.837781
O O1 0.480724 0.323780 0.634004
O O2 0.455549 0.488125 0.601673
O O3 0.725278 0.425540 0.676558
O O4 0.445164 0.421846 0.774748
O O5 0.604054 0.104751 0.058572
O O6 0.844432 0.993696 0.071921
O O7 0.750000 0.250000 0.303211
O O8 0.981448 0.156294 0.385157
O O9 0.081830 0.229593 0.228929
O O10 0.250000 0.911959 0.500000
O O11 0.201329 0.168818 0.894771
#
# Coordination Sequence:
#
# PCOD9397219 Si02
#       6
#     8   4   8   8   8   4
#     4  10  22  40  65  96 128 186 222 276 345 412
#     4  10  22  41  70 105 130 178 224 288 356 402
#     4   9  22  41  64  96 134 184 229 283 346 407
#     4  11  23  40  66  99 136 176 232 286 337 403
#     4  10  22  42  68  98 139 176 227 285 346 423
#     4  10  22  43  70  99 134 184 234 276 353 423
#
# _framework density 22.629138999999999
#
# number of rings (size 3 to 8) (size 9 to 14) (size 15 to 20)
#    0.000    2.000    0.000    1.800    8.400    4.000 
#    7.200    0.000    8.800    0.000    0.000    0.000 
#    0.000    0.000    0.000    0.000    0.000    0.000 
#
# Total GULP energy -223270.028560 kJ/mol
# GULP energy per Si atom -5581.750714 kJ/mol
# Density = 2.257763 g / cm^3
# Si number density = 22.629139 Si / 1000 Ang^3
#
#
#
# Elastic Constant Matrix: (Units=GPa)
#
#
# Indices 1 2 3 4 5 6 
#
# 1 54.5428 40.2175 19.9397 0.0000 0.0000 0.0000
# 2 40.2175 179.8099 54.4728 0.0000 0.0000 0.0000
# 3 19.9397 54.4728 101.7924 0.0000 0.0000 0.0000
# 4 0.0000 0.0000 0.0000 -51.4408 0.0000 0.0000
# 5 0.0000 0.0000 0.0000 0.0000 39.3209 0.0000
# 6 0.0000 0.0000 0.0000 0.0000 0.0000 40.5584
#
#
#
# Elastic Compliance Matrix: (Units=1/GPa)
#
#
# Indices 1 2 3 4 5 6 
#
# 1 0.022300 -0.004374 -0.002028 0.000000 0.000000 0.000000
# 2 -0.004374 0.007495 -0.003154 0.000000 0.000000 0.000000
# 3 -0.002028 -0.003154 0.011909 0.000000 0.000000 0.000000
# 4 0.000000 0.000000 0.000000 -0.019440 0.000000 0.000000
# 5 0.000000 0.000000 0.000000 0.000000 0.025432 0.000000
# 6 0.000000 0.000000 0.000000 0.000000 0.000000 0.024656
#
#
# Mechanical properties :
#
#
# Convention : Reuss Voigt Hill
#
# Bulk Modulus (GPa) = 44.26075 62.82278 53.54177
# Shear Modulus (GPa) = 50.50762 20.45537 35.48150
#
# Velocity S-wave (km/s) = 4.72950 3.00982 3.96404
# Velocity P-wave (km/s) = 7.03035 6.31671 6.68307
#
# Compressibility (1/GPa) = 0.02259338
#
# Stress axis : x y z
#
# Youngs Moduli (GPa) = 44.84221 133.41863 83.96936
#
# Poissons Ratio (x) = 0.58351 0.17028
# Poissons Ratio (y) = 0.19612 0.26486
# Poissons Ratio (z) = 0.09094 0.42083
#
# Static dielectric constant tensor:
#      x y z
#    x 1.919700 0.000000 0.000000 
#    y 0.000000 1.887830 0.000000 
#    z 0.000000 0.000000 1.852870 
# 
# From -- ./inp_files/24719.got.cif
#   From: 2010.05.17/outbox.cif.g08.bks.cpg/sg50_13_cif.got.tgz:24719.got - 2010.06.03 11:33:33.
