data_PCOD9397250
_publ_section_title
;
Structure prediction by ZEFSAII (Michael W. Deem and Ramdas Pophale) SiO2 
 PCOD9397250
Probable space group: P B A N
;
_chemical_formula_sum "Si O2"
_cell_formula_units_Z 40
_cell_length_a 30.964279
_cell_length_b 11.767448
_cell_length_c 5.172361
_cell_angle_alpha 90.000000
_cell_angle_beta 90.000000
_cell_angle_gamma 90.000000
_cell_volume 1884.655986
_symmetry_space_group_name_H-M "P B A N"
_symmetry_group_IT_number 50
_space_group.IT_coordinate_system_code '2'
_symmetry_cell_setting 'orthorhombic'
loop_
_space_group_symop_operation_xyz
x,y,z
1/2-x,1/2-y,z
x,1/2-y,-z
1/2-x,y,-z
-x,-y,-z
1/2+x,1/2+y,-z
-x,1/2+y,z
1/2+x,-y,z
loop_
_atom_site_type_symbol
_atom_site_label
_atom_site_fract_x
_atom_site_fract_y
_atom_site_fract_z
Si Si1 0.230428 0.122274 0.248189
Si Si2 0.489958 0.669778 0.250542
Si Si3 0.366215 0.062516 0.807601
Si Si4 0.605777 0.329849 0.754220
Si Si5 0.416526 0.132040 0.326119
O O1 0.250000 0.250000 0.249251
O O2 0.250000 0.065640 0.500000
O O3 0.179129 0.125510 0.230613
O O4 0.250000 0.063003 0.000000
O O5 0.488512 0.750000 0.500000
O O6 0.442842 0.614286 0.247859
O O7 0.533753 0.597797 0.276378
O O8 0.496035 0.750000 0.000000
O O9 0.390116 0.060332 0.530956
O O10 0.360729 0.927556 0.836811
O O11 0.392287 0.119564 0.048156
O O12 0.612421 0.250000 0.500000
O O13 0.603195 0.250000 0.000000
O O14 0.417406 0.250000 0.500000
#
# Coordination Sequence:
#
# PCOD9397250 Si02
#       5
#     8   8   8   8   8
#     4  10  23  40  60  86 123 159 188 247 314 390
#     4   9  18  36  54  83 123 170 202 250 320 343
#     4  12  24  38  64  94 116 169 216 246 321 378
#     4  10  22  41  64  85 123 165 217 267 295 360
#     4  11  23  35  57  92 133 159 202 261 300 388
#
# _framework density 21.224029999999999
#
# number of rings (size 3 to 8) (size 9 to 14) (size 15 to 20)
#    0.000    1.600    0.000    5.400    8.400    1.600 
#    0.000    0.000    0.000    3.600    0.000    0.000 
#    0.000    0.000    0.000    0.000    0.000    0.000 
#
# Total GULP energy -222707.982462 kJ/mol
# GULP energy per Si atom -5567.699562 kJ/mol
# Density = 2.117572 g / cm^3
# Si number density = 21.224030 Si / 1000 Ang^3
#
#
#
# Elastic Constant Matrix: (Units=GPa)
#
#
# Indices 1 2 3 4 5 6 
#
# 1 105.2119 41.2730 29.4664 0.0000 0.0000 0.0000
# 2 41.2730 46.5410 5.8120 0.0000 0.0000 0.0000
# 3 29.4664 5.8120 173.8898 0.0000 0.0000 0.0000
# 4 0.0000 0.0000 0.0000 15.3950 0.0000 0.0000
# 5 0.0000 0.0000 0.0000 0.0000 23.4514 0.0000
# 6 0.0000 0.0000 0.0000 0.0000 0.0000 18.6832
#
#
#
# Elastic Compliance Matrix: (Units=1/GPa)
#
#
# Indices 1 2 3 4 5 6 
#
# 1 0.015338 -0.013333 -0.002153 0.000000 0.000000 0.000000
# 2 -0.013333 0.033167 0.001151 0.000000 0.000000 0.000000
# 3 -0.002153 0.001151 0.006077 0.000000 0.000000 0.000000
# 4 0.000000 0.000000 0.000000 0.064956 0.000000 0.000000
# 5 0.000000 0.000000 0.000000 0.000000 0.042641 0.000000
# 6 0.000000 0.000000 0.000000 0.000000 0.000000 0.053524
#
#
# Mechanical properties :
#
#
# Convention : Reuss Voigt Hill
#
# Bulk Modulus (GPa) = 38.59441 53.19393 45.89417
# Shear Modulus (GPa) = 19.76192 28.11200 23.93696
#
# Velocity S-wave (km/s) = 3.05472 3.64337 3.36195
# Velocity P-wave (km/s) = 5.53765 6.54342 6.06143
#
# Compressibility (1/GPa) = 0.02591049
#
# Stress axis : x y z
#
# Youngs Moduli (GPa) = 65.19716 30.15081 164.54890
#
# Poissons Ratio (x) = 0.40200 0.35435
# Poissons Ratio (y) = 0.86928 -0.18936
# Poissons Ratio (z) = 0.14040 -0.03470
#
# Static dielectric constant tensor:
#      x y z
#    x 1.804690 0.000000 0.000000 
#    y 0.000000 1.619080 0.000000 
#    z 0.000000 0.000000 1.812890 
# 
# From -- ./inp_files/6412.got.cif
#   From: 2010.05.17/outbox.cif.g08.bks.cpg/sg50_4_cif.got.tgz:6412.got - 2010.06.03 11:33:33.
