data_PCOD9397181
_publ_section_title
;
Structure prediction by ZEFSAII (Michael W. Deem and Ramdas Pophale) SiO2 
 PCOD9397181
Probable space group: P B A N
;
_chemical_formula_sum "Si O2"
_cell_formula_units_Z 34
_cell_length_a 14.424834
_cell_length_b 18.078324
_cell_length_c 5.354149
_cell_angle_alpha 90.000000
_cell_angle_beta 90.000000
_cell_angle_gamma 90.000000
_cell_volume 1396.237964
_symmetry_space_group_name_H-M "P B A N"
_symmetry_group_IT_number 50
_space_group.IT_coordinate_system_code '2'
_symmetry_cell_setting 'orthorhombic'
loop_
_space_group_symop_operation_xyz
x,y,z
1/2-x,1/2-y,z
x,1/2-y,-z
1/2-x,y,-z
-x,-y,-z
1/2+x,1/2+y,-z
-x,1/2+y,z
1/2+x,-y,z
loop_
_atom_site_type_symbol
_atom_site_label
_atom_site_fract_x
_atom_site_fract_y
_atom_site_fract_z
Si Si1 0.750000 0.250000 0.000000
Si Si2 0.149859 0.047198 0.955376
Si Si3 0.621179 0.703777 0.241724
Si Si4 0.593461 0.319927 0.684224
Si Si5 0.362278 0.985548 0.533573
O O1 0.678852 0.195548 0.135589
O O2 0.168303 0.124997 0.812930
O O3 0.096053 0.005415 0.737370
O O4 0.250000 0.010658 0.000000
O O5 0.111017 0.041054 0.237014
O O6 0.637512 0.750000 0.500000
O O7 0.511340 0.686211 0.218262
O O8 0.646874 0.750000 0.000000
O O9 0.601068 0.250000 0.500000
O O10 0.608045 0.402049 0.585852
O O11 0.250000 0.988954 0.500000
#
# Coordination Sequence:
#
# PCOD9397181 Si02
#       5
#     2   8   8   8   8
#     4  12  22  40  64  94 126 176 216 256 330 392
#     4  10  23  42  65  95 126 169 217 267 327 385
#     4  11  24  44  66  96 134 168 219 277 324 387
#     4  11  25  39  64  96 133 173 221 263 327 390
#     4  10  22  39  64  94 131 169 215 268 317 385
#
# _framework density 24.351148999999999
#
# number of rings (size 3 to 8) (size 9 to 14) (size 15 to 20)
#    0.000    1.412    1.176    3.176    8.235    2.353 
#    0.000    1.176    0.000    0.000    0.000    0.000 
#    0.000    0.000    0.000    0.000    0.000    0.000 
#
# Total GULP energy -189684.079280 kJ/mol
# GULP energy per Si atom -5578.943508 kJ/mol
# Density = 2.429572 g / cm^3
# Si number density = 24.351149 Si / 1000 Ang^3
#
#
#
# Elastic Constant Matrix: (Units=GPa)
#
#
# Indices 1 2 3 4 5 6 
#
# 1 92.6591 -12.5841 27.4944 0.0000 0.0000 0.0000
# 2 -12.5841 127.9999 58.7463 0.0000 0.0000 0.0000
# 3 27.4944 58.7463 176.4687 0.0000 0.0000 0.0000
# 4 0.0000 0.0000 0.0000 42.1985 0.0000 0.0000
# 5 0.0000 0.0000 0.0000 0.0000 27.2096 0.0000
# 6 0.0000 0.0000 0.0000 0.0000 0.0000 7.7049
#
#
#
# Elastic Compliance Matrix: (Units=1/GPa)
#
#
# Indices 1 2 3 4 5 6 
#
# 1 0.011902 0.002386 -0.002649 0.000000 0.000000 0.000000
# 2 0.002386 0.009700 -0.003601 0.000000 0.000000 0.000000
# 3 -0.002649 -0.003601 0.007278 0.000000 0.000000 0.000000
# 4 0.000000 0.000000 0.000000 0.023698 0.000000 0.000000
# 5 0.000000 0.000000 0.000000 0.000000 0.036752 0.000000
# 6 0.000000 0.000000 0.000000 0.000000 0.000000 0.129788
#
#
# Mechanical properties :
#
#
# Convention : Reuss Voigt Hill
#
# Bulk Modulus (GPa) = 47.27527 60.49343 53.88435
# Shear Modulus (GPa) = 21.37708 36.98733 29.18220
#
# Velocity S-wave (km/s) = 2.96610 3.90155 3.46553
# Velocity P-wave (km/s) = 5.58448 6.72252 6.17975
#
# Compressibility (1/GPa) = 0.02115271
#
# Stress axis : x y z
#
# Youngs Moduli (GPa) = 84.01825 103.09677 137.39915
#
# Poissons Ratio (x) = -0.24596 0.36392
# Poissons Ratio (y) = -0.20045 0.49473
# Poissons Ratio (z) = 0.22253 0.37122
#
# Static dielectric constant tensor:
#      x y z
#    x 3.644560 0.000000 0.000000 
#    y 0.000000 1.414090 0.000000 
#    z 0.000000 0.000000 2.060200 
# 
# From -- ./inp_files/4060.got.cif
#   From: 2010.05.17/outbox.cif.g08.bks.cpg/sg50_3_cif.got.tgz:4060.got - 2010.06.03 11:33:33.
