data_PCOD9397522
_publ_section_title
;
Structure prediction by ZEFSAII (Michael W. Deem and Ramdas Pophale) SiO2 
 PCOD9397522
Probable space group: P B A N
;
_chemical_formula_sum "Si O2"
_cell_formula_units_Z 40
_cell_length_a 5.616027
_cell_length_b 17.443645
_cell_length_c 17.294855
_cell_angle_alpha 90.000000
_cell_angle_beta 90.000000
_cell_angle_gamma 90.000000
_cell_volume 1694.272852
_symmetry_space_group_name_H-M "P B A N"
_symmetry_group_IT_number 50
_space_group.IT_coordinate_system_code '2'
_symmetry_cell_setting 'orthorhombic'
loop_
_space_group_symop_operation_xyz
x,y,z
1/2-x,1/2-y,z
x,1/2-y,-z
1/2-x,y,-z
-x,-y,-z
1/2+x,1/2+y,-z
-x,1/2+y,z
1/2+x,-y,z
loop_
_atom_site_type_symbol
_atom_site_label
_atom_site_fract_x
_atom_site_fract_y
_atom_site_fract_z
Si Si1 0.635897 0.488857 0.114012
Si Si2 0.104841 0.672507 0.618669
Si Si3 0.102948 0.458218 0.283918
Si Si4 0.750000 0.450388 0.500000
Si Si5 0.750000 0.750000 0.500000
Si Si6 0.750000 0.750000 0.000000
Si Si7 0.136198 0.827314 0.914146
O O1 0.882821 0.505961 0.073173
O O2 0.617480 0.539220 0.190807
O O3 0.654837 0.400035 0.138249
O O4 0.250000 0.750000 0.641100
O O5 0.257632 0.607558 0.573495
O O6 0.963197 0.625516 0.684211
O O7 0.915639 0.699725 0.554895
O O8 0.368769 0.489303 0.306515
O O9 0.500000 0.500000 0.500000
O O10 0.624519 0.693605 0.940460
O O11 0.250000 0.750000 0.882606
O O12 0.250000 0.841777 0.000000
#
# Coordination Sequence:
#
# PCOD9397522 Si02
#       7
#     8   8   8   4   2   2   8
#     4  10  23  42  67  94 138 180 235 279 336 404
#     4  12  25  43  69 101 139 178 227 286 351 428
#     4  10  24  47  70  94 136 184 231 281 337 411
#     4  12  24  40  65 101 132 172 214 278 358 412
#     4  12  24  44  68 106 144 162 228 282 366 410
#     4   8  18  36  60  96 144 172 228 270 354 392
#     4   9  20  37  64 101 139 182 227 284 345 403
#
# _framework density 23.608947000000001
#
# number of rings (size 3 to 8) (size 9 to 14) (size 15 to 20)
#    0.000    1.800    2.000    1.800    8.400    0.800 
#    0.000    4.000    0.000    0.000    0.000    0.000 
#    0.000    0.000    0.000    0.000    0.000    0.000 
#
# Total GULP energy -223004.901011 kJ/mol
# GULP energy per Si atom -5575.122525 kJ/mol
# Density = 2.355521 g / cm^3
# Si number density = 23.608947 Si / 1000 Ang^3
#
#
#
# Elastic Constant Matrix: (Units=GPa)
#
#
# Indices 1 2 3 4 5 6 
#
# 1 179.2441 67.9268 33.3015 0.0000 0.0000 0.0000
# 2 67.9268 132.7529 37.8297 0.0000 0.0000 0.0000
# 3 33.3015 37.8297 83.9969 0.0000 0.0000 0.0000
# 4 0.0000 0.0000 0.0000 81.2468 0.0000 0.0000
# 5 0.0000 0.0000 0.0000 0.0000 45.9009 0.0000
# 6 0.0000 0.0000 0.0000 0.0000 0.0000 94.2883
#
#
#
# Elastic Compliance Matrix: (Units=1/GPa)
#
#
# Indices 1 2 3 4 5 6 
#
# 1 0.007051 -0.003225 -0.001343 0.000000 0.000000 0.000000
# 2 -0.003225 0.010117 -0.003278 0.000000 0.000000 0.000000
# 3 -0.001343 -0.003278 0.013914 0.000000 0.000000 0.000000
# 4 0.000000 0.000000 0.000000 0.012308 0.000000 0.000000
# 5 0.000000 0.000000 0.000000 0.000000 0.021786 0.000000
# 6 0.000000 0.000000 0.000000 0.000000 0.000000 0.010606
#
#
# Mechanical properties :
#
#
# Convention : Reuss Voigt Hill
#
# Bulk Modulus (GPa) = 64.97674 74.90111 69.93892
# Shear Modulus (GPa) = 51.75831 61.41625 56.58728
#
# Velocity S-wave (km/s) = 4.68730 5.10592 4.90108
# Velocity P-wave (km/s) = 7.54163 8.15814 7.85593
#
# Compressibility (1/GPa) = 0.01539012
#
# Stress axis : x y z
#
# Youngs Moduli (GPa) = 141.83144 98.84345 71.87098
#
# Poissons Ratio (x) = 0.31877 0.09651
# Poissons Ratio (y) = 0.45740 0.23558
# Poissons Ratio (z) = 0.19046 0.32399
#
# Static dielectric constant tensor:
#      x y z
#    x 2.039260 0.000000 0.000000 
#    y 0.000000 1.918890 0.000000 
#    z 0.000000 0.000000 1.887080 
# 
# From -- ./inp_files/28108.got.cif
#   From: 2010.05.17/outbox.cif.g08.bks.cpg/sg50_15_cif.got.tgz:28108.got - 2010.06.03 11:33:33.
