data_PCOD9397178
_publ_section_title
;
Structure prediction by ZEFSAII (Michael W. Deem and Ramdas Pophale) SiO2 
 PCOD9397178
Probable space group: P B A N
;
_chemical_formula_sum "Si O2"
_cell_formula_units_Z 38
_cell_length_a 5.046754
_cell_length_b 24.774528
_cell_length_c 11.821869
_cell_angle_alpha 90.000000
_cell_angle_beta 90.000000
_cell_angle_gamma 90.000000
_cell_volume 1478.099492
_symmetry_space_group_name_H-M "P B A N"
_symmetry_group_IT_number 50
_space_group.IT_coordinate_system_code '2'
_symmetry_cell_setting 'orthorhombic'
loop_
_space_group_symop_operation_xyz
x,y,z
1/2-x,1/2-y,z
x,1/2-y,-z
1/2-x,y,-z
-x,-y,-z
1/2+x,1/2+y,-z
-x,1/2+y,z
1/2+x,-y,z
loop_
_atom_site_type_symbol
_atom_site_label
_atom_site_fract_x
_atom_site_fract_y
_atom_site_fract_z
Si Si1 0.166050 0.812673 0.876022
Si Si2 0.799050 0.910389 0.870543
Si Si3 0.414985 0.878190 0.687850
Si Si4 0.250000 0.324407 0.500000
Si Si5 0.451243 0.966465 0.326049
Si Si6 0.250000 0.750000 0.500000
O O1 0.250000 0.750000 0.884274
O O2 0.308124 0.828915 0.760710
O O3 0.891024 0.846682 0.864363
O O4 0.250000 0.834989 0.000000
O O5 0.547111 0.913530 0.788372
O O6 0.006206 0.949593 0.806902
O O7 0.750000 0.924208 0.000000
O O8 0.632934 0.858783 0.601657
O O9 0.179617 0.911424 0.630518
O O10 0.514470 0.291129 0.455963
O O11 0.734096 0.989197 0.359876
#
# Coordination Sequence:
#
# PCOD9397178 Si02
#       6
#     8   8   8   4   8   2
#     4  10  22  39  64 102 144 190 237 293 368 444
#     4  11  23  42  67 102 145 187 236 303 366 442
#     4  11  25  46  72 101 148 188 243 306 364 443
#     4  11  28  48  76 105 146 197 248 308 367 432
#     4  11  24  45  72 105 140 187 244 302 376 444
#     4  10  28  50  72 108 138 196 260 294 360 436
#
# _framework density 25.708690000000001
#
# number of rings (size 3 to 8) (size 9 to 14) (size 15 to 20)
#    0.000    1.263    4.211    0.000    7.368    3.368 
#    0.000    1.053    0.000    0.000    0.000    0.000 
#    0.000    0.000    0.000    0.000    0.000    0.000 
#
# Total GULP energy -211580.999170 kJ/mol
# GULP energy per Si atom -5567.921031 kJ/mol
# Density = 2.565018 g / cm^3
# Si number density = 25.708690 Si / 1000 Ang^3
#
#
#
# Elastic Constant Matrix: (Units=GPa)
#
#
# Indices 1 2 3 4 5 6 
#
# 1 132.8149 6.1608 32.3673 0.0000 0.0000 0.0000
# 2 6.1608 72.1173 11.0884 0.0000 0.0000 0.0000
# 3 32.3673 11.0884 145.7810 0.0000 0.0000 0.0000
# 4 0.0000 0.0000 0.0000 4.2765 0.0000 0.0000
# 5 0.0000 0.0000 0.0000 0.0000 37.7770 0.0000
# 6 0.0000 0.0000 0.0000 0.0000 0.0000 69.5276
#
#
#
# Elastic Compliance Matrix: (Units=1/GPa)
#
#
# Indices 1 2 3 4 5 6 
#
# 1 0.007972 -0.000414 -0.001739 0.000000 0.000000 0.000000
# 2 -0.000414 0.014052 -0.000977 0.000000 0.000000 0.000000
# 3 -0.001739 -0.000977 0.007320 0.000000 0.000000 0.000000
# 4 0.000000 0.000000 0.000000 0.233834 0.000000 0.000000
# 5 0.000000 0.000000 0.000000 0.000000 0.026471 0.000000
# 6 0.000000 0.000000 0.000000 0.000000 0.000000 0.014383
#
#
# Mechanical properties :
#
#
# Convention : Reuss Voigt Hill
#
# Bulk Modulus (GPa) = 43.31732 49.99401 46.65567
# Shear Modulus (GPa) = 15.72397 42.38934 29.05666
#
# Velocity S-wave (km/s) = 2.47578 4.06499 3.36553
# Velocity P-wave (km/s) = 5.00585 6.44366 5.76972
#
# Compressibility (1/GPa) = 0.02308545
#
# Stress axis : x y z
#
# Youngs Moduli (GPa) = 125.43648 71.16496 136.61350
#
# Poissons Ratio (x) = 0.02944 0.23751
# Poissons Ratio (y) = 0.05190 0.13346
# Poissons Ratio (z) = 0.21808 0.06952
#
# Static dielectric constant tensor:
#      x y z
#    x 2.052500 0.000000 0.000000 
#    y 0.000000 2.157290 0.000000 
#    z 0.000000 0.000000 2.006060 
# 
# From -- ./inp_files/17901.got.cif
#   From: 2010.05.17/outbox.cif.g08.bks.cpg/sg50_9_cif.got.tgz:17901.got - 2010.06.03 11:33:33.
