data_PCOD9397231
_publ_section_title
;
Structure prediction by ZEFSAII (Michael W. Deem and Ramdas Pophale) SiO2 
 PCOD9397231
Probable space group: P B A N
;
_chemical_formula_sum "Si O2"
_cell_formula_units_Z 48
_cell_length_a 24.983588
_cell_length_b 14.524815
_cell_length_c 6.419745
_cell_angle_alpha 90.000000
_cell_angle_beta 90.000000
_cell_angle_gamma 90.000000
_cell_volume 2329.609865
_symmetry_space_group_name_H-M "P B A N"
_symmetry_group_IT_number 50
_space_group.IT_coordinate_system_code '2'
_symmetry_cell_setting 'orthorhombic'
loop_
_space_group_symop_operation_xyz
x,y,z
1/2-x,1/2-y,z
x,1/2-y,-z
1/2-x,y,-z
-x,-y,-z
1/2+x,1/2+y,-z
-x,1/2+y,z
1/2+x,-y,z
loop_
_atom_site_type_symbol
_atom_site_label
_atom_site_fract_x
_atom_site_fract_y
_atom_site_fract_z
Si Si1 0.656989 0.750000 0.500000
Si Si2 0.854260 0.145490 0.491193
Si Si3 0.712995 0.034855 0.826886
Si Si4 0.250000 0.102032 0.500000
Si Si5 0.390122 0.977638 0.890007
Si Si6 0.568919 0.682520 0.806042
Si Si7 0.948977 0.335769 0.841257
O O1 0.696765 0.836363 0.508333
O O2 0.615492 0.735097 0.684473
O O3 0.834468 0.250000 0.500000
O O4 0.808918 0.091375 0.366929
O O5 0.870486 0.088511 0.699009
O O6 0.905903 0.155879 0.341855
O O7 0.747288 0.955206 0.714910
O O8 0.750000 0.082995 0.000000
O O9 0.659608 0.007293 0.952598
O O10 0.410360 0.078192 0.827532
O O11 0.437369 0.924248 0.013005
O O12 0.507172 0.671864 0.735753
O O13 0.561566 0.750000 0.000000
O O14 0.939445 0.250000 0.000000
#
# Coordination Sequence:
#
# PCOD9397231 Si02
#       7
#     4   8   8   4   8   8   8
#     4  11  24  40  68  96 132 176 232 275 352 408
#     4  11  23  41  68  93 132 176 219 279 344 412
#     4  11  23  41  65  89 124 164 222 275 340 402
#     4  11  24  46  65  92 130 180 221 290 344 417
#     4  11  23  42  66  96 134 180 225 283 345 410
#     4  11  24  40  65 101 137 175 231 284 337 417
#     4  10  22  40  67  97 137 180 223 277 349 415
#
# _framework density 20.604310000000002
#
# number of rings (size 3 to 8) (size 9 to 14) (size 15 to 20)
#    0.000    1.167    1.667    4.500    1.167    2.000 
#    0.000    7.917    0.000    0.000    0.000    0.000 
#    0.000    0.000    0.000    0.000    0.000    0.000 
#
# Total GULP energy -267627.465346 kJ/mol
# GULP energy per Si atom -5575.572195 kJ/mol
# Density = 2.055741 g / cm^3
# Si number density = 20.604310 Si / 1000 Ang^3
#
#
#
# Elastic Constant Matrix: (Units=GPa)
#
#
# Indices 1 2 3 4 5 6 
#
# 1 125.0486 24.4322 28.2306 0.0000 0.0000 0.0000
# 2 24.4322 83.8442 26.4421 0.0000 0.0000 0.0000
# 3 28.2306 26.4421 65.9857 0.0000 0.0000 0.0000
# 4 0.0000 0.0000 0.0000 26.5973 0.0000 0.0000
# 5 0.0000 0.0000 0.0000 0.0000 69.3016 0.0000
# 6 0.0000 0.0000 0.0000 0.0000 0.0000 -386.2506
#
#
#
# Elastic Compliance Matrix: (Units=1/GPa)
#
#
# Indices 1 2 3 4 5 6 
#
# 1 0.009040 -0.001619 -0.003219 0.000000 0.000000 0.000000
# 2 -0.001619 0.013942 -0.004894 0.000000 0.000000 0.000000
# 3 -0.003219 -0.004894 0.018493 0.000000 0.000000 0.000000
# 4 0.000000 0.000000 0.000000 0.037598 0.000000 0.000000
# 5 0.000000 0.000000 0.000000 0.000000 0.014430 0.000000
# 6 0.000000 0.000000 0.000000 0.000000 0.000000 -0.002589
#
#
# Mechanical properties :
#
#
# Convention : Reuss Voigt Hill
#
# Bulk Modulus (GPa) = 45.43186 48.12093 46.77640
# Shear Modulus (GPa) = 42.47550 -45.01877 -1.27164
#
# Velocity S-wave (km/s) = 4.54528 -4.67938 -0.78645
# Velocity P-wave (km/s) = 7.04583 2.40625 4.68261
#
# Compressibility (1/GPa) = 0.02201098
#
# Stress axis : x y z
#
# Youngs Moduli (GPa) = 110.62089 71.72457 54.07423
#
# Poissons Ratio (x) = 0.11613 0.17405
# Poissons Ratio (y) = 0.17911 0.26465
# Poissons Ratio (z) = 0.35606 0.35104
#
# Static dielectric constant tensor:
#      x y z
#    x 1.738230 0.000000 0.000000 
#    y 0.000000 1.834250 0.000000 
#    z 0.000000 0.000000 1.743570 
# 
# From -- ./inp_files/6646.got.cif
#   From: 2010.05.17/outbox.cif.g08.bks.cpg/sg50_4_cif.got.tgz:6646.got - 2010.06.03 11:33:33.
