data_PCOD9397572
_publ_section_title
;
Structure prediction by ZEFSAII (Michael W. Deem and Ramdas Pophale) SiO2 
 PCOD9397572
Probable space group: P B A N
;
_chemical_formula_sum "Si O2"
_cell_formula_units_Z 40
_cell_length_a 17.098970
_cell_length_b 8.809433
_cell_length_c 12.528639
_cell_angle_alpha 90.000000
_cell_angle_beta 90.000000
_cell_angle_gamma 90.000000
_cell_volume 1887.216839
_symmetry_space_group_name_H-M "P B A N"
_symmetry_group_IT_number 50
_space_group.IT_coordinate_system_code '2'
_symmetry_cell_setting 'orthorhombic'
loop_
_space_group_symop_operation_xyz
x,y,z
1/2-x,1/2-y,z
x,1/2-y,-z
1/2-x,y,-z
-x,-y,-z
1/2+x,1/2+y,-z
-x,1/2+y,z
1/2+x,-y,z
loop_
_atom_site_type_symbol
_atom_site_label
_atom_site_fract_x
_atom_site_fract_y
_atom_site_fract_z
Si Si1 0.970063 0.720224 0.248765
Si Si2 0.804258 0.886322 0.824007
Si Si3 0.951530 0.515948 0.606865
Si Si4 0.122404 0.704601 0.877872
Si Si5 0.796035 0.395538 0.689229
O O1 0.886792 0.694235 0.196487
O O2 0.005825 0.566221 0.294193
O O3 0.035136 0.795792 0.172501
O O4 0.952778 0.812122 0.356420
O O5 0.750000 0.750000 0.868763
O O6 0.831583 0.044053 0.878812
O O7 0.757497 0.960923 0.722826
O O8 0.864759 0.447384 0.610456
O O9 0.000000 0.500000 0.500000
O O10 0.166640 0.824504 0.799332
O O11 0.118012 0.750000 0.000000
O O12 0.750000 0.250000 0.644666
#
# Coordination Sequence:
#
# PCOD9397572 Si02
#       5
#     8   8   8   8   8
#     4  11  22  42  67  96 135 174 221 281 334 400
#     4  11  21  40  70  95 137 173 218 285 338 387
#     4  11  22  41  70  96 128 179 228 274 334 407
#     4  10  23  44  68  92 134 184 224 271 342 412
#     4   9  21  41  67  93 135 174 217 283 341 395
#
# _framework density 21.195233999999999
#
# number of rings (size 3 to 8) (size 9 to 14) (size 15 to 20)
#    0.000    1.600    4.000    0.600    0.000    4.400 
#    0.000    5.000    4.400    0.000    0.000    0.000 
#    0.000    0.000    0.000    0.000    0.000    0.000 
#
# Total GULP energy -222899.828816 kJ/mol
# GULP energy per Si atom -5572.495720 kJ/mol
# Density = 2.114699 g / cm^3
# Si number density = 21.195234 Si / 1000 Ang^3
#
#
#
# Elastic Constant Matrix: (Units=GPa)
#
#
# Indices 1 2 3 4 5 6 
#
# 1 164.9633 41.1397 38.5449 0.0000 0.0000 0.0000
# 2 41.1397 84.2230 21.8619 0.0000 0.0000 0.0000
# 3 38.5449 21.8619 69.9334 0.0000 0.0000 0.0000
# 4 0.0000 0.0000 0.0000 19.1374 0.0000 0.0000
# 5 0.0000 0.0000 0.0000 0.0000 -5.7216 0.0000
# 6 0.0000 0.0000 0.0000 0.0000 0.0000 29.8193
#
#
#
# Elastic Compliance Matrix: (Units=1/GPa)
#
#
# Indices 1 2 3 4 5 6 
#
# 1 0.007531 -0.002831 -0.003266 0.000000 0.000000 0.000000
# 2 -0.002831 0.013986 -0.002812 0.000000 0.000000 0.000000
# 3 -0.003266 -0.002812 0.016978 0.000000 0.000000 0.000000
# 4 0.000000 0.000000 0.000000 0.052254 0.000000 0.000000
# 5 0.000000 0.000000 0.000000 0.000000 -0.174777 0.000000
# 6 0.000000 0.000000 0.000000 0.000000 0.000000 0.033535
#
#
# Mechanical properties :
#
#
# Convention : Reuss Voigt Hill
#
# Bulk Modulus (GPa) = 48.36043 58.02365 53.19204
# Shear Modulus (GPa) = -193.92512 23.15192 -85.38660
#
# Velocity S-wave (km/s) = -9.57566 3.30861 -6.35399
# Velocity P-wave (km/s) = 9.96953 6.48314 5.35539
#
# Compressibility (1/GPa) = 0.02067806
#
# Stress axis : x y z
#
# Youngs Moduli (GPa) = 132.78374 71.50061 58.89840
#
# Poissons Ratio (x) = 0.20241 0.19236
# Poissons Ratio (y) = 0.37590 0.16561
# Poissons Ratio (z) = 0.43366 0.20105
#
# Static dielectric constant tensor:
#      x y z
#    x 1.800530 0.000000 0.000000 
#    y 0.000000 1.860510 0.000000 
#    z 0.000000 0.000000 1.715440 
# 
# From -- ./inp_files/21615.got.cif
#   From: 2010.05.17/outbox.cif.g08.bks.cpg/sg50_11_cif.got.tgz:21615.got - 2010.06.03 11:33:33.
