data_PCOD9397466
_publ_section_title
;
Structure prediction by ZEFSAII (Michael W. Deem and Ramdas Pophale) SiO2 
 PCOD9397466
Probable space group: P B A N
;
_chemical_formula_sum "Si O2"
_cell_formula_units_Z 24
_cell_length_a 12.879432
_cell_length_b 14.754037
_cell_length_c 5.139404
_cell_angle_alpha 90.000000
_cell_angle_beta 90.000000
_cell_angle_gamma 90.000000
_cell_volume 976.608134
_symmetry_space_group_name_H-M "P B A N"
_symmetry_group_IT_number 50
_space_group.IT_coordinate_system_code '2'
_symmetry_cell_setting 'orthorhombic'
loop_
_space_group_symop_operation_xyz
x,y,z
1/2-x,1/2-y,z
x,1/2-y,-z
1/2-x,y,-z
-x,-y,-z
1/2+x,1/2+y,-z
-x,1/2+y,z
1/2+x,-y,z
loop_
_atom_site_type_symbol
_atom_site_label
_atom_site_fract_x
_atom_site_fract_y
_atom_site_fract_z
Si Si1 0.631959 0.847765 0.899895
Si Si2 0.027532 0.095231 0.374716
Si Si3 0.298334 0.648057 0.742714
O O1 0.602064 0.859561 0.596948
O O2 0.591925 0.750000 0.000000
O O3 0.750000 0.850339 0.000000
O O4 0.577536 0.918168 0.092393
O O5 0.920398 0.148589 0.310596
O O6 0.000000 0.000000 0.500000
O O7 0.250000 0.750000 0.744968
O O8 0.250000 0.596174 0.500000
O O9 0.250000 0.605319 0.000000
#
# Coordination Sequence:
#
# PCOD9397466 Si02
#       3
#     8   8   8
#     4  11  26  47  75 102 141 194 250 297 358 448
#     4  12  26  44  72 109 148 188 241 310 373 429
#     4  10  23  40  65 101 137 184 238 291 358 437
#
# _framework density 24.574852
#
# number of rings (size 3 to 8) (size 9 to 14) (size 15 to 20)
#    0.000    1.000    0.000    5.000   14.000    6.667 
#    0.000    0.000    0.000    0.000    0.000    0.000 
#    0.000    0.000    0.000    0.000    0.000    0.000 
#
# Total GULP energy -133963.234322 kJ/mol
# GULP energy per Si atom -5581.801430 kJ/mol
# Density = 2.451892 g / cm^3
# Si number density = 24.574852 Si / 1000 Ang^3
#
#
#
# Elastic Constant Matrix: (Units=GPa)
#
#
# Indices 1 2 3 4 5 6 
#
# 1 175.3832 14.1723 60.1413 0.0000 0.0000 0.0000
# 2 14.1723 71.6009 -13.8623 0.0000 0.0000 0.0000
# 3 60.1413 -13.8623 209.2338 0.0000 0.0000 0.0000
# 4 0.0000 0.0000 0.0000 19.4969 0.0000 0.0000
# 5 0.0000 0.0000 0.0000 0.0000 54.0897 0.0000
# 6 0.0000 0.0000 0.0000 0.0000 0.0000 21.3730
#
#
#
# Elastic Compliance Matrix: (Units=1/GPa)
#
#
# Indices 1 2 3 4 5 6 
#
# 1 0.006518 -0.001674 -0.001984 0.000000 0.000000 0.000000
# 2 -0.001674 0.014578 0.001447 0.000000 0.000000 0.000000
# 3 -0.001984 0.001447 0.005446 0.000000 0.000000 0.000000
# 4 0.000000 0.000000 0.000000 0.051290 0.000000 0.000000
# 5 0.000000 0.000000 0.000000 0.000000 0.018488 0.000000
# 6 0.000000 0.000000 0.000000 0.000000 0.000000 0.046788
#
#
# Mechanical properties :
#
#
# Convention : Reuss Voigt Hill
#
# Bulk Modulus (GPa) = 45.21198 64.12450 54.66824
# Shear Modulus (GPa) = 32.27835 45.37636 38.82736
#
# Velocity S-wave (km/s) = 3.62812 4.30170 3.97919
# Velocity P-wave (km/s) = 5.99905 7.12903 6.58831
#
# Compressibility (1/GPa) = 0.02211803
#
# Stress axis : x y z
#
# Youngs Moduli (GPa) = 153.43231 68.59723 183.63553
#
# Poissons Ratio (x) = 0.11485 0.36439
# Poissons Ratio (y) = 0.25688 -0.26573
# Poissons Ratio (z) = 0.30445 -0.09926
#
# Static dielectric constant tensor:
#      x y z
#    x 2.132930 0.000000 0.000000 
#    y 0.000000 1.932160 0.000000 
#    z 0.000000 0.000000 1.927830 
# 
# From -- ./inp_files/1546.got.cif
#   From: 2010.05.17/outbox.cif.g08.bks.cpg/sg50_1_cif.got.tgz:1546.got - 2010.06.03 11:33:33.
