data_PCOD9397677
_publ_section_title
;
Structure prediction by ZEFSAII (Michael W. Deem and Ramdas Pophale) SiO2 
 PCOD9397677
Probable space group: P B A N
;
_chemical_formula_sum "Si O2"
_cell_formula_units_Z 58
_cell_length_a 25.347166
_cell_length_b 10.152117
_cell_length_c 10.851032
_cell_angle_alpha 90.000000
_cell_angle_beta 90.000000
_cell_angle_gamma 90.000000
_cell_volume 2792.267796
_symmetry_space_group_name_H-M "P B A N"
_symmetry_group_IT_number 50
_space_group.IT_coordinate_system_code '2'
_symmetry_cell_setting 'orthorhombic'
loop_
_space_group_symop_operation_xyz
x,y,z
1/2-x,1/2-y,z
x,1/2-y,-z
1/2-x,y,-z
-x,-y,-z
1/2+x,1/2+y,-z
-x,1/2+y,z
1/2+x,-y,z
loop_
_atom_site_type_symbol
_atom_site_label
_atom_site_fract_x
_atom_site_fract_y
_atom_site_fract_z
Si Si1 0.941179 0.467028 0.546405
Si Si2 0.250000 0.250000 0.500000
Si Si3 0.930618 0.645559 0.148217
Si Si4 0.808359 0.227192 0.353344
Si Si5 0.096314 0.896162 0.287624
Si Si6 0.836447 0.578562 0.649895
Si Si7 0.951811 0.345046 0.815694
Si Si8 0.389583 0.410952 0.888249
O O1 0.919266 0.386465 0.430567
O O2 0.894767 0.574481 0.581674
O O3 0.950746 0.389011 0.672666
O O4 0.000000 0.500000 0.500000
O O5 0.209324 0.340947 0.420172
O O6 0.910129 0.549268 0.254213
O O7 0.930270 0.802612 0.167508
O O8 0.992184 0.618708 0.125688
O O9 0.892297 0.617184 0.032933
O O10 0.750000 0.250000 0.306310
O O11 0.809146 0.250000 0.500000
O O12 0.847053 0.327567 0.284996
O O13 0.823505 0.075634 0.342493
O O14 0.061329 0.809298 0.193183
O O15 0.842094 0.617821 0.794046
O O16 0.908038 0.438946 0.874709
#
# Coordination Sequence:
#
# PCOD9397677 Si02
#       8
#     8   2   8   8   8   8   8   8
#     4  11  22  39  61 102 147 175 213 278 360 418
#     4  12  28  44  74 106 136 184 240 284 358 424
#     4  11  24  38  64  89 131 184 227 263 334 411
#     4  11  21  39  67  92 128 162 216 284 349 396
#     4  12  22  39  65  99 130 179 226 273 346 419
#     4  11  25  44  65 102 136 174 226 286 339 419
#     4  11  21  39  60  94 134 176 223 275 331 408
#     4  10  24  44  58  90 136 172 224 283 328 394
#
# _framework density 20.771646
#
# number of rings (size 3 to 8) (size 9 to 14) (size 15 to 20)
#    0.000    0.966    5.517    2.483    3.862    1.655 
#    0.000    0.000    0.000    6.621    0.000    0.000 
#    0.000    0.000    0.000    0.000    0.000    0.000 
#
# Total GULP energy -323018.322861 kJ/mol
# GULP energy per Si atom -5569.281429 kJ/mol
# Density = 2.072437 g / cm^3
# Si number density = 20.771646 Si / 1000 Ang^3
#
#
#
# Elastic Constant Matrix: (Units=GPa)
#
#
# Indices 1 2 3 4 5 6 
#
# 1 123.7707 6.7662 21.0430 0.0000 0.0000 0.0000
# 2 6.7662 30.8247 3.3987 0.0000 0.0000 0.0000
# 3 21.0430 3.3987 65.8258 0.0000 0.0000 0.0000
# 4 0.0000 0.0000 0.0000 28.9115 0.0000 0.0000
# 5 0.0000 0.0000 0.0000 0.0000 14.5848 0.0000
# 6 0.0000 0.0000 0.0000 0.0000 0.0000 20.7255
#
#
#
# Elastic Compliance Matrix: (Units=1/GPa)
#
#
# Indices 1 2 3 4 5 6 
#
# 1 0.008621 -0.001598 -0.002674 0.000000 0.000000 0.000000
# 2 -0.001598 0.032923 -0.001189 0.000000 0.000000 0.000000
# 3 -0.002674 -0.001189 0.016108 0.000000 0.000000 0.000000
# 4 0.000000 0.000000 0.000000 0.034588 0.000000 0.000000
# 5 0.000000 0.000000 0.000000 0.000000 0.068564 0.000000
# 6 0.000000 0.000000 0.000000 0.000000 0.000000 0.048250
#
#
# Mechanical properties :
#
#
# Convention : Reuss Voigt Hill
#
# Bulk Modulus (GPa) = 21.39879 31.42635 26.41257
# Shear Modulus (GPa) = 21.22665 25.45857 23.34261
#
# Velocity S-wave (km/s) = 3.20019 3.50471 3.35591
# Velocity P-wave (km/s) = 4.89686 5.61602 5.26872
#
# Compressibility (1/GPa) = 0.04673161
#
# Stress axis : x y z
#
# Youngs Moduli (GPa) = 115.99120 30.37360 62.08213
#
# Poissons Ratio (x) = 0.04853 0.16598
# Poissons Ratio (y) = 0.18531 0.07383
# Poissons Ratio (z) = 0.31011 0.03612
#
# Static dielectric constant tensor:
#      x y z
#    x 1.629570 0.000000 0.000000 
#    y 0.000000 1.842160 0.000000 
#    z 0.000000 0.000000 1.772010 
# 
# From -- ./inp_files/23177.got.cif
#   From: 2010.05.17/outbox.cif.g08.bks.cpg/sg50_12_cif.got.tgz:23177.got - 2010.06.03 11:33:33.
