data_PCOD9397043
_publ_section_title
;
Structure prediction by ZEFSAII (Michael W. Deem and Ramdas Pophale) SiO2 
 PCOD9397043
Probable space group: P B A N
;
_chemical_formula_sum "Si O2"
_cell_formula_units_Z 64
_cell_length_a 9.195987
_cell_length_b 26.416787
_cell_length_c 12.329464
_cell_angle_alpha 90.000000
_cell_angle_beta 90.000000
_cell_angle_gamma 90.000000
_cell_volume 2995.177330
_symmetry_space_group_name_H-M "P B A N"
_symmetry_group_IT_number 50
_space_group.IT_coordinate_system_code '2'
_symmetry_cell_setting 'orthorhombic'
loop_
_space_group_symop_operation_xyz
x,y,z
1/2-x,1/2-y,z
x,1/2-y,-z
1/2-x,y,-z
-x,-y,-z
1/2+x,1/2+y,-z
-x,1/2+y,z
1/2+x,-y,z
loop_
_atom_site_type_symbol
_atom_site_label
_atom_site_fract_x
_atom_site_fract_y
_atom_site_fract_z
Si Si1 0.077847 0.610691 0.619831
Si Si2 0.524262 0.607200 0.616721
Si Si3 0.677148 0.698765 0.883483
Si Si4 0.296669 0.571183 0.787449
Si Si5 0.372750 0.474822 0.921646
Si Si6 0.161901 0.677949 0.107267
Si Si7 0.192144 0.109575 0.745846
Si Si8 0.693227 0.195504 0.646534
O O1 0.160309 0.574241 0.705227
O O2 0.193204 0.654691 0.602997
O O3 0.021896 0.590625 0.504338
O O4 0.941530 0.633588 0.682291
O O5 0.431717 0.577161 0.706191
O O6 0.689347 0.595866 0.652557
O O7 0.463619 0.666477 0.627420
O O8 0.750000 0.750000 0.835935
O O9 0.504113 0.696694 0.900067
O O10 0.721867 0.650465 0.814921
O O11 0.750000 0.693673 0.000000
O O12 0.303328 0.521382 0.857008
O O13 0.314972 0.617723 0.871667
O O14 0.381103 0.431918 0.827048
O O15 0.250000 0.452705 0.000000
O O16 0.500000 0.500000 0.000000
O O17 0.214226 0.697160 0.223618
O O18 0.250000 0.691982 0.000000
O O19 0.750000 0.250000 0.609228
#
# Coordination Sequence:
#
# PCOD9397043 Si02
#       8
#     8   8   8   8   8   8   8   8
#     4  10  23  39  66  91 125 171 217 271 335 395
#     4  10  21  44  64  90 128 170 216 278 336 389
#     4  11  26  41  63  93 135 180 216 269 342 400
#     4  10  21  43  64  95 127 167 221 269 322 392
#     4  12  26  42  68  99 131 173 217 264 332 401
#     4  10  22  41  66  90 130 173 221 268 322 405
#     4  12  24  43  65  95 135 168 215 273 333 397
#     4  10  22  39  63  93 125 168 223 280 329 392
#
# _framework density 21.367683
#
# number of rings (size 3 to 8) (size 9 to 14) (size 15 to 20)
#    0.000    1.625    2.500    4.125    7.000    2.250 
#    0.000    3.750    0.000    2.250    0.000    0.000 
#    0.000    0.000    0.000    0.000    0.000    0.000 
#
# Total GULP energy -356360.255183 kJ/mol
# GULP energy per Si atom -5568.128987 kJ/mol
# Density = 2.131905 g / cm^3
# Si number density = 21.367683 Si / 1000 Ang^3
#
#
#
# Elastic Constant Matrix: (Units=GPa)
#
#
# Indices 1 2 3 4 5 6 
#
# 1 116.3979 7.3495 66.5521 0.0000 0.0000 0.0000
# 2 7.3495 62.7900 30.0670 0.0000 0.0000 0.0000
# 3 66.5521 30.0670 129.5790 0.0000 0.0000 0.0000
# 4 0.0000 0.0000 0.0000 73.4601 0.0000 0.0000
# 5 0.0000 0.0000 0.0000 0.0000 -20.6171 0.0000
# 6 0.0000 0.0000 0.0000 0.0000 0.0000 12.5208
#
#
#
# Elastic Compliance Matrix: (Units=1/GPa)
#
#
# Indices 1 2 3 4 5 6 
#
# 1 0.012339 0.001789 -0.006753 0.000000 0.000000 0.000000
# 2 0.001789 0.018176 -0.005136 0.000000 0.000000 0.000000
# 3 -0.006753 -0.005136 0.012377 0.000000 0.000000 0.000000
# 4 0.000000 0.000000 0.000000 0.013613 0.000000 0.000000
# 5 0.000000 0.000000 0.000000 0.000000 -0.048503 0.000000
# 6 0.000000 0.000000 0.000000 0.000000 0.000000 0.079867
#
#
# Mechanical properties :
#
#
# Convention : Reuss Voigt Hill
#
# Bulk Modulus (GPa) = 44.06652 57.41158 50.73905
# Shear Modulus (GPa) = 43.24004 26.72597 34.98300
#
# Velocity S-wave (km/s) = 4.50335 3.54045 4.05061
# Velocity P-wave (km/s) = 6.90709 6.60604 6.75824
#
# Compressibility (1/GPa) = 0.02269297
#
# Stress axis : x y z
#
# Youngs Moduli (GPa) = 81.04308 55.01672 80.79319
#
# Poissons Ratio (x) = -0.09844 0.54556
# Poissons Ratio (y) = -0.14500 0.41499
# Poissons Ratio (z) = 0.54725 0.28259
#
# Static dielectric constant tensor:
#      x y z
#    x 1.735280 0.000000 0.000000 
#    y 0.000000 1.849290 0.000000 
#    z 0.000000 0.000000 1.805890 
# 
# From -- ./inp_files/19524.got.cif
#   From: 2010.05.17/outbox.cif.g08.bks.cpg/sg50_10_cif.got.tgz:19524.got - 2010.06.03 11:33:33.
