data_PCOD9397858
_publ_section_title
;
Structure prediction by ZEFSAII (Michael W. Deem and Ramdas Pophale) SiO2 
 PCOD9397858
Probable space group: P B A N
;
_chemical_formula_sum "Si O2"
_cell_formula_units_Z 58
_cell_length_a 9.102075
_cell_length_b 18.349436
_cell_length_c 17.923269
_cell_angle_alpha 90.000000
_cell_angle_beta 90.000000
_cell_angle_gamma 90.000000
_cell_volume 2993.507514
_symmetry_space_group_name_H-M "P B A N"
_symmetry_group_IT_number 50
_space_group.IT_coordinate_system_code '2'
_symmetry_cell_setting 'orthorhombic'
loop_
_space_group_symop_operation_xyz
x,y,z
1/2-x,1/2-y,z
x,1/2-y,-z
1/2-x,y,-z
-x,-y,-z
1/2+x,1/2+y,-z
-x,1/2+y,z
1/2+x,-y,z
loop_
_atom_site_type_symbol
_atom_site_label
_atom_site_fract_x
_atom_site_fract_y
_atom_site_fract_z
Si Si1 0.139058 0.083785 0.260784
Si Si2 0.622642 0.528588 0.057212
Si Si3 0.189910 0.943265 0.795641
Si Si4 0.877861 0.299918 0.227786
Si Si5 0.211356 0.139481 0.416349
Si Si6 0.175610 0.322109 0.146390
Si Si7 0.250000 0.750000 0.500000
Si Si8 0.002697 0.776333 0.391103
O O1 0.150522 0.090861 0.349822
O O2 0.214040 0.148607 0.211896
O O3 0.969330 0.075671 0.237896
O O4 0.235769 0.014499 0.238822
O O5 0.658865 0.466444 0.118560
O O6 0.621081 0.606791 0.099747
O O7 0.750000 0.540315 0.000000
O O8 0.500000 0.500000 0.000000
O O9 0.306838 0.879921 0.778504
O O10 0.750000 0.250000 0.196055
O O11 0.026810 0.294884 0.183317
O O12 0.921241 0.272542 0.310635
O O13 0.250000 0.113399 0.500000
O O14 0.089529 0.204840 0.418523
O O15 0.370317 0.166560 0.387344
O O16 0.250000 0.250000 0.109765
O O17 0.363402 0.706865 0.447176
#
# Coordination Sequence:
#
# PCOD9397858 Si02
#       8
#     8   8   8   8   8   8   2   8
#     4  11  23  40  65  88 129 177 219 272 328 395
#     4  11  23  43  70  95 128 173 217 265 337 418
#     4  11  24  43  65  96 127 167 221 268 330 409
#     4  12  23  37  64  95 127 164 218 275 326 385
#     4  11  21  39  59  90 127 172 215 264 334 388
#     4  11  22  40  64  98 132 170 220 273 329 396
#     4  12  20  34  56  96 132 166 214 268 338 370
#     4  11  21  34  59  89 127 163 212 268 318 389
#
# _framework density 19.375264000000001
#
# number of rings (size 3 to 8) (size 9 to 14) (size 15 to 20)
#    0.000    0.828    3.448    7.034    0.000    0.276 
#    0.000    0.690    1.517    2.897    0.000    0.000 
#    0.000    0.000    0.000    0.000    0.000    0.000 
#
# Total GULP energy -323109.197211 kJ/mol
# GULP energy per Si atom -5570.848228 kJ/mol
# Density = 1.933116 g / cm^3
# Si number density = 19.375264 Si / 1000 Ang^3
#
#
#
# Elastic Constant Matrix: (Units=GPa)
#
#
# Indices 1 2 3 4 5 6 
#
# 1 120.3544 24.3356 19.7662 0.0000 0.0000 0.0000
# 2 24.3356 66.4816 19.8096 0.0000 0.0000 0.0000
# 3 19.7662 19.8096 101.4707 0.0000 0.0000 0.0000
# 4 0.0000 0.0000 0.0000 -4.5336 0.0000 0.0000
# 5 0.0000 0.0000 0.0000 0.0000 199.3263 0.0000
# 6 0.0000 0.0000 0.0000 0.0000 0.0000 28.1637
#
#
#
# Elastic Compliance Matrix: (Units=1/GPa)
#
#
# Indices 1 2 3 4 5 6 
#
# 1 0.009107 -0.002978 -0.001193 0.000000 0.000000 0.000000
# 2 -0.002978 0.016945 -0.002728 0.000000 0.000000 0.000000
# 3 -0.001193 -0.002728 0.010620 0.000000 0.000000 0.000000
# 4 0.000000 0.000000 0.000000 -0.220574 0.000000 0.000000
# 5 0.000000 0.000000 0.000000 0.000000 0.005017 0.000000
# 6 0.000000 0.000000 0.000000 0.000000 0.000000 0.035507
#
#
# Mechanical properties :
#
#
# Convention : Reuss Voigt Hill
#
# Bulk Modulus (GPa) = 43.71737 46.23659 44.97698
# Shear Modulus (GPa) = -40.99799 59.55096 9.27648
#
# Velocity S-wave (km/s) = -4.60499 5.54998 2.19048
# Velocity P-wave (km/s) = 2.37951 8.06134 5.44625
#
# Compressibility (1/GPa) = 0.02287420
#
# Stress axis : x y z
#
# Youngs Moduli (GPa) = 109.80748 59.01525 94.16265
#
# Poissons Ratio (x) = 0.17576 0.11229
# Poissons Ratio (y) = 0.32703 0.25687
# Poissons Ratio (z) = 0.13095 0.16099
#
# Static dielectric constant tensor:
#      x y z
#    x 1.624880 0.000000 0.000000 
#    y 0.000000 1.636080 0.000000 
#    z 0.000000 0.000000 1.697370 
# 
# From -- ./inp_files/28888.got.cif
#   From: 2010.05.17/outbox.cif.g08.bks.cpg/sg50_15_cif.got.tgz:28888.got - 2010.06.03 11:33:33.
