data_PCOD9397407
_publ_section_title
;
Structure prediction by ZEFSAII (Michael W. Deem and Ramdas Pophale) SiO2 
 PCOD9397407
Probable space group: P B A N
;
_chemical_formula_sum "Si O2"
_cell_formula_units_Z 18
_cell_length_a 7.631228
_cell_length_b 17.064113
_cell_length_c 5.459304
_cell_angle_alpha 90.000000
_cell_angle_beta 90.000000
_cell_angle_gamma 90.000000
_cell_volume 710.911314
_symmetry_space_group_name_H-M "P B A N"
_symmetry_group_IT_number 50
_space_group.IT_coordinate_system_code '2'
_symmetry_cell_setting 'orthorhombic'
loop_
_space_group_symop_operation_xyz
x,y,z
1/2-x,1/2-y,z
x,1/2-y,-z
1/2-x,y,-z
-x,-y,-z
1/2+x,1/2+y,-z
-x,1/2+y,z
1/2+x,-y,z
loop_
_atom_site_type_symbol
_atom_site_label
_atom_site_fract_x
_atom_site_fract_y
_atom_site_fract_z
Si Si1 0.250000 0.250000 0.000000
Si Si2 0.856301 0.974112 0.744271
Si Si3 0.054692 0.864586 0.056048
O O1 0.394956 0.306709 0.870549
O O2 0.750000 0.961993 0.500000
O O3 0.925608 0.063200 0.755168
O O4 0.750000 0.970355 0.000000
O O5 0.996219 0.906535 0.800865
O O6 0.250000 0.833224 0.000000
#
# Coordination Sequence:
#
# PCOD9397407 Si02
#       3
#     2   8   8
#     4  12  22  48  66 110 154 202 240 316 374 458
#     4  10  22  45  77 111 143 188 252 314 366 441
#     4  10  23  41  74 108 149 197 248 307 380 448
#
# _framework density 25.319614999999999
#
# number of rings (size 3 to 8) (size 9 to 14) (size 15 to 20)
#    0.000    1.778    2.222    0.667    3.111   16.000 
#    0.000    1.111    0.000   10.667    0.000    0.000 
#    0.000    0.000    0.000    0.000    0.000    0.000 
#
# Total GULP energy -100366.087235 kJ/mol
# GULP energy per Si atom -5575.893735 kJ/mol
# Density = 2.526199 g / cm^3
# Si number density = 25.319615 Si / 1000 Ang^3
#
#
#
# Elastic Constant Matrix: (Units=GPa)
#
#
# Indices 1 2 3 4 5 6 
#
# 1 255.6075 78.2976 68.2862 0.0000 0.0000 0.0000
# 2 78.2976 138.0723 23.9043 0.0000 0.0000 0.0000
# 3 68.2862 23.9043 157.6493 0.0000 0.0000 0.0000
# 4 0.0000 0.0000 0.0000 3.3840 0.0000 0.0000
# 5 0.0000 0.0000 0.0000 0.0000 57.3608 0.0000
# 6 0.0000 0.0000 0.0000 0.0000 0.0000 65.2125
#
#
#
# Elastic Compliance Matrix: (Units=1/GPa)
#
#
# Indices 1 2 3 4 5 6 
#
# 1 0.005217 -0.002636 -0.001860 0.000000 0.000000 0.000000
# 2 -0.002636 0.008770 -0.000188 0.000000 0.000000 0.000000
# 3 -0.001860 -0.000188 0.007177 0.000000 0.000000 0.000000
# 4 0.000000 0.000000 0.000000 0.295506 0.000000 0.000000
# 5 0.000000 0.000000 0.000000 0.000000 0.017434 0.000000
# 6 0.000000 0.000000 0.000000 0.000000 0.000000 0.015334
#
#
# Mechanical properties :
#
#
# Convention : Reuss Voigt Hill
#
# Bulk Modulus (GPa) = 84.77475 99.14503 91.95989
# Shear Modulus (GPa) = 13.78407 50.58087 32.18247
#
# Velocity S-wave (km/s) = 2.33578 4.47441 3.56905
# Velocity P-wave (km/s) = 6.38976 8.12011 7.30634
#
# Compressibility (1/GPa) = 0.01179596
#
# Stress axis : x y z
#
# Youngs Moduli (GPa) = 191.69382 114.02423 139.32829
#
# Poissons Ratio (x) = 0.30060 0.25913
# Poissons Ratio (y) = 0.50535 0.02618
# Poissons Ratio (z) = 0.35653 0.02143
#
# Static dielectric constant tensor:
#      x y z
#    x 2.295840 0.000000 0.000000 
#    y 0.000000 2.131490 0.000000 
#    z 0.000000 0.000000 1.967560 
# 
# From -- ./inp_files/620.got.cif
#   From: 2010.05.17/outbox.cif.g08.bks.cpg/sg50_1_cif.got.tgz:620.got - 2010.06.03 11:33:33.
