data_PCOD9397480
_publ_section_title
;
Structure prediction by ZEFSAII (Michael W. Deem and Ramdas Pophale) SiO2 
 PCOD9397480
Probable space group: P B A N
;
_chemical_formula_sum "Si O2"
_cell_formula_units_Z 30
_cell_length_a 12.768899
_cell_length_b 5.419306
_cell_length_c 17.756467
_cell_angle_alpha 90.000000
_cell_angle_beta 90.000000
_cell_angle_gamma 90.000000
_cell_volume 1228.722142
_symmetry_space_group_name_H-M "P B A N"
_symmetry_group_IT_number 50
_space_group.IT_coordinate_system_code '2'
_symmetry_cell_setting 'orthorhombic'
loop_
_space_group_symop_operation_xyz
x,y,z
1/2-x,1/2-y,z
x,1/2-y,-z
1/2-x,y,-z
-x,-y,-z
1/2+x,1/2+y,-z
-x,1/2+y,z
1/2+x,-y,z
loop_
_atom_site_type_symbol
_atom_site_label
_atom_site_fract_x
_atom_site_fract_y
_atom_site_fract_z
Si Si1 0.569350 0.750000 0.000000
Si Si2 0.440707 0.114045 0.591935
Si Si3 0.250000 0.750000 0.222451
Si Si4 0.250000 0.250000 0.500000
Si Si5 0.976273 0.342207 0.756099
Si Si6 0.750000 0.750000 0.876062
O O1 0.648666 0.737741 0.070661
O O2 0.500000 0.500000 0.000000
O O3 0.491191 0.376968 0.570417
O O4 0.326615 0.099284 0.555419
O O5 0.449637 0.133800 0.682906
O O6 0.144239 0.691208 0.267657
O O7 0.262102 0.501024 0.172942
O O8 0.990603 0.597163 0.798713
#
# Coordination Sequence:
#
# PCOD9397480 Si02
#       6
#     4   8   4   2   8   4
#     4  11  24  45  70  98 140 175 208 277 322 360
#     4  10  24  42  63  94 124 161 217 269 330 397
#     4  12  24  41  66  93 134 174 216 274 314 388
#     4  12  24  42  70  92 126 170 216 280 328 392
#     4  10  23  41  62  92 127 168 216 265 327 387
#     4  11  26  42  67 106 129 171 230 254 320 395
#
# _framework density 24.415609
#
# number of rings (size 3 to 8) (size 9 to 14) (size 15 to 20)
#    0.000    1.333    0.000    4.000    0.000   19.200 
#    0.000    0.000    0.000    0.000    0.000    0.000 
#    0.000    0.000    0.000    0.000    0.000    0.000 
#
# Total GULP energy -167735.573089 kJ/mol
# GULP energy per Si atom -5591.185770 kJ/mol
# Density = 2.436004 g / cm^3
# Si number density = 24.415609 Si / 1000 Ang^3
#
#
#
# Elastic Constant Matrix: (Units=GPa)
#
#
# Indices 1 2 3 4 5 6 
#
# 1 170.5821 54.3746 44.5486 0.0000 0.0000 0.0000
# 2 54.3746 241.7256 32.1288 0.0000 0.0000 0.0000
# 3 44.5486 32.1288 91.0112 0.0000 0.0000 0.0000
# 4 0.0000 0.0000 0.0000 38.1665 0.0000 0.0000
# 5 0.0000 0.0000 0.0000 0.0000 45.9449 0.0000
# 6 0.0000 0.0000 0.0000 0.0000 0.0000 38.3381
#
#
#
# Elastic Compliance Matrix: (Units=1/GPa)
#
#
# Indices 1 2 3 4 5 6 
#
# 1 0.007028 -0.001179 -0.003024 0.000000 0.000000 0.000000
# 2 -0.001179 0.004538 -0.001025 0.000000 0.000000 0.000000
# 3 -0.003024 -0.001025 0.012830 0.000000 0.000000 0.000000
# 4 0.000000 0.000000 0.000000 0.026201 0.000000 0.000000
# 5 0.000000 0.000000 0.000000 0.000000 0.021765 0.000000
# 6 0.000000 0.000000 0.000000 0.000000 0.000000 0.026084
#
#
# Mechanical properties :
#
#
# Convention : Reuss Voigt Hill
#
# Bulk Modulus (GPa) = 71.73518 85.04699 78.39108
# Shear Modulus (GPa) = 44.03425 49.30769 46.67097
#
# Velocity S-wave (km/s) = 4.25140 4.49878 4.37684
# Velocity P-wave (km/s) = 7.31737 7.86727 7.59730
#
# Compressibility (1/GPa) = 0.01394016
#
# Stress axis : x y z
#
# Youngs Moduli (GPa) = 142.29283 220.34382 77.94456
#
# Poissons Ratio (x) = 0.25977 0.23569
# Poissons Ratio (y) = 0.16776 0.07990
# Poissons Ratio (z) = 0.43026 0.22587
#
# Static dielectric constant tensor:
#      x y z
#    x 1.949670 0.000000 0.000000 
#    y 0.000000 2.060700 0.000000 
#    z 0.000000 0.000000 1.998820 
# 
# From -- ./inp_files/30186.got.cif
#   From: 2010.05.17/outbox.cif.g08.bks.cpg/sg50_16_cif.got.tgz:30186.got - 2010.06.03 11:33:33.
