data_PCOD9397944
_publ_section_title
;
Structure prediction by ZEFSAII (Michael W. Deem and Ramdas Pophale) SiO2 
 PCOD9397944
Probable space group: P B A N
;
_chemical_formula_sum "Si O2"
_cell_formula_units_Z 48
_cell_length_a 13.693060
_cell_length_b 7.922492
_cell_length_c 18.111047
_cell_angle_alpha 90.000000
_cell_angle_beta 90.000000
_cell_angle_gamma 90.000000
_cell_volume 1964.743579
_symmetry_space_group_name_H-M "P B A N"
_symmetry_group_IT_number 50
_space_group.IT_coordinate_system_code '2'
_symmetry_cell_setting 'orthorhombic'
loop_
_space_group_symop_operation_xyz
x,y,z
1/2-x,1/2-y,z
x,1/2-y,-z
1/2-x,y,-z
-x,-y,-z
1/2+x,1/2+y,-z
-x,1/2+y,z
1/2+x,-y,z
loop_
_atom_site_type_symbol
_atom_site_label
_atom_site_fract_x
_atom_site_fract_y
_atom_site_fract_z
Si Si1 0.113739 0.451807 0.012967
Si Si2 0.282926 0.056407 0.418766
Si Si3 0.414667 0.138842 0.165857
Si Si4 0.439038 0.965834 0.317782
Si Si5 0.147103 0.903242 0.297702
Si Si6 0.135638 0.969140 0.141189
O O1 0.165814 0.545154 0.944501
O O2 0.126028 0.250000 0.000000
O O3 0.132762 0.473050 0.100092
O O4 0.000000 0.500000 0.000000
O O5 0.250000 0.250000 0.411653
O O6 0.250000 0.000363 0.500000
O O7 0.225671 0.948371 0.358313
O O8 0.395628 0.037502 0.394259
O O9 0.381851 0.330458 0.154335
O O10 0.399213 0.073017 0.248006
O O11 0.530928 0.124809 0.150430
O O12 0.402534 0.776529 0.309033
O O13 0.555606 0.970661 0.309541
O O14 0.190219 0.914999 0.215182
#
# Coordination Sequence:
#
# PCOD9397944 Si02
#       6
#     8   8   8   8   8   8
#     4   8  14  22  38  67 104 145 189 236 280 325
#     4  11  25  45  67  90 115 146 187 237 294 353
#     4   9  15  26  45  73 109 149 193 237 282 331
#     4  11  22  38  61  89 121 157 195 236 286 343
#     4  11  22  38  61  89 121 157 195 236 286 343
#     4   9  15  26  45  73 109 149 193 237 282 331
#
# _framework density 24.430668000000001
#
# number of rings (size 3 to 8) (size 9 to 14) (size 15 to 20)
#    0.000    2.167    0.000    6.500    0.000    3.333 
#    0.000    0.000    0.000    1.000    0.000    7.000 
#    0.000    0.000    0.000    0.000    0.000    0.000 
#
# Total GULP energy -268380.761543 kJ/mol
# GULP energy per Si atom -5591.265865 kJ/mol
# Density = 2.437506 g / cm^3
# Si number density = 24.430668 Si / 1000 Ang^3
#
#
#
# Elastic Constant Matrix: (Units=GPa)
#
#
# Indices 1 2 3 4 5 6 
#
# 1 76.0705 1.4429 30.0788 0.0000 0.0000 0.0000
# 2 1.4429 70.8356 14.5003 0.0000 0.0000 0.0000
# 3 30.0788 14.5003 183.5114 0.0000 0.0000 0.0000
# 4 0.0000 0.0000 0.0000 19.6678 0.0000 0.0000
# 5 0.0000 0.0000 0.0000 0.0000 1035.8633 0.0000
# 6 0.0000 0.0000 0.0000 0.0000 0.0000 23.3525
#
#
#
# Elastic Compliance Matrix: (Units=1/GPa)
#
#
# Indices 1 2 3 4 5 6 
#
# 1 0.014059 0.000188 -0.002319 0.000000 0.000000 0.000000
# 2 0.000188 0.014352 -0.001165 0.000000 0.000000 0.000000
# 3 -0.002319 -0.001165 0.005921 0.000000 0.000000 0.000000
# 4 0.000000 0.000000 0.000000 0.050845 0.000000 0.000000
# 5 0.000000 0.000000 0.000000 0.000000 0.000965 0.000000
# 6 0.000000 0.000000 0.000000 0.000000 0.000000 0.042822
#
#
# Mechanical properties :
#
#
# Convention : Reuss Voigt Hill
#
# Bulk Modulus (GPa) = 36.04792 46.94018 41.49405
# Shear Modulus (GPa) = 34.52969 234.73642 134.63305
#
# Velocity S-wave (km/s) = 3.76357 9.81281 7.43154
# Velocity P-wave (km/s) = 5.80286 12.15087 9.52147
#
# Compressibility (1/GPa) = 0.02774085
#
# Stress axis : x y z
#
# Youngs Moduli (GPa) = 71.12784 69.67762 168.87771
#
# Poissons Ratio (x) = -0.01313 0.39168
# Poissons Ratio (y) = -0.01340 0.19673
# Poissons Ratio (z) = 0.16497 0.08117
#
# Static dielectric constant tensor:
#      x y z
#    x 2.140130 0.000000 0.000000 
#    y 0.000000 1.925500 0.000000 
#    z 0.000000 0.000000 1.956470 
# 
# From -- ./inp_files/29654.got.cif
#   From: 2010.05.17/outbox.cif.g08.bks.cpg/sg50_15_cif.got.tgz:29654.got - 2010.06.03 11:33:33.
