data_PCOD9397081
_publ_section_title
;
Structure prediction by ZEFSAII (Michael W. Deem and Ramdas Pophale) SiO2 
 PCOD9397081
Probable space group: P B A N
;
_chemical_formula_sum "Si O2"
_cell_formula_units_Z 60
_cell_length_a 18.629751
_cell_length_b 13.915022
_cell_length_c 11.828024
_cell_angle_alpha 90.000000
_cell_angle_beta 90.000000
_cell_angle_gamma 90.000000
_cell_volume 3066.218818
_symmetry_space_group_name_H-M "P B A N"
_symmetry_group_IT_number 50
_space_group.IT_coordinate_system_code '2'
_symmetry_cell_setting 'orthorhombic'
loop_
_space_group_symop_operation_xyz
x,y,z
1/2-x,1/2-y,z
x,1/2-y,-z
1/2-x,y,-z
-x,-y,-z
1/2+x,1/2+y,-z
-x,1/2+y,z
1/2+x,-y,z
loop_
_atom_site_type_symbol
_atom_site_label
_atom_site_fract_x
_atom_site_fract_y
_atom_site_fract_z
Si Si1 0.600233 0.144384 0.011467
Si Si2 0.981687 0.858806 0.202731
Si Si3 0.293043 0.564476 0.183819
Si Si4 0.629633 0.017530 0.812295
Si Si5 0.468906 0.199863 0.614735
Si Si6 0.750000 0.250000 0.677084
Si Si7 0.876146 0.375490 0.581577
Si Si8 0.907832 0.012681 0.648315
O O1 0.530778 0.156339 0.091624
O O2 0.657220 0.077605 0.075343
O O3 0.632815 0.250000 0.000000
O O4 0.589178 0.097101 0.889376
O O5 0.031989 0.924508 0.285493
O O6 0.911331 0.918577 0.169756
O O7 0.959482 0.765213 0.274206
O O8 0.214075 0.524637 0.161559
O O9 0.286138 0.669885 0.242473
O O10 0.338481 0.502669 0.272363
O O11 0.623780 0.046133 0.681256
O O12 0.441004 0.250000 0.500000
O O13 0.554301 0.188960 0.601318
O O14 0.438709 0.092135 0.622063
O O15 0.807235 0.309458 0.604246
O O16 0.883826 0.428638 0.462586
#
# Coordination Sequence:
#
# PCOD9397081 Si02
#       8
#     8   8   8   8   8   4   8   8
#     4  11  22  39  65  95 127 159 211 266 333 391
#     4  11  23  40  63  92 125 169 213 269 313 375
#     4  10  23  39  62  89 129 169 204 263 328 384
#     4  11  22  39  60  90 127 167 207 257 321 388
#     4  12  22  38  64  90 125 170 218 260 319 375
#     4  10  22  35  59  96 128 162 203 253 340 396
#     4  11  21  38  60  92 132 162 200 265 321 391
#     4  11  23  41  61  94 127 165 216 263 314 389
#
# _framework density 19.568075
#
# number of rings (size 3 to 8) (size 9 to 14) (size 15 to 20)
#    0.000    1.067    2.667    6.000    0.000    3.200 
#    0.000    0.667    0.000    0.800    0.000    0.000 
#    0.000    0.000    0.000    0.000    0.000    0.000 
#
# Total GULP energy -335395.389341 kJ/mol
# GULP energy per Si atom -5589.923156 kJ/mol
# Density = 1.952354 g / cm^3
# Si number density = 19.568075 Si / 1000 Ang^3
#
#
#
# Elastic Constant Matrix: (Units=GPa)
#
#
# Indices 1 2 3 4 5 6 
#
# 1 68.8969 27.1123 22.4186 0.0000 0.0000 0.0000
# 2 27.1123 64.1199 11.9405 0.0000 0.0000 0.0000
# 3 22.4186 11.9405 75.6017 0.0000 0.0000 0.0000
# 4 0.0000 0.0000 0.0000 8.8795 0.0000 0.0000
# 5 0.0000 0.0000 0.0000 0.0000 10.4723 0.0000
# 6 0.0000 0.0000 0.0000 0.0000 0.0000 16.4760
#
#
#
# Elastic Compliance Matrix: (Units=1/GPa)
#
#
# Indices 1 2 3 4 5 6 
#
# 1 0.018754 -0.007103 -0.004439 0.000000 0.000000 0.000000
# 2 -0.007103 0.018759 -0.000856 0.000000 0.000000 0.000000
# 3 -0.004439 -0.000856 0.014679 0.000000 0.000000 0.000000
# 4 0.000000 0.000000 0.000000 0.112619 0.000000 0.000000
# 5 0.000000 0.000000 0.000000 0.000000 0.095490 0.000000
# 6 0.000000 0.000000 0.000000 0.000000 0.000000 0.060694
#
#
# Mechanical properties :
#
#
# Convention : Reuss Voigt Hill
#
# Bulk Modulus (GPa) = 36.50459 36.84014 36.67236
# Shear Modulus (GPa) = 14.08747 16.97536 15.53141
#
# Velocity S-wave (km/s) = 2.68604 2.94854 2.82035
# Velocity P-wave (km/s) = 5.32123 5.51900 5.42101
#
# Compressibility (1/GPa) = 0.02739381
#
# Stress axis : x y z
#
# Youngs Moduli (GPa) = 53.32111 53.30838 68.12483
#
# Poissons Ratio (x) = 0.37866 0.30244
# Poissons Ratio (y) = 0.37876 0.05834
# Poissons Ratio (z) = 0.23672 0.04565
#
# Static dielectric constant tensor:
#      x y z
#    x 1.696550 0.000000 0.000000 
#    y 0.000000 1.674590 0.000000 
#    z 0.000000 0.000000 1.746760 
# 
# From -- ./inp_files/22442.got.cif
#   From: 2010.05.17/outbox.cif.g08.bks.cpg/sg50_12_cif.got.tgz:22442.got - 2010.06.03 11:33:33.
