data_PCOD9397416
_publ_section_title
;
Structure prediction by ZEFSAII (Michael W. Deem and Ramdas Pophale) SiO2 
 PCOD9397416
Probable space group: P B A N
;
_chemical_formula_sum "Si O2"
_cell_formula_units_Z 32
_cell_length_a 11.146488
_cell_length_b 20.974363
_cell_length_c 6.102585
_cell_angle_alpha 90.000000
_cell_angle_beta 90.000000
_cell_angle_gamma 90.000000
_cell_volume 1426.726310
_symmetry_space_group_name_H-M "P B A N"
_symmetry_group_IT_number 50
_space_group.IT_coordinate_system_code '2'
_symmetry_cell_setting 'orthorhombic'
loop_
_space_group_symop_operation_xyz
x,y,z
1/2-x,1/2-y,z
x,1/2-y,-z
1/2-x,y,-z
-x,-y,-z
1/2+x,1/2+y,-z
-x,1/2+y,z
1/2+x,-y,z
loop_
_atom_site_type_symbol
_atom_site_label
_atom_site_fract_x
_atom_site_fract_y
_atom_site_fract_z
Si Si1 0.092958 0.643868 0.701812
Si Si2 0.619186 0.630421 0.972074
Si Si3 0.750000 0.250000 0.500000
Si Si4 0.053238 0.549397 0.326400
Si Si5 0.250000 0.550364 0.000000
Si Si6 0.250000 0.250000 0.000000
O O1 0.163206 0.708922 0.658226
O O2 0.096383 0.609228 0.468038
O O3 0.164727 0.596967 0.861234
O O4 0.960847 0.646391 0.812755
O O5 0.661283 0.700086 0.876861
O O6 0.750000 0.600707 0.000000
O O7 0.546506 0.580782 0.827299
O O8 0.000000 0.500000 0.500000
O O9 0.159382 0.520352 0.178646
#
# Coordination Sequence:
#
# PCOD9397416 Si02
#       6
#     8   8   2   8   4   2
#     4  11  24  43  66 112 139 190 239 302 377 440
#     4   9  23  44  69 105 143 196 237 308 378 444
#     4  12  24  38  76 110 146 184 244 318 376 460
#     4  11  24  47  72 106 148 194 257 304 378 460
#     4  10  22  47  67 104 143 187 244 300 376 426
#     4   8  20  44  64 106 142 186 248 294 380 460
#
# _framework density 22.428965999999999
#
# number of rings (size 3 to 8) (size 9 to 14) (size 15 to 20)
#    0.750    1.000    2.500    0.000    3.500    5.500 
#   13.500    1.250    0.000    0.000    0.000    0.000 
#    0.000    0.000    0.000    0.000    0.000    0.000 
#
# Total GULP energy -178376.167120 kJ/mol
# GULP energy per Si atom -5574.255222 kJ/mol
# Density = 2.237792 g / cm^3
# Si number density = 22.428966 Si / 1000 Ang^3
#
#
#
# Elastic Constant Matrix: (Units=GPa)
#
#
# Indices 1 2 3 4 5 6 
#
# 1 177.5519 55.6862 78.8875 0.0000 0.0000 0.0000
# 2 55.6862 104.5359 39.6589 0.0000 0.0000 0.0000
# 3 78.8875 39.6589 105.0214 0.0000 0.0000 0.0000
# 4 0.0000 0.0000 0.0000 172.9613 0.0000 0.0000
# 5 0.0000 0.0000 0.0000 0.0000 29.2052 0.0000
# 6 0.0000 0.0000 0.0000 0.0000 0.0000 30.5675
#
#
#
# Elastic Compliance Matrix: (Units=1/GPa)
#
#
# Indices 1 2 3 4 5 6 
#
# 1 0.009025 -0.002609 -0.005794 0.000000 0.000000 0.000000
# 2 -0.002609 0.011920 -0.002541 0.000000 0.000000 0.000000
# 3 -0.005794 -0.002541 0.014833 0.000000 0.000000 0.000000
# 4 0.000000 0.000000 0.000000 0.005782 0.000000 0.000000
# 5 0.000000 0.000000 0.000000 0.000000 0.034241 0.000000
# 6 0.000000 0.000000 0.000000 0.000000 0.000000 0.032714
#
#
# Mechanical properties :
#
#
# Convention : Reuss Voigt Hill
#
# Bulk Modulus (GPa) = 71.99566 81.73047 76.86306
# Shear Modulus (GPa) = 37.02786 60.73859 48.88322
#
# Velocity S-wave (km/s) = 4.06753 5.20953 4.67354
# Velocity P-wave (km/s) = 7.36402 8.52669 7.96659
#
# Compressibility (1/GPa) = 0.01388973
#
# Stress axis : x y z
#
# Youngs Moduli (GPa) = 110.80728 83.89062 67.41550
#
# Poissons Ratio (x) = 0.21891 0.39057
# Poissons Ratio (y) = 0.28915 0.17132
# Poissons Ratio (z) = 0.64197 0.21319
#
# Static dielectric constant tensor:
#      x y z
#    x 1.893210 0.000000 0.000000 
#    y 0.000000 2.018580 0.000000 
#    z 0.000000 0.000000 1.808970 
# 
# From -- ./inp_files/2078.got.cif
#   From: 2010.05.17/outbox.cif.g08.bks.cpg/sg50_2_cif.got.tgz:2078.got - 2010.06.03 11:33:33.
