data_PCOD9397914
_publ_section_title
;
Structure prediction by ZEFSAII (Michael W. Deem and Ramdas Pophale) SiO2 
 PCOD9397914
Probable space group: P B A N
;
_chemical_formula_sum "Si O2"
_cell_formula_units_Z 48
_cell_length_a 16.640315
_cell_length_b 14.583170
_cell_length_c 9.947852
_cell_angle_alpha 90.000000
_cell_angle_beta 90.000000
_cell_angle_gamma 90.000000
_cell_volume 2414.030746
_symmetry_space_group_name_H-M "P B A N"
_symmetry_group_IT_number 50
_space_group.IT_coordinate_system_code '2'
_symmetry_cell_setting 'orthorhombic'
loop_
_space_group_symop_operation_xyz
x,y,z
1/2-x,1/2-y,z
x,1/2-y,-z
1/2-x,y,-z
-x,-y,-z
1/2+x,1/2+y,-z
-x,1/2+y,z
1/2+x,-y,z
loop_
_atom_site_type_symbol
_atom_site_label
_atom_site_fract_x
_atom_site_fract_y
_atom_site_fract_z
Si Si1 0.885460 0.750000 0.000000
Si Si2 0.070897 0.550943 0.588967
Si Si3 0.956665 0.803532 0.736810
Si Si4 0.431497 0.750000 0.500000
Si Si5 0.698478 0.609030 0.630472
Si Si6 0.694648 0.930282 0.891377
Si Si7 0.979692 0.498174 0.841427
O O1 0.940712 0.748575 0.870452
O O2 0.834375 0.657879 0.979537
O O3 0.101966 0.646681 0.524056
O O4 0.146069 0.482345 0.601304
O O5 0.000000 0.500000 0.500000
O O6 0.030651 0.561538 0.737746
O O7 0.869824 0.818162 0.668970
O O8 0.013761 0.759849 0.630059
O O9 0.994784 0.899161 0.785143
O O10 0.750000 0.632260 0.500000
O O11 0.754422 0.596605 0.760658
O O12 0.614856 0.980413 0.838430
O O13 0.750000 0.983846 0.000000
O O14 0.000000 0.500000 0.000000
#
# Coordination Sequence:
#
# PCOD9397914 Si02
#       7
#     4   8   8   4   8   8   8
#     4  12  23  42  58 100 137 166 216 268 337 410
#     4  11  22  45  63  94 130 170 230 263 326 396
#     4  11  25  41  64  99 125 175 221 266 336 387
#     4  12  24  42  72  94 128 174 232 288 306 392
#     4  11  24  40  62  92 129 172 208 263 336 395
#     4  12  23  39  63  92 133 169 203 273 332 393
#     4  11  21  42  67  89 128 173 217 262 319 404
#
# _framework density 19.883756000000002
#
# number of rings (size 3 to 8) (size 9 to 14) (size 15 to 20)
#    0.000    0.667    6.667    3.250    2.333    0.000 
#    0.000    0.417    0.000    0.000    0.000    0.000 
#    0.000    0.000    0.000    0.000    0.000    0.000 
#
# Total GULP energy -267828.441022 kJ/mol
# GULP energy per Si atom -5579.759188 kJ/mol
# Density = 1.983850 g / cm^3
# Si number density = 19.883756 Si / 1000 Ang^3
#
#
#
# Elastic Constant Matrix: (Units=GPa)
#
#
# Indices 1 2 3 4 5 6 
#
# 1 56.1761 -3.9285 13.2143 0.0000 0.0000 0.0000
# 2 -3.9285 39.9038 10.4255 0.0000 0.0000 0.0000
# 3 13.2143 10.4255 132.3054 0.0000 0.0000 0.0000
# 4 0.0000 0.0000 0.0000 33.6487 0.0000 0.0000
# 5 0.0000 0.0000 0.0000 0.0000 39.2784 0.0000
# 6 0.0000 0.0000 0.0000 0.0000 0.0000 -24.1823
#
#
#
# Elastic Compliance Matrix: (Units=1/GPa)
#
#
# Indices 1 2 3 4 5 6 
#
# 1 0.018442 0.002345 -0.002027 0.000000 0.000000 0.000000
# 2 0.002345 0.025885 -0.002274 0.000000 0.000000 0.000000
# 3 -0.002027 -0.002274 0.007940 0.000000 0.000000 0.000000
# 4 0.000000 0.000000 0.000000 0.029719 0.000000 0.000000
# 5 0.000000 0.000000 0.000000 0.000000 0.025459 0.000000
# 6 0.000000 0.000000 0.000000 0.000000 0.000000 -0.041352
#
#
# Mechanical properties :
#
#
# Convention : Reuss Voigt Hill
#
# Bulk Modulus (GPa) = 20.67999 29.75643 25.21821
# Shear Modulus (GPa) = 58.05694 23.66057 40.85876
#
# Velocity S-wave (km/s) = 5.40940 3.45330 4.53800
# Velocity P-wave (km/s) = 7.03125 5.55860 6.33784
#
# Compressibility (1/GPa) = 0.04835591
#
# Stress axis : x y z
#
# Youngs Moduli (GPa) = 54.22433 38.63207 125.94658
#
# Poissons Ratio (x) = -0.09060 0.25526
# Poissons Ratio (y) = -0.12716 0.28639
# Poissons Ratio (z) = 0.10990 0.08785
#
# Static dielectric constant tensor:
#      x y z
#    x 1.694410 0.000000 0.000000 
#    y 0.000000 1.841320 0.000000 
#    z 0.000000 0.000000 -4.230720 
# 
# From -- ./inp_files/13036.got.cif
#   From: 2010.05.17/outbox.cif.g08.bks.cpg/sg50_7_cif.got.tgz:13036.got - 2010.06.03 11:33:33.
