data_PCOD9397623
_publ_section_title
;
Structure prediction by ZEFSAII (Michael W. Deem and Ramdas Pophale) SiO2 
 PCOD9397623
Probable space group: P B A N
;
_chemical_formula_sum "Si O2"
_cell_formula_units_Z 48
_cell_length_a 19.499267
_cell_length_b 12.597798
_cell_length_c 9.285110
_cell_angle_alpha 90.000000
_cell_angle_beta 90.000000
_cell_angle_gamma 90.000000
_cell_volume 2280.867093
_symmetry_space_group_name_H-M "P B A N"
_symmetry_group_IT_number 50
_space_group.IT_coordinate_system_code '2'
_symmetry_cell_setting 'orthorhombic'
loop_
_space_group_symop_operation_xyz
x,y,z
1/2-x,1/2-y,z
x,1/2-y,-z
1/2-x,y,-z
-x,-y,-z
1/2+x,1/2+y,-z
-x,1/2+y,z
1/2+x,-y,z
loop_
_atom_site_type_symbol
_atom_site_label
_atom_site_fract_x
_atom_site_fract_y
_atom_site_fract_z
Si Si1 0.041630 0.373607 0.750304
Si Si2 0.298149 0.002171 0.111195
Si Si3 0.541151 0.250000 0.000000
Si Si4 0.247616 0.624829 0.668192
Si Si5 0.172048 0.351830 0.899545
Si Si6 0.904187 0.393754 0.251098
Si Si7 0.534030 0.250000 0.500000
O O1 0.120165 0.335756 0.771361
O O2 0.048409 0.501238 0.748764
O O3 0.009732 0.325934 0.605380
O O4 0.002863 0.323257 0.889250
O O5 0.245993 0.101047 0.147377
O O6 0.310010 0.932781 0.249078
O O7 0.250000 0.936148 0.000000
O O8 0.354848 0.055444 0.010981
O O9 0.583809 0.174253 0.106730
O O10 0.250000 0.750000 0.693578
O O11 0.250000 0.604621 0.500000
O O12 0.175959 0.580117 0.728869
O O13 0.174387 0.250000 0.000000
O O14 0.922272 0.321392 0.389801
#
# Coordination Sequence:
#
# PCOD9397623 Si02
#       7
#     8   8   4   8   8   8   4
#     4  11  20  40  62  91 123 159 202 250 301 363
#     4   8  18  35  56  86 107 154 195 234 303 346
#     4  10  24  38  67  93 116 158 210 252 306 354
#     4  11  23  39  58  84 120 159 197 244 302 367
#     4   9  17  35  61  83 120 151 186 251 298 345
#     4  11  22  44  61  88 127 158 201 260 300 357
#     4  10  24  38  61  90 123 170 200 240 306 366
#
# _framework density 21.044627999999999
#
# number of rings (size 3 to 8) (size 9 to 14) (size 15 to 20)
#    1.000    0.833    2.500    3.000    0.000    3.000 
#    3.000    1.667    0.000    1.000    0.000    0.000 
#    0.000    0.000    0.000    0.000    0.000    0.000 
#
# Total GULP energy -267280.015948 kJ/mol
# GULP energy per Si atom -5568.333666 kJ/mol
# Density = 2.099673 g / cm^3
# Si number density = 21.044628 Si / 1000 Ang^3
#
#
#
# Elastic Constant Matrix: (Units=GPa)
#
#
# Indices 1 2 3 4 5 6 
#
# 1 45.3880 8.1097 18.3112 0.0000 0.0000 0.0000
# 2 8.1097 97.0345 58.6068 0.0000 0.0000 0.0000
# 3 18.3112 58.6068 110.9932 0.0000 0.0000 0.0000
# 4 0.0000 0.0000 0.0000 28.9471 0.0000 0.0000
# 5 0.0000 0.0000 0.0000 0.0000 16.3119 0.0000
# 6 0.0000 0.0000 0.0000 0.0000 0.0000 15.8644
#
#
#
# Elastic Compliance Matrix: (Units=1/GPa)
#
#
# Indices 1 2 3 4 5 6 
#
# 1 0.023624 0.000557 -0.004192 0.000000 0.000000 0.000000
# 2 0.000557 0.015144 -0.008088 0.000000 0.000000 0.000000
# 3 -0.004192 -0.008088 0.013972 0.000000 0.000000 0.000000
# 4 0.000000 0.000000 0.000000 0.034546 0.000000 0.000000
# 5 0.000000 0.000000 0.000000 0.000000 0.061305 0.000000
# 6 0.000000 0.000000 0.000000 0.000000 0.000000 0.063034
#
#
# Mechanical properties :
#
#
# Convention : Reuss Voigt Hill
#
# Bulk Modulus (GPa) = 34.13617 47.05233 40.59425
# Shear Modulus (GPa) = 20.42189 23.45055 21.93622
#
# Velocity S-wave (km/s) = 3.11852 3.34177 3.23207
# Velocity P-wave (km/s) = 5.40582 6.10711 5.76714
#
# Compressibility (1/GPa) = 0.02929444
#
# Stress axis : x y z
#
# Youngs Moduli (GPa) = 42.33029 66.03148 71.57193
#
# Poissons Ratio (x) = -0.03680 0.30000
# Poissons Ratio (y) = -0.02359 0.57891
# Poissons Ratio (z) = 0.17743 0.53409
#
# Static dielectric constant tensor:
#      x y z
#    x 1.856730 0.000000 0.000000 
#    y 0.000000 1.797650 0.000000 
#    z 0.000000 0.000000 1.801780 
# 
# From -- ./inp_files/16018.got.cif
#   From: 2010.05.17/outbox.cif.g08.bks.cpg/sg50_9_cif.got.tgz:16018.got - 2010.06.03 11:33:33.
