data_PCOD9397598
_publ_section_title
;
Structure prediction by ZEFSAII (Michael W. Deem and Ramdas Pophale) SiO2 
 PCOD9397598
Probable space group: P B A N
;
_chemical_formula_sum "Si O2"
_cell_formula_units_Z 26
_cell_length_a 7.468503
_cell_length_b 22.796292
_cell_length_c 5.787767
_cell_angle_alpha 90.000000
_cell_angle_beta 90.000000
_cell_angle_gamma 90.000000
_cell_volume 985.391497
_symmetry_space_group_name_H-M "P B A N"
_symmetry_group_IT_number 50
_space_group.IT_coordinate_system_code '2'
_symmetry_cell_setting 'orthorhombic'
loop_
_space_group_symop_operation_xyz
x,y,z
1/2-x,1/2-y,z
x,1/2-y,-z
1/2-x,y,-z
-x,-y,-z
1/2+x,1/2+y,-z
-x,1/2+y,z
1/2+x,-y,z
loop_
_atom_site_type_symbol
_atom_site_label
_atom_site_fract_x
_atom_site_fract_y
_atom_site_fract_z
Si Si1 0.250000 0.750000 0.000000
Si Si2 0.552653 0.098398 0.459115
Si Si3 0.066872 0.212695 0.713110
Si Si4 0.346423 0.479841 0.245927
O O1 0.400083 0.709168 0.116100
O O2 0.750000 0.124704 0.500000
O O3 0.412808 0.146141 0.367843
O O4 0.495186 0.069597 0.704416
O O5 0.576993 0.045562 0.275244
O O6 0.250000 0.250000 0.768234
O O7 0.993204 0.250000 0.500000
O O8 0.250000 0.474363 0.500000
O O9 0.250000 0.473443 0.000000
#
# Coordination Sequence:
#
# PCOD9397598 Si02
#       4
#     2   8   8   8
#     4  12  24  48  80 116 156 212 288 352 418 516
#     4  10  23  45  75 113 166 222 277 352 422 516
#     4  11  26  49  75 114 164 217 280 346 426 502
#     4  10  24  47  78 123 166 220 280 347 430 511
#
# _framework density 26.385449000000001
#
# number of rings (size 3 to 8) (size 9 to 14) (size 15 to 20)
#    0.000    1.538    0.000    2.769    6.462   11.077 
#    5.538    0.000    0.000    0.000    0.000    0.000 
#    0.000    0.000    0.000    0.000    0.000    0.000 
#
# Total GULP energy -144888.178002 kJ/mol
# GULP energy per Si atom -5572.622231 kJ/mol
# Density = 2.632539 g / cm^3
# Si number density = 26.385449 Si / 1000 Ang^3
#
#
#
# Elastic Constant Matrix: (Units=GPa)
#
#
# Indices 1 2 3 4 5 6 
#
# 1 210.7459 69.3611 80.6532 0.0000 0.0000 0.0000
# 2 69.3611 165.3937 55.5656 0.0000 0.0000 0.0000
# 3 80.6532 55.5656 144.1784 0.0000 0.0000 0.0000
# 4 0.0000 0.0000 0.0000 -2.0420 0.0000 0.0000
# 5 0.0000 0.0000 0.0000 0.0000 81.1177 0.0000
# 6 0.0000 0.0000 0.0000 0.0000 0.0000 -30.5765
#
#
#
# Elastic Compliance Matrix: (Units=1/GPa)
#
#
# Indices 1 2 3 4 5 6 
#
# 1 0.006433 -0.001710 -0.002939 0.000000 0.000000 0.000000
# 2 -0.001710 0.007400 -0.001895 0.000000 0.000000 0.000000
# 3 -0.002939 -0.001895 0.009311 0.000000 0.000000 0.000000
# 4 0.000000 0.000000 0.000000 -0.489712 0.000000 0.000000
# 5 0.000000 0.000000 0.000000 0.000000 0.012328 0.000000
# 6 0.000000 0.000000 0.000000 0.000000 0.000000 -0.032705
#
#
# Mechanical properties :
#
#
# Convention : Reuss Voigt Hill
#
# Bulk Modulus (GPa) = 99.46544 103.49751 101.48148
# Shear Modulus (GPa) = -10.62690 30.68237 10.02774
#
# Velocity S-wave (km/s) = -2.00906 3.41376 1.95160
# Velocity P-wave (km/s) = 5.69185 7.40599 6.60477
#
# Compressibility (1/GPa) = 0.01005374
#
# Stress axis : x y z
#
# Youngs Moduli (GPa) = 155.45217 135.13274 107.40460
#
# Poissons Ratio (x) = 0.23111 0.31571
# Poissons Ratio (y) = 0.26586 0.20356
# Poissons Ratio (z) = 0.45694 0.25611
#
# Static dielectric constant tensor:
#      x y z
#    x 2.307880 0.000000 0.000000 
#    y 0.000000 2.116070 0.000000 
#    z 0.000000 0.000000 2.163140 
# 
# From -- ./inp_files/987.got.cif
#   From: 2010.05.17/outbox.cif.g08.bks.cpg/sg50_1_cif.got.tgz:987.got - 2010.06.03 11:33:33.
