data_PCOD9397286
_publ_section_title
;
Structure prediction by ZEFSAII (Michael W. Deem and Ramdas Pophale) SiO2 
 PCOD9397286
Probable space group: P B A N
;
_chemical_formula_sum "Si O2"
_cell_formula_units_Z 30
_cell_length_a 9.178757
_cell_length_b 14.687074
_cell_length_c 9.046975
_cell_angle_alpha 90.000000
_cell_angle_beta 90.000000
_cell_angle_gamma 90.000000
_cell_volume 1219.614406
_symmetry_space_group_name_H-M "P B A N"
_symmetry_group_IT_number 50
_space_group.IT_coordinate_system_code '2'
_symmetry_cell_setting 'orthorhombic'
loop_
_space_group_symop_operation_xyz
x,y,z
1/2-x,1/2-y,z
x,1/2-y,-z
1/2-x,y,-z
-x,-y,-z
1/2+x,1/2+y,-z
-x,1/2+y,z
1/2+x,-y,z
loop_
_atom_site_type_symbol
_atom_site_label
_atom_site_fract_x
_atom_site_fract_y
_atom_site_fract_z
Si Si1 0.988060 0.591742 0.695828
Si Si2 0.981806 0.348136 0.972055
Si Si3 0.333932 0.592798 0.686540
Si Si4 0.250000 0.250000 0.000000
Si Si5 0.509600 0.250000 0.500000
O O1 0.908125 0.501693 0.641761
O O2 0.929508 0.680057 0.609169
O O3 0.161716 0.588173 0.667393
O O4 0.982504 0.604825 0.872962
O O5 0.140372 0.315552 0.910268
O O6 0.882206 0.399260 0.857619
O O7 0.910440 0.250000 0.000000
O O8 0.397538 0.682299 0.606176
#
# Coordination Sequence:
#
# PCOD9397286 Si02
#       5
#     8   8   8   2   4
#     4  12  26  44  72 101 138 178 229 278 339 403
#     4  10  22  41  72  99 137 171 227 274 345 390
#     4  12  26  44  72 101 138 178 229 278 339 403
#     4   8  20  36  70 102 136 170 222 274 344 392
#     4  12  25  48  69  98 139 184 225 278 337 406
#
# _framework density 24.597940000000001
#
# number of rings (size 3 to 8) (size 9 to 14) (size 15 to 20)
#    0.800    0.000    2.667    4.800    3.733    1.067 
#    0.000    1.333    0.000    0.000    0.000    0.000 
#    0.000    0.000    0.000    0.000    0.000    0.000 
#
# Total GULP energy -167722.525695 kJ/mol
# GULP energy per Si atom -5590.750856 kJ/mol
# Density = 2.454195 g / cm^3
# Si number density = 24.597940 Si / 1000 Ang^3
#
#
#
# Elastic Constant Matrix: (Units=GPa)
#
#
# Indices 1 2 3 4 5 6 
#
# 1 54.2430 26.1670 3.7369 0.0000 0.0000 0.0000
# 2 26.1670 186.1384 47.7833 0.0000 0.0000 0.0000
# 3 3.7369 47.7833 129.6289 0.0000 0.0000 0.0000
# 4 0.0000 0.0000 0.0000 34.8741 0.0000 0.0000
# 5 0.0000 0.0000 0.0000 0.0000 63.9525 0.0000
# 6 0.0000 0.0000 0.0000 0.0000 0.0000 33.2813
#
#
#
# Elastic Compliance Matrix: (Units=1/GPa)
#
#
# Indices 1 2 3 4 5 6 
#
# 1 0.019806 -0.002913 0.000503 0.000000 0.000000 0.000000
# 2 -0.002913 0.006362 -0.002261 0.000000 0.000000 0.000000
# 3 0.000503 -0.002261 0.008533 0.000000 0.000000 0.000000
# 4 0.000000 0.000000 0.000000 0.028675 0.000000 0.000000
# 5 0.000000 0.000000 0.000000 0.000000 0.015637 0.000000
# 6 0.000000 0.000000 0.000000 0.000000 0.000000 0.030047
#
#
# Mechanical properties :
#
#
# Convention : Reuss Voigt Hill
#
# Bulk Modulus (GPa) = 39.43438 58.37608 48.90523
# Shear Modulus (GPa) = 39.41455 45.90978 42.66217
#
# Velocity S-wave (km/s) = 4.00728 4.32488 4.16911
# Velocity P-wave (km/s) = 6.12188 6.98019 6.56508
#
# Compressibility (1/GPa) = 0.02535858
#
# Stress axis : x y z
#
# Youngs Moduli (GPa) = 50.48883 157.17314 117.18689
#
# Poissons Ratio (x) = 0.45792 -0.05894
# Poissons Ratio (y) = 0.14710 0.26499
# Poissons Ratio (z) = -0.02539 0.35542
#
# Static dielectric constant tensor:
#      x y z
#    x 1.957580 0.000000 0.000000 
#    y 0.000000 1.963380 0.000000 
#    z 0.000000 0.000000 2.074190 
# 
# From -- ./inp_files/13990.got.cif
#   From: 2010.05.17/outbox.cif.g08.bks.cpg/sg50_7_cif.got.tgz:13990.got - 2010.06.03 11:33:33.
