data_PCOD9397048
_publ_section_title
;
Structure prediction by ZEFSAII (Michael W. Deem and Ramdas Pophale) SiO2 
 PCOD9397048
Probable space group: P B A N
;
_chemical_formula_sum "Si O2"
_cell_formula_units_Z 46
_cell_length_a 11.794946
_cell_length_b 14.306052
_cell_length_c 13.163072
_cell_angle_alpha 90.000000
_cell_angle_beta 90.000000
_cell_angle_gamma 90.000000
_cell_volume 2221.125065
_symmetry_space_group_name_H-M "P B A N"
_symmetry_group_IT_number 50
_space_group.IT_coordinate_system_code '2'
_symmetry_cell_setting 'orthorhombic'
loop_
_space_group_symop_operation_xyz
x,y,z
1/2-x,1/2-y,z
x,1/2-y,-z
1/2-x,y,-z
-x,-y,-z
1/2+x,1/2+y,-z
-x,1/2+y,z
1/2+x,-y,z
loop_
_atom_site_type_symbol
_atom_site_label
_atom_site_fract_x
_atom_site_fract_y
_atom_site_fract_z
Si Si1 0.186758 0.395778 0.396660
Si Si2 0.250000 0.250000 0.778614
Si Si3 0.449601 0.680143 0.360877
Si Si4 0.326257 0.519039 0.261845
Si Si5 0.750000 0.250000 0.500000
Si Si6 0.532474 0.664270 0.792835
Si Si7 0.704820 0.149468 0.885833
O O1 0.250000 0.370117 0.500000
O O2 0.216075 0.331791 0.299523
O O3 0.241726 0.492889 0.356017
O O4 0.054769 0.372390 0.415385
O O5 0.361801 0.222036 0.837967
O O6 0.408544 0.606205 0.278957
O O7 0.339592 0.695265 0.430055
O O8 0.489309 0.776018 0.305814
O O9 0.410623 0.433004 0.240445
O O10 0.247671 0.557129 0.171968
O O11 0.429542 0.652894 0.869351
O O12 0.750000 0.250000 0.842871
O O13 0.750000 0.145399 0.000000
#
# Coordination Sequence:
#
# PCOD9397048 Si02
#       7
#     8   4   8   8   2   8   8
#     4  10  22  37  61  94 132 179 228 270 329 392
#     4   8  19  36  66  93 130 186 213 278 334 383
#     4  11  24  42  60  92 138 172 231 282 324 400
#     4  11  23  42  67  97 130 181 220 278 349 398
#     4  12  28  36  62  88 130 190 224 282 344 368
#     4  10  21  43  69  95 134 175 222 276 338 404
#     4  11  23  43  72  99 130 174 220 278 351 417
#
# _framework density 20.710224
#
# number of rings (size 3 to 8) (size 9 to 14) (size 15 to 20)
#    0.000    1.565    1.739    2.348    8.522    1.391 
#    0.000    0.000    0.000    0.000    0.000    0.000 
#    0.000    0.000    0.000    0.000    0.000    0.000 
#
# Total GULP energy -256275.640616 kJ/mol
# GULP energy per Si atom -5571.209579 kJ/mol
# Density = 2.066309 g / cm^3
# Si number density = 20.710224 Si / 1000 Ang^3
#
#
#
# Elastic Constant Matrix: (Units=GPa)
#
#
# Indices 1 2 3 4 5 6 
#
# 1 203.7797 47.1933 67.3175 0.0000 0.0000 0.0000
# 2 47.1933 104.6800 26.7329 0.0000 0.0000 0.0000
# 3 67.3175 26.7329 52.0771 0.0000 0.0000 0.0000
# 4 0.0000 0.0000 0.0000 30.8313 0.0000 0.0000
# 5 0.0000 0.0000 0.0000 0.0000 25.0366 0.0000
# 6 0.0000 0.0000 0.0000 0.0000 0.0000 29.0566
#
#
#
# Elastic Compliance Matrix: (Units=1/GPa)
#
#
# Indices 1 2 3 4 5 6 
#
# 1 0.008695 -0.001208 -0.010620 0.000000 0.000000 0.000000
# 2 -0.001208 0.011162 -0.004168 0.000000 0.000000 0.000000
# 3 -0.010620 -0.004168 0.035070 0.000000 0.000000 0.000000
# 4 0.000000 0.000000 0.000000 0.032435 0.000000 0.000000
# 5 0.000000 0.000000 0.000000 0.000000 0.039942 0.000000
# 6 0.000000 0.000000 0.000000 0.000000 0.000000 0.034416
#
#
# Mechanical properties :
#
#
# Convention : Reuss Voigt Hill
#
# Bulk Modulus (GPa) = 43.60196 71.44716 57.52456
# Shear Modulus (GPa) = 24.83170 31.60441 28.21806
#
# Velocity S-wave (km/s) = 3.46642 3.91068 3.69523
# Velocity P-wave (km/s) = 6.09266 7.41381 6.78547
#
# Compressibility (1/GPa) = 0.02293475
#
# Stress axis : x y z
#
# Youngs Moduli (GPa) = 115.00597 89.58936 28.51476
#
# Poissons Ratio (x) = 0.10823 0.30282
# Poissons Ratio (y) = 0.13893 0.11886
# Poissons Ratio (z) = 1.22133 0.37343
#
# Static dielectric constant tensor:
#      x y z
#    x 1.798010 0.000000 0.000000 
#    y 0.000000 1.852600 0.000000 
#    z 0.000000 0.000000 1.732170 
# 
# From -- ./inp_files/25843.got.cif
#   From: 2010.05.17/outbox.cif.g08.bks.cpg/sg50_13_cif.got.tgz:25843.got - 2010.06.03 11:33:33.
