data_PCOD9397318
_publ_section_title
;
Structure prediction by ZEFSAII (Michael W. Deem and Ramdas Pophale) SiO2 
 PCOD9397318
Probable space group: P B A N
;
_chemical_formula_sum "Si O2"
_cell_formula_units_Z 56
_cell_length_a 18.053337
_cell_length_b 9.917623
_cell_length_c 14.082654
_cell_angle_alpha 90.000000
_cell_angle_beta 90.000000
_cell_angle_gamma 90.000000
_cell_volume 2521.445547
_symmetry_space_group_name_H-M "P B A N"
_symmetry_group_IT_number 50
_space_group.IT_coordinate_system_code '2'
_symmetry_cell_setting 'orthorhombic'
loop_
_space_group_symop_operation_xyz
x,y,z
1/2-x,1/2-y,z
x,1/2-y,-z
1/2-x,y,-z
-x,-y,-z
1/2+x,1/2+y,-z
-x,1/2+y,z
1/2+x,-y,z
loop_
_atom_site_type_symbol
_atom_site_label
_atom_site_fract_x
_atom_site_fract_y
_atom_site_fract_z
Si Si1 0.290072 0.106939 0.417039
Si Si2 0.291054 0.939426 0.231884
Si Si3 0.821903 0.413257 0.067269
Si Si4 0.036732 0.750387 0.862099
Si Si5 0.585098 0.036520 0.501054
Si Si6 0.391992 0.761965 0.663614
Si Si7 0.916977 0.534086 0.912946
O O1 0.250000 0.250000 0.410566
O O2 0.250000 0.022207 0.500000
O O3 0.279608 0.036288 0.319101
O O4 0.372432 0.094819 0.457676
O O5 0.219000 0.940808 0.165938
O O6 0.322363 0.800111 0.277468
O O7 0.356892 0.004239 0.169109
O O8 0.885314 0.303848 0.092986
O O9 0.750000 0.383269 0.000000
O O10 0.869268 0.524574 0.009765
O O11 0.046646 0.736349 0.747798
O O12 0.030560 0.902651 0.899749
O O13 0.967475 0.662493 0.895422
O O14 0.609913 0.100155 0.398644
O O15 0.595410 0.149772 0.582490
O O16 0.500000 0.000000 0.500000
#
# Coordination Sequence:
#
# PCOD9397318 Si02
#       7
#     8   8   8   8   8   8   8
#     4  10  23  43  64  99 139 179 225 288 356 420
#     4   9  21  44  65  99 134 178 235 280 346 421
#     4  10  22  42  71  95 130 176 228 286 346 419
#     4  11  23  40  68 102 134 177 229 286 353 408
#     4  10  22  43  66  94 143 192 243 287 355 436
#     4   9  22  37  62 102 130 183 235 294 340 415
#     4  10  23  43  68 101 138 175 229 290 348 424
#
# _framework density 22.209482999999999
#
# number of rings (size 3 to 8) (size 9 to 14) (size 15 to 20)
#    0.000    2.143    0.000    0.857    8.000   10.286 
#    5.143    0.714    3.143    0.000    0.000    0.000 
#    0.000    0.000    0.000    0.000    0.000    0.000 
#
# Total GULP energy -312234.572804 kJ/mol
# GULP energy per Si atom -5575.617372 kJ/mol
# Density = 2.215893 g / cm^3
# Si number density = 22.209483 Si / 1000 Ang^3
#
#
#
# Elastic Constant Matrix: (Units=GPa)
#
#
# Indices 1 2 3 4 5 6 
#
# 1 130.3651 56.1198 57.1537 0.0000 0.0000 0.0000
# 2 56.1198 98.0888 49.3472 0.0000 0.0000 0.0000
# 3 57.1537 49.3472 181.1993 0.0000 0.0000 0.0000
# 4 0.0000 0.0000 0.0000 20.0225 0.0000 0.0000
# 5 0.0000 0.0000 0.0000 0.0000 18.7959 0.0000
# 6 0.0000 0.0000 0.0000 0.0000 0.0000 21.7699
#
#
#
# Elastic Compliance Matrix: (Units=1/GPa)
#
#
# Indices 1 2 3 4 5 6 
#
# 1 0.010763 -0.005157 -0.001991 0.000000 0.000000 0.000000
# 2 -0.005157 0.014284 -0.002264 0.000000 0.000000 0.000000
# 3 -0.001991 -0.002264 0.006763 0.000000 0.000000 0.000000
# 4 0.000000 0.000000 0.000000 0.049944 0.000000 0.000000
# 5 0.000000 0.000000 0.000000 0.000000 0.053203 0.000000
# 6 0.000000 0.000000 0.000000 0.000000 0.000000 0.045935
#
#
# Mechanical properties :
#
#
# Convention : Reuss Voigt Hill
#
# Bulk Modulus (GPa) = 76.98951 81.65497 79.32224
# Shear Modulus (GPa) = 24.50462 28.58650 26.54556
#
# Velocity S-wave (km/s) = 3.32526 3.59155 3.46097
# Velocity P-wave (km/s) = 7.03445 7.35150 7.19473
#
# Compressibility (1/GPa) = 0.01298878
#
# Stress axis : x y z
#
# Youngs Moduli (GPa) = 92.90849 70.00923 147.86102
#
# Poissons Ratio (x) = 0.36101 0.29434
# Poissons Ratio (y) = 0.47909 0.33469
# Poissons Ratio (z) = 0.18495 0.15847
#
# Static dielectric constant tensor:
#      x y z
#    x 1.921710 0.000000 0.000000 
#    y 0.000000 1.855700 0.000000 
#    z 0.000000 0.000000 1.796490 
# 
# From -- ./inp_files/26481.got.cif
#   From: 2010.05.17/outbox.cif.g08.bks.cpg/sg50_14_cif.got.tgz:26481.got - 2010.06.03 11:33:33.
