data_PCOD9397453
_publ_section_title
;
Structure prediction by ZEFSAII (Michael W. Deem and Ramdas Pophale) SiO2 
 PCOD9397453
Probable space group: P B A N
;
_chemical_formula_sum "Si O2"
_cell_formula_units_Z 30
_cell_length_a 16.398097
_cell_length_b 16.885001
_cell_length_c 5.488762
_cell_angle_alpha 90.000000
_cell_angle_beta 90.000000
_cell_angle_gamma 90.000000
_cell_volume 1519.738765
_symmetry_space_group_name_H-M "P B A N"
_symmetry_group_IT_number 50
_space_group.IT_coordinate_system_code '2'
_symmetry_cell_setting 'orthorhombic'
loop_
_space_group_symop_operation_xyz
x,y,z
1/2-x,1/2-y,z
x,1/2-y,-z
1/2-x,y,-z
-x,-y,-z
1/2+x,1/2+y,-z
-x,1/2+y,z
1/2+x,-y,z
loop_
_atom_site_type_symbol
_atom_site_label
_atom_site_fract_x
_atom_site_fract_y
_atom_site_fract_z
Si Si1 0.463748 0.250000 0.500000
Si Si2 0.666109 0.870746 0.347321
Si Si3 0.377885 0.786478 0.750108
Si Si4 0.750000 0.750000 0.000000
Si Si5 0.696662 0.044782 0.249610
O O1 0.407636 0.172351 0.516962
O O2 0.527204 0.237895 0.279143
O O3 0.750000 0.874345 0.500000
O O4 0.690438 0.808482 0.141761
O O5 0.651479 0.959882 0.259953
O O6 0.341584 0.750000 0.500000
O O7 0.362283 0.879780 0.752667
O O8 0.345438 0.750000 0.000000
O O9 0.750000 0.050756 0.500000
O O10 0.750000 0.045992 0.000000
#
# Coordination Sequence:
#
# PCOD9397453 Si02
#       5
#     4   8   8   2   8
#     4  10  23  40  61  94 134 172 208 256 321 396
#     4  11  22  38  64  95 124 166 213 268 316 376
#     4  10  24  43  62  95 124 174 211 254 329 370
#     4  12  18  36  64  94 118 164 216 248 334 360
#     4  11  24  42  66  96 125 162 221 270 313 373
#
# _framework density 19.740234999999998
#
# number of rings (size 3 to 8) (size 9 to 14) (size 15 to 20)
#    0.800    0.533    4.000    1.600    1.867    4.267 
#    0.000    1.333    0.000    0.000    0.000    0.000 
#    0.000    0.000    0.000    0.000    0.000    0.000 
#
# Total GULP energy -167175.761414 kJ/mol
# GULP energy per Si atom -5572.525380 kJ/mol
# Density = 1.969531 g / cm^3
# Si number density = 19.740235 Si / 1000 Ang^3
#
#
#
# Elastic Constant Matrix: (Units=GPa)
#
#
# Indices 1 2 3 4 5 6 
#
# 1 77.5455 31.0308 19.0893 0.0000 0.0000 0.0000
# 2 31.0308 189.6432 42.8174 0.0000 0.0000 0.0000
# 3 19.0893 42.8174 126.1875 0.0000 0.0000 0.0000
# 4 0.0000 0.0000 0.0000 32.8915 0.0000 0.0000
# 5 0.0000 0.0000 0.0000 0.0000 -153.9757 0.0000
# 6 0.0000 0.0000 0.0000 0.0000 0.0000 44.7908
#
#
#
# Elastic Compliance Matrix: (Units=1/GPa)
#
#
# Indices 1 2 3 4 5 6 
#
# 1 0.014042 -0.001969 -0.001456 0.000000 0.000000 0.000000
# 2 -0.001969 0.005987 -0.001734 0.000000 0.000000 0.000000
# 3 -0.001456 -0.001734 0.008733 0.000000 0.000000 0.000000
# 4 0.000000 0.000000 0.000000 0.030403 0.000000 0.000000
# 5 0.000000 0.000000 0.000000 0.000000 -0.006495 0.000000
# 6 0.000000 0.000000 0.000000 0.000000 0.000000 0.022326
#
#
# Mechanical properties :
#
#
# Convention : Reuss Voigt Hill
#
# Bulk Modulus (GPa) = 54.21606 64.36123 59.28865
# Shear Modulus (GPa) = 54.66776 4.77057 29.71917
#
# Velocity S-wave (km/s) = 5.26818 1.55625 3.88430
# Velocity P-wave (km/s) = 8.03301 5.99200 7.08637
#
# Compressibility (1/GPa) = 0.01844472
#
# Stress axis : x y z
#
# Youngs Moduli (GPa) = 71.21497 167.03940 114.50550
#
# Poissons Ratio (x) = 0.32888 0.16674
# Poissons Ratio (y) = 0.14021 0.19850
# Poissons Ratio (z) = 0.10370 0.28956
#
# Static dielectric constant tensor:
#      x y z
#    x 1.762600 0.000000 0.000000 
#    y 0.000000 1.690580 0.000000 
#    z 0.000000 0.000000 1.816590 
# 
# From -- ./inp_files/4011.got.cif
#   From: 2010.05.17/outbox.cif.g08.bks.cpg/sg50_3_cif.got.tgz:4011.got - 2010.06.03 11:33:33.
