data_PCOD9397142
_publ_section_title
;
Structure prediction by ZEFSAII (Michael W. Deem and Ramdas Pophale) SiO2 
 PCOD9397142
Probable space group: P B A N
;
_chemical_formula_sum "Si O2"
_cell_formula_units_Z 60
_cell_length_a 31.810756
_cell_length_b 19.962980
_cell_length_c 5.311758
_cell_angle_alpha 90.000000
_cell_angle_beta 90.000000
_cell_angle_gamma 90.000000
_cell_volume 3373.165446
_symmetry_space_group_name_H-M "P B A N"
_symmetry_group_IT_number 50
_space_group.IT_coordinate_system_code '2'
_symmetry_cell_setting 'orthorhombic'
loop_
_space_group_symop_operation_xyz
x,y,z
1/2-x,1/2-y,z
x,1/2-y,-z
1/2-x,y,-z
-x,-y,-z
1/2+x,1/2+y,-z
-x,1/2+y,z
1/2+x,-y,z
loop_
_atom_site_type_symbol
_atom_site_label
_atom_site_fract_x
_atom_site_fract_y
_atom_site_fract_z
Si Si1 0.299439 0.668613 0.012294
Si Si2 0.562369 0.029007 0.066828
Si Si3 0.409991 0.461475 0.579979
Si Si4 0.000912 0.354478 0.942771
Si Si5 0.634627 0.421017 0.241291
Si Si6 0.432924 0.750000 0.000000
Si Si7 0.554187 0.672640 0.448297
Si Si8 0.631172 0.180827 0.373987
O O1 0.323286 0.620266 0.815211
O O2 0.305601 0.750000 0.000000
O O3 0.250000 0.657082 0.000000
O O4 0.326258 0.650690 0.259049
O O5 0.567804 0.993292 0.334076
O O6 0.562998 0.977937 0.830964
O O7 0.476377 0.921493 0.973739
O O8 0.606003 0.068979 0.006291
O O9 0.367801 0.505645 0.630847
O O10 0.408061 0.381534 0.568409
O O11 0.964408 0.301659 0.871925
O O12 0.027272 0.330487 0.188465
O O13 0.028332 0.355312 0.689695
O O14 0.611124 0.370633 0.430982
O O15 0.402945 0.792857 0.822326
O O16 0.565249 0.750000 0.500000
O O17 0.645010 0.250000 0.500000
#
# Coordination Sequence:
#
# PCOD9397142 Si02
#       8
#     8   8   8   8   8   4   8   8
#     4  11  22  38  53  83 120 153 191 236 282 332
#     4  10  22  39  57  82 104 147 194 238 283 340
#     4  10  23  40  61  76 109 147 190 244 296 348
#     4  12  24  37  57  78 110 146 193 243 300 347
#     4  10  22  39  56  80 108 147 199 238 281 342
#     4  12  24  34  51  78 108 150 198 244 291 336
#     4  12  25  42  55  82 109 144 189 251 309 359
#     4  12  21  36  56  78 110 155 198 243 280 337
#
# _framework density 17.787447
#
# number of rings (size 3 to 8) (size 9 to 14) (size 15 to 20)
#    0.800    0.133    3.333    4.800    3.733    3.733 
#    0.000    0.000    0.000    0.000    0.000    0.000 
#    0.000    0.000    0.000   16.800    0.000    0.000 
#
# Total GULP energy -334193.807928 kJ/mol
# GULP energy per Si atom -5569.896799 kJ/mol
# Density = 1.774696 g / cm^3
# Si number density = 17.787447 Si / 1000 Ang^3
#
#
#
# Elastic Constant Matrix: (Units=GPa)
#
#
# Indices 1 2 3 4 5 6 
#
# 1 74.2332 47.4679 21.7739 0.0000 0.0000 0.0000
# 2 47.4679 120.0231 16.7733 0.0000 0.0000 0.0000
# 3 21.7739 16.7733 85.5178 0.0000 0.0000 0.0000
# 4 0.0000 0.0000 0.0000 2.1741 0.0000 0.0000
# 5 0.0000 0.0000 0.0000 0.0000 -4.5761 0.0000
# 6 0.0000 0.0000 0.0000 0.0000 0.0000 21.3761
#
#
#
# Elastic Compliance Matrix: (Units=1/GPa)
#
#
# Indices 1 2 3 4 5 6 
#
# 1 0.018974 -0.007021 -0.003454 0.000000 0.000000 0.000000
# 2 -0.007021 0.011165 -0.000402 0.000000 0.000000 0.000000
# 3 -0.003454 -0.000402 0.012652 0.000000 0.000000 0.000000
# 4 0.000000 0.000000 0.000000 0.459965 0.000000 0.000000
# 5 0.000000 0.000000 0.000000 0.000000 -0.218527 0.000000
# 6 0.000000 0.000000 0.000000 0.000000 0.000000 0.046781
#
#
# Mechanical properties :
#
#
# Convention : Reuss Voigt Hill
#
# Bulk Modulus (GPa) = 47.53788 50.20047 48.86917
# Shear Modulus (GPa) = 13.89753 16.71208 15.30481
#
# Velocity S-wave (km/s) = 2.79823 3.06852 2.93649
# Velocity P-wave (km/s) = 6.10112 6.39047 6.24747
#
# Compressibility (1/GPa) = 0.02103586
#
# Stress axis : x y z
#
# Youngs Moduli (GPa) = 52.70413 89.56735 79.04054
#
# Poissons Ratio (x) = 0.62888 0.27299
# Poissons Ratio (y) = 0.37005 0.03178
# Poissons Ratio (z) = 0.18203 0.03602
#
# Static dielectric constant tensor:
#      x y z
#    x 1.590730 0.000000 0.000000 
#    y 0.000000 1.708810 0.000000 
#    z 0.000000 0.000000 1.716370 
# 
# From -- ./inp_files/7330.got.cif
#   From: 2010.05.17/outbox.cif.g08.bks.cpg/sg50_4_cif.got.tgz:7330.got - 2010.06.03 11:33:33.
