data_PCOD9397198
_publ_section_title
;
Structure prediction by ZEFSAII (Michael W. Deem and Ramdas Pophale) SiO2 
 PCOD9397198
Probable space group: P B A N
;
_chemical_formula_sum "Si O2"
_cell_formula_units_Z 32
_cell_length_a 34.351172
_cell_length_b 5.438176
_cell_length_c 8.145464
_cell_angle_alpha 90.000000
_cell_angle_beta 90.000000
_cell_angle_gamma 90.000000
_cell_volume 1521.635551
_symmetry_space_group_name_H-M "P B A N"
_symmetry_group_IT_number 50
_space_group.IT_coordinate_system_code '2'
_symmetry_cell_setting 'orthorhombic'
loop_
_space_group_symop_operation_xyz
x,y,z
1/2-x,1/2-y,z
x,1/2-y,-z
1/2-x,y,-z
-x,-y,-z
1/2+x,1/2+y,-z
-x,1/2+y,z
1/2+x,-y,z
loop_
_atom_site_type_symbol
_atom_site_label
_atom_site_fract_x
_atom_site_fract_y
_atom_site_fract_z
Si Si1 0.626544 0.261607 0.698064
Si Si2 0.250000 0.250000 0.500000
Si Si3 0.250000 0.250000 0.000000
Si Si4 0.415994 0.239600 0.192851
Si Si5 0.525074 0.750000 0.500000
Si Si6 0.288227 0.910032 0.249235
O O1 0.621115 0.250000 0.500000
O O2 0.609940 0.517765 0.767842
O O3 0.672102 0.234895 0.739274
O O4 0.606199 0.018969 0.774851
O O5 0.219637 0.414016 0.401153
O O6 0.219525 0.420260 0.094694
O O7 0.449356 0.248635 0.332889
O O8 0.428028 0.250000 0.000000
O O9 0.500000 0.500000 0.500000
O O10 0.250000 0.750000 0.251167
#
# Coordination Sequence:
#
# PCOD9397198 Si02
#       6
#     8   2   2   8   4   8
#     4  12  25  46  76 103 154 204 252 316 374 440
#     4  10  22  40  60  96 124 178 266 322 366 438
#     4  10  26  42  60  92 148 174 270 318 382 426
#     4  12  28  49  76 120 154 195 248 301 375 450
#     4  12  26  51  86 114 155 194 239 298 372 456
#     4  11  25  41  65  95 136 195 257 314 375 430
#
# _framework density 21.030004000000002
#
# number of rings (size 3 to 8) (size 9 to 14) (size 15 to 20)
#    0.000    0.500    2.500    4.500   12.250    3.000 
#    0.000    0.000    0.000    0.000    0.000    0.000 
#    0.000    0.000    0.000    0.000    0.000    0.000 
#
# Total GULP energy -178807.567342 kJ/mol
# GULP energy per Si atom -5587.736479 kJ/mol
# Density = 2.098214 g / cm^3
# Si number density = 21.030004 Si / 1000 Ang^3
#
#
#
# Elastic Constant Matrix: (Units=GPa)
#
#
# Indices 1 2 3 4 5 6 
#
# 1 143.0862 81.0339 66.2331 0.0000 0.0000 0.0000
# 2 81.0339 177.7036 59.7721 0.0000 0.0000 0.0000
# 3 66.2331 59.7721 171.4624 0.0000 0.0000 0.0000
# 4 0.0000 0.0000 0.0000 26.4898 0.0000 0.0000
# 5 0.0000 0.0000 0.0000 0.0000 -68.8635 0.0000
# 6 0.0000 0.0000 0.0000 0.0000 0.0000 47.0808
#
#
#
# Elastic Compliance Matrix: (Units=1/GPa)
#
#
# Indices 1 2 3 4 5 6 
#
# 1 0.010406 -0.003844 -0.002680 0.000000 0.000000 0.000000
# 2 -0.003844 0.007795 -0.001232 0.000000 0.000000 0.000000
# 3 -0.002680 -0.001232 0.007297 0.000000 0.000000 0.000000
# 4 0.000000 0.000000 0.000000 0.037750 0.000000 0.000000
# 5 0.000000 0.000000 0.000000 0.000000 -0.014521 0.000000
# 6 0.000000 0.000000 0.000000 0.000000 0.000000 0.021240
#
#
# Mechanical properties :
#
#
# Convention : Reuss Voigt Hill
#
# Bulk Modulus (GPa) = 100.14326 100.70339 100.42332
# Shear Modulus (GPa) = 56.30160 19.95563 38.12861
#
# Velocity S-wave (km/s) = 5.17978 3.08378 4.26262
# Velocity P-wave (km/s) = 9.13762 7.78904 8.49015
#
# Compressibility (1/GPa) = 0.00998569
#
# Stress axis : x y z
#
# Youngs Moduli (GPa) = 96.09726 128.29184 137.04379
#
# Poissons Ratio (x) = 0.49314 0.36724
# Poissons Ratio (y) = 0.36939 0.16890
# Poissons Ratio (z) = 0.25751 0.15811
#
# Static dielectric constant tensor:
#      x y z
#    x 1.674270 0.000000 0.000000 
#    y 0.000000 1.607050 0.000000 
#    z 0.000000 0.000000 1.808060 
# 
# From -- ./inp_files/16747.got.cif
#   From: 2010.05.17/outbox.cif.g08.bks.cpg/sg50_9_cif.got.tgz:16747.got - 2010.06.03 11:33:33.
