data_PCOD9397930
_publ_section_title
;
Structure prediction by ZEFSAII (Michael W. Deem and Ramdas Pophale) SiO2 
 PCOD9397930
Probable space group: P B A N
;
_chemical_formula_sum "Si O2"
_cell_formula_units_Z 54
_cell_length_a 13.587877
_cell_length_b 33.177214
_cell_length_c 5.026923
_cell_angle_alpha 90.000000
_cell_angle_beta 90.000000
_cell_angle_gamma 90.000000
_cell_volume 2266.176616
_symmetry_space_group_name_H-M "P B A N"
_symmetry_group_IT_number 50
_space_group.IT_coordinate_system_code '2'
_symmetry_cell_setting 'orthorhombic'
loop_
_space_group_symop_operation_xyz
x,y,z
1/2-x,1/2-y,z
x,1/2-y,-z
1/2-x,y,-z
-x,-y,-z
1/2+x,1/2+y,-z
-x,1/2+y,z
1/2+x,-y,z
loop_
_atom_site_type_symbol
_atom_site_label
_atom_site_fract_x
_atom_site_fract_y
_atom_site_fract_z
Si Si1 0.932654 0.295223 0.469168
Si Si2 0.347266 0.385107 0.176434
Si Si3 0.250000 0.454965 0.500000
Si Si4 0.650091 0.803195 0.373785
Si Si5 0.250000 0.250000 0.000000
Si Si6 0.355733 0.935405 0.881190
Si Si7 0.094567 0.981360 0.640214
Si Si8 0.062618 0.648611 0.028781
O O1 0.888204 0.250000 0.500000
O O2 0.923562 0.315911 0.184124
O O3 0.049066 0.289953 0.508955
O O4 0.909606 0.329553 0.692935
O O5 0.321947 0.427445 0.317205
O O6 0.348799 0.350908 0.399723
O O7 0.250000 0.377553 0.000000
O O8 0.452211 0.372661 0.040800
O O9 0.323082 0.483785 0.664007
O O10 0.750000 0.788008 0.500000
O O11 0.667189 0.783909 0.086536
O O12 0.427105 0.960558 0.078394
O O13 0.250000 0.946466 0.000000
O O14 0.368155 0.948305 0.576449
O O15 0.371878 0.888629 0.935916
O O16 0.000000 0.000000 0.500000
#
# Coordination Sequence:
#
# PCOD9397930 Si02
#       8
#     8   8   4   8   2   8   8   8
#     4  11  24  41  67  98 136 178 232 286 349 417
#     4  11  24  37  61  89 140 178 234 271 348 402
#     4  12  26  42  66 101 138 190 227 300 348 408
#     4  11  22  36  53  85 127 185 232 278 325 402
#     4  12  22  32  52  82 124 184 236 280 326 380
#     4  12  25  51  74 105 139 181 241 291 356 437
#     4  12  27  46  74 105 142 184 238 295 359 419
#     4  11  26  43  70  98 136 186 227 291 351 414
#
# _framework density 23.828683000000002
#
# number of rings (size 3 to 8) (size 9 to 14) (size 15 to 20)
#    0.000    0.593    2.963    4.667   12.444    0.000 
#    0.000    0.000    0.000    2.667    0.000    0.000 
#    0.000    0.000    0.000    0.000    0.000    0.000 
#
# Total GULP energy -301115.470168 kJ/mol
# GULP energy per Si atom -5576.212411 kJ/mol
# Density = 2.377445 g / cm^3
# Si number density = 23.828683 Si / 1000 Ang^3
#
#
#
# Elastic Constant Matrix: (Units=GPa)
#
#
# Indices 1 2 3 4 5 6 
#
# 1 25.8900 11.7622 -13.0998 0.0000 0.0000 0.0000
# 2 11.7622 151.7424 15.9162 0.0000 0.0000 0.0000
# 3 -13.0998 15.9162 65.0561 0.0000 0.0000 0.0000
# 4 0.0000 0.0000 0.0000 51.2077 0.0000 0.0000
# 5 0.0000 0.0000 0.0000 0.0000 13.7875 0.0000
# 6 0.0000 0.0000 0.0000 0.0000 0.0000 -7.0329
#
#
#
# Elastic Compliance Matrix: (Units=1/GPa)
#
#
# Indices 1 2 3 4 5 6 
#
# 1 0.046004 -0.004657 0.010403 0.000000 0.000000 0.000000
# 2 -0.004657 0.007235 -0.002708 0.000000 0.000000 0.000000
# 3 0.010403 -0.002708 0.018129 0.000000 0.000000 0.000000
# 4 0.000000 0.000000 0.000000 0.019528 0.000000 0.000000
# 5 0.000000 0.000000 0.000000 0.000000 0.072530 0.000000
# 6 0.000000 0.000000 0.000000 0.000000 0.000000 -0.142188
#
#
# Mechanical properties :
#
#
# Convention : Reuss Voigt Hill
#
# Bulk Modulus (GPa) = 12.91259 30.20509 21.55884
# Shear Modulus (GPa) = 122.01985 26.79978 74.40981
#
# Velocity S-wave (km/s) = 7.16368 3.35727 5.59417
# Velocity P-wave (km/s) = 8.59390 5.26610 7.12695
#
# Compressibility (1/GPa) = 0.07744381
#
# Stress axis : x y z
#
# Youngs Moduli (GPa) = 21.73708 138.21442 55.16155
#
# Poissons Ratio (x) = 0.64368 -0.57384
# Poissons Ratio (y) = 0.10123 0.14937
# Poissons Ratio (z) = -0.22613 0.37427
#
# Static dielectric constant tensor:
#      x y z
#    x 1.932990 0.000000 0.000000 
#    y 0.000000 1.924690 0.000000 
#    z 0.000000 0.000000 80.975200 
# 
# From -- ./inp_files/3785.got.cif
#   From: 2010.05.17/outbox.cif.g08.bks.cpg/sg50_2_cif.got.tgz:3785.got - 2010.06.03 11:33:33.
