data_PCOD9397267
_publ_section_title
;
Structure prediction by ZEFSAII (Michael W. Deem and Ramdas Pophale) SiO2 
 PCOD9397267
Probable space group: P B A N
;
_chemical_formula_sum "Si O2"
_cell_formula_units_Z 64
_cell_length_a 14.450955
_cell_length_b 17.630424
_cell_length_c 11.697402
_cell_angle_alpha 90.000000
_cell_angle_beta 90.000000
_cell_angle_gamma 90.000000
_cell_volume 2980.222718
_symmetry_space_group_name_H-M "P B A N"
_symmetry_group_IT_number 50
_space_group.IT_coordinate_system_code '2'
_symmetry_cell_setting 'orthorhombic'
loop_
_space_group_symop_operation_xyz
x,y,z
1/2-x,1/2-y,z
x,1/2-y,-z
1/2-x,y,-z
-x,-y,-z
1/2+x,1/2+y,-z
-x,1/2+y,z
1/2+x,-y,z
loop_
_atom_site_type_symbol
_atom_site_label
_atom_site_fract_x
_atom_site_fract_y
_atom_site_fract_z
Si Si1 0.589543 0.945758 0.386515
Si Si2 0.237187 0.913911 0.376799
Si Si3 0.117617 0.846631 0.204391
Si Si4 0.853742 0.721699 0.321330
Si Si5 0.901494 0.009669 0.257913
Si Si6 0.576791 0.437363 0.023082
Si Si7 0.503600 0.783523 0.115949
Si Si8 0.948376 0.629345 0.624445
O O1 0.641609 0.866103 0.359764
O O2 0.506854 0.965915 0.295965
O O3 0.546161 0.922258 0.510520
O O4 0.663213 0.015437 0.386161
O O5 0.250000 0.876554 0.500000
O O6 0.210574 0.857565 0.274416
O O7 0.335211 0.947842 0.343875
O O8 0.085171 0.767280 0.151405
O O9 0.043630 0.859754 0.307088
O O10 0.114498 0.906322 0.098197
O O11 0.750000 0.750000 0.303047
O O12 0.919213 0.721254 0.210903
O O13 0.901318 0.789632 0.395066
O O14 0.867495 0.026876 0.129177
O O15 0.891516 0.920844 0.284724
O O16 0.530211 0.366153 0.085155
O O17 0.500000 0.500000 0.000000
O O18 0.543549 0.750000 0.000000
#
# Coordination Sequence:
#
# PCOD9397267 Si02
#       8
#     8   8   8   8   8   8   8   8
#     4  12  23  42  62  96 139 174 224 285 340 415
#     4  12  24  40  67  99 134 176 232 285 341 414
#     4  10  22  41  66  94 131 173 223 282 342 415
#     4  11  24  38  62  96 135 174 222 270 342 422
#     4  12  23  39  67  96 129 175 225 281 348 402
#     4  11  20  40  70  96 128 172 221 279 336 413
#     4   9  21  42  67  92 131 178 215 274 349 404
#     4  11  21  40  62  90 130 181 216 270 353 407
#
# _framework density 21.474905
#
# number of rings (size 3 to 8) (size 9 to 14) (size 15 to 20)
#    0.000    1.000    5.000    2.250    0.000    1.250 
#    0.000    0.625    0.000    3.000    0.000    0.000 
#    0.000    0.000    0.000    0.000    0.000    0.000 
#
# Total GULP energy -356785.023754 kJ/mol
# GULP energy per Si atom -5574.765996 kJ/mol
# Density = 2.142603 g / cm^3
# Si number density = 21.474905 Si / 1000 Ang^3
#
#
#
# Elastic Constant Matrix: (Units=GPa)
#
#
# Indices 1 2 3 4 5 6 
#
# 1 53.5285 9.7623 9.2676 0.0000 0.0000 0.0000
# 2 9.7623 108.8853 38.2511 0.0000 0.0000 0.0000
# 3 9.2676 38.2511 97.9576 0.0000 0.0000 0.0000
# 4 0.0000 0.0000 0.0000 36.3799 0.0000 0.0000
# 5 0.0000 0.0000 0.0000 0.0000 41.8963 0.0000
# 6 0.0000 0.0000 0.0000 0.0000 0.0000 39.2093
#
#
#
# Elastic Compliance Matrix: (Units=1/GPa)
#
#
# Indices 1 2 3 4 5 6 
#
# 1 0.019139 -0.001252 -0.001322 0.000000 0.000000 0.000000
# 2 -0.001252 0.010726 -0.004070 0.000000 0.000000 0.000000
# 3 -0.001322 -0.004070 0.011923 0.000000 0.000000 0.000000
# 4 0.000000 0.000000 0.000000 0.027488 0.000000 0.000000
# 5 0.000000 0.000000 0.000000 0.000000 0.023868 0.000000
# 6 0.000000 0.000000 0.000000 0.000000 0.000000 0.025504
#
#
# Mechanical properties :
#
#
# Convention : Reuss Voigt Hill
#
# Bulk Modulus (GPa) = 35.08691 41.65928 38.37309
# Shear Modulus (GPa) = 35.35195 37.03646 36.19421
#
# Velocity S-wave (km/s) = 4.06174 4.15738 4.10984
# Velocity P-wave (km/s) = 6.19443 6.51815 6.35835
#
# Compressibility (1/GPa) = 0.02850066
#
# Stress axis : x y z
#
# Youngs Moduli (GPa) = 52.24997 93.23190 83.87273
#
# Poissons Ratio (x) = 0.11668 0.11088
# Poissons Ratio (y) = 0.06539 0.34136
# Poissons Ratio (z) = 0.06907 0.37945
#
# Static dielectric constant tensor:
#      x y z
#    x 1.795840 0.000000 0.000000 
#    y 0.000000 1.762240 0.000000 
#    z 0.000000 0.000000 1.887570 
# 
# From -- ./inp_files/21347.got.cif
#   From: 2010.05.17/outbox.cif.g08.bks.cpg/sg50_11_cif.got.tgz:21347.got - 2010.06.03 11:33:33.
