data_PCOD9397836
_publ_section_title
;
Structure prediction by ZEFSAII (Michael W. Deem and Ramdas Pophale) SiO2 
 PCOD9397836
Probable space group: P B A N
;
_chemical_formula_sum "Si O2"
_cell_formula_units_Z 28
_cell_length_a 8.991223
_cell_length_b 16.032633
_cell_length_c 8.421330
_cell_angle_alpha 90.000000
_cell_angle_beta 90.000000
_cell_angle_gamma 90.000000
_cell_volume 1213.959803
_symmetry_space_group_name_H-M "P B A N"
_symmetry_group_IT_number 50
_space_group.IT_coordinate_system_code '2'
_symmetry_cell_setting 'orthorhombic'
loop_
_space_group_symop_operation_xyz
x,y,z
1/2-x,1/2-y,z
x,1/2-y,-z
1/2-x,y,-z
-x,-y,-z
1/2+x,1/2+y,-z
-x,1/2+y,z
1/2+x,-y,z
loop_
_atom_site_type_symbol
_atom_site_label
_atom_site_fract_x
_atom_site_fract_y
_atom_site_fract_z
Si Si1 0.590280 0.207119 0.843613
Si Si2 0.757132 0.036998 0.828771
Si Si3 0.050748 0.431590 0.371056
Si Si4 0.958362 0.750000 0.500000
O O1 0.750000 0.250000 0.839188
O O2 0.633632 0.110017 0.855090
O O3 0.527704 0.221903 0.669037
O O4 0.514654 0.250000 0.000000
O O5 0.912056 0.072460 0.756576
O O6 0.695050 0.970608 0.707439
O O7 0.750000 0.994467 0.000000
O O8 0.000000 0.500000 0.500000
O O9 0.092698 0.341538 0.440095
#
# Coordination Sequence:
#
# PCOD9397836 Si02
#       4
#     8   8   8   4
#     4  11  20  36  68 104 130 176 243 298 341 409
#     4  12  24  44  69 107 144 184 238 305 356 432
#     4  12  26  42  72 103 142 185 245 290 366 427
#     4  12  23  42  69  98 144 185 237 298 356 421
#
# _framework density 23.065016
#
# number of rings (size 3 to 8) (size 9 to 14) (size 15 to 20)
#    0.000    0.286    8.571    2.143    0.000    0.000 
#    0.000    2.857    0.000    1.714    0.000    0.000 
#    0.000    0.000    0.000    0.000    0.000    0.000 
#
# Total GULP energy -155912.647746 kJ/mol
# GULP energy per Si atom -5568.308848 kJ/mol
# Density = 2.301252 g / cm^3
# Si number density = 23.065016 Si / 1000 Ang^3
#
#
#
# Elastic Constant Matrix: (Units=GPa)
#
#
# Indices 1 2 3 4 5 6 
#
# 1 65.1246 17.6305 35.4895 0.0000 0.0000 0.0000
# 2 17.6305 120.1862 -15.6272 0.0000 0.0000 0.0000
# 3 35.4895 -15.6272 108.5479 0.0000 0.0000 0.0000
# 4 0.0000 0.0000 0.0000 49.8995 0.0000 0.0000
# 5 0.0000 0.0000 0.0000 0.0000 17.6208 0.0000
# 6 0.0000 0.0000 0.0000 0.0000 0.0000 2.1926
#
#
#
# Elastic Compliance Matrix: (Units=1/GPa)
#
#
# Indices 1 2 3 4 5 6 
#
# 1 0.020351 -0.003924 -0.007219 0.000000 0.000000 0.000000
# 2 -0.003924 0.009236 0.002613 0.000000 0.000000 0.000000
# 3 -0.007219 0.002613 0.011949 0.000000 0.000000 0.000000
# 4 0.000000 0.000000 0.000000 0.020040 0.000000 0.000000
# 5 0.000000 0.000000 0.000000 0.000000 0.056751 0.000000
# 6 0.000000 0.000000 0.000000 0.000000 0.000000 0.456083
#
#
# Mechanical properties :
#
#
# Convention : Reuss Voigt Hill
#
# Bulk Modulus (GPa) = 40.85717 40.98271 40.91994
# Shear Modulus (GPa) = 8.33849 31.03365 19.68607
#
# Velocity S-wave (km/s) = 1.90343 3.67207 2.92465
# Velocity P-wave (km/s) = 4.75217 5.98211 5.40226
#
# Compressibility (1/GPa) = 0.02447551
#
# Stress axis : x y z
#
# Youngs Moduli (GPa) = 49.13687 108.27495 83.69045
#
# Poissons Ratio (x) = 0.42487 0.60414
# Poissons Ratio (y) = 0.19281 -0.21865
# Poissons Ratio (z) = 0.35471 -0.28288
#
# Static dielectric constant tensor:
#      x y z
#    x 1.782060 0.000000 0.000000 
#    y 0.000000 1.871570 0.000000 
#    z 0.000000 0.000000 2.013040 
# 
# From -- ./inp_files/10477.got.cif
#   From: 2010.05.17/outbox.cif.g08.bks.cpg/sg50_6_cif.got.tgz:10477.got - 2010.06.03 11:33:33.
