data_PCOD9397419
_publ_section_title
;
Structure prediction by ZEFSAII (Michael W. Deem and Ramdas Pophale) SiO2 
 PCOD9397419
Probable space group: P B A N
;
_chemical_formula_sum "Si O2"
_cell_formula_units_Z 60
_cell_length_a 22.362848
_cell_length_b 22.299179
_cell_length_c 5.859458
_cell_angle_alpha 90.000000
_cell_angle_beta 90.000000
_cell_angle_gamma 90.000000
_cell_volume 2921.954381
_symmetry_space_group_name_H-M "P B A N"
_symmetry_group_IT_number 50
_space_group.IT_coordinate_system_code '2'
_symmetry_cell_setting 'orthorhombic'
loop_
_space_group_symop_operation_xyz
x,y,z
1/2-x,1/2-y,z
x,1/2-y,-z
1/2-x,y,-z
-x,-y,-z
1/2+x,1/2+y,-z
-x,1/2+y,z
1/2+x,-y,z
loop_
_atom_site_type_symbol
_atom_site_label
_atom_site_fract_x
_atom_site_fract_y
_atom_site_fract_z
Si Si1 0.555666 0.282327 0.246775
Si Si2 0.639270 0.396420 0.261943
Si Si3 0.250000 0.558743 0.000000
Si Si4 0.665113 0.010362 0.366859
Si Si5 0.929994 0.499519 0.987852
Si Si6 0.622040 0.595989 0.341326
Si Si7 0.182703 0.321188 0.002502
Si Si8 0.076322 0.312320 0.644100
O O1 0.556634 0.250000 0.500000
O O2 0.605337 0.334095 0.273028
O O3 0.486380 0.303978 0.225822
O O4 0.567819 0.250000 0.000000
O O5 0.696866 0.400720 0.098462
O O6 0.661902 0.427728 0.493491
O O7 0.591986 0.443626 0.160838
O O8 0.220016 0.516683 0.807312
O O9 0.663523 0.951297 0.523600
O O10 0.603714 0.005620 0.226398
O O11 0.905979 0.558352 0.863036
O O12 0.000000 0.500000 0.000000
O O13 0.571081 0.628734 0.487101
O O14 0.657017 0.651424 0.233579
O O15 0.133526 0.329312 0.801938
O O16 0.187870 0.250000 0.000000
O O17 0.250000 0.346672 0.000000
O O18 0.085724 0.250000 0.500000
#
# Coordination Sequence:
#
# PCOD9397419 Si02
#       8
#     8   8   4   8   8   8   8   8
#     4  11  28  47  79 114 148 189 245 300 366 457
#     4  10  24  44  75 101 144 187 234 298 374 436
#     4  10  22  48  75  96 142 189 234 298 372 450
#     4  10  23  45  67 103 134 187 233 294 369 432
#     4  10  24  40  66 100 140 176 230 289 358 431
#     4  11  24  43  64  99 133 184 236 298 351 434
#     4  11  24  45  65  90 133 181 240 294 350 415
#     4  11  24  44  69  96 140 189 240 294 366 421
#
# _framework density 20.534199999999998
#
# number of rings (size 3 to 8) (size 9 to 14) (size 15 to 20)
#    0.000    1.467    1.333    1.600   11.200    1.600 
#   28.800    0.333    0.000    0.000    0.000    0.000 
#    0.000    0.000    0.000    0.000    0.000    0.000 
#
# Total GULP energy -334663.926129 kJ/mol
# GULP energy per Si atom -5577.732102 kJ/mol
# Density = 2.048746 g / cm^3
# Si number density = 20.534200 Si / 1000 Ang^3
#
#
#
# Elastic Constant Matrix: (Units=GPa)
#
#
# Indices 1 2 3 4 5 6 
#
# 1 128.5944 36.3590 37.5024 0.0000 0.0000 0.0000
# 2 36.3590 91.9753 43.0381 0.0000 0.0000 0.0000
# 3 37.5024 43.0381 96.2552 0.0000 0.0000 0.0000
# 4 0.0000 0.0000 0.0000 5.9572 0.0000 0.0000
# 5 0.0000 0.0000 0.0000 0.0000 12.7692 0.0000
# 6 0.0000 0.0000 0.0000 0.0000 0.0000 3.3117
#
#
#
# Elastic Compliance Matrix: (Units=1/GPa)
#
#
# Indices 1 2 3 4 5 6 
#
# 1 0.009199 -0.002478 -0.002476 0.000000 0.000000 0.000000
# 2 -0.002478 0.014417 -0.005481 0.000000 0.000000 0.000000
# 3 -0.002476 -0.005481 0.013804 0.000000 0.000000 0.000000
# 4 0.000000 0.000000 0.000000 0.167865 0.000000 0.000000
# 5 0.000000 0.000000 0.000000 0.000000 0.078313 0.000000
# 6 0.000000 0.000000 0.000000 0.000000 0.000000 0.301956
#
#
# Mechanical properties :
#
#
# Convention : Reuss Voigt Hill
#
# Bulk Modulus (GPa) = 60.42035 61.18043 60.80039
# Shear Modulus (GPa) = 8.17072 17.73598 12.95335
#
# Velocity S-wave (km/s) = 1.99693 2.94211 2.51433
# Velocity P-wave (km/s) = 5.89958 6.43432 6.17274
#
# Compressibility (1/GPa) = 0.01655072
#
# Stress axis : x y z
#
# Youngs Moduli (GPa) = 108.70603 69.36478 72.44107
#
# Poissons Ratio (x) = 0.17187 0.17938
# Poissons Ratio (y) = 0.26936 0.39702
# Poissons Ratio (z) = 0.26918 0.38016
#
# Static dielectric constant tensor:
#      x y z
#    x 2.499370 0.000000 0.000000 
#    y 0.000000 1.746090 0.000000 
#    z 0.000000 0.000000 1.829660 
# 
# From -- ./inp_files/5492.got.cif
#   From: 2010.05.17/outbox.cif.g08.bks.cpg/sg50_3_cif.got.tgz:5492.got - 2010.06.03 11:33:33.
