data_PCOD9397523
_publ_section_title
;
Structure prediction by ZEFSAII (Michael W. Deem and Ramdas Pophale) SiO2 
 PCOD9397523
Probable space group: P B A N
;
_chemical_formula_sum "Si O2"
_cell_formula_units_Z 32
_cell_length_a 18.092315
_cell_length_b 5.675913
_cell_length_c 13.909083
_cell_angle_alpha 90.000000
_cell_angle_beta 90.000000
_cell_angle_gamma 90.000000
_cell_volume 1428.329379
_symmetry_space_group_name_H-M "P B A N"
_symmetry_group_IT_number 50
_space_group.IT_coordinate_system_code '2'
_symmetry_cell_setting 'orthorhombic'
loop_
_space_group_symop_operation_xyz
x,y,z
1/2-x,1/2-y,z
x,1/2-y,-z
1/2-x,y,-z
-x,-y,-z
1/2+x,1/2+y,-z
-x,1/2+y,z
1/2+x,-y,z
loop_
_atom_site_type_symbol
_atom_site_label
_atom_site_fract_x
_atom_site_fract_y
_atom_site_fract_z
Si Si1 0.173145 0.396935 0.637966
Si Si2 0.250000 0.750000 0.500000
Si Si3 0.953392 0.750000 0.500000
Si Si4 0.177159 0.404268 0.854676
Si Si5 0.976858 0.767120 0.110147
Si Si6 0.750000 0.250000 0.000000
O O1 0.250000 0.250000 0.639071
O O2 0.195173 0.604222 0.566993
O O3 0.103014 0.262887 0.591823
O O4 0.159353 0.483534 0.746235
O O5 0.000000 0.500000 0.500000
O O6 0.250000 0.250000 0.850037
O O7 0.110973 0.242023 0.890160
O O8 0.196226 0.605308 0.929911
O O9 0.999390 0.515040 0.154813
O O10 0.006178 0.750000 0.000000
#
# Coordination Sequence:
#
# PCOD9397523 Si02
#       6
#     8   2   4   8   8   2
#     4  11  24  45  73 105 139 199 246 296 382 460
#     4  12  18  44  76  98 140 186 252 302 350 472
#     4  12  26  46  75 111 154 190 242 322 388 444
#     4  11  26  43  70 104 145 189 251 311 365 443
#     4  10  23  42  67  95 136 190 234 286 356 424
#     4  12  24  44  68 108 144 192 254 324 366 414
#
# _framework density 22.403796
#
# number of rings (size 3 to 8) (size 9 to 14) (size 15 to 20)
#    0.000    1.000    2.500    3.375    8.750    2.000 
#    0.000    0.000    0.000    0.000    0.000    0.000 
#    0.000    0.000    0.000    0.000    0.000    0.000 
#
# Total GULP energy -178690.761396 kJ/mol
# GULP energy per Si atom -5584.086294 kJ/mol
# Density = 2.235280 g / cm^3
# Si number density = 22.403796 Si / 1000 Ang^3
#
#
#
# Elastic Constant Matrix: (Units=GPa)
#
#
# Indices 1 2 3 4 5 6 
#
# 1 140.5799 58.2144 30.4777 0.0000 0.0000 0.0000
# 2 58.2144 144.7642 53.3801 0.0000 0.0000 0.0000
# 3 30.4777 53.3801 158.2630 0.0000 0.0000 0.0000
# 4 0.0000 0.0000 0.0000 53.9277 0.0000 0.0000
# 5 0.0000 0.0000 0.0000 0.0000 120.8637 0.0000
# 6 0.0000 0.0000 0.0000 0.0000 0.0000 39.7447
#
#
#
# Elastic Compliance Matrix: (Units=1/GPa)
#
#
# Indices 1 2 3 4 5 6 
#
# 1 0.008578 -0.003244 -0.000558 0.000000 0.000000 0.000000
# 2 -0.003244 0.009116 -0.002450 0.000000 0.000000 0.000000
# 3 -0.000558 -0.002450 0.007252 0.000000 0.000000 0.000000
# 4 0.000000 0.000000 0.000000 0.018543 0.000000 0.000000
# 5 0.000000 0.000000 0.000000 0.000000 0.008274 0.000000
# 6 0.000000 0.000000 0.000000 0.000000 0.000000 0.025161
#
#
# Mechanical properties :
#
#
# Convention : Reuss Voigt Hill
#
# Bulk Modulus (GPa) = 80.36819 80.86129 80.61474
# Shear Modulus (GPa) = 53.43401 63.00952 58.22177
#
# Velocity S-wave (km/s) = 4.88899 5.30901 5.10332
# Velocity P-wave (km/s) = 8.23529 8.58788 8.41344
#
# Compressibility (1/GPa) = 0.01244273
#
# Stress axis : x y z
#
# Youngs Moduli (GPa) = 116.58394 109.70292 137.88656
#
# Poissons Ratio (x) = 0.35583 0.07691
# Poissons Ratio (y) = 0.37815 0.33781
# Poissons Ratio (z) = 0.06503 0.26876
#
# Static dielectric constant tensor:
#      x y z
#    x 1.834630 0.000000 0.000000 
#    y 0.000000 1.844400 0.000000 
#    z 0.000000 0.000000 1.863710 
# 
# From -- ./inp_files/23695.got.cif
#   From: 2010.05.17/outbox.cif.g08.bks.cpg/sg50_12_cif.got.tgz:23695.got - 2010.06.03 11:33:33.
