data_PCOD9397127
_publ_section_title
;
Structure prediction by ZEFSAII (Michael W. Deem and Ramdas Pophale) SiO2 
 PCOD9397127
Probable space group: P B A N
;
_chemical_formula_sum "Si O2"
_cell_formula_units_Z 40
_cell_length_a 24.912478
_cell_length_b 8.041775
_cell_length_c 10.532951
_cell_angle_alpha 90.000000
_cell_angle_beta 90.000000
_cell_angle_gamma 90.000000
_cell_volume 2110.177120
_symmetry_space_group_name_H-M "P B A N"
_symmetry_group_IT_number 50
_space_group.IT_coordinate_system_code '2'
_symmetry_cell_setting 'orthorhombic'
loop_
_space_group_symop_operation_xyz
x,y,z
1/2-x,1/2-y,z
x,1/2-y,-z
1/2-x,y,-z
-x,-y,-z
1/2+x,1/2+y,-z
-x,1/2+y,z
1/2+x,-y,z
loop_
_atom_site_type_symbol
_atom_site_label
_atom_site_fract_x
_atom_site_fract_y
_atom_site_fract_z
Si Si1 0.884690 0.932759 0.231303
Si Si2 0.615310 0.932759 0.231303
Si Si3 0.813299 0.449124 0.000000
Si Si4 0.425512 0.750000 0.643903
Si Si5 0.516010 0.750000 0.141941
O O1 0.942289 0.903113 0.161585
O O2 0.873242 0.750000 0.288440
O O3 0.891521 0.084258 0.327094
O O4 0.841773 0.976097 0.123825
O O5 0.557711 0.903113 0.161585
O O6 0.608479 0.084257 0.327094
O O7 0.658227 0.976097 0.123825
O O8 0.821659 0.250000 0.000000
O O9 0.750000 0.482823 0.000000
O O10 0.445438 0.750000 0.500000
O O11 0.473682 0.750000 0.745247
O O12 0.493429 0.750000 0.000000
#
# Coordination Sequence:
#
# PCOD9397127 Si02
#       5
#     8   8   8   8   8
#     4  10  22  40  60  91 128 163 209 257 317 367
#     4  10  22  40  60  91 128 163 209 257 317 367
#     4  11  21  39  70 100 124 156 203 266 334 379
#     4  12  26  40  60  89 134 179 214 256 296 364
#     4  10  22  38  62  92 125 176 207 252 310 374
#
# _framework density 18.955755
#
# number of rings (size 3 to 8) (size 9 to 14) (size 15 to 20)
#    1.200    0.200    4.000    1.800    2.800    7.200 
#    0.000    0.000    0.000    2.400    0.000    2.800 
#    0.000    0.000    0.000    0.000    0.000    0.000 
#
# Total GULP energy -223123.412173 kJ/mol
# GULP energy per Si atom -5578.085304 kJ/mol
# Density = 1.891261 g / cm^3
# Si number density = 18.955755 Si / 1000 Ang^3
#
#
#
# Elastic Constant Matrix: (Units=GPa)
#
#
# Indices 1 2 3 4 5 6 
#
# 1 75.8206 47.1123 28.3263 0.0000 0.0000 0.0000
# 2 47.1123 148.4164 49.8977 0.0000 0.0000 0.0000
# 3 28.3263 49.8977 110.7255 0.0000 0.0000 0.0000
# 4 0.0000 0.0000 0.0000 -6.1583 0.0000 0.0000
# 5 0.0000 0.0000 0.0000 0.0000 -1.6706 0.0000
# 6 0.0000 0.0000 0.0000 0.0000 0.0000 27.7462
#
#
#
# Elastic Compliance Matrix: (Units=1/GPa)
#
#
# Indices 1 2 3 4 5 6 
#
# 1 0.016890 -0.004607 -0.002245 0.000000 0.000000 0.000000
# 2 -0.004607 0.009197 -0.002966 0.000000 0.000000 0.000000
# 3 -0.002245 -0.002966 0.010942 0.000000 0.000000 0.000000
# 4 0.000000 0.000000 0.000000 -0.162382 0.000000 0.000000
# 5 0.000000 0.000000 0.000000 0.000000 -0.598596 0.000000
# 6 0.000000 0.000000 0.000000 0.000000 0.000000 0.036041
#
#
# Mechanical properties :
#
#
# Convention : Reuss Voigt Hill
#
# Bulk Modulus (GPa) = 57.49061 65.07055 61.28058
# Shear Modulus (GPa) = -7.54747 17.95854 5.20554
#
# Velocity S-wave (km/s) = -1.99757 3.08131 1.65895
# Velocity P-wave (km/s) = 5.00743 6.86013 6.00565
#
# Compressibility (1/GPa) = 0.01739414
#
# Stress axis : x y z
#
# Youngs Moduli (GPa) = 59.20590 108.72650 91.38806
#
# Poissons Ratio (x) = 0.50088 0.20516
# Poissons Ratio (y) = 0.27275 0.27108
# Poissons Ratio (z) = 0.13291 0.32251
#
# Static dielectric constant tensor:
#      x y z
#    x 1.641090 0.000000 0.000000 
#    y 0.000000 1.751970 0.000000 
#    z 0.000000 0.000000 1.605160 
# 
# From -- ./inp_files/16778.got.cif
#   From: 2010.05.17/outbox.cif.g08.bks.cpg/sg50_9_cif.got.tgz:16778.got - 2010.06.03 11:33:33.
