data_PCOD9397800
_publ_section_title
;
Structure prediction by ZEFSAII (Michael W. Deem and Ramdas Pophale) SiO2 
 PCOD9397800
Probable space group: P B A N
;
_chemical_formula_sum "Si O2"
_cell_formula_units_Z 48
_cell_length_a 9.714670
_cell_length_b 15.520296
_cell_length_c 14.335390
_cell_angle_alpha 90.000000
_cell_angle_beta 90.000000
_cell_angle_gamma 90.000000
_cell_volume 2161.412033
_symmetry_space_group_name_H-M "P B A N"
_symmetry_group_IT_number 50
_space_group.IT_coordinate_system_code '2'
_symmetry_cell_setting 'orthorhombic'
loop_
_space_group_symop_operation_xyz
x,y,z
1/2-x,1/2-y,z
x,1/2-y,-z
1/2-x,y,-z
-x,-y,-z
1/2+x,1/2+y,-z
-x,1/2+y,z
1/2+x,-y,z
loop_
_atom_site_type_symbol
_atom_site_label
_atom_site_fract_x
_atom_site_fract_y
_atom_site_fract_z
Si Si1 0.318568 0.626273 0.346322
Si Si2 0.934016 0.017393 0.816194
Si Si3 0.193080 0.409092 0.100883
Si Si4 0.750000 0.750000 0.764388
Si Si5 0.510740 0.144547 0.687665
Si Si6 0.547702 0.842107 0.520289
Si Si7 0.250000 0.017866 0.500000
O O1 0.399804 0.592165 0.257115
O O2 0.173988 0.665452 0.312116
O O3 0.420416 0.679630 0.412761
O O4 0.297153 0.544827 0.416767
O O5 0.992434 0.936355 0.756951
O O6 0.795206 0.982798 0.861877
O O7 0.041075 0.051974 0.892039
O O8 0.201510 0.328760 0.170996
O O9 0.250000 0.383214 0.000000
O O10 0.613936 0.711742 0.711301
O O11 0.492523 0.118671 0.579716
O O12 0.611469 0.750000 0.500000
O O13 0.649311 0.915645 0.555083
#
# Coordination Sequence:
#
# PCOD9397800 Si02
#       7
#     8   8   8   4   8   8   4
#     4  12  23  42  67  97 144 191 246 291 352 402
#     4  11  23  41  73 106 133 179 234 299 350 434
#     4  11  24  47  74 105 135 175 228 297 374 442
#     4  10  27  44  73 102 140 182 228 291 373 442
#     4  11  23  43  64 102 141 185 244 287 349 426
#     4  12  27  38  63  96 142 196 244 293 342 412
#     4  12  23  42  65  96 138 200 250 294 335 418
#
# _framework density 22.207705000000001
#
# number of rings (size 3 to 8) (size 9 to 14) (size 15 to 20)
#    0.000    0.667    5.000    2.500    4.667    1.333 
#    0.000    0.000    0.000    0.000    4.333    0.000 
#    0.000    0.000    0.000    0.000    0.000    0.000 
#
# Total GULP energy -268148.394120 kJ/mol
# GULP energy per Si atom -5586.424877 kJ/mol
# Density = 2.215716 g / cm^3
# Si number density = 22.207705 Si / 1000 Ang^3
#
#
#
# Elastic Constant Matrix: (Units=GPa)
#
#
# Indices 1 2 3 4 5 6 
#
# 1 144.5150 52.8896 42.3890 0.0000 0.0000 0.0000
# 2 52.8896 83.6698 12.1481 0.0000 0.0000 0.0000
# 3 42.3890 12.1481 83.3588 0.0000 0.0000 0.0000
# 4 0.0000 0.0000 0.0000 20.1382 0.0000 0.0000
# 5 0.0000 0.0000 0.0000 0.0000 31.4340 0.0000
# 6 0.0000 0.0000 0.0000 0.0000 0.0000 37.3873
#
#
#
# Elastic Compliance Matrix: (Units=1/GPa)
#
#
# Indices 1 2 3 4 5 6 
#
# 1 0.010382 -0.005922 -0.004417 0.000000 0.000000 0.000000
# 2 -0.005922 0.015588 0.000740 0.000000 0.000000 0.000000
# 3 -0.004417 0.000740 0.014134 0.000000 0.000000 0.000000
# 4 0.000000 0.000000 0.000000 0.049657 0.000000 0.000000
# 5 0.000000 0.000000 0.000000 0.000000 0.031813 0.000000
# 6 0.000000 0.000000 0.000000 0.000000 0.000000 0.026747
#
#
# Mechanical properties :
#
#
# Convention : Reuss Voigt Hill
#
# Bulk Modulus (GPa) = 47.83061 58.48854 53.15957
# Shear Modulus (GPa) = 28.65535 31.39967 30.02751
#
# Velocity S-wave (km/s) = 3.59602 3.76428 3.68111
# Velocity P-wave (km/s) = 6.23108 6.72958 6.48512
#
# Compressibility (1/GPa) = 0.02090712
#
# Stress axis : x y z
#
# Youngs Moduli (GPa) = 96.31703 64.15358 70.74918
#
# Poissons Ratio (x) = 0.37990 0.31247
# Poissons Ratio (y) = 0.57036 -0.05233
# Poissons Ratio (z) = 0.42539 -0.04745
#
# Static dielectric constant tensor:
#      x y z
#    x 1.918850 0.000000 0.000000 
#    y 0.000000 1.834210 0.000000 
#    z 0.000000 0.000000 1.800520 
# 
# From -- ./inp_files/25035.got.cif
#   From: 2010.05.17/outbox.cif.g08.bks.cpg/sg50_13_cif.got.tgz:25035.got - 2010.06.03 11:33:33.
