data_PCOD9397932
_publ_section_title
;
Structure prediction by ZEFSAII (Michael W. Deem and Ramdas Pophale) SiO2 
 PCOD9397932
Probable space group: P B A N
;
_chemical_formula_sum "Si O2"
_cell_formula_units_Z 34
_cell_length_a 12.753939
_cell_length_b 27.050505
_cell_length_c 4.955372
_cell_angle_alpha 90.000000
_cell_angle_beta 90.000000
_cell_angle_gamma 90.000000
_cell_volume 1709.605772
_symmetry_space_group_name_H-M "P B A N"
_symmetry_group_IT_number 50
_space_group.IT_coordinate_system_code '2'
_symmetry_cell_setting 'orthorhombic'
loop_
_space_group_symop_operation_xyz
x,y,z
1/2-x,1/2-y,z
x,1/2-y,-z
1/2-x,y,-z
-x,-y,-z
1/2+x,1/2+y,-z
-x,1/2+y,z
1/2+x,-y,z
loop_
_atom_site_type_symbol
_atom_site_label
_atom_site_fract_x
_atom_site_fract_y
_atom_site_fract_z
Si Si1 0.180441 0.554052 0.754950
Si Si2 0.628428 0.949864 0.995907
Si Si3 0.869805 0.697704 0.612088
Si Si4 0.250000 0.250000 0.000000
Si Si5 0.976126 0.594827 0.502170
O O1 0.250000 0.536846 0.500000
O O2 0.129880 0.506057 0.898631
O O3 0.093325 0.587746 0.612067
O O4 0.250000 0.576736 0.000000
O O5 0.552285 0.919760 0.196594
O O6 0.750000 0.932586 0.000000
O O7 0.590068 0.942336 0.692598
O O8 0.911985 0.750000 0.500000
O O9 0.750000 0.694055 0.500000
O O10 0.935633 0.649900 0.555960
O O11 0.838943 0.709190 0.916860
#
# Coordination Sequence:
#
# PCOD9397932 Si02
#       5
#     8   8   8   2   8
#     4  11  23  42  56  81 120 160 199 247 286 329
#     4  11  22  36  57  89 121 149 190 242 292 352
#     4   9  20  35  55  86 117 145 179 233 300 354
#     4   8  18  36  52  78 122 140 166 232 302 356
#     4  12  23  36  62  87 112 161 199 234 289 363
#
# _framework density 19.887627999999999
#
# number of rings (size 3 to 8) (size 9 to 14) (size 15 to 20)
#    0.000    1.647    0.000    7.765    8.235    0.000 
#    0.000    0.000    0.000    0.706    0.000    0.000 
#    0.000    0.000    0.000    0.000    0.000    0.000 
#
# Total GULP energy -189320.164600 kJ/mol
# GULP energy per Si atom -5568.240135 kJ/mol
# Density = 1.984236 g / cm^3
# Si number density = 19.887628 Si / 1000 Ang^3
#
#
#
# Elastic Constant Matrix: (Units=GPa)
#
#
# Indices 1 2 3 4 5 6 
#
# 1 68.2483 37.9604 2.9090 0.0000 0.0000 0.0000
# 2 37.9604 114.1038 2.1471 0.0000 0.0000 0.0000
# 3 2.9090 2.1471 54.1327 0.0000 0.0000 0.0000
# 4 0.0000 0.0000 0.0000 -49.0086 0.0000 0.0000
# 5 0.0000 0.0000 0.0000 0.0000 40.2494 0.0000
# 6 0.0000 0.0000 0.0000 0.0000 0.0000 17.0580
#
#
#
# Elastic Compliance Matrix: (Units=1/GPa)
#
#
# Indices 1 2 3 4 5 6 
#
# 1 0.018008 -0.005977 -0.000731 0.000000 0.000000 0.000000
# 2 -0.005977 0.010754 -0.000105 0.000000 0.000000 0.000000
# 3 -0.000731 -0.000105 0.018517 0.000000 0.000000 0.000000
# 4 0.000000 0.000000 0.000000 -0.020405 0.000000 0.000000
# 5 0.000000 0.000000 0.000000 0.000000 0.024845 0.000000
# 6 0.000000 0.000000 0.000000 0.000000 0.000000 0.058623
#
#
# Mechanical properties :
#
#
# Convention : Reuss Voigt Hill
#
# Bulk Modulus (GPa) = 29.71533 35.83531 32.77532
# Shear Modulus (GPa) = 36.98575 14.55766 25.77170
#
# Velocity S-wave (km/s) = 4.31714 2.70848 3.60372
# Velocity P-wave (km/s) = 6.31066 5.27628 5.81651
#
# Compressibility (1/GPa) = 0.03365266
#
# Stress axis : x y z
#
# Youngs Moduli (GPa) = 55.53041 92.98457 54.00570
#
# Poissons Ratio (x) = 0.55579 0.03946
# Poissons Ratio (y) = 0.33192 0.00569
# Poissons Ratio (z) = 0.04057 0.00980
#
# Static dielectric constant tensor:
#      x y z
#    x 1.730900 0.000000 0.000000 
#    y 0.000000 1.664890 0.000000 
#    z 0.000000 0.000000 1.932930 
# 
# From -- ./inp_files/2248.got.cif
#   From: 2010.05.17/outbox.cif.g08.bks.cpg/sg50_2_cif.got.tgz:2248.got - 2010.06.03 11:33:33.
