data_PCOD9397839
_publ_section_title
;
Structure prediction by ZEFSAII (Michael W. Deem and Ramdas Pophale) SiO2 
 PCOD9397839
Probable space group: P B A N
;
_chemical_formula_sum "Si O2"
_cell_formula_units_Z 64
_cell_length_a 9.131870
_cell_length_b 21.329959
_cell_length_c 17.944595
_cell_angle_alpha 90.000000
_cell_angle_beta 90.000000
_cell_angle_gamma 90.000000
_cell_volume 3495.291509
_symmetry_space_group_name_H-M "P B A N"
_symmetry_group_IT_number 50
_space_group.IT_coordinate_system_code '2'
_symmetry_cell_setting 'orthorhombic'
loop_
_space_group_symop_operation_xyz
x,y,z
1/2-x,1/2-y,z
x,1/2-y,-z
1/2-x,y,-z
-x,-y,-z
1/2+x,1/2+y,-z
-x,1/2+y,z
1/2+x,-y,z
loop_
_atom_site_type_symbol
_atom_site_label
_atom_site_fract_x
_atom_site_fract_y
_atom_site_fract_z
Si Si1 0.262300 0.544609 0.715060
Si Si2 0.421304 0.756961 0.581365
Si Si3 0.153016 0.051041 0.852367
Si Si4 0.997175 0.625659 0.674520
Si Si5 0.478770 0.362434 0.325667
Si Si6 0.247764 0.052060 0.411267
Si Si7 0.626021 0.029454 0.051647
Si Si8 0.233682 0.321762 0.212259
O O1 0.311462 0.491517 0.776777
O O2 0.391588 0.594646 0.705791
O O3 0.236279 0.511619 0.635331
O O4 0.112193 0.584678 0.722278
O O5 0.250000 0.750000 0.573141
O O6 0.493871 0.750000 0.500000
O O7 0.437200 0.824667 0.617696
O O8 0.474254 0.700852 0.633605
O O9 0.202404 0.122865 0.845107
O O10 0.984152 0.052528 0.881811
O O11 0.264557 0.019771 0.910557
O O12 0.893562 0.582479 0.623828
O O13 0.898271 0.667909 0.729252
O O14 0.384866 0.403908 0.383697
O O15 0.376948 0.342293 0.257441
O O16 0.250000 0.045328 0.500000
O O17 0.750000 0.066493 0.000000
O O18 0.500000 0.000000 0.000000
O O19 0.250000 0.250000 0.187317
#
# Coordination Sequence:
#
# PCOD9397839 Si02
#       8
#     8   8   8   8   8   8   8   8
#     4  12  23  36  60  86 118 159 200 259 321 366
#     4  11  22  37  55  73 103 159 214 271 322 362
#     4  11  20  37  63  94 130 157 195 244 297 357
#     4  11  22  38  55  79 112 154 214 265 312 371
#     4  11  22  38  55  79 111 153 212 260 310 366
#     4  11  25  38  53  79 115 155 206 268 325 371
#     4   9  20  38  66 100 128 157 188 227 282 352
#     4  11  22  37  60  87 122 159 201 246 298 356
#
# _framework density 18.310347
#
# number of rings (size 3 to 8) (size 9 to 14) (size 15 to 20)
#    0.000    1.125    5.000    3.000    0.000    3.000 
#    0.000    1.875    0.000    3.375    0.000    4.375 
#    0.000    0.000    0.000    0.000    0.000    0.000 
#
# Total GULP energy -356295.697178 kJ/mol
# GULP energy per Si atom -5567.120268 kJ/mol
# Density = 1.826867 g / cm^3
# Si number density = 18.310347 Si / 1000 Ang^3
#
#
#
# Elastic Constant Matrix: (Units=GPa)
#
#
# Indices 1 2 3 4 5 6 
#
# 1 118.3736 42.0082 35.1661 0.0000 0.0000 0.0000
# 2 42.0082 106.5824 35.5301 0.0000 0.0000 0.0000
# 3 35.1661 35.5301 80.7708 0.0000 0.0000 0.0000
# 4 0.0000 0.0000 0.0000 5.7776 0.0000 0.0000
# 5 0.0000 0.0000 0.0000 0.0000 -0.4597 0.0000
# 6 0.0000 0.0000 0.0000 0.0000 0.0000 19.3764
#
#
#
# Elastic Compliance Matrix: (Units=1/GPa)
#
#
# Indices 1 2 3 4 5 6 
#
# 1 0.010491 -0.003061 -0.003221 0.000000 0.000000 0.000000
# 2 -0.003061 0.011888 -0.003897 0.000000 0.000000 0.000000
# 3 -0.003221 -0.003897 0.015497 0.000000 0.000000 0.000000
# 4 0.000000 0.000000 0.000000 0.173083 0.000000 0.000000
# 5 0.000000 0.000000 0.000000 0.000000 -2.175114 0.000000
# 6 0.000000 0.000000 0.000000 0.000000 0.000000 0.051609
#
#
# Mechanical properties :
#
#
# Convention : Reuss Voigt Hill
#
# Bulk Modulus (GPa) = 57.08232 59.01505 58.04868
# Shear Modulus (GPa) = -2.65062 17.80701 7.57820
#
# Velocity S-wave (km/s) = -1.20447 3.12189 2.03660
# Velocity P-wave (km/s) = 5.41371 6.73018 6.10752
#
# Compressibility (1/GPa) = 0.01751856
#
# Stress axis : x y z
#
# Youngs Moduli (GPa) = 95.31923 84.11929 64.52801
#
# Poissons Ratio (x) = 0.25750 0.20785
# Poissons Ratio (y) = 0.29179 0.25144
# Poissons Ratio (z) = 0.30703 0.32778
#
# Static dielectric constant tensor:
#      x y z
#    x 1.751870 0.000000 0.000000 
#    y 0.000000 1.828460 0.000000 
#    z 0.000000 0.000000 1.709290 
# 
# From -- ./inp_files/28948.got.cif
#   From: 2010.05.17/outbox.cif.g08.bks.cpg/sg50_15_cif.got.tgz:28948.got - 2010.06.03 11:33:33.
