data_PCOD9397973
_publ_section_title
;
Structure prediction by ZEFSAII (Michael W. Deem and Ramdas Pophale) SiO2 
 PCOD9397973
Probable space group: P B A N
;
_chemical_formula_sum "Si O2"
_cell_formula_units_Z 40
_cell_length_a 30.677020
_cell_length_b 7.612798
_cell_length_c 8.472572
_cell_angle_alpha 90.000000
_cell_angle_beta 90.000000
_cell_angle_gamma 90.000000
_cell_volume 1978.667151
_symmetry_space_group_name_H-M "P B A N"
_symmetry_group_IT_number 50
_space_group.IT_coordinate_system_code '2'
_symmetry_cell_setting 'orthorhombic'
loop_
_space_group_symop_operation_xyz
x,y,z
1/2-x,1/2-y,z
x,1/2-y,-z
1/2-x,y,-z
-x,-y,-z
1/2+x,1/2+y,-z
-x,1/2+y,z
1/2+x,-y,z
loop_
_atom_site_type_symbol
_atom_site_label
_atom_site_fract_x
_atom_site_fract_y
_atom_site_fract_z
Si Si1 0.048164 0.708834 0.317427
Si Si2 0.298709 0.450278 0.305948
Si Si3 0.971143 0.615293 0.879745
Si Si4 0.137835 0.766157 0.180767
Si Si5 0.197414 0.460830 0.316903
O O1 0.039877 0.750000 0.500000
O O2 0.053663 0.512258 0.242745
O O3 0.093925 0.799142 0.277656
O O4 0.006536 0.782774 0.225191
O O5 0.329433 0.573846 0.206305
O O6 0.248041 0.493701 0.273219
O O7 0.308692 0.245021 0.279346
O O8 0.305681 0.482943 0.493277
O O9 0.946751 0.750000 0.000000
O O10 0.000000 0.500000 0.000000
O O11 0.163843 0.592982 0.237185
O O12 0.124674 0.750000 0.000000
#
# Coordination Sequence:
#
# PCOD9397973 Si02
#       5
#     8   8   8   8   8
#     4  11  22  40  63  89 119 157 206 245 296 375
#     4   9  19  38  62  84 118 155 204 252 301 364
#     4   9  19  39  63  87 118 153 187 243 307 360
#     4  12  24  37  56  88 125 160 198 252 306 356
#     4   9  19  38  61  87 114 158 203 251 304 360
#
# _framework density 20.215627999999999
#
# number of rings (size 3 to 8) (size 9 to 14) (size 15 to 20)
#    0.000    2.000    0.000    6.000    0.000    4.000 
#   10.800    2.000    0.000    0.000    0.000    0.000 
#    0.000    0.000    0.000    0.000    0.000    0.000 
#
# Total GULP energy -223171.659178 kJ/mol
# GULP energy per Si atom -5579.291479 kJ/mol
# Density = 2.016962 g / cm^3
# Si number density = 20.215628 Si / 1000 Ang^3
#
#
#
# Elastic Constant Matrix: (Units=GPa)
#
#
# Indices 1 2 3 4 5 6 
#
# 1 33.4175 0.2376 19.7267 0.0000 0.0000 0.0000
# 2 0.2376 31.8490 32.4409 0.0000 0.0000 0.0000
# 3 19.7267 32.4409 108.9577 0.0000 0.0000 0.0000
# 4 0.0000 0.0000 0.0000 61.2284 0.0000 0.0000
# 5 0.0000 0.0000 0.0000 0.0000 -13.1842 0.0000
# 6 0.0000 0.0000 0.0000 0.0000 0.0000 -12.6302
#
#
#
# Elastic Compliance Matrix: (Units=1/GPa)
#
#
# Indices 1 2 3 4 5 6 
#
# 1 0.035193 0.008938 -0.009033 0.000000 0.000000 0.000000
# 2 0.008938 0.047335 -0.015712 0.000000 0.000000 0.000000
# 3 -0.009033 -0.015712 0.015491 0.000000 0.000000 0.000000
# 4 0.000000 0.000000 0.000000 0.016332 0.000000 0.000000
# 5 0.000000 0.000000 0.000000 0.000000 -0.075849 0.000000
# 6 0.000000 0.000000 0.000000 0.000000 0.000000 -0.079175
#
#
# Mechanical properties :
#
#
# Convention : Reuss Voigt Hill
#
# Bulk Modulus (GPa) = 15.05869 31.00384 23.03127
# Shear Modulus (GPa) = 382.35609 15.20406 198.78008
#
# Velocity S-wave (km/s) = 13.76770 2.74541 9.92690
# Velocity P-wave (km/s) = 16.13065 5.04178 11.95026
#
# Compressibility (1/GPa) = 0.06640683
#
# Stress axis : x y z
#
# Youngs Moduli (GPa) = 28.41463 21.12583 64.55227
#
# Poissons Ratio (x) = -0.18883 0.58310
# Poissons Ratio (y) = -0.25398 1.01424
# Poissons Ratio (z) = 0.25667 0.33193
#
# Static dielectric constant tensor:
#      x y z
#    x 1.682100 0.000000 0.000000 
#    y 0.000000 1.775310 0.000000 
#    z 0.000000 0.000000 1.725110 
# 
# From -- ./inp_files/15782.got.cif
#   From: 2010.05.17/outbox.cif.g08.bks.cpg/sg50_8_cif.got.tgz:15782.got - 2010.06.03 11:33:33.
