data_PCOD9397966
_publ_section_title
;
Structure prediction by ZEFSAII (Michael W. Deem and Ramdas Pophale) SiO2 
 PCOD9397966
Probable space group: P B A N
;
_chemical_formula_sum "Si O2"
_cell_formula_units_Z 34
_cell_length_a 20.944739
_cell_length_b 9.252847
_cell_length_c 7.625905
_cell_angle_alpha 90.000000
_cell_angle_beta 90.000000
_cell_angle_gamma 90.000000
_cell_volume 1477.888686
_symmetry_space_group_name_H-M "P B A N"
_symmetry_group_IT_number 50
_space_group.IT_coordinate_system_code '2'
_symmetry_cell_setting 'orthorhombic'
loop_
_space_group_symop_operation_xyz
x,y,z
1/2-x,1/2-y,z
x,1/2-y,-z
1/2-x,y,-z
-x,-y,-z
1/2+x,1/2+y,-z
-x,1/2+y,z
1/2+x,-y,z
loop_
_atom_site_type_symbol
_atom_site_label
_atom_site_fract_x
_atom_site_fract_y
_atom_site_fract_z
Si Si1 0.925832 0.554446 0.677119
Si Si2 0.023936 0.762199 0.804522
Si Si3 0.750000 0.250000 0.500000
Si Si4 0.322550 0.259718 0.284014
Si Si5 0.863537 0.069180 0.675784
O O1 0.963465 0.429057 0.773044
O O2 0.864224 0.622763 0.771251
O O3 0.902230 0.479638 0.498677
O O4 0.973989 0.688919 0.673174
O O5 0.090858 0.677033 0.781255
O O6 0.998196 0.750000 0.000000
O O7 0.798264 0.149051 0.613582
O O8 0.250000 0.250000 0.228840
O O9 0.324441 0.250000 0.500000
O O10 0.349092 0.416415 0.233334
#
# Coordination Sequence:
#
# PCOD9397966 Si02
#       5
#     8   8   2   8   8
#     4  11  22  42  64  97 126 174 221 270 325 394
#     4  12  25  41  63  93 133 173 215 272 335 394
#     4  12  20  40  72  96 124 160 222 276 320 376
#     4   9  19  36  64  94 125 159 211 271 325 378
#     4  11  22  39  67  96 125 165 220 272 328 393
#
# _framework density 23.005790999999999
#
# number of rings (size 3 to 8) (size 9 to 14) (size 15 to 20)
#    0.000    1.176    2.353    5.647    0.000    3.765 
#    0.000    0.588    0.000    4.941    0.000    0.000 
#    0.000    0.000    0.000    0.000    0.000    0.000 
#
# Total GULP energy -190166.509426 kJ/mol
# GULP energy per Si atom -5593.132630 kJ/mol
# Density = 2.295343 g / cm^3
# Si number density = 23.005791 Si / 1000 Ang^3
#
#
#
# Elastic Constant Matrix: (Units=GPa)
#
#
# Indices 1 2 3 4 5 6 
#
# 1 108.2132 31.8408 16.6039 0.0000 0.0000 0.0000
# 2 31.8408 130.0564 27.7991 0.0000 0.0000 0.0000
# 3 16.6039 27.7991 62.8608 0.0000 0.0000 0.0000
# 4 0.0000 0.0000 0.0000 1.6739 0.0000 0.0000
# 5 0.0000 0.0000 0.0000 0.0000 22.2563 0.0000
# 6 0.0000 0.0000 0.0000 0.0000 0.0000 29.7152
#
#
#
# Elastic Compliance Matrix: (Units=1/GPa)
#
#
# Indices 1 2 3 4 5 6 
#
# 1 0.010129 -0.002107 -0.001744 0.000000 0.000000 0.000000
# 2 -0.002107 0.008930 -0.003393 0.000000 0.000000 0.000000
# 3 -0.001744 -0.003393 0.017869 0.000000 0.000000 0.000000
# 4 0.000000 0.000000 0.000000 0.597405 0.000000 0.000000
# 5 0.000000 0.000000 0.000000 0.000000 0.044931 0.000000
# 6 0.000000 0.000000 0.000000 0.000000 0.000000 0.033653
#
#
# Mechanical properties :
#
#
# Convention : Reuss Voigt Hill
#
# Bulk Modulus (GPa) = 44.56084 50.40200 47.48142
# Shear Modulus (GPa) = 6.80380 25.72152 16.26266
#
# Velocity S-wave (km/s) = 1.72158 3.34735 2.66163
# Velocity P-wave (km/s) = 4.83355 6.07417 5.48903
#
# Compressibility (1/GPa) = 0.02244123
#
# Stress axis : x y z
#
# Youngs Moduli (GPa) = 98.73117 111.98246 55.96283
#
# Poissons Ratio (x) = 0.23595 0.09757
# Poissons Ratio (y) = 0.20803 0.18986
# Poissons Ratio (z) = 0.17214 0.37991
#
# Static dielectric constant tensor:
#      x y z
#    x 1.875000 0.000000 0.000000 
#    y 0.000000 1.922580 0.000000 
#    z 0.000000 0.000000 1.879480 
# 
# From -- ./inp_files/9233.got.cif
#   From: 2010.05.17/outbox.cif.g08.bks.cpg/sg50_5_cif.got.tgz:9233.got - 2010.06.03 11:33:33.
