data_PCOD9397743
_publ_section_title
;
Structure prediction by ZEFSAII (Michael W. Deem and Ramdas Pophale) SiO2 
 PCOD9397743
Probable space group: P B A N
;
_chemical_formula_sum "Si O2"
_cell_formula_units_Z 26
_cell_length_a 11.046821
_cell_length_b 19.135481
_cell_length_c 4.994381
_cell_angle_alpha 90.000000
_cell_angle_beta 90.000000
_cell_angle_gamma 90.000000
_cell_volume 1055.743388
_symmetry_space_group_name_H-M "P B A N"
_symmetry_group_IT_number 50
_space_group.IT_coordinate_system_code '2'
_symmetry_cell_setting 'orthorhombic'
loop_
_space_group_symop_operation_xyz
x,y,z
1/2-x,1/2-y,z
x,1/2-y,-z
1/2-x,y,-z
-x,-y,-z
1/2+x,1/2+y,-z
-x,1/2+y,z
1/2+x,-y,z
loop_
_atom_site_type_symbol
_atom_site_label
_atom_site_fract_x
_atom_site_fract_y
_atom_site_fract_z
Si Si1 0.060485 0.177292 0.608340
Si Si2 0.329290 0.599141 0.224750
Si Si3 0.116767 0.039076 0.362978
Si Si4 0.750000 0.750000 0.000000
O O1 0.012361 0.250000 0.500000
O O2 0.089471 0.121423 0.371220
O O3 0.169597 0.201181 0.802838
O O4 0.954902 0.138264 0.760314
O O5 0.250000 0.600475 0.500000
O O6 0.360934 0.518845 0.135245
O O7 0.250000 0.633590 0.000000
O O8 0.250000 0.039225 0.500000
O O9 0.000000 0.000000 0.500000
#
# Coordination Sequence:
#
# PCOD9397743 Si02
#       4
#     8   8   8   2
#     4  11  25  47  70 109 150 200 253 309 381 455
#     4  10  24  49  78 110 146 195 253 316 382 444
#     4   9  19  43  69 101 143 184 246 306 367 439
#     4  12  26  44  74 106 160 200 254 300 386 460
#
# _framework density 24.627199000000001
#
# number of rings (size 3 to 8) (size 9 to 14) (size 15 to 20)
#    0.000    1.846    0.000    2.308    4.308    0.615 
#   30.462   13.846    0.000    0.000    4.000    0.000 
#    0.000    0.000    0.000    0.000    0.000    0.000 
#
# Total GULP energy -144768.535163 kJ/mol
# GULP energy per Si atom -5568.020583 kJ/mol
# Density = 2.457115 g / cm^3
# Si number density = 24.627199 Si / 1000 Ang^3
#
#
#
# Elastic Constant Matrix: (Units=GPa)
#
#
# Indices 1 2 3 4 5 6 
#
# 1 135.7880 57.5734 27.6814 0.0000 0.0000 0.0000
# 2 57.5734 218.4949 27.2452 0.0000 0.0000 0.0000
# 3 27.6814 27.2452 70.9175 0.0000 0.0000 0.0000
# 4 0.0000 0.0000 0.0000 -2.5492 0.0000 0.0000
# 5 0.0000 0.0000 0.0000 0.0000 48.2033 0.0000
# 6 0.0000 0.0000 0.0000 0.0000 0.0000 101.3663
#
#
#
# Elastic Compliance Matrix: (Units=1/GPa)
#
#
# Indices 1 2 3 4 5 6 
#
# 1 0.008742 -0.001972 -0.002654 0.000000 0.000000 0.000000
# 2 -0.001972 0.005252 -0.001248 0.000000 0.000000 0.000000
# 3 -0.002654 -0.001248 0.015616 0.000000 0.000000 0.000000
# 4 0.000000 0.000000 0.000000 -0.392277 0.000000 0.000000
# 5 0.000000 0.000000 0.000000 0.000000 0.020745 0.000000
# 6 0.000000 0.000000 0.000000 0.000000 0.000000 0.009865
#
#
# Mechanical properties :
#
#
# Convention : Reuss Voigt Hill
#
# Bulk Modulus (GPa) = 55.98838 72.24449 64.11643
# Shear Modulus (GPa) = -15.90568 50.25078 17.17255
#
# Velocity S-wave (km/s) = -2.54413 4.52204 2.64351
# Velocity P-wave (km/s) = 3.76212 7.52756 5.95053
#
# Compressibility (1/GPa) = 0.01786085
#
# Stress axis : x y z
#
# Youngs Moduli (GPa) = 114.39199 190.39947 64.03525
#
# Poissons Ratio (x) = 0.37556 0.16998
# Poissons Ratio (y) = 0.22564 0.07991
# Poissons Ratio (z) = 0.30365 0.23759
#
# Static dielectric constant tensor:
#      x y z
#    x 1.403690 0.000000 0.000000 
#    y 0.000000 1.955530 0.000000 
#    z 0.000000 0.000000 0.741940 
# 
# From -- ./inp_files/1693.got.cif
#   From: 2010.05.17/outbox.cif.g08.bks.cpg/sg50_1_cif.got.tgz:1693.got - 2010.06.03 11:33:33.
