data_PCOD9397889
_publ_section_title
;
Structure prediction by ZEFSAII (Michael W. Deem and Ramdas Pophale) SiO2 
 PCOD9397889
Probable space group: P B A N
;
_chemical_formula_sum "Si O2"
_cell_formula_units_Z 38
_cell_length_a 9.021039
_cell_length_b 14.082452
_cell_length_c 12.250311
_cell_angle_alpha 90.000000
_cell_angle_beta 90.000000
_cell_angle_gamma 90.000000
_cell_volume 1556.259281
_symmetry_space_group_name_H-M "P B A N"
_symmetry_group_IT_number 50
_space_group.IT_coordinate_system_code '2'
_symmetry_cell_setting 'orthorhombic'
loop_
_space_group_symop_operation_xyz
x,y,z
1/2-x,1/2-y,z
x,1/2-y,-z
1/2-x,y,-z
-x,-y,-z
1/2+x,1/2+y,-z
-x,1/2+y,z
1/2+x,-y,z
loop_
_atom_site_type_symbol
_atom_site_label
_atom_site_fract_x
_atom_site_fract_y
_atom_site_fract_z
Si Si1 0.429386 0.421868 0.680319
Si Si2 0.937115 0.199203 0.181420
Si Si3 0.250000 0.750000 0.000000
Si Si4 0.250000 0.250000 0.725768
Si Si5 0.771313 0.115357 0.376333
Si Si6 0.628179 0.505129 0.083852
O O1 0.330141 0.330500 0.652906
O O2 0.605278 0.407952 0.667096
O O3 0.367590 0.517361 0.625095
O O4 0.395304 0.434623 0.808917
O O5 0.874620 0.276312 0.095353
O O6 0.864938 0.188035 0.301502
O O7 0.112801 0.207388 0.202359
O O8 0.870284 0.103428 0.126469
O O9 0.750000 0.145909 0.500000
O O10 0.750000 0.539533 0.000000
O O11 0.500000 0.500000 0.000000
#
# Coordination Sequence:
#
# PCOD9397889 Si02
#       6
#     8   8   2   4   8   8
#     4  11  24  43  71 106 144 190 248 309 377 439
#     4  11  25  43  68 102 144 192 234 302 369 443
#     4  12  24  46  70 104 148 180 244 298 380 434
#     4  12  26  45  65 110 158 182 245 299 384 452
#     4  11  24  50  77 103 139 198 261 309 366 452
#     4  11  21  39  63  96 136 189 235 287 351 446
#
# _framework density 24.417525999999999
#
# number of rings (size 3 to 8) (size 9 to 14) (size 15 to 20)
#    0.000    0.842    1.053    8.211    2.947    0.421 
#    0.000    8.421    0.000    0.000    0.000    0.000 
#    0.000    0.000    0.000    0.000    0.000    0.000 
#
# Total GULP energy -211851.596730 kJ/mol
# GULP energy per Si atom -5575.042019 kJ/mol
# Density = 2.436195 g / cm^3
# Si number density = 24.417526 Si / 1000 Ang^3
#
#
#
# Elastic Constant Matrix: (Units=GPa)
#
#
# Indices 1 2 3 4 5 6 
#
# 1 208.7922 21.7190 58.1212 0.0000 0.0000 0.0000
# 2 21.7190 87.9333 6.8264 0.0000 0.0000 0.0000
# 3 58.1212 6.8264 178.2576 0.0000 0.0000 0.0000
# 4 0.0000 0.0000 0.0000 7.6466 0.0000 0.0000
# 5 0.0000 0.0000 0.0000 0.0000 32.3345 0.0000
# 6 0.0000 0.0000 0.0000 0.0000 0.0000 15.2901
#
#
#
# Elastic Compliance Matrix: (Units=1/GPa)
#
#
# Indices 1 2 3 4 5 6 
#
# 1 0.005391 -0.001199 -0.001712 0.000000 0.000000 0.000000
# 2 -0.001199 0.011673 -0.000056 0.000000 0.000000 0.000000
# 3 -0.001712 -0.000056 0.006170 0.000000 0.000000 0.000000
# 4 0.000000 0.000000 0.000000 0.130776 0.000000 0.000000
# 5 0.000000 0.000000 0.000000 0.000000 0.030927 0.000000
# 6 0.000000 0.000000 0.000000 0.000000 0.000000 0.065402
#
#
# Mechanical properties :
#
#
# Convention : Reuss Voigt Hill
#
# Bulk Modulus (GPa) = 57.80215 72.03516 64.91866
# Shear Modulus (GPa) = 19.08119 36.94201 28.01160
#
# Velocity S-wave (km/s) = 2.79848 3.89386 3.39070
# Velocity P-wave (km/s) = 5.84515 7.05561 6.47871
#
# Compressibility (1/GPa) = 0.01730039
#
# Stress axis : x y z
#
# Youngs Moduli (GPa) = 185.50751 85.67033 162.07131
#
# Poissons Ratio (x) = 0.10268 0.27742
# Poissons Ratio (y) = 0.22234 0.00911
# Poissons Ratio (z) = 0.31754 0.00482
#
# Static dielectric constant tensor:
#      x y z
#    x 1.904180 0.000000 0.000000 
#    y 0.000000 2.315240 0.000000 
#    z 0.000000 0.000000 1.948090 
# 
# From -- ./inp_files/18801.got.cif
#   From: 2010.05.17/outbox.cif.g08.bks.cpg/sg50_10_cif.got.tgz:18801.got - 2010.06.03 11:33:33.
