data_PCOD9397051
_publ_section_title
;
Structure prediction by ZEFSAII (Michael W. Deem and Ramdas Pophale) SiO2 
 PCOD9397051
Probable space group: P B A N
;
_chemical_formula_sum "Si O2"
_cell_formula_units_Z 32
_cell_length_a 5.259974
_cell_length_b 16.330955
_cell_length_c 18.313781
_cell_angle_alpha 90.000000
_cell_angle_beta 90.000000
_cell_angle_gamma 90.000000
_cell_volume 1573.161090
_symmetry_space_group_name_H-M "P B A N"
_symmetry_group_IT_number 50
_space_group.IT_coordinate_system_code '2'
_symmetry_cell_setting 'orthorhombic'
loop_
_space_group_symop_operation_xyz
x,y,z
1/2-x,1/2-y,z
x,1/2-y,-z
1/2-x,y,-z
-x,-y,-z
1/2+x,1/2+y,-z
-x,1/2+y,z
1/2+x,-y,z
loop_
_atom_site_type_symbol
_atom_site_label
_atom_site_fract_x
_atom_site_fract_y
_atom_site_fract_z
Si Si1 0.250000 0.750000 0.000000
Si Si2 0.603497 0.331338 0.380949
Si Si3 0.060747 0.055406 0.250175
Si Si4 0.507520 0.198954 0.858620
Si Si5 0.250000 0.554280 0.500000
Si Si6 0.250000 0.250000 0.500000
O O1 0.422053 0.697130 0.944720
O O2 0.750000 0.250000 0.355394
O O3 0.469792 0.380721 0.316844
O O4 0.780555 0.392518 0.426343
O O5 0.416028 0.303488 0.445288
O O6 0.025131 0.111438 0.178447
O O7 0.330256 0.009662 0.253302
O O8 0.250000 0.250000 0.847843
O O9 0.750000 0.250000 0.827186
O O10 0.500000 0.500000 0.500000
#
# Coordination Sequence:
#
# PCOD9397051 Si02
#       6
#     2   8   8   8   4   2
#     4   8  22  40  78 108 134 182 236 272 326 396
#     4  12  26  44  67  98 128 184 238 286 342 418
#     4  12  28  46  68 104 144 182 223 288 357 407
#     4  10  21  43  74 105 136 183 234 270 329 409
#     4  12  24  42  63  93 132 168 214 284 350 400
#     4  12  24  44  72  92 128 168 254 286 338 390
#
# _framework density 20.341208999999999
#
# number of rings (size 3 to 8) (size 9 to 14) (size 15 to 20)
#    0.750    0.000    2.500    4.875    5.250    0.000 
#    0.000    1.250    0.000    0.000    0.000    0.000 
#    0.000    0.000    0.000    0.000    0.000    0.000 
#
# Total GULP energy -178804.864642 kJ/mol
# GULP energy per Si atom -5587.652020 kJ/mol
# Density = 2.029491 g / cm^3
# Si number density = 20.341209 Si / 1000 Ang^3
#
#
#
# Elastic Constant Matrix: (Units=GPa)
#
#
# Indices 1 2 3 4 5 6 
#
# 1 113.9278 34.7377 10.9901 0.0000 0.0000 0.0000
# 2 34.7377 99.5200 41.9087 0.0000 0.0000 0.0000
# 3 10.9901 41.9087 120.3018 0.0000 0.0000 0.0000
# 4 0.0000 0.0000 0.0000 -16.3791 0.0000 0.0000
# 5 0.0000 0.0000 0.0000 0.0000 78.2547 0.0000
# 6 0.0000 0.0000 0.0000 0.0000 0.0000 12.3013
#
#
#
# Elastic Compliance Matrix: (Units=1/GPa)
#
#
# Indices 1 2 3 4 5 6 
#
# 1 0.009835 -0.003580 0.000349 0.000000 0.000000 0.000000
# 2 -0.003580 0.013079 -0.004229 0.000000 0.000000 0.000000
# 3 0.000349 -0.004229 0.009754 0.000000 0.000000 0.000000
# 4 0.000000 0.000000 0.000000 -0.061054 0.000000 0.000000
# 5 0.000000 0.000000 0.000000 0.000000 0.012779 0.000000
# 6 0.000000 0.000000 0.000000 0.000000 0.000000 0.081292
#
#
# Mechanical properties :
#
#
# Convention : Reuss Voigt Hill
#
# Bulk Modulus (GPa) = 56.34697 56.55808 56.45253
# Shear Modulus (GPa) = 57.78907 31.24295 44.51601
#
# Velocity S-wave (km/s) = 5.33587 3.92336 4.68318
# Velocity P-wave (km/s) = 8.10698 6.95620 7.55354
#
# Compressibility (1/GPa) = 0.01774718
#
# Stress axis : x y z
#
# Youngs Moduli (GPa) = 101.67364 76.46029 102.52375
#
# Poissons Ratio (x) = 0.27372 -0.03574
# Poissons Ratio (y) = 0.36398 0.43358
# Poissons Ratio (z) = -0.03544 0.32336
#
# Static dielectric constant tensor:
#      x y z
#    x 1.766470 0.000000 0.000000 
#    y 0.000000 1.493910 0.000000 
#    z 0.000000 0.000000 1.781820 
# 
# From -- ./inp_files/27977.got.cif
#   From: 2010.05.17/outbox.cif.g08.bks.cpg/sg50_14_cif.got.tgz:27977.got - 2010.06.03 11:33:33.
