data_PCOD9397202
_publ_section_title
;
Structure prediction by ZEFSAII (Michael W. Deem and Ramdas Pophale) SiO2 
 PCOD9397202
Probable space group: P B A N
;
_chemical_formula_sum "Si O2"
_cell_formula_units_Z 60
_cell_length_a 22.228329
_cell_length_b 20.721772
_cell_length_c 5.767530
_cell_angle_alpha 90.000000
_cell_angle_beta 90.000000
_cell_angle_gamma 90.000000
_cell_volume 2656.584101
_symmetry_space_group_name_H-M "P B A N"
_symmetry_group_IT_number 50
_space_group.IT_coordinate_system_code '2'
_symmetry_cell_setting 'orthorhombic'
loop_
_space_group_symop_operation_xyz
x,y,z
1/2-x,1/2-y,z
x,1/2-y,-z
1/2-x,y,-z
-x,-y,-z
1/2+x,1/2+y,-z
-x,1/2+y,z
1/2+x,-y,z
loop_
_atom_site_type_symbol
_atom_site_label
_atom_site_fract_x
_atom_site_fract_y
_atom_site_fract_z
Si Si1 0.471130 0.416987 0.329128
Si Si2 0.013657 0.690496 0.674819
Si Si3 0.250000 0.830863 0.000000
Si Si4 0.405958 0.142494 0.060848
Si Si5 0.190394 0.577965 0.377424
Si Si6 0.644000 0.307621 0.683717
Si Si7 0.577613 0.502068 0.276793
Si Si8 0.274067 0.175433 0.244041
O O1 0.505819 0.372777 0.515436
O O2 0.526154 0.451994 0.192795
O O3 0.438180 0.475372 0.461363
O O4 0.420969 0.370347 0.210601
O O5 0.010007 0.750000 0.500000
O O6 0.078450 0.690084 0.797060
O O7 0.959286 0.687661 0.851215
O O8 0.287027 0.875821 0.174524
O O9 0.200779 0.796354 0.156526
O O10 0.418247 0.069247 0.143270
O O11 0.345422 0.168214 0.186901
O O12 0.250000 0.549729 0.500000
O O13 0.156570 0.624458 0.558907
O O14 0.143018 0.528614 0.277278
O O15 0.642379 0.250000 0.500000
O O16 0.250000 0.250000 0.242949
O O17 0.250000 0.151086 0.500000
O O18 0.250000 0.145044 0.000000
#
# Coordination Sequence:
#
# PCOD9397202 Si02
#       8
#     8   8   4   8   8   8   8   8
#     4  10  22  42  68  97 133 178 219 295 355 430
#     4  10  23  39  66 101 134 167 221 289 354 422
#     4  10  24  39  66  90 126 178 231 264 344 426
#     4  11  25  40  71  99 132 186 240 285 363 442
#     4  10  22  40  62  91 127 175 216 283 334 406
#     4  10  22  41  62  95 131 171 219 280 346 411
#     4  10  22  42  64  96 137 173 229 287 351 425
#     4  10  25  46  73 103 145 195 241 307 374 445
#
# _framework density 22.585394000000001
#
# number of rings (size 3 to 8) (size 9 to 14) (size 15 to 20)
#    0.000    1.867    1.333    0.400    7.467    7.733 
#    1.200    2.667    0.000    0.000    0.000    0.000 
#    0.000    0.000    0.000    0.000    0.000    0.000 
#
# Total GULP energy -334615.959033 kJ/mol
# GULP energy per Si atom -5576.932651 kJ/mol
# Density = 2.253399 g / cm^3
# Si number density = 22.585394 Si / 1000 Ang^3
#
#
#
# Elastic Constant Matrix: (Units=GPa)
#
#
# Indices 1 2 3 4 5 6 
#
# 1 189.1127 32.3860 46.3019 0.0000 0.0000 0.0000
# 2 32.3860 69.8604 0.4416 0.0000 0.0000 0.0000
# 3 46.3019 0.4416 71.0046 0.0000 0.0000 0.0000
# 4 0.0000 0.0000 0.0000 30.6166 0.0000 0.0000
# 5 0.0000 0.0000 0.0000 0.0000 59.9496 0.0000
# 6 0.0000 0.0000 0.0000 0.0000 0.0000 24.8971
#
#
#
# Elastic Compliance Matrix: (Units=1/GPa)
#
#
# Indices 1 2 3 4 5 6 
#
# 1 0.006936 -0.003187 -0.004503 0.000000 0.000000 0.000000
# 2 -0.003187 0.015779 0.001980 0.000000 0.000000 0.000000
# 3 -0.004503 0.001980 0.017008 0.000000 0.000000 0.000000
# 4 0.000000 0.000000 0.000000 0.032662 0.000000 0.000000
# 5 0.000000 0.000000 0.000000 0.000000 0.016681 0.000000
# 6 0.000000 0.000000 0.000000 0.000000 0.000000 0.040165
#
#
# Mechanical properties :
#
#
# Convention : Reuss Voigt Hill
#
# Bulk Modulus (GPa) = 35.33207 54.24852 44.79030
# Shear Modulus (GPa) = 33.31425 39.81588 36.56506
#
# Velocity S-wave (km/s) = 3.84479 4.20325 4.02801
# Velocity P-wave (km/s) = 5.94874 6.90129 6.44265
#
# Compressibility (1/GPa) = 0.02830290
#
# Stress axis : x y z
#
# Youngs Moduli (GPa) = 144.17104 63.37458 58.79637
#
# Poissons Ratio (x) = 0.20198 0.26478
# Poissons Ratio (y) = 0.45948 -0.11642
# Poissons Ratio (z) = 0.64924 -0.12549
#
# Static dielectric constant tensor:
#      x y z
#    x 1.867810 0.000000 0.000000 
#    y 0.000000 1.857520 0.000000 
#    z 0.000000 0.000000 1.939370 
# 
# From -- ./inp_files/5486.got.cif
#   From: 2010.05.17/outbox.cif.g08.bks.cpg/sg50_3_cif.got.tgz:5486.got - 2010.06.03 11:33:33.
