data_PCOD9397813
_publ_section_title
;
Structure prediction by ZEFSAII (Michael W. Deem and Ramdas Pophale) SiO2 
 PCOD9397813
Probable space group: P B A N
;
_chemical_formula_sum "Si O2"
_cell_formula_units_Z 40
_cell_length_a 8.664790
_cell_length_b 21.717636
_cell_length_c 10.328050
_cell_angle_alpha 90.000000
_cell_angle_beta 90.000000
_cell_angle_gamma 90.000000
_cell_volume 1943.519593
_symmetry_space_group_name_H-M "P B A N"
_symmetry_group_IT_number 50
_space_group.IT_coordinate_system_code '2'
_symmetry_cell_setting 'orthorhombic'
loop_
_space_group_symop_operation_xyz
x,y,z
1/2-x,1/2-y,z
x,1/2-y,-z
1/2-x,y,-z
-x,-y,-z
1/2+x,1/2+y,-z
-x,1/2+y,z
1/2+x,-y,z
loop_
_atom_site_type_symbol
_atom_site_label
_atom_site_fract_x
_atom_site_fract_y
_atom_site_fract_z
Si Si1 0.311493 0.116038 0.850626
Si Si2 0.200621 0.588427 0.630116
Si Si3 0.250000 0.250000 0.815436
Si Si4 0.524681 0.250000 0.000000
Si Si5 0.842885 0.374386 0.884731
Si Si6 0.347728 0.043653 0.372649
O O1 0.306087 0.182223 0.773145
O O2 0.490341 0.096875 0.857891
O O3 0.217141 0.070668 0.760749
O O4 0.250000 0.120048 0.000000
O O5 0.250000 0.623613 0.500000
O O6 0.235696 0.626109 0.759183
O O7 0.314461 0.529184 0.633446
O O8 0.026119 0.563470 0.619876
O O9 0.402989 0.272375 0.892445
O O10 0.614507 0.193769 0.937101
O O11 0.750000 0.406815 0.000000
O O12 0.250000 0.065088 0.500000
#
# Coordination Sequence:
#
# PCOD9397813 Si02
#       6
#     8   8   4   4   8   8
#     4  11  19  36  61  89 120 161 207 250 302 364
#     4  11  23  41  62  90 123 164 205 252 306 367
#     4   9  16  34  59  86 119 158 199 242 301 360
#     4   9  17  34  58  86 120 156 194 242 302 352
#     4  11  21  35  59  93 123 158 200 253 303 360
#     4  11  23  41  63  87 122 165 204 253 308 364
#
# _framework density 20.581218
#
# number of rings (size 3 to 8) (size 9 to 14) (size 15 to 20)
#    0.000    1.400    4.000    6.300    0.000    0.800 
#    0.000    4.500    0.000    2.400    0.000    0.000 
#    0.000    0.000    0.000    0.000    0.000    0.000 
#
# Total GULP energy -222682.323976 kJ/mol
# GULP energy per Si atom -5567.058099 kJ/mol
# Density = 2.053437 g / cm^3
# Si number density = 20.581218 Si / 1000 Ang^3
#
#
#
# Elastic Constant Matrix: (Units=GPa)
#
#
# Indices 1 2 3 4 5 6 
#
# 1 156.0003 5.9192 39.8426 0.0000 0.0000 0.0000
# 2 5.9192 25.2837 21.1302 0.0000 0.0000 0.0000
# 3 39.8426 21.1302 103.8289 0.0000 0.0000 0.0000
# 4 0.0000 0.0000 0.0000 -67.9211 0.0000 0.0000
# 5 0.0000 0.0000 0.0000 0.0000 47.9923 0.0000
# 6 0.0000 0.0000 0.0000 0.0000 0.0000 22.8618
#
#
#
# Elastic Compliance Matrix: (Units=1/GPa)
#
#
# Indices 1 2 3 4 5 6 
#
# 1 0.007118 0.000743 -0.002883 0.000000 0.000000 0.000000
# 2 0.000743 0.047734 -0.009999 0.000000 0.000000 0.000000
# 3 -0.002883 -0.009999 0.012772 0.000000 0.000000 0.000000
# 4 0.000000 0.000000 0.000000 -0.014723 0.000000 0.000000
# 5 0.000000 0.000000 0.000000 0.000000 0.020837 0.000000
# 6 0.000000 0.000000 0.000000 0.000000 0.000000 0.043741
#
#
# Mechanical properties :
#
#
# Convention : Reuss Voigt Hill
#
# Bulk Modulus (GPa) = 23.07023 46.54409 34.80716
# Shear Modulus (GPa) = 32.00888 15.13464 23.57176
#
# Velocity S-wave (km/s) = 3.94794 2.71470 3.38791
# Velocity P-wave (km/s) = 5.65821 5.70000 5.67915
#
# Compressibility (1/GPa) = 0.04334591
#
# Stress axis : x y z
#
# Youngs Moduli (GPa) = 140.48294 20.94948 78.29407
#
# Poissons Ratio (x) = -0.01556 0.22570
# Poissons Ratio (y) = -0.10433 0.78288
# Poissons Ratio (z) = 0.40496 0.20948
#
# Static dielectric constant tensor:
#      x y z
#    x 1.790680 0.000000 0.000000 
#    y 0.000000 1.720110 0.000000 
#    z 0.000000 0.000000 1.798050 
# 
# From -- ./inp_files/9805.got.cif
#   From: 2010.05.17/outbox.cif.g08.bks.cpg/sg50_5_cif.got.tgz:9805.got - 2010.06.03 11:33:33.
