data_PCOD9397518
_publ_section_title
;
Structure prediction by ZEFSAII (Michael W. Deem and Ramdas Pophale) SiO2 
 PCOD9397518
Probable space group: P B A N
;
_chemical_formula_sum "Si O2"
_cell_formula_units_Z 34
_cell_length_a 20.442576
_cell_length_b 9.020524
_cell_length_c 8.950452
_cell_angle_alpha 90.000000
_cell_angle_beta 90.000000
_cell_angle_gamma 90.000000
_cell_volume 1650.487940
_symmetry_space_group_name_H-M "P B A N"
_symmetry_group_IT_number 50
_space_group.IT_coordinate_system_code '2'
_symmetry_cell_setting 'orthorhombic'
loop_
_space_group_symop_operation_xyz
x,y,z
1/2-x,1/2-y,z
x,1/2-y,-z
1/2-x,y,-z
-x,-y,-z
1/2+x,1/2+y,-z
-x,1/2+y,z
1/2+x,-y,z
loop_
_atom_site_type_symbol
_atom_site_label
_atom_site_fract_x
_atom_site_fract_y
_atom_site_fract_z
Si Si1 0.569159 0.152331 0.152596
Si Si2 0.169881 0.425053 0.995288
Si Si3 0.037951 0.390470 0.394782
Si Si4 0.750000 0.250000 0.500000
Si Si5 0.146460 0.592758 0.300814
O O1 0.500315 0.113503 0.234490
O O2 0.602215 0.262415 0.272695
O O3 0.559017 0.250000 0.000000
O O4 0.620750 0.016223 0.119622
O O5 0.159944 0.525202 0.140403
O O6 0.150326 0.250000 0.000000
O O7 0.250000 0.423059 0.000000
O O8 0.041433 0.250000 0.500000
O O9 0.108647 0.460635 0.378288
O O10 0.000000 0.500000 0.500000
O O11 0.792611 0.353436 0.606172
#
# Coordination Sequence:
#
# PCOD9397518 Si02
#       5
#     8   8   8   2   8
#     4  10  23  44  71  97 137 184 232 281 351 421
#     4  10  23  42  66 100 137 177 237 294 341 406
#     4  12  25  44  66 102 142 175 225 289 357 420
#     4  12  24  48  72 100 140 184 244 270 372 428
#     4  11  24  43  71  98 130 189 223 289 343 433
#
# _framework density 20.599969000000002
#
# number of rings (size 3 to 8) (size 9 to 14) (size 15 to 20)
#    0.000    1.176    2.353    2.824    3.294    8.000 
#    4.235    0.000    0.000    0.000    0.000    0.000 
#    0.000    0.000    0.000    0.000    0.000    0.000 
#
# Total GULP energy -189294.545086 kJ/mol
# GULP energy per Si atom -5567.486620 kJ/mol
# Density = 2.055308 g / cm^3
# Si number density = 20.599969 Si / 1000 Ang^3
#
#
#
# Elastic Constant Matrix: (Units=GPa)
#
#
# Indices 1 2 3 4 5 6 
#
# 1 100.2362 58.4880 36.0911 0.0000 0.0000 0.0000
# 2 58.4880 150.5522 32.0931 0.0000 0.0000 0.0000
# 3 36.0911 32.0931 69.7936 0.0000 0.0000 0.0000
# 4 0.0000 0.0000 0.0000 32.8436 0.0000 0.0000
# 5 0.0000 0.0000 0.0000 0.0000 30.7398 0.0000
# 6 0.0000 0.0000 0.0000 0.0000 0.0000 50.4565
#
#
#
# Elastic Compliance Matrix: (Units=1/GPa)
#
#
# Indices 1 2 3 4 5 6 
#
# 1 0.014567 -0.004494 -0.005466 0.000000 0.000000 0.000000
# 2 -0.004494 0.008750 -0.001700 0.000000 0.000000 0.000000
# 3 -0.005466 -0.001700 0.017936 0.000000 0.000000 0.000000
# 4 0.000000 0.000000 0.000000 0.030447 0.000000 0.000000
# 5 0.000000 0.000000 0.000000 0.000000 0.032531 0.000000
# 6 0.000000 0.000000 0.000000 0.000000 0.000000 0.019819
#
#
# Mechanical properties :
#
#
# Convention : Reuss Voigt Hill
#
# Bulk Modulus (GPa) = 55.76145 63.76959 59.76552
# Shear Modulus (GPa) = 32.60545 35.73531 34.17038
#
# Velocity S-wave (km/s) = 3.98275 4.16952 4.07720
# Velocity P-wave (km/s) = 6.94818 7.36229 7.15823
#
# Compressibility (1/GPa) = 0.01793354
#
# Stress axis : x y z
#
# Youngs Moduli (GPa) = 68.64941 114.28087 55.75297
#
# Poissons Ratio (x) = 0.51356 0.30476
# Poissons Ratio (y) = 0.30850 0.09477
# Poissons Ratio (z) = 0.37526 0.19426
#
# Static dielectric constant tensor:
#      x y z
#    x 1.840660 0.000000 0.000000 
#    y 0.000000 1.617260 0.000000 
#    z 0.000000 0.000000 1.711160 
# 
# From -- ./inp_files/9209.got.cif
#   From: 2010.05.17/outbox.cif.g08.bks.cpg/sg50_5_cif.got.tgz:9209.got - 2010.06.03 11:33:33.
