data_PCOD9397887
_publ_section_title
;
Structure prediction by ZEFSAII (Michael W. Deem and Ramdas Pophale) SiO2 
 PCOD9397887
Probable space group: P B A N
;
_chemical_formula_sum "Si O2"
_cell_formula_units_Z 56
_cell_length_a 7.442489
_cell_length_b 15.260245
_cell_length_c 20.293945
_cell_angle_alpha 90.000000
_cell_angle_beta 90.000000
_cell_angle_gamma 90.000000
_cell_volume 2304.868681
_symmetry_space_group_name_H-M "P B A N"
_symmetry_group_IT_number 50
_space_group.IT_coordinate_system_code '2'
_symmetry_cell_setting 'orthorhombic'
loop_
_space_group_symop_operation_xyz
x,y,z
1/2-x,1/2-y,z
x,1/2-y,-z
1/2-x,y,-z
-x,-y,-z
1/2+x,1/2+y,-z
-x,1/2+y,z
1/2+x,-y,z
loop_
_atom_site_type_symbol
_atom_site_label
_atom_site_fract_x
_atom_site_fract_y
_atom_site_fract_z
Si Si1 0.891518 0.181435 0.951820
Si Si2 0.439516 0.210991 0.253619
Si Si3 0.544940 0.854456 0.490181
Si Si4 0.100982 0.419623 0.648767
Si Si5 0.525853 0.385764 0.631489
Si Si6 0.037928 0.568068 0.833013
Si Si7 0.563126 0.117280 0.790330
O O1 0.750000 0.250000 0.918084
O O2 0.985225 0.114513 0.903572
O O3 0.996650 0.250000 0.000000
O O4 0.750000 0.131183 0.000000
O O5 0.250000 0.250000 0.275120
O O6 0.563339 0.192423 0.317399
O O7 0.406461 0.117573 0.217915
O O8 0.511928 0.280966 0.200361
O O9 0.549174 0.750000 0.500000
O O10 0.750000 0.887384 0.500000
O O11 0.498322 0.886494 0.417151
O O12 0.433166 0.882179 0.553999
O O13 0.307569 0.390368 0.639161
O O14 0.107562 0.523924 0.654615
O O15 0.996121 0.392120 0.714151
O O16 0.229948 0.599516 0.805313
O O17 0.026879 0.463475 0.830095
#
# Coordination Sequence:
#
# PCOD9397887 Si02
#       7
#     8   8   8   8   8   8   8
#     4   6  16  37  69  93 128 178 220 262 316 383
#     4  12  24  40  64  95 135 170 224 286 335 400
#     4   9  19  34  59  79 113 168 223 278 343 404
#     4  11  21  39  57  88 124 165 225 272 347 397
#     4  11  22  38  59  87 121 170 223 288 337 407
#     4  12  23  44  66 102 136 179 220 269 345 392
#     4  12  24  37  65  98 134 172 221 276 334 408
#
# _framework density 24.296393999999999
#
# number of rings (size 3 to 8) (size 9 to 14) (size 15 to 20)
#    0.857    0.714    2.857    4.286    2.000    0.000 
#    0.000    0.714    0.000    1.286    0.000    0.000 
#    0.000    0.000    0.000    0.000    0.000    0.000 
#
# Total GULP energy -312284.055781 kJ/mol
# GULP energy per Si atom -5576.500996 kJ/mol
# Density = 2.424109 g / cm^3
# Si number density = 24.296394 Si / 1000 Ang^3
#
#
#
# Elastic Constant Matrix: (Units=GPa)
#
#
# Indices 1 2 3 4 5 6 
#
# 1 42.8117 11.9427 5.7664 0.0000 0.0000 0.0000
# 2 11.9427 115.8013 30.4044 0.0000 0.0000 0.0000
# 3 5.7664 30.4044 125.9358 0.0000 0.0000 0.0000
# 4 0.0000 0.0000 0.0000 48.7920 0.0000 0.0000
# 5 0.0000 0.0000 0.0000 0.0000 16.2111 0.0000
# 6 0.0000 0.0000 0.0000 0.0000 0.0000 19.7052
#
#
#
# Elastic Compliance Matrix: (Units=1/GPa)
#
#
# Indices 1 2 3 4 5 6 
#
# 1 0.024084 -0.002343 -0.000537 0.000000 0.000000 0.000000
# 2 -0.002343 0.009448 -0.002174 0.000000 0.000000 0.000000
# 3 -0.000537 -0.002174 0.008490 0.000000 0.000000 0.000000
# 4 0.000000 0.000000 0.000000 0.020495 0.000000 0.000000
# 5 0.000000 0.000000 0.000000 0.000000 0.061686 0.000000
# 6 0.000000 0.000000 0.000000 0.000000 0.000000 0.050748
#
#
# Mechanical properties :
#
#
# Convention : Reuss Voigt Hill
#
# Bulk Modulus (GPa) = 31.33373 42.30843 36.82108
# Shear Modulus (GPa) = 25.54975 32.70399 29.12687
#
# Velocity S-wave (km/s) = 3.24633 3.67283 3.46615
# Velocity P-wave (km/s) = 5.19385 5.95294 5.58630
#
# Compressibility (1/GPa) = 0.03191449
#
# Stress axis : x y z
#
# Youngs Moduli (GPa) = 41.52133 105.84462 117.78649
#
# Poissons Ratio (x) = 0.24797 0.06327
# Poissons Ratio (y) = 0.09728 0.25603
# Poissons Ratio (z) = 0.02230 0.23007
#
# Static dielectric constant tensor:
#      x y z
#    x 1.982280 0.000000 0.000000 
#    y 0.000000 2.053530 0.000000 
#    z 0.000000 0.000000 2.015620 
# 
# From -- ./inp_files/30638.got.cif
#   From: 2010.05.17/outbox.cif.g08.bks.cpg/sg50_16_cif.got.tgz:30638.got - 2010.06.03 11:33:33.
