data_PCOD9397694
_publ_section_title
;
Structure prediction by ZEFSAII (Michael W. Deem and Ramdas Pophale) SiO2 
 PCOD9397694
Probable space group: P B A N
;
_chemical_formula_sum "Si O2"
_cell_formula_units_Z 32
_cell_length_a 10.041088
_cell_length_b 7.768330
_cell_length_c 15.114244
_cell_angle_alpha 90.000000
_cell_angle_beta 90.000000
_cell_angle_gamma 90.000000
_cell_volume 1178.948593
_symmetry_space_group_name_H-M "P B A N"
_symmetry_group_IT_number 50
_space_group.IT_coordinate_system_code '2'
_symmetry_cell_setting 'orthorhombic'
loop_
_space_group_symop_operation_xyz
x,y,z
1/2-x,1/2-y,z
x,1/2-y,-z
1/2-x,y,-z
-x,-y,-z
1/2+x,1/2+y,-z
-x,1/2+y,z
1/2+x,-y,z
loop_
_atom_site_type_symbol
_atom_site_label
_atom_site_fract_x
_atom_site_fract_y
_atom_site_fract_z
Si Si1 0.326080 0.072249 0.909668
Si Si2 0.069487 0.787659 0.836425
Si Si3 0.304100 0.562525 0.399281
Si Si4 0.919240 0.924110 0.297428
O O1 0.250000 0.250000 0.878934
O O2 0.477772 0.142603 0.914978
O O3 0.352509 0.885422 0.862106
O O4 0.250000 0.029555 0.000000
O O5 0.972037 0.737752 0.754973
O O6 0.123252 0.954852 0.786178
O O7 0.250000 0.750000 0.366959
O O8 0.250000 0.556628 0.500000
O O9 0.457796 0.541390 0.368466
O O10 0.214017 0.423334 0.351992
#
# Coordination Sequence:
#
# PCOD9397694 Si02
#       4
#     8   8   8   8
#     4  10  24  46  74 104 150 191 253 319 401 469
#     4  10  24  44  73 109 145 197 260 318 388 468
#     4  11  24  44  71 114 160 207 260 322 388 460
#     4  11  23  45  75 110 154 208 261 321 385 462
#
# _framework density 27.142828999999999
#
# number of rings (size 3 to 8) (size 9 to 14) (size 15 to 20)
#    0.000    1.500    2.500    0.750    7.000    4.000 
#    0.000    6.250    0.000    0.000    0.000    0.000 
#    0.000    0.000    0.000    0.000    0.000    0.000 
#
# Total GULP energy -178239.428506 kJ/mol
# GULP energy per Si atom -5569.982141 kJ/mol
# Density = 2.708105 g / cm^3
# Si number density = 27.142829 Si / 1000 Ang^3
#
#
#
# Elastic Constant Matrix: (Units=GPa)
#
#
# Indices 1 2 3 4 5 6 
#
# 1 108.1977 37.0652 16.6606 0.0000 0.0000 0.0000
# 2 37.0652 179.1570 13.4243 0.0000 0.0000 0.0000
# 3 16.6606 13.4243 61.3764 0.0000 0.0000 0.0000
# 4 0.0000 0.0000 0.0000 -454.8897 0.0000 0.0000
# 5 0.0000 0.0000 0.0000 0.0000 47.8596 0.0000
# 6 0.0000 0.0000 0.0000 0.0000 0.0000 175.2072
#
#
#
# Elastic Compliance Matrix: (Units=1/GPa)
#
#
# Indices 1 2 3 4 5 6 
#
# 1 0.010274 -0.001948 -0.002363 0.000000 0.000000 0.000000
# 2 -0.001948 0.006044 -0.000793 0.000000 0.000000 0.000000
# 3 -0.002363 -0.000793 0.017108 0.000000 0.000000 0.000000
# 4 0.000000 0.000000 0.000000 -0.002198 0.000000 0.000000
# 5 0.000000 0.000000 0.000000 0.000000 0.020894 0.000000
# 6 0.000000 0.000000 0.000000 0.000000 0.000000 0.005708
#
#
# Mechanical properties :
#
#
# Convention : Reuss Voigt Hill
#
# Bulk Modulus (GPa) = 43.07139 53.67014 48.37076
# Shear Modulus (GPa) = 65.98345 -27.59251 19.19547
#
# Velocity S-wave (km/s) = 4.93584 -3.19182 2.66221
# Velocity P-wave (km/s) = 6.95602 2.49650 5.22583
#
# Compressibility (1/GPa) = 0.02321727
#
# Stress axis : x y z
#
# Youngs Moduli (GPa) = 97.33665 165.44701 58.45322
#
# Poissons Ratio (x) = 0.32236 0.13810
# Poissons Ratio (y) = 0.18966 0.04636
# Poissons Ratio (z) = 0.22997 0.13122
#
# Static dielectric constant tensor:
#      x y z
#    x 2.495470 0.000000 0.000000 
#    y 0.000000 2.196870 0.000000 
#    z 0.000000 0.000000 0.981840 
# 
# From -- ./inp_files/25647.got.cif
#   From: 2010.05.17/outbox.cif.g08.bks.cpg/sg50_13_cif.got.tgz:25647.got - 2010.06.03 11:33:33.
