data_PCOD9397747
_publ_section_title
;
Structure prediction by ZEFSAII (Michael W. Deem and Ramdas Pophale) SiO2 
 PCOD9397747
Probable space group: P B A N
;
_chemical_formula_sum "Si O2"
_cell_formula_units_Z 26
_cell_length_a 8.953717
_cell_length_b 10.168073
_cell_length_c 11.466279
_cell_angle_alpha 90.000000
_cell_angle_beta 90.000000
_cell_angle_gamma 90.000000
_cell_volume 1043.913524
_symmetry_space_group_name_H-M "P B A N"
_symmetry_group_IT_number 50
_space_group.IT_coordinate_system_code '2'
_symmetry_cell_setting 'orthorhombic'
loop_
_space_group_symop_operation_xyz
x,y,z
1/2-x,1/2-y,z
x,1/2-y,-z
1/2-x,y,-z
-x,-y,-z
1/2+x,1/2+y,-z
-x,1/2+y,z
1/2+x,-y,z
loop_
_atom_site_type_symbol
_atom_site_label
_atom_site_fract_x
_atom_site_fract_y
_atom_site_fract_z
Si Si1 0.478766 0.395183 0.344164
Si Si2 0.750000 0.250000 0.000000
Si Si3 0.250000 0.562659 0.500000
Si Si4 0.895421 0.494591 0.887325
Si Si5 0.750000 0.750000 0.797826
O O1 0.357639 0.470141 0.422731
O O2 0.629960 0.365877 0.415627
O O3 0.520210 0.486221 0.234716
O O4 0.391716 0.275034 0.285321
O O5 0.823247 0.147272 0.089875
O O6 0.787405 0.620374 0.873242
O O7 0.000000 0.500000 0.000000
#
# Coordination Sequence:
#
# PCOD9397747 Si02
#       5
#     8   2   4   8   4
#     4  11  24  50  78 119 170 224 273 346 417 509
#     4  12  28  50  80 116 164 210 272 334 434 510
#     4  10  24  51  79 116 172 223 281 330 422 503
#     4  12  27  50  82 123 163 218 279 353 426 508
#     4  12  26  50  84 124 172 213 283 354 434 494
#
# _framework density 24.906279999999999
#
# number of rings (size 3 to 8) (size 9 to 14) (size 15 to 20)
#    0.000    0.615    3.077    3.692    0.000    4.923 
#    0.000    1.538    0.000    0.000    0.000    0.000 
#    0.000    0.000    0.000    0.000    0.000    0.000 
#
# Total GULP energy -145455.078144 kJ/mol
# GULP energy per Si atom -5594.426082 kJ/mol
# Density = 2.484959 g / cm^3
# Si number density = 24.906280 Si / 1000 Ang^3
#
#
#
# Elastic Constant Matrix: (Units=GPa)
#
#
# Indices 1 2 3 4 5 6 
#
# 1 184.5850 89.5639 100.5695 0.0000 0.0000 0.0000
# 2 89.5639 182.2741 65.5957 0.0000 0.0000 0.0000
# 3 100.5695 65.5957 184.8683 0.0000 0.0000 0.0000
# 4 0.0000 0.0000 0.0000 38.3306 0.0000 0.0000
# 5 0.0000 0.0000 0.0000 0.0000 70.4726 0.0000
# 6 0.0000 0.0000 0.0000 0.0000 0.0000 33.0722
#
#
#
# Elastic Compliance Matrix: (Units=1/GPa)
#
#
# Indices 1 2 3 4 5 6 
#
# 1 0.008959 -0.003036 -0.003797 0.000000 0.000000 0.000000
# 2 -0.003036 0.007318 -0.000945 0.000000 0.000000 0.000000
# 3 -0.003797 -0.000945 0.007810 0.000000 0.000000 0.000000
# 4 0.000000 0.000000 0.000000 0.026089 0.000000 0.000000
# 5 0.000000 0.000000 0.000000 0.000000 0.014190 0.000000
# 6 0.000000 0.000000 0.000000 0.000000 0.000000 0.030237
#
#
# Mechanical properties :
#
#
# Convention : Reuss Voigt Hill
#
# Bulk Modulus (GPa) = 117.20591 118.13173 117.66882
# Shear Modulus (GPa) = 44.24689 48.10830 46.17759
#
# Velocity S-wave (km/s) = 4.21947 4.39973 4.31054
# Velocity P-wave (km/s) = 8.42018 8.56409 8.49244
#
# Compressibility (1/GPa) = 0.00853199
#
# Stress axis : x y z
#
# Youngs Moduli (GPa) = 111.61669 136.64688 128.04131
#
# Poissons Ratio (x) = 0.41486 0.48613
# Poissons Ratio (y) = 0.33887 0.12101
# Poissons Ratio (z) = 0.42377 0.12914
#
# Static dielectric constant tensor:
#      x y z
#    x 1.995480 0.000000 0.000000 
#    y 0.000000 1.869830 0.000000 
#    z 0.000000 0.000000 2.660210 
# 
# From -- ./inp_files/18213.got.cif
#   From: 2010.05.17/outbox.cif.g08.bks.cpg/sg50_10_cif.got.tgz:18213.got - 2010.06.03 11:33:33.
