data_PCOD9397162
_publ_section_title
;
Structure prediction by ZEFSAII (Michael W. Deem and Ramdas Pophale) SiO2 
 PCOD9397162
Probable space group: P B A N
;
_chemical_formula_sum "Si O2"
_cell_formula_units_Z 64
_cell_length_a 16.634573
_cell_length_b 12.497206
_cell_length_c 15.603967
_cell_angle_alpha 90.000000
_cell_angle_beta 90.000000
_cell_angle_gamma 90.000000
_cell_volume 3243.841376
_symmetry_space_group_name_H-M "P B A N"
_symmetry_group_IT_number 50
_space_group.IT_coordinate_system_code '2'
_symmetry_cell_setting 'orthorhombic'
loop_
_space_group_symop_operation_xyz
x,y,z
1/2-x,1/2-y,z
x,1/2-y,-z
1/2-x,y,-z
-x,-y,-z
1/2+x,1/2+y,-z
-x,1/2+y,z
1/2+x,-y,z
loop_
_atom_site_type_symbol
_atom_site_label
_atom_site_fract_x
_atom_site_fract_y
_atom_site_fract_z
Si Si1 0.656304 0.866190 0.499998
Si Si2 0.595176 0.018245 0.843234
Si Si3 0.904827 0.481754 0.156763
Si Si4 0.091458 0.522308 0.362778
Si Si5 0.408540 0.977696 0.637226
Si Si6 0.657675 0.250002 0.638011
Si Si7 0.342719 0.749999 0.153193
Si Si8 0.250001 0.125600 0.897745
O O1 0.614957 0.750000 0.500000
O O2 0.750000 0.851623 0.500000
O O3 0.637934 0.933849 0.584425
O O4 0.637938 0.933842 0.415566
O O5 0.500002 0.999998 0.865077
O O6 0.667172 0.938002 0.872819
O O7 0.601351 0.014233 0.739576
O O8 0.616737 0.138661 0.873462
O O9 0.898650 0.485766 0.260421
O O10 0.883264 0.361339 0.126535
O O11 0.832832 0.562000 0.127178
O O12 0.116579 0.640914 0.390109
O O13 0.999999 0.500003 0.383552
O O14 0.383418 0.859091 0.609891
O O15 0.750000 0.250000 0.611230
O O16 0.655747 0.250002 0.742442
O O17 0.250000 0.750000 0.125893
O O18 0.250000 0.250000 0.865333
O O19 0.250000 0.130216 0.000000
#
# Coordination Sequence:
#
# PCOD9397162 Si02
#       8
#     8   8   8   8   8   8   8   8
#     4  11  25  39  55  83 127 165 209 265 307 369
#     4  10  22  40  68  95 125 167 214 261 317 382
#     4  10  22  40  68  95 125 167 214 261 317 382
#     4  10  22  39  61  88 121 159 208 259 315 365
#     4  10  22  39  61  88 121 159 208 259 315 365
#     4   9  18  33  60  85 113 150 198 261 301 364
#     4   9  16  34  61  93 123 149 205 267 307 361
#     4  11  26  45  65  96 136 172 208 257 316 382
#
# _framework density 19.729695
#
# number of rings (size 3 to 8) (size 9 to 14) (size 15 to 20)
#    0.000    2.000    1.250    1.125    7.000    2.000 
#    0.000    2.500    0.000    0.000    0.000    0.000 
#    0.000    0.000    0.000    0.000    0.000    0.000 
#
# Total GULP energy -356861.859936 kJ/mol
# GULP energy per Si atom -5575.966562 kJ/mol
# Density = 1.968479 g / cm^3
# Si number density = 19.729695 Si / 1000 Ang^3
#
#
#
# Elastic Constant Matrix: (Units=GPa)
#
#
# Indices 1 2 3 4 5 6 
#
# 1 179.7129 119.7197 34.2822 0.0000 0.0000 0.0000
# 2 119.7197 218.8395 27.2804 0.0000 0.0000 0.0000
# 3 34.2822 27.2804 26.9428 0.0000 0.0000 0.0000
# 4 0.0000 0.0000 0.0000 23.9406 0.0000 0.0000
# 5 0.0000 0.0000 0.0000 0.0000 15.7829 0.0000
# 6 0.0000 0.0000 0.0000 0.0000 0.0000 41.3593
#
#
#
# Elastic Compliance Matrix: (Units=1/GPa)
#
#
# Indices 1 2 3 4 5 6 
#
# 1 0.010173 -0.004522 -0.008365 0.000000 0.000000 0.000000
# 2 -0.004522 0.007240 -0.001576 0.000000 0.000000 0.000000
# 3 -0.008365 -0.001576 0.049355 0.000000 0.000000 0.000000
# 4 0.000000 0.000000 0.000000 0.041770 0.000000 0.000000
# 5 0.000000 0.000000 0.000000 0.000000 0.063360 0.000000
# 6 0.000000 0.000000 0.000000 0.000000 0.000000 0.024178
#
#
# Mechanical properties :
#
#
# Convention : Reuss Voigt Hill
#
# Bulk Modulus (GPa) = 26.42654 87.56223 56.99438
# Shear Modulus (GPa) = 21.04221 32.49743 26.76982
#
# Velocity S-wave (km/s) = 3.26931 4.06289 3.68751
# Velocity P-wave (km/s) = 5.26066 8.15394 6.86153
#
# Compressibility (1/GPa) = 0.03784074
#
# Stress axis : x y z
#
# Youngs Moduli (GPa) = 98.30071 138.11822 20.26124
#
# Poissons Ratio (x) = 0.62464 0.16948
# Poissons Ratio (y) = 0.44456 0.03194
# Poissons Ratio (z) = 0.82227 0.21774
#
# Static dielectric constant tensor:
#      x y z
#    x 1.669510 0.000000 0.000000 
#    y 0.000000 1.765100 0.000000 
#    z 0.000000 0.000000 1.705210 
# 
# From -- ./inp_files/29548.got.cif
#   From: 2010.05.17/outbox.cif.g08.bks.cpg/sg50_15_cif.got.tgz:29548.got - 2010.06.03 11:33:33.
