data_PCOD9397411
_publ_section_title
;
Structure prediction by ZEFSAII (Michael W. Deem and Ramdas Pophale) SiO2 
 PCOD9397411
Probable space group: P B A N
;
_chemical_formula_sum "Si O2"
_cell_formula_units_Z 34
_cell_length_a 13.352273
_cell_length_b 12.450947
_cell_length_c 8.662143
_cell_angle_alpha 90.000000
_cell_angle_beta 90.000000
_cell_angle_gamma 90.000000
_cell_volume 1440.067791
_symmetry_space_group_name_H-M "P B A N"
_symmetry_group_IT_number 50
_space_group.IT_coordinate_system_code '2'
_symmetry_cell_setting 'orthorhombic'
loop_
_space_group_symop_operation_xyz
x,y,z
1/2-x,1/2-y,z
x,1/2-y,-z
1/2-x,y,-z
-x,-y,-z
1/2+x,1/2+y,-z
-x,1/2+y,z
1/2+x,-y,z
loop_
_atom_site_type_symbol
_atom_site_label
_atom_site_fract_x
_atom_site_fract_y
_atom_site_fract_z
Si Si1 0.386999 0.074144 0.647438
Si Si2 0.885085 0.129975 0.440837
Si Si3 0.570260 0.872864 0.011113
Si Si4 0.848610 0.427002 0.898427
Si Si5 0.250000 0.250000 0.500000
O O1 0.497218 0.109216 0.591447
O O2 0.391703 0.071025 0.831864
O O3 0.315476 0.170681 0.602142
O O4 0.358631 0.963147 0.563625
O O5 0.869640 0.250000 0.500000
O O6 0.835600 0.117612 0.272989
O O7 0.449246 0.878268 0.022092
O O8 0.600982 0.750000 0.000000
O O9 0.618912 0.947223 0.880501
O O10 0.750000 0.411890 0.000000
#
# Coordination Sequence:
#
# PCOD9397411 Si02
#       5
#     8   8   8   8   2
#     4  10  24  40  72 106 143 193 246 301 374 424
#     4  10  22  46  72 100 150 198 241 302 373 437
#     4  10  24  44  69 103 144 189 239 302 367 434
#     4  10  24  43  71 102 142 191 246 294 366 438
#     4  12  24  40  72 112 140 182 250 314 336 460
#
# _framework density 23.609998999999998
#
# number of rings (size 3 to 8) (size 9 to 14) (size 15 to 20)
#    0.000    1.882    1.176    0.000    6.588   10.353 
#    0.000    0.588    0.000    2.824    0.000    0.000 
#    0.000    0.000    0.000    0.000    0.000    0.000 
#
# Total GULP energy -190395.984540 kJ/mol
# GULP energy per Si atom -5599.881898 kJ/mol
# Density = 2.355626 g / cm^3
# Si number density = 23.609999 Si / 1000 Ang^3
#
#
#
# Elastic Constant Matrix: (Units=GPa)
#
#
# Indices 1 2 3 4 5 6 
#
# 1 111.9455 17.8430 61.2320 0.0000 0.0000 0.0000
# 2 17.8430 200.9242 92.7899 0.0000 0.0000 0.0000
# 3 61.2320 92.7899 130.8831 0.0000 0.0000 0.0000
# 4 0.0000 0.0000 0.0000 33.4015 0.0000 0.0000
# 5 0.0000 0.0000 0.0000 0.0000 31.5540 0.0000
# 6 0.0000 0.0000 0.0000 0.0000 0.0000 26.5457
#
#
#
# Elastic Compliance Matrix: (Units=1/GPa)
#
#
# Indices 1 2 3 4 5 6 
#
# 1 0.012745 0.002411 -0.007672 0.000000 0.000000 0.000000
# 2 0.002411 0.007856 -0.006698 0.000000 0.000000 0.000000
# 3 -0.007672 -0.006698 0.015978 0.000000 0.000000 0.000000
# 4 0.000000 0.000000 0.000000 0.029939 0.000000 0.000000
# 5 0.000000 0.000000 0.000000 0.000000 0.031692 0.000000
# 6 0.000000 0.000000 0.000000 0.000000 0.000000 0.037671
#
#
# Mechanical properties :
#
#
# Convention : Reuss Voigt Hill
#
# Bulk Modulus (GPa) = 78.97537 87.49805 83.23671
# Shear Modulus (GPa) = 30.48450 36.42609 33.45530
#
# Velocity S-wave (km/s) = 3.59718 3.93214 3.76839
# Velocity P-wave (km/s) = 7.12570 7.59973 7.36653
#
# Compressibility (1/GPa) = 0.01266218
#
# Stress axis : x y z
#
# Youngs Moduli (GPa) = 78.46175 127.29289 62.58633
#
# Poissons Ratio (x) = -0.30694 0.48017
# Poissons Ratio (y) = -0.18919 0.41917
# Poissons Ratio (z) = 0.60197 0.85255
#
# Static dielectric constant tensor:
#      x y z
#    x 1.941390 0.000000 0.000000 
#    y 0.000000 1.872230 0.000000 
#    z 0.000000 0.000000 1.982940 
# 
# From -- ./inp_files/12229.got.cif
#   From: 2010.05.17/outbox.cif.g08.bks.cpg/sg50_7_cif.got.tgz:12229.got - 2010.06.03 11:33:33.
