data_PCOD9397149
_publ_section_title
;
Structure prediction by ZEFSAII (Michael W. Deem and Ramdas Pophale) SiO2 
 PCOD9397149
Probable space group: P B A N
;
_chemical_formula_sum "Si O2"
_cell_formula_units_Z 64
_cell_length_a 9.051891
_cell_length_b 11.315205
_cell_length_c 29.585711
_cell_angle_alpha 90.000000
_cell_angle_beta 90.000000
_cell_angle_gamma 90.000000
_cell_volume 3030.286932
_symmetry_space_group_name_H-M "P B A N"
_symmetry_group_IT_number 50
_space_group.IT_coordinate_system_code '2'
_symmetry_cell_setting 'orthorhombic'
loop_
_space_group_symop_operation_xyz
x,y,z
1/2-x,1/2-y,z
x,1/2-y,-z
1/2-x,y,-z
-x,-y,-z
1/2+x,1/2+y,-z
-x,1/2+y,z
1/2+x,-y,z
loop_
_atom_site_type_symbol
_atom_site_label
_atom_site_fract_x
_atom_site_fract_y
_atom_site_fract_z
Si Si1 0.094575 0.286389 0.673767
Si Si2 0.261822 0.109121 0.447935
Si Si3 0.597874 0.968137 0.824889
Si Si4 0.917270 0.381244 0.017291
Si Si5 0.670380 0.125028 0.121287
Si Si6 0.656282 0.369545 0.690158
Si Si7 0.977586 0.992533 0.612384
Si Si8 0.646385 0.933661 0.237628
O O1 0.250000 0.250000 0.652017
O O2 0.993975 0.377237 0.644704
O O3 0.123165 0.348802 0.720894
O O4 0.014930 0.167041 0.687696
O O5 0.250000 0.250000 0.449031
O O6 0.250000 0.066617 0.500000
O O7 0.393461 0.066298 0.413201
O O8 0.111006 0.062012 0.428124
O O9 0.702688 0.032819 0.862044
O O10 0.714354 0.903008 0.793048
O O11 0.471127 0.887829 0.846473
O O12 0.499357 0.054828 0.793309
O O13 0.897359 0.388442 0.071267
O O14 0.974627 0.250000 0.000000
O O15 0.750000 0.386959 0.000000
O O16 0.000000 0.500000 0.000000
O O17 0.750000 0.250000 0.123878
O O18 0.750000 0.250000 0.690694
O O19 0.649423 0.441187 0.643083
O O20 0.682057 0.443691 0.735498
#
# Coordination Sequence:
#
# PCOD9397149 Si02
#       8
#     8   8   8   8   8   8   8   8
#     4  11  22  37  62  90 126 164 217 264 315 378
#     4  11  24  42  64  89 122 161 202 252 323 391
#     4  10  23  40  62  92 135 173 222 268 320 401
#     4  11  23  44  75 104 139 177 225 291 352 414
#     4  11  23  43  67  97 130 175 219 276 336 397
#     4  11  22  36  61  89 123 165 216 264 320 380
#     4  11  22  40  62  91 122 157 205 265 316 373
#     4  10  22  39  58  91 127 177 217 266 319 387
#
# _framework density 21.120111999999999
#
# number of rings (size 3 to 8) (size 9 to 14) (size 15 to 20)
#    0.000    1.250    1.250    5.250    0.000    9.250 
#    0.000    1.875    0.000    3.000    0.000    0.000 
#    0.000    0.000    0.000    0.000    0.000    0.000 
#
# Total GULP energy -356577.169101 kJ/mol
# GULP energy per Si atom -5571.518267 kJ/mol
# Density = 2.107204 g / cm^3
# Si number density = 21.120112 Si / 1000 Ang^3
#
#
#
# Elastic Constant Matrix: (Units=GPa)
#
#
# Indices 1 2 3 4 5 6 
#
# 1 89.9928 26.1061 40.8894 0.0000 0.0000 0.0000
# 2 26.1061 86.5372 42.1302 0.0000 0.0000 0.0000
# 3 40.8894 42.1302 143.3269 0.0000 0.0000 0.0000
# 4 0.0000 0.0000 0.0000 69.0026 0.0000 0.0000
# 5 0.0000 0.0000 0.0000 0.0000 17.4697 0.0000
# 6 0.0000 0.0000 0.0000 0.0000 0.0000 32.3901
#
#
#
# Elastic Compliance Matrix: (Units=1/GPa)
#
#
# Indices 1 2 3 4 5 6 
#
# 1 0.013219 -0.002511 -0.003033 0.000000 0.000000 0.000000
# 2 -0.002511 0.013963 -0.003388 0.000000 0.000000 0.000000
# 3 -0.003033 -0.003388 0.008838 0.000000 0.000000 0.000000
# 4 0.000000 0.000000 0.000000 0.014492 0.000000 0.000000
# 5 0.000000 0.000000 0.000000 0.000000 0.057242 0.000000
# 6 0.000000 0.000000 0.000000 0.000000 0.000000 0.030874
#
#
# Mechanical properties :
#
#
# Convention : Reuss Voigt Hill
#
# Bulk Modulus (GPa) = 55.07985 59.78981 57.43483
# Shear Modulus (GPa) = 30.76115 37.82122 34.29119
#
# Velocity S-wave (km/s) = 3.82053 4.23634 4.03380
# Velocity P-wave (km/s) = 6.75262 7.23185 6.99634
#
# Compressibility (1/GPa) = 0.01815546
#
# Stress axis : x y z
#
# Youngs Moduli (GPa) = 75.65152 71.61983 113.14570
#
# Poissons Ratio (x) = 0.17985 0.34317
# Poissons Ratio (y) = 0.18997 0.38332
# Poissons Ratio (z) = 0.22945 0.24264
#
# Static dielectric constant tensor:
#      x y z
#    x 1.783640 0.000000 0.000000 
#    y 0.000000 1.371920 0.000000 
#    z 0.000000 0.000000 3.125030 
# 
# From -- ./inp_files/32462.got.cif
#   From: 2010.05.17/outbox.cif.g08.bks.cpg/sg50_17_cif.got.tgz:32462.got - 2010.06.03 11:33:33.
