data_PCOD9397129
_publ_section_title
;
Structure prediction by ZEFSAII (Michael W. Deem and Ramdas Pophale) SiO2 
 PCOD9397129
Probable space group: P B A N
;
_chemical_formula_sum "Si O2"
_cell_formula_units_Z 32
_cell_length_a 21.906213
_cell_length_b 11.884957
_cell_length_c 5.045457
_cell_angle_alpha 90.000000
_cell_angle_beta 90.000000
_cell_angle_gamma 90.000000
_cell_volume 1313.606928
_symmetry_space_group_name_H-M "P B A N"
_symmetry_group_IT_number 50
_space_group.IT_coordinate_system_code '2'
_symmetry_cell_setting 'orthorhombic'
loop_
_space_group_symop_operation_xyz
x,y,z
1/2-x,1/2-y,z
x,1/2-y,-z
1/2-x,y,-z
-x,-y,-z
1/2+x,1/2+y,-z
-x,1/2+y,z
1/2+x,-y,z
loop_
_atom_site_type_symbol
_atom_site_label
_atom_site_fract_x
_atom_site_fract_y
_atom_site_fract_z
Si Si1 0.384527 0.423039 0.847802
Si Si2 0.986524 0.327245 0.241323
Si Si3 0.367294 0.617373 0.501994
Si Si4 0.687704 0.906124 0.357401
O O1 0.454604 0.390246 0.875545
O O2 0.375240 0.555954 0.785968
O O3 0.363827 0.372522 0.566918
O O4 0.337271 0.379295 0.067933
O O5 0.001393 0.250000 0.500000
O O6 0.931403 0.404055 0.348450
O O7 0.963881 0.250000 0.000000
O O8 0.357442 0.750000 0.500000
O O9 0.315193 0.543136 0.364996
O O10 0.750000 0.871761 0.500000
#
# Coordination Sequence:
#
# PCOD9397129 Si02
#       4
#     8   8   8   8
#     4  10  22  39  63  86 131 163 212 263 324 371
#     4  11  23  38  62  95 129 166 212 266 329 393
#     4   9  23  36  62  91 132 162 210 258 321 395
#     4  10  22  38  63  88 122 167 213 262 314 378
#
# _framework density 24.360406000000001
#
# number of rings (size 3 to 8) (size 9 to 14) (size 15 to 20)
#    1.500    0.500    0.000    3.000    7.000    1.500 
#    0.000    0.000    5.500   11.250    0.000    0.000 
#    0.000    0.000    0.000    0.000    0.000    0.000 
#
# Total GULP energy -178400.555292 kJ/mol
# GULP energy per Si atom -5575.017353 kJ/mol
# Density = 2.430496 g / cm^3
# Si number density = 24.360406 Si / 1000 Ang^3
#
#
#
# Elastic Constant Matrix: (Units=GPa)
#
#
# Indices 1 2 3 4 5 6 
#
# 1 71.5065 32.8152 11.5340 0.0000 0.0000 0.0000
# 2 32.8152 129.2541 32.9770 0.0000 0.0000 0.0000
# 3 11.5340 32.9770 154.2388 0.0000 0.0000 0.0000
# 4 0.0000 0.0000 0.0000 15.1850 0.0000 0.0000
# 5 0.0000 0.0000 0.0000 0.0000 43.9847 0.0000
# 6 0.0000 0.0000 0.0000 0.0000 0.0000 -15.7144
#
#
#
# Elastic Compliance Matrix: (Units=1/GPa)
#
#
# Indices 1 2 3 4 5 6 
#
# 1 0.015846 -0.003935 -0.000344 0.000000 0.000000 0.000000
# 2 -0.003935 0.009160 -0.001664 0.000000 0.000000 0.000000
# 3 -0.000344 -0.001664 0.006865 0.000000 0.000000 0.000000
# 4 0.000000 0.000000 0.000000 0.065855 0.000000 0.000000
# 5 0.000000 0.000000 0.000000 0.000000 0.022735 0.000000
# 6 0.000000 0.000000 0.000000 0.000000 0.000000 -0.063636
#
#
# Mechanical properties :
#
#
# Convention : Reuss Voigt Hill
#
# Bulk Modulus (GPa) = 50.03720 56.62797 53.33259
# Shear Modulus (GPa) = 66.33633 27.20261 46.76947
#
# Velocity S-wave (km/s) = 5.22401 3.34529 4.38642
# Velocity P-wave (km/s) = 7.54798 6.18204 6.89890
#
# Compressibility (1/GPa) = 0.01998513
#
# Stress axis : x y z
#
# Youngs Moduli (GPa) = 63.10678 109.16528 145.66706
#
# Poissons Ratio (x) = 0.42961 0.05005
# Poissons Ratio (y) = 0.24835 0.24243
# Poissons Ratio (z) = 0.02168 0.18168
#
# Static dielectric constant tensor:
#      x y z
#    x 1.937920 0.000000 0.000000 
#    y 0.000000 2.074900 0.000000 
#    z 0.000000 0.000000 1.900620 
# 
# From -- ./inp_files/5730.got.cif
#   From: 2010.05.17/outbox.cif.g08.bks.cpg/sg50_3_cif.got.tgz:5730.got - 2010.06.03 11:33:33.
