data_PCOD9397248
_publ_section_title
;
Structure prediction by ZEFSAII (Michael W. Deem and Ramdas Pophale) SiO2 
 PCOD9397248
Probable space group: P B A N
;
_chemical_formula_sum "Si O2"
_cell_formula_units_Z 34
_cell_length_a 4.905868
_cell_length_b 12.544654
_cell_length_c 24.503709
_cell_angle_alpha 90.000000
_cell_angle_beta 90.000000
_cell_angle_gamma 90.000000
_cell_volume 1508.017468
_symmetry_space_group_name_H-M "P B A N"
_symmetry_group_IT_number 50
_space_group.IT_coordinate_system_code '2'
_symmetry_cell_setting 'orthorhombic'
loop_
_space_group_symop_operation_xyz
x,y,z
1/2-x,1/2-y,z
x,1/2-y,-z
1/2-x,y,-z
-x,-y,-z
1/2+x,1/2+y,-z
-x,1/2+y,z
1/2+x,-y,z
loop_
_atom_site_type_symbol
_atom_site_label
_atom_site_fract_x
_atom_site_fract_y
_atom_site_fract_z
Si Si1 0.506618 0.569482 0.200841
Si Si2 0.218867 0.429813 0.562100
Si Si3 0.750000 0.250000 0.000000
Si Si4 0.474484 0.073179 0.072863
Si Si5 0.750000 0.250000 0.276545
Si Si6 0.250000 0.250000 0.352726
O O1 0.816766 0.534382 0.210263
O O2 0.487976 0.599561 0.136946
O O3 0.387877 0.660614 0.238739
O O4 0.250000 0.389523 0.500000
O O5 0.407106 0.534350 0.567882
O O6 0.314935 0.347314 0.607186
O O7 0.566733 0.327153 0.962558
O O8 0.173069 0.028316 0.062705
O O9 0.503233 0.285151 0.315552
#
# Coordination Sequence:
#
# PCOD9397248 Si02
#       6
#     8   8   2   8   4   4
#     4  10  22  42  62  82 117 158 197 241 285 345
#     4  10  22  41  63  86 117 158 196 233 288 350
#     4  12  22  38  64  88 124 152 184 250 298 344
#     4  10  23  40  60  88 117 153 198 238 289 350
#     4  12  25  38  59  91 116 155 198 236 298 348
#     4  12  25  38  60  92 124 147 192 250 290 340
#
# _framework density 22.546158999999999
#
# number of rings (size 3 to 8) (size 9 to 14) (size 15 to 20)
#    0.000    1.412    0.000    4.588    0.000    7.529 
#    0.000   11.765    0.000    0.000    0.000    0.000 
#    0.000    0.000    0.000    0.000    0.000    0.000 
#
# Total GULP energy -190358.763340 kJ/mol
# GULP energy per Si atom -5598.787157 kJ/mol
# Density = 2.249484 g / cm^3
# Si number density = 22.546159 Si / 1000 Ang^3
#
#
#
# Elastic Constant Matrix: (Units=GPa)
#
#
# Indices 1 2 3 4 5 6 
#
# 1 80.6088 -11.6836 6.1067 0.0000 0.0000 0.0000
# 2 -11.6836 60.7337 44.8713 0.0000 0.0000 0.0000
# 3 6.1067 44.8713 106.6986 0.0000 0.0000 0.0000
# 4 0.0000 0.0000 0.0000 39.3708 0.0000 0.0000
# 5 0.0000 0.0000 0.0000 0.0000 22.1635 0.0000
# 6 0.0000 0.0000 0.0000 0.0000 0.0000 16.0545
#
#
#
# Elastic Compliance Matrix: (Units=1/GPa)
#
#
# Indices 1 2 3 4 5 6 
#
# 1 0.013261 0.004515 -0.002658 0.000000 0.000000 0.000000
# 2 0.004515 0.025424 -0.010950 0.000000 0.000000 0.000000
# 3 -0.002658 -0.010950 0.014129 0.000000 0.000000 0.000000
# 4 0.000000 0.000000 0.000000 0.025400 0.000000 0.000000
# 5 0.000000 0.000000 0.000000 0.000000 0.045119 0.000000
# 6 0.000000 0.000000 0.000000 0.000000 0.000000 0.062288
#
#
# Mechanical properties :
#
#
# Convention : Reuss Voigt Hill
#
# Bulk Modulus (GPa) = 28.87821 36.29222 32.58521
# Shear Modulus (GPa) = 23.21796 29.43420 26.32608
#
# Velocity S-wave (km/s) = 3.21253 3.61710 3.42080
# Velocity P-wave (km/s) = 5.15720 5.79451 5.48512
#
# Compressibility (1/GPa) = 0.03462819
#
# Stress axis : x y z
#
# Youngs Moduli (GPa) = 75.40754 39.33276 70.77467
#
# Poissons Ratio (x) = -0.17757 0.18809
# Poissons Ratio (y) = -0.34043 0.77500
# Poissons Ratio (z) = 0.20040 0.43071
#
# Static dielectric constant tensor:
#      x y z
#    x 1.794690 0.000000 0.000000 
#    y 0.000000 1.796670 0.000000 
#    z 0.000000 0.000000 1.825720 
# 
# From -- ./inp_files/31335.got.cif
#   From: 2010.05.17/outbox.cif.g08.bks.cpg/sg50_16_cif.got.tgz:31335.got - 2010.06.03 11:33:33.
