data_PCOD9397070
_publ_section_title
;
Structure prediction by ZEFSAII (Michael W. Deem and Ramdas Pophale) SiO2 
 PCOD9397070
Probable space group: P B A N
;
_chemical_formula_sum "Si O2"
_cell_formula_units_Z 56
_cell_length_a 12.021772
_cell_length_b 22.735979
_cell_length_c 10.217556
_cell_angle_alpha 90.000000
_cell_angle_beta 90.000000
_cell_angle_gamma 90.000000
_cell_volume 2792.731433
_symmetry_space_group_name_H-M "P B A N"
_symmetry_group_IT_number 50
_space_group.IT_coordinate_system_code '2'
_symmetry_cell_setting 'orthorhombic'
loop_
_space_group_symop_operation_xyz
x,y,z
1/2-x,1/2-y,z
x,1/2-y,-z
1/2-x,y,-z
-x,-y,-z
1/2+x,1/2+y,-z
-x,1/2+y,z
1/2+x,-y,z
loop_
_atom_site_type_symbol
_atom_site_label
_atom_site_fract_x
_atom_site_fract_y
_atom_site_fract_z
Si Si1 0.266232 0.109126 0.632953
Si Si2 0.444038 0.061809 0.475716
Si Si3 0.827069 0.837588 0.884369
Si Si4 0.967510 0.258213 0.842984
Si Si5 0.195081 0.859879 0.858914
Si Si6 0.074485 0.870685 0.260575
Si Si7 0.996894 0.430047 0.991555
O O1 0.250000 0.147137 0.500000
O O2 0.169921 0.060604 0.611500
O O3 0.251141 0.141895 0.765586
O O4 0.391240 0.085139 0.612508
O O5 0.525702 0.104675 0.395879
O O6 0.500000 0.000000 0.500000
O O7 0.896909 0.894255 0.936412
O O8 0.914074 0.790039 0.831546
O O9 0.750000 0.815757 0.000000
O O10 0.872375 0.304415 0.804693
O O11 0.955436 0.197248 0.767888
O O12 0.954617 0.250000 0.000000
O O13 0.293038 0.877629 0.761072
O O14 0.106253 0.909401 0.900225
O O15 0.250000 0.843156 0.000000
O O16 0.023091 0.906237 0.138148
O O17 0.000000 0.500000 0.000000
#
# Coordination Sequence:
#
# PCOD9397070 Si02
#       7
#     8   8   8   8   8   8   8
#     4   8  22  42  63  85 125 166 213 276 329 389
#     4   9  21  43  64  84 118 173 229 264 324 398
#     4  11  22  40  61  94 133 169 215 270 338 411
#     4  11  20  35  60  98 136 173 206 272 338 413
#     4   9  18  34  58  91 136 169 210 259 348 399
#     4  11  20  37  63  95 126 174 221 267 330 404
#     4  10  22  34  54  93 134 164 207 271 333 399
#
# _framework density 20.052053000000001
#
# number of rings (size 3 to 8) (size 9 to 14) (size 15 to 20)
#    0.857    1.143    4.286    1.286    2.000    2.000 
#    5.143    0.714    3.143    0.000    0.000    4.000 
#    0.000    0.000    0.000    0.000    0.000    0.000 
#
# Total GULP energy -312100.190347 kJ/mol
# GULP energy per Si atom -5573.217685 kJ/mol
# Density = 2.000641 g / cm^3
# Si number density = 20.052053 Si / 1000 Ang^3
#
#
#
# Elastic Constant Matrix: (Units=GPa)
#
#
# Indices 1 2 3 4 5 6 
#
# 1 101.1189 47.6010 32.2868 0.0000 0.0000 0.0000
# 2 47.6010 145.2797 31.8058 0.0000 0.0000 0.0000
# 3 32.2868 31.8058 60.2780 0.0000 0.0000 0.0000
# 4 0.0000 0.0000 0.0000 19.0297 0.0000 0.0000
# 5 0.0000 0.0000 0.0000 0.0000 33.2252 0.0000
# 6 0.0000 0.0000 0.0000 0.0000 0.0000 20.8365
#
#
#
# Elastic Compliance Matrix: (Units=1/GPa)
#
#
# Indices 1 2 3 4 5 6 
#
# 1 0.013063 -0.003107 -0.005357 0.000000 0.000000 0.000000
# 2 -0.003107 0.008521 -0.002832 0.000000 0.000000 0.000000
# 3 -0.005357 -0.002832 0.020954 0.000000 0.000000 0.000000
# 4 0.000000 0.000000 0.000000 0.052549 0.000000 0.000000
# 5 0.000000 0.000000 0.000000 0.000000 0.030098 0.000000
# 6 0.000000 0.000000 0.000000 0.000000 0.000000 0.047993
#
#
# Mechanical properties :
#
#
# Convention : Reuss Voigt Hill
#
# Bulk Modulus (GPa) = 50.13850 58.89596 54.51723
# Shear Modulus (GPa) = 24.70134 27.61715 26.15925
#
# Velocity S-wave (km/s) = 3.51360 3.71519 3.61580
# Velocity P-wave (km/s) = 6.44352 6.91656 6.68423
#
# Compressibility (1/GPa) = 0.01994475
#
# Stress axis : x y z
#
# Youngs Moduli (GPa) = 76.55485 117.35259 47.72448
#
# Poissons Ratio (x) = 0.36463 0.25567
# Poissons Ratio (y) = 0.23786 0.13516
# Poissons Ratio (z) = 0.41012 0.33235
#
# Static dielectric constant tensor:
#      x y z
#    x 1.776970 0.000000 0.000000 
#    y 0.000000 1.720130 0.000000 
#    z 0.000000 0.000000 1.728690 
# 
# From -- ./inp_files/20389.got.cif
#   From: 2010.05.17/outbox.cif.g08.bks.cpg/sg50_11_cif.got.tgz:20389.got - 2010.06.03 11:33:33.
