data_PCOD9397396
_publ_section_title
;
Structure prediction by ZEFSAII (Michael W. Deem and Ramdas Pophale) SiO2 
 PCOD9397396
Probable space group: P B A N
;
_chemical_formula_sum "Si O2"
_cell_formula_units_Z 60
_cell_length_a 11.081368
_cell_length_b 20.446671
_cell_length_c 12.568360
_cell_angle_alpha 90.000000
_cell_angle_beta 90.000000
_cell_angle_gamma 90.000000
_cell_volume 2847.702381
_symmetry_space_group_name_H-M "P B A N"
_symmetry_group_IT_number 50
_space_group.IT_coordinate_system_code '2'
_symmetry_cell_setting 'orthorhombic'
loop_
_space_group_symop_operation_xyz
x,y,z
1/2-x,1/2-y,z
x,1/2-y,-z
1/2-x,y,-z
-x,-y,-z
1/2+x,1/2+y,-z
-x,1/2+y,z
1/2+x,-y,z
loop_
_atom_site_type_symbol
_atom_site_label
_atom_site_fract_x
_atom_site_fract_y
_atom_site_fract_z
Si Si1 0.513732 0.615651 0.811255
Si Si2 0.019801 0.250000 0.500000
Si Si3 0.388962 0.624045 0.595291
Si Si4 0.743781 0.547768 0.755330
Si Si5 0.604855 0.746818 0.123069
Si Si6 0.410072 0.345782 0.686388
Si Si7 0.377638 0.521549 0.938393
Si Si8 0.358292 0.574437 0.375238
O O1 0.469564 0.601458 0.692587
O O2 0.635604 0.574762 0.828161
O O3 0.546812 0.690590 0.821935
O O4 0.412248 0.592600 0.892703
O O5 0.939128 0.192585 0.447832
O O6 0.089546 0.210491 0.594600
O O7 0.386296 0.570377 0.501150
O O8 0.250464 0.627242 0.632122
O O9 0.791843 0.608744 0.686672
O O10 0.848976 0.522320 0.833748
O O11 0.691181 0.489526 0.683142
O O12 0.750000 0.750000 0.124598
O O13 0.575504 0.685693 0.197130
O O14 0.567363 0.750000 0.000000
O O15 0.521922 0.394259 0.670899
O O16 0.250000 0.522622 0.000000
O O17 0.500000 0.500000 0.000000
#
# Coordination Sequence:
#
# PCOD9397396 Si02
#       8
#     8   4   8   8   8   8   8   8
#     4  12  24  45  71 103 144 186 245 300 365 442
#     4  10  22  47  71 102 134 192 239 297 366 446
#     4  10  22  45  68  97 139 182 237 291 362 442
#     4  12  25  44  70 107 141 187 237 303 366 453
#     4  11  25  45  71  99 138 187 241 298 365 439
#     4  11  24  44  73 104 141 182 243 298 368 443
#     4  12  27  45  74 107 148 198 250 308 373 437
#     4  10  24  43  68 103 138 185 234 294 373 438
#
# _framework density 21.069618999999999
#
# number of rings (size 3 to 8) (size 9 to 14) (size 15 to 20)
#    0.000    0.933    5.333    0.800    1.867    4.800 
#    7.200    3.667    0.000    0.000    0.000    0.000 
#    0.000    0.000    0.000    0.000    0.000    0.000 
#
# Total GULP energy -334979.087149 kJ/mol
# GULP energy per Si atom -5582.984786 kJ/mol
# Density = 2.102166 g / cm^3
# Si number density = 21.069619 Si / 1000 Ang^3
#
#
#
# Elastic Constant Matrix: (Units=GPa)
#
#
# Indices 1 2 3 4 5 6 
#
# 1 93.6423 30.0715 46.2575 0.0000 0.0000 0.0000
# 2 30.0715 91.3543 46.4961 0.0000 0.0000 0.0000
# 3 46.2575 46.4961 99.3730 0.0000 0.0000 0.0000
# 4 0.0000 0.0000 0.0000 22.3034 0.0000 0.0000
# 5 0.0000 0.0000 0.0000 0.0000 -171.6613 0.0000
# 6 0.0000 0.0000 0.0000 0.0000 0.0000 26.1320
#
#
#
# Elastic Compliance Matrix: (Units=1/GPa)
#
#
# Indices 1 2 3 4 5 6 
#
# 1 0.014067 -0.001703 -0.005751 0.000000 0.000000 0.000000
# 2 -0.001703 0.014574 -0.006026 0.000000 0.000000 0.000000
# 3 -0.005751 -0.006026 0.015560 0.000000 0.000000 0.000000
# 4 0.000000 0.000000 0.000000 0.044836 0.000000 0.000000
# 5 0.000000 0.000000 0.000000 0.000000 -0.005825 0.000000
# 6 0.000000 0.000000 0.000000 0.000000 0.000000 0.038267
#
#
# Mechanical properties :
#
#
# Convention : Reuss Voigt Hill
#
# Bulk Modulus (GPa) = 58.00624 58.89110 58.44867
# Shear Modulus (GPa) = 32.42818 -13.87555 9.27631
#
# Velocity S-wave (km/s) = 3.92739 -2.56902 2.10054
# Velocity P-wave (km/s) = 6.93948 4.38310 5.80379
#
# Compressibility (1/GPa) = 0.01723953
#
# Stress axis : x y z
#
# Youngs Moduli (GPa) = 71.08917 68.61398 64.26796
#
# Poissons Ratio (x) = 0.11687 0.36961
# Poissons Ratio (y) = 0.12109 0.38730
# Poissons Ratio (z) = 0.40884 0.41349
#
# Static dielectric constant tensor:
#      x y z
#    x 1.781540 0.000000 0.000000 
#    y 0.000000 1.827430 0.000000 
#    z 0.000000 0.000000 1.806140 
# 
# From -- ./inp_files/20427.got.cif
#   From: 2010.05.17/outbox.cif.g08.bks.cpg/sg50_11_cif.got.tgz:20427.got - 2010.06.03 11:33:33.
