data_PCOD9397653
_publ_section_title
;
Structure prediction by ZEFSAII (Michael W. Deem and Ramdas Pophale) SiO2 
 PCOD9397653
Probable space group: P B A N
;
_chemical_formula_sum "Si O2"
_cell_formula_units_Z 64
_cell_length_a 15.132000
_cell_length_b 9.434508
_cell_length_c 20.945327
_cell_angle_alpha 90.000000
_cell_angle_beta 90.000000
_cell_angle_gamma 90.000000
_cell_volume 2990.217196
_symmetry_space_group_name_H-M "P B A N"
_symmetry_group_IT_number 50
_space_group.IT_coordinate_system_code '2'
_symmetry_cell_setting 'orthorhombic'
loop_
_space_group_symop_operation_xyz
x,y,z
1/2-x,1/2-y,z
x,1/2-y,-z
1/2-x,y,-z
-x,-y,-z
1/2+x,1/2+y,-z
-x,1/2+y,z
1/2+x,-y,z
loop_
_atom_site_type_symbol
_atom_site_label
_atom_site_fract_x
_atom_site_fract_y
_atom_site_fract_z
Si Si1 0.529886 0.488421 0.746073
Si Si2 0.419768 0.152812 0.936373
Si Si3 0.256826 0.087144 0.140284
Si Si4 0.264795 0.920271 0.730881
Si Si5 0.544656 0.937196 0.884738
Si Si6 0.684822 0.616976 0.386660
Si Si7 0.845323 0.314460 0.568508
Si Si8 0.012197 0.254477 0.343801
O O1 0.630319 0.440577 0.736925
O O2 0.493039 0.492031 0.817208
O O3 0.474650 0.375606 0.708174
O O4 0.521490 0.622796 0.702034
O O5 0.327730 0.091015 0.907321
O O6 0.487629 0.023146 0.935566
O O7 0.465671 0.267875 0.889073
O O8 0.406762 0.250000 0.000000
O O9 0.250000 0.250000 0.166054
O O10 0.261927 0.981174 0.199788
O O11 0.349579 0.053549 0.105987
O O12 0.250000 0.750000 0.724758
O O13 0.220961 0.023885 0.676289
O O14 0.750000 0.750000 0.397025
O O15 0.668884 0.483830 0.433764
O O16 0.592623 0.703619 0.388475
O O17 0.750000 0.250000 0.586060
O O18 0.868806 0.250000 0.500000
O O19 0.921182 0.266473 0.617912
#
# Coordination Sequence:
#
# PCOD9397653 Si02
#       8
#     8   8   8   8   8   8   8   8
#     4  12  24  41  69 106 151 183 239 305 374 444
#     4  11  24  47  70  99 139 192 247 306 370 450
#     4  10  24  42  65  99 139 187 239 297 375 449
#     4  12  25  40  68 106 153 192 235 305 382 449
#     4  11  24  41  69 103 140 185 241 302 368 441
#     4  12  24  45  75 110 149 194 249 298 374 449
#     4  11  27  52  75 102 149 198 249 306 366 441
#     4  12  25  44  72 107 145 195 240 301 369 441
#
# _framework density 21.403129
#
# number of rings (size 3 to 8) (size 9 to 14) (size 15 to 20)
#    0.000    0.625    3.750    4.125    5.250    2.750 
#    0.000    1.250    0.000    0.750    0.000    0.000 
#    0.000    0.000    0.000    0.000    0.000    0.000 
#
# Total GULP energy -356370.088135 kJ/mol
# GULP energy per Si atom -5568.282627 kJ/mol
# Density = 2.135441 g / cm^3
# Si number density = 21.403129 Si / 1000 Ang^3
#
#
#
# Elastic Constant Matrix: (Units=GPa)
#
#
# Indices 1 2 3 4 5 6 
#
# 1 104.3145 32.8755 54.6390 0.0000 0.0000 0.0000
# 2 32.8755 134.7653 59.5675 0.0000 0.0000 0.0000
# 3 54.6390 59.5675 103.8736 0.0000 0.0000 0.0000
# 4 0.0000 0.0000 0.0000 30.4361 0.0000 0.0000
# 5 0.0000 0.0000 0.0000 0.0000********** 0.0000
# 6 0.0000 0.0000 0.0000 0.0000 0.0000 32.2444
#
#
#
# Elastic Compliance Matrix: (Units=1/GPa)
#
#
# Indices 1 2 3 4 5 6 
#
# 1 0.013236 -0.000203 -0.006846 0.000000 0.000000 0.000000
# 2 -0.000203 0.009943 -0.005595 0.000000 0.000000 0.000000
# 3 -0.006846 -0.005595 0.016437 0.000000 0.000000 0.000000
# 4 0.000000 0.000000 0.000000 0.032856 0.000000 0.000000
# 5 0.000000 0.000000 0.000000 0.000000 -0.000086 0.000000
# 6 0.000000 0.000000 0.000000 0.000000 0.000000 0.031013
#
#
# Mechanical properties :
#
#
# Convention : Reuss Voigt Hill
#
# Bulk Modulus (GPa) = 69.79484 70.79080 70.29282
# Shear Modulus (GPa) = 37.46341 -2313.40414 -1137.97037
#
# Velocity S-wave (km/s) = 4.18828 -32.91228 -23.08329
# Velocity P-wave (km/s) = 7.48795 37.56520 26.02955
#
# Compressibility (1/GPa) = 0.01432771
#
# Stress axis : x y z
#
# Youngs Moduli (GPa) = 75.54999 100.57424 60.83894
#
# Poissons Ratio (x) = 0.02041 0.41651
# Poissons Ratio (y) = 0.01533 0.34040
# Poissons Ratio (z) = 0.51722 0.56273
#
# Static dielectric constant tensor:
#      x y z
#    x 1.664490 0.000000 0.000000 
#    y 0.000000 1.871610 0.000000 
#    z 0.000000 0.000000 2.033270 
# 
# From -- ./inp_files/31778.got.cif
#   From: 2010.05.17/outbox.cif.g08.bks.cpg/sg50_16_cif.got.tgz:31778.got - 2010.06.03 11:33:33.
