data_PCOD9397091
_publ_section_title
;
Structure prediction by ZEFSAII (Michael W. Deem and Ramdas Pophale) SiO2 
 PCOD9397091
Probable space group: P B A N
;
_chemical_formula_sum "Si O2"
_cell_formula_units_Z 40
_cell_length_a 18.789350
_cell_length_b 16.621479
_cell_length_c 5.388661
_cell_angle_alpha 90.000000
_cell_angle_beta 90.000000
_cell_angle_gamma 90.000000
_cell_volume 1682.915400
_symmetry_space_group_name_H-M "P B A N"
_symmetry_group_IT_number 50
_space_group.IT_coordinate_system_code '2'
_symmetry_cell_setting 'orthorhombic'
loop_
_space_group_symop_operation_xyz
x,y,z
1/2-x,1/2-y,z
x,1/2-y,-z
1/2-x,y,-z
-x,-y,-z
1/2+x,1/2+y,-z
-x,1/2+y,z
1/2+x,-y,z
loop_
_atom_site_type_symbol
_atom_site_label
_atom_site_fract_x
_atom_site_fract_y
_atom_site_fract_z
Si Si1 0.536735 0.322439 0.811279
Si Si2 0.930733 0.448445 0.804049
Si Si3 0.069429 0.101540 0.506318
Si Si4 0.704741 0.951336 0.253284
Si Si5 0.327627 0.871101 0.551478
O O1 0.465002 0.323794 0.649799
O O2 0.612623 0.316574 0.676419
O O3 0.531138 0.250000 0.000000
O O4 0.544882 0.411658 0.936078
O O5 0.909659 0.538364 0.725440
O O6 0.863775 0.397747 0.706841
O O7 0.998790 0.428219 0.635311
O O8 0.132516 0.099717 0.304952
O O9 0.750000 0.932579 0.500000
O O10 0.683804 0.046053 0.287944
O O11 0.750000 0.939429 0.000000
O O12 0.250000 0.838177 0.500000
#
# Coordination Sequence:
#
# PCOD9397091 Si02
#       5
#     8   8   8   8   8
#     4  11  23  37  62  91 130 184 237 274 342 425
#     4   9  19  37  60  86 120 168 224 277 346 403
#     4   9  20  37  60  94 127 172 212 299 341 404
#     4  10  22  36  64 100 131 168 224 291 364 414
#     4   9  21  37  56  83 126 176 226 286 341 402
#
# _framework density 23.768276
#
# number of rings (size 3 to 8) (size 9 to 14) (size 15 to 20)
#    0.000    2.400    0.000    1.800   11.200    3.200 
#    0.000    3.000    0.000    0.000    0.000    4.200 
#    0.000    0.000    0.000    0.000    0.000    0.000 
#
# Total GULP energy -223135.658613 kJ/mol
# GULP energy per Si atom -5578.391465 kJ/mol
# Density = 2.371418 g / cm^3
# Si number density = 23.768276 Si / 1000 Ang^3
#
#
#
# Elastic Constant Matrix: (Units=GPa)
#
#
# Indices 1 2 3 4 5 6 
#
# 1 166.2907 41.8109 67.5883 0.0000 0.0000 0.0000
# 2 41.8109 56.2511 39.7740 0.0000 0.0000 0.0000
# 3 67.5883 39.7740 132.3998 0.0000 0.0000 0.0000
# 4 0.0000 0.0000 0.0000 37.9525 0.0000 0.0000
# 5 0.0000 0.0000 0.0000 0.0000 53.1138 0.0000
# 6 0.0000 0.0000 0.0000 0.0000 0.0000 -16.3056
#
#
#
# Elastic Compliance Matrix: (Units=1/GPa)
#
#
# Indices 1 2 3 4 5 6 
#
# 1 0.008241 -0.004001 -0.003005 0.000000 0.000000 0.000000
# 2 -0.004001 0.024514 -0.005322 0.000000 0.000000 0.000000
# 3 -0.003005 -0.005322 0.010686 0.000000 0.000000 0.000000
# 4 0.000000 0.000000 0.000000 0.026349 0.000000 0.000000
# 5 0.000000 0.000000 0.000000 0.000000 0.018827 0.000000
# 6 0.000000 0.000000 0.000000 0.000000 0.000000 -0.061329
#
#
# Mechanical properties :
#
#
# Convention : Reuss Voigt Hill
#
# Bulk Modulus (GPa) = 53.23278 72.58756 62.91017
# Shear Modulus (GPa) = 85.90339 28.67004 57.28671
#
# Velocity S-wave (km/s) = 6.01835 3.47685 4.91472
# Velocity P-wave (km/s) = 8.41066 6.83549 7.66365
#
# Compressibility (1/GPa) = 0.01878542
#
# Stress axis : x y z
#
# Youngs Moduli (GPa) = 121.34728 40.79296 93.58308
#
# Poissons Ratio (x) = 0.16319 0.28122
# Poissons Ratio (y) = 0.48545 0.49805
# Poissons Ratio (z) = 0.36465 0.21710
#
# Static dielectric constant tensor:
#      x y z
#    x 1.910530 0.000000 0.000000 
#    y 0.000000 1.957370 0.000000 
#    z 0.000000 0.000000 2.015830 
# 
# From -- ./inp_files/4197.got.cif
#   From: 2010.05.17/outbox.cif.g08.bks.cpg/sg50_3_cif.got.tgz:4197.got - 2010.06.03 11:33:33.
