data_PCOD9397148
_publ_section_title
;
Structure prediction by ZEFSAII (Michael W. Deem and Ramdas Pophale) SiO2 
 PCOD9397148
Probable space group: P B A N
;
_chemical_formula_sum "Si O2"
_cell_formula_units_Z 54
_cell_length_a 13.962409
_cell_length_b 15.761391
_cell_length_c 12.478781
_cell_angle_alpha 90.000000
_cell_angle_beta 90.000000
_cell_angle_gamma 90.000000
_cell_volume 2746.167743
_symmetry_space_group_name_H-M "P B A N"
_symmetry_group_IT_number 50
_space_group.IT_coordinate_system_code '2'
_symmetry_cell_setting 'orthorhombic'
loop_
_space_group_symop_operation_xyz
x,y,z
1/2-x,1/2-y,z
x,1/2-y,-z
1/2-x,y,-z
-x,-y,-z
1/2+x,1/2+y,-z
-x,1/2+y,z
1/2+x,-y,z
loop_
_atom_site_type_symbol
_atom_site_label
_atom_site_fract_x
_atom_site_fract_y
_atom_site_fract_z
Si Si1 0.446087 0.851381 0.977417
Si Si2 0.399224 0.765907 0.626285
Si Si3 0.233859 0.454871 0.222329
Si Si4 0.602469 0.646742 0.854514
Si Si5 0.559019 0.827742 0.762595
Si Si6 0.250000 0.250000 0.000000
Si Si7 0.724950 0.384981 0.371966
Si Si8 0.750000 0.049714 0.000000
O O1 0.499173 0.862677 0.864017
O O2 0.438667 0.750000 0.000000
O O3 0.515354 0.885610 0.072291
O O4 0.342817 0.893674 0.974975
O O5 0.396112 0.750000 0.500000
O O6 0.492696 0.818346 0.658938
O O7 0.369415 0.670178 0.661357
O O8 0.313039 0.826083 0.665045
O O9 0.342189 0.419735 0.218360
O O10 0.156796 0.380334 0.242989
O O11 0.222189 0.526878 0.311034
O O12 0.222082 0.494213 0.103557
O O13 0.573721 0.728683 0.787819
O O14 0.681682 0.688102 0.933648
O O15 0.750000 0.394842 0.500000
#
# Coordination Sequence:
#
# PCOD9397148 Si02
#       8
#     8   8   8   8   8   2   8   4
#     4  10  22  39  58  86 125 172 211 248 306 376
#     4   9  20  43  68  87 113 167 216 254 314 383
#     4  12  24  38  61  96 127 162 204 262 318 370
#     4  11  21  38  63  83 121 172 212 243 304 378
#     4  11  21  39  63  88 123 162 208 253 312 376
#     4  12  14  40  64  80 118 182 216 234 292 384
#     4   9  21  44  67  87 122 164 208 261 321 374
#     4  12  26  36  55  95 134 160 204 263 315 371
#
# _framework density 19.663765999999999
#
# number of rings (size 3 to 8) (size 9 to 14) (size 15 to 20)
#    0.000    1.481    3.704    3.333    4.148    3.556 
#    2.667    1.481    0.000    0.000    0.000    0.000 
#    0.000    0.000    0.000    0.000    0.000    0.000 
#
# Total GULP energy -301092.233993 kJ/mol
# GULP energy per Si atom -5575.782111 kJ/mol
# Density = 1.961901 g / cm^3
# Si number density = 19.663766 Si / 1000 Ang^3
#
#
#
# Elastic Constant Matrix: (Units=GPa)
#
#
# Indices 1 2 3 4 5 6 
#
# 1 84.7355 25.5386 10.9243 0.0000 0.0000 0.0000
# 2 25.5386 59.1212 27.9566 0.0000 0.0000 0.0000
# 3 10.9243 27.9566 34.3405 0.0000 0.0000 0.0000
# 4 0.0000 0.0000 0.0000 26.2173 0.0000 0.0000
# 5 0.0000 0.0000 0.0000 0.0000 18.6851 0.0000
# 6 0.0000 0.0000 0.0000 0.0000 0.0000 8.7976
#
#
#
# Elastic Compliance Matrix: (Units=1/GPa)
#
#
# Indices 1 2 3 4 5 6 
#
# 1 0.013579 -0.006216 0.000741 0.000000 0.000000 0.000000
# 2 -0.006216 0.030347 -0.022728 0.000000 0.000000 0.000000
# 3 0.000741 -0.022728 0.047387 0.000000 0.000000 0.000000
# 4 0.000000 0.000000 0.000000 0.038143 0.000000 0.000000
# 5 0.000000 0.000000 0.000000 0.000000 0.053519 0.000000
# 6 0.000000 0.000000 0.000000 0.000000 0.000000 0.113667
#
#
# Mechanical properties :
#
#
# Convention : Reuss Voigt Hill
#
# Bulk Modulus (GPa) = 28.64762 34.11513 31.38137
# Shear Modulus (GPa) = 13.71047 18.32518 16.01783
#
# Velocity S-wave (km/s) = 2.64341 3.05606 2.85719
# Velocity P-wave (km/s) = 4.89052 5.46256 5.18443
#
# Compressibility (1/GPa) = 0.03490692
#
# Stress axis : x y z
#
# Youngs Moduli (GPa) = 73.64073 32.95211 21.10262
#
# Poissons Ratio (x) = 0.20484 -0.01563
# Poissons Ratio (y) = 0.45777 0.47962
# Poissons Ratio (z) = -0.05455 0.74894
#
# Static dielectric constant tensor:
#      x y z
#    x 1.711610 0.000000 0.000000 
#    y 0.000000 1.714860 0.000000 
#    z 0.000000 0.000000 1.758450 
# 
# From -- ./inp_files/21195.got.cif
#   From: 2010.05.17/outbox.cif.g08.bks.cpg/sg50_11_cif.got.tgz:21195.got - 2010.06.03 11:33:33.
