data_PCOD9397320
_publ_section_title
;
Structure prediction by ZEFSAII (Michael W. Deem and Ramdas Pophale) SiO2 
 PCOD9397320
Probable space group: P B A N
;
_chemical_formula_sum "Si O2"
_cell_formula_units_Z 56
_cell_length_a 13.896903
_cell_length_b 8.969557
_cell_length_c 19.177035
_cell_angle_alpha 90.000000
_cell_angle_beta 90.000000
_cell_angle_gamma 90.000000
_cell_volume 2390.399455
_symmetry_space_group_name_H-M "P B A N"
_symmetry_group_IT_number 50
_space_group.IT_coordinate_system_code '2'
_symmetry_cell_setting 'orthorhombic'
loop_
_space_group_symop_operation_xyz
x,y,z
1/2-x,1/2-y,z
x,1/2-y,-z
1/2-x,y,-z
-x,-y,-z
1/2+x,1/2+y,-z
-x,1/2+y,z
1/2+x,-y,z
loop_
_atom_site_type_symbol
_atom_site_label
_atom_site_fract_x
_atom_site_fract_y
_atom_site_fract_z
Si Si1 0.066230 0.108105 0.954318
Si Si2 0.064142 0.598774 0.405471
Si Si3 0.862459 0.969891 0.772836
Si Si4 0.612459 0.073143 0.430706
Si Si5 0.268935 0.419144 0.639019
Si Si6 0.973321 0.243934 0.813942
Si Si7 0.292455 0.906066 0.121251
O O1 0.008281 0.164918 0.885853
O O2 0.159731 0.016190 0.932961
O O3 0.091081 0.250000 0.000000
O O4 0.000000 0.000000 0.000000
O O5 0.089463 0.577819 0.487535
O O6 0.086862 0.771039 0.394452
O O7 0.122961 0.479771 0.359798
O O8 0.952644 0.558437 0.398895
O O9 0.788994 0.941479 0.710265
O O10 0.934620 0.832897 0.785571
O O11 0.929925 0.115240 0.765250
O O12 0.792559 0.010688 0.837579
O O13 0.720900 0.031720 0.415917
O O14 0.250000 0.250000 0.616279
O O15 0.883592 0.354446 0.830453
O O16 0.250000 0.750000 0.093463
#
# Coordination Sequence:
#
# PCOD9397320 Si02
#       7
#     8   8   8   8   8   8   8
#     4  12  23  45  79 110 144 185 233 294 367 445
#     4  10  22  43  68 102 142 181 241 299 365 440
#     4  11  27  47  74  97 141 199 238 303 363 432
#     4  10  22  42  71  99 140 190 230 303 375 416
#     4  12  27  41  64 103 139 184 249 293 353 441
#     4  11  23  49  71 100 145 184 235 299 364 431
#     4  10  24  46  74 107 147 188 237 298 368 432
#
# _framework density 23.427049
#
# number of rings (size 3 to 8) (size 9 to 14) (size 15 to 20)
#    0.000    1.143    2.857    1.714    2.000   10.286 
#    0.000   13.571    0.000    0.000    0.000    0.000 
#    0.000    0.000    0.000    0.000    0.000    0.000 
#
# Total GULP energy -313480.039825 kJ/mol
# GULP energy per Si atom -5597.857854 kJ/mol
# Density = 2.337373 g / cm^3
# Si number density = 23.427049 Si / 1000 Ang^3
#
#
#
# Elastic Constant Matrix: (Units=GPa)
#
#
# Indices 1 2 3 4 5 6 
#
# 1 115.7848 34.3408 22.1052 0.0000 0.0000 0.0000
# 2 34.3408 115.7932 25.8236 0.0000 0.0000 0.0000
# 3 22.1052 25.8236 51.3143 0.0000 0.0000 0.0000
# 4 0.0000 0.0000 0.0000 24.2488 0.0000 0.0000
# 5 0.0000 0.0000 0.0000 0.0000 36.5998 0.0000
# 6 0.0000 0.0000 0.0000 0.0000 0.0000 51.8347
#
#
#
# Elastic Compliance Matrix: (Units=1/GPa)
#
#
# Indices 1 2 3 4 5 6 
#
# 1 0.009899 -0.002236 -0.003139 0.000000 0.000000 0.000000
# 2 -0.002236 0.010233 -0.004186 0.000000 0.000000 0.000000
# 3 -0.003139 -0.004186 0.022947 0.000000 0.000000 0.000000
# 4 0.000000 0.000000 0.000000 0.041239 0.000000 0.000000
# 5 0.000000 0.000000 0.000000 0.000000 0.027323 0.000000
# 6 0.000000 0.000000 0.000000 0.000000 0.000000 0.019292
#
#
# Mechanical properties :
#
#
# Convention : Reuss Voigt Hill
#
# Bulk Modulus (GPa) = 41.74331 49.71462 45.72896
# Shear Modulus (GPa) = 31.63742 35.91152 33.77447
#
# Velocity S-wave (km/s) = 3.67885 3.91948 3.80107
# Velocity P-wave (km/s) = 5.99186 6.46144 6.23108
#
# Compressibility (1/GPa) = 0.02395593
#
# Stress axis : x y z
#
# Youngs Moduli (GPa) = 101.01897 97.72520 43.57891
#
# Poissons Ratio (x) = 0.21848 0.13681
# Poissons Ratio (y) = 0.22585 0.18244
# Poissons Ratio (z) = 0.31712 0.40913
#
# Static dielectric constant tensor:
#      x y z
#    x 1.818730 0.000000 0.000000 
#    y 0.000000 1.860850 0.000000 
#    z 0.000000 0.000000 1.913480 
# 
# From -- ./inp_files/30977.got.cif
#   From: 2010.05.17/outbox.cif.g08.bks.cpg/sg50_16_cif.got.tgz:30977.got - 2010.06.03 11:33:33.
