data_PCOD9397894
_publ_section_title
;
Structure prediction by ZEFSAII (Michael W. Deem and Ramdas Pophale) SiO2 
 PCOD9397894
Probable space group: P B A N
;
_chemical_formula_sum "Si O2"
_cell_formula_units_Z 26
_cell_length_a 8.919509
_cell_length_b 15.283017
_cell_length_c 9.096201
_cell_angle_alpha 90.000000
_cell_angle_beta 90.000000
_cell_angle_gamma 90.000000
_cell_volume 1239.966902
_symmetry_space_group_name_H-M "P B A N"
_symmetry_group_IT_number 50
_space_group.IT_coordinate_system_code '2'
_symmetry_cell_setting 'orthorhombic'
loop_
_space_group_symop_operation_xyz
x,y,z
1/2-x,1/2-y,z
x,1/2-y,-z
1/2-x,y,-z
-x,-y,-z
1/2+x,1/2+y,-z
-x,1/2+y,z
1/2+x,-y,z
loop_
_atom_site_type_symbol
_atom_site_label
_atom_site_fract_x
_atom_site_fract_y
_atom_site_fract_z
Si Si1 0.073314 0.999624 0.663680
Si Si2 0.750000 0.631998 0.500000
Si Si3 0.750000 0.250000 0.000000
Si Si4 0.019085 0.750000 0.500000
Si Si5 0.667157 0.373572 0.746390
O O1 0.197182 0.074004 0.635903
O O2 0.946056 0.044468 0.761573
O O3 0.167936 0.914163 0.709719
O O4 0.000000 0.000000 0.500000
O O5 0.606862 0.683896 0.563529
O O6 0.663413 0.185519 0.109586
O O7 0.112291 0.809160 0.385898
#
# Coordination Sequence:
#
# PCOD9397894 Si02
#       5
#     8   4   2   4   8
#     4  11  21  39  72 103 125 170 228 291 326 388
#     4   9  18  36  62 115 124 158 214 301 348 354
#     4  12  32  42  60 102 144 192 208 266 340 418
#     4   9  22  39  70  98 138 164 230 294 316 394
#     4  11  26  43  68  99 137 176 225 268 342 393
#
# _framework density 20.968301
#
# number of rings (size 3 to 8) (size 9 to 14) (size 15 to 20)
#    0.000    1.538    3.077    0.000   12.923    1.231 
#    0.000    0.000    0.000   22.154    0.000    0.000 
#    0.000    0.000    0.000    0.000    0.000    0.000 
#
# Total GULP energy -144766.691846 kJ/mol
# GULP energy per Si atom -5567.949686 kJ/mol
# Density = 2.092058 g / cm^3
# Si number density = 20.968301 Si / 1000 Ang^3
#
#
#
# Elastic Constant Matrix: (Units=GPa)
#
#
# Indices 1 2 3 4 5 6 
#
# 1 131.6396 74.3852 50.4156 0.0000 0.0000 0.0000
# 2 74.3852 124.5203 47.6435 0.0000 0.0000 0.0000
# 3 50.4156 47.6435 85.0521 0.0000 0.0000 0.0000
# 4 0.0000 0.0000 0.0000 44.2812 0.0000 0.0000
# 5 0.0000 0.0000 0.0000 0.0000 5.9714 0.0000
# 6 0.0000 0.0000 0.0000 0.0000 0.0000 62.4247
#
#
#
# Elastic Compliance Matrix: (Units=1/GPa)
#
#
# Indices 1 2 3 4 5 6 
#
# 1 0.012501 -0.005897 -0.004107 0.000000 0.000000 0.000000
# 2 -0.005897 0.013003 -0.003789 0.000000 0.000000 0.000000
# 3 -0.004107 -0.003789 0.016314 0.000000 0.000000 0.000000
# 4 0.000000 0.000000 0.000000 0.022583 0.000000 0.000000
# 5 0.000000 0.000000 0.000000 0.000000 0.167465 0.000000
# 6 0.000000 0.000000 0.000000 0.000000 0.000000 0.016019
#
#
# Mechanical properties :
#
#
# Convention : Reuss Voigt Hill
#
# Bulk Modulus (GPa) = 70.25495 76.23342 73.24418
# Shear Modulus (GPa) = 17.84344 33.78664 25.81504
#
# Velocity S-wave (km/s) = 2.92031 4.01848 3.51258
# Velocity P-wave (km/s) = 6.70440 7.61356 7.17340
#
# Compressibility (1/GPa) = 0.01423387
#
# Stress axis : x y z
#
# Youngs Moduli (GPa) = 79.99063 76.90655 61.29555
#
# Poissons Ratio (x) = 0.45348 0.25176
# Poissons Ratio (y) = 0.47167 0.23222
# Poissons Ratio (z) = 0.32855 0.29136
#
# Static dielectric constant tensor:
#      x y z
#    x 1.895640 0.000000 0.000000 
#    y 0.000000 1.977860 0.000000 
#    z 0.000000 0.000000 1.750300 
# 
# From -- ./inp_files/8853.got.cif
#   From: 2010.05.17/outbox.cif.g08.bks.cpg/sg50_5_cif.got.tgz:8853.got - 2010.06.03 11:33:33.
