data_PCOD9397315
_publ_section_title
;
Structure prediction by ZEFSAII (Michael W. Deem and Ramdas Pophale) SiO2 
 PCOD9397315
Probable space group: P B A N
;
_chemical_formula_sum "Si O2"
_cell_formula_units_Z 56
_cell_length_a 20.525773
_cell_length_b 15.675145
_cell_length_c 8.796377
_cell_angle_alpha 90.000000
_cell_angle_beta 90.000000
_cell_angle_gamma 90.000000
_cell_volume 2830.185638
_symmetry_space_group_name_H-M "P B A N"
_symmetry_group_IT_number 50
_space_group.IT_coordinate_system_code '2'
_symmetry_cell_setting 'orthorhombic'
loop_
_space_group_symop_operation_xyz
x,y,z
1/2-x,1/2-y,z
x,1/2-y,-z
1/2-x,y,-z
-x,-y,-z
1/2+x,1/2+y,-z
-x,1/2+y,z
1/2+x,-y,z
loop_
_atom_site_type_symbol
_atom_site_label
_atom_site_fract_x
_atom_site_fract_y
_atom_site_fract_z
Si Si1 0.181636 0.972256 0.905413
Si Si2 0.632980 0.763327 0.832780
Si Si3 0.489558 0.682404 0.180734
Si Si4 0.525238 0.491645 0.668147
Si Si5 0.559572 0.133082 0.848393
Si Si6 0.225934 0.109162 0.674067
Si Si7 0.136474 0.420239 0.814955
O O1 0.135712 0.893384 0.859575
O O2 0.192313 0.026443 0.750690
O O3 0.250000 0.954719 0.000000
O O4 0.141456 0.032221 0.024212
O O5 0.567220 0.816661 0.843453
O O6 0.681189 0.809237 0.715313
O O7 0.602594 0.670762 0.800366
O O8 0.664217 0.750000 0.000000
O O9 0.477010 0.607853 0.297312
O O10 0.458516 0.774323 0.223110
O O11 0.461047 0.649218 0.021981
O O12 0.500000 0.500000 0.500000
O O13 0.480633 0.553708 0.775194
O O14 0.599555 0.520365 0.696989
O O15 0.250000 0.105134 0.500000
O O16 0.291497 0.109736 0.772037
#
# Coordination Sequence:
#
# PCOD9397315 Si02
#       7
#     8   8   8   8   8   8   8
#     4  10  22  42  70  93 130 176 230 283 342 422
#     4  12  21  39  65  97 132 178 227 281 342 414
#     4  11  23  41  71 104 132 175 236 292 339 421
#     4  12  26  41  66  99 147 184 223 292 352 415
#     4  11  22  43  70 102 130 177 234 291 348 405
#     4  11  26  41  63  96 136 182 229 283 347 414
#     4  11  23  41  62  95 132 179 233 267 347 418
#
# _framework density 19.786688000000002
#
# number of rings (size 3 to 8) (size 9 to 14) (size 15 to 20)
#    0.000    0.857    5.714    1.714    4.000    2.286 
#    0.000    1.429    0.000    0.000    0.000    1.000 
#    0.000    0.000    0.000    0.000    0.000    0.000 
#
# Total GULP energy -312108.557511 kJ/mol
# GULP energy per Si atom -5573.367098 kJ/mol
# Density = 1.974165 g / cm^3
# Si number density = 19.786688 Si / 1000 Ang^3
#
#
#
# Elastic Constant Matrix: (Units=GPa)
#
#
# Indices 1 2 3 4 5 6 
#
# 1 93.2891 54.6072 21.4925 0.0000 0.0000 0.0000
# 2 54.6072 126.2375 52.2599 0.0000 0.0000 0.0000
# 3 21.4925 52.2599 83.6441 0.0000 0.0000 0.0000
# 4 0.0000 0.0000 0.0000 20.9676 0.0000 0.0000
# 5 0.0000 0.0000 0.0000 0.0000 9.8032 0.0000
# 6 0.0000 0.0000 0.0000 0.0000 0.0000 32.5541
#
#
#
# Elastic Compliance Matrix: (Units=1/GPa)
#
#
# Indices 1 2 3 4 5 6 
#
# 1 0.014358 -0.006318 0.000258 0.000000 0.000000 0.000000
# 2 -0.006318 0.013465 -0.006790 0.000000 0.000000 0.000000
# 3 0.000258 -0.006790 0.016131 0.000000 0.000000 0.000000
# 4 0.000000 0.000000 0.000000 0.047693 0.000000 0.000000
# 5 0.000000 0.000000 0.000000 0.000000 0.102008 0.000000
# 6 0.000000 0.000000 0.000000 0.000000 0.000000 0.030718
#
#
# Mechanical properties :
#
#
# Convention : Reuss Voigt Hill
#
# Bulk Modulus (GPa) = 54.77735 62.20997 58.49366
# Shear Modulus (GPa) = 19.51931 24.31907 21.91919
#
# Velocity S-wave (km/s) = 3.14425 3.50960 3.33194
# Velocity P-wave (km/s) = 6.39732 6.92327 6.66549
#
# Compressibility (1/GPa) = 0.01825572
#
# Stress axis : x y z
#
# Youngs Moduli (GPa) = 69.64738 74.26555 61.99175
#
# Poissons Ratio (x) = 0.46919 -0.01599
# Poissons Ratio (y) = 0.44001 0.42090
# Poissons Ratio (z) = -0.01796 0.50423
#
# Static dielectric constant tensor:
#      x y z
#    x 1.737530 0.000000 0.000000 
#    y 0.000000 1.798440 0.000000 
#    z 0.000000 0.000000 1.694710 
# 
# From -- ./inp_files/15380.got.cif
#   From: 2010.05.17/outbox.cif.g08.bks.cpg/sg50_8_cif.got.tgz:15380.got - 2010.06.03 11:33:33.
