data_PCOD9397045
_publ_section_title
;
Structure prediction by ZEFSAII (Michael W. Deem and Ramdas Pophale) SiO2 
 PCOD9397045
Probable space group: P B A N
;
_chemical_formula_sum "Si O2"
_cell_formula_units_Z 54
_cell_length_a 13.786132
_cell_length_b 14.529802
_cell_length_c 13.711654
_cell_angle_alpha 90.000000
_cell_angle_beta 90.000000
_cell_angle_gamma 90.000000
_cell_volume 2746.578236
_symmetry_space_group_name_H-M "P B A N"
_symmetry_group_IT_number 50
_space_group.IT_coordinate_system_code '2'
_symmetry_cell_setting 'orthorhombic'
loop_
_space_group_symop_operation_xyz
x,y,z
1/2-x,1/2-y,z
x,1/2-y,-z
1/2-x,y,-z
-x,-y,-z
1/2+x,1/2+y,-z
-x,1/2+y,z
1/2+x,-y,z
loop_
_atom_site_type_symbol
_atom_site_label
_atom_site_fract_x
_atom_site_fract_y
_atom_site_fract_z
Si Si1 0.485620 0.609103 0.519750
Si Si2 0.678486 0.586226 0.429918
Si Si3 0.750000 0.750000 0.000000
Si Si4 0.560757 0.346970 0.254090
Si Si5 0.356050 0.145951 0.830878
Si Si6 0.342913 0.683745 0.355844
Si Si7 0.229055 0.523135 0.254468
Si Si8 0.750000 0.750000 0.680515
O O1 0.500000 0.500000 0.500000
O O2 0.589377 0.638122 0.477879
O O3 0.468492 0.626226 0.633526
O O4 0.404468 0.655388 0.451410
O O5 0.750000 0.529110 0.500000
O O6 0.659931 0.526647 0.334541
O O7 0.746849 0.663630 0.387299
O O8 0.682536 0.814303 0.067624
O O9 0.469702 0.368942 0.184980
O O10 0.594884 0.241886 0.276132
O O11 0.652428 0.403992 0.210901
O O12 0.337144 0.229581 0.753842
O O13 0.288737 0.057241 0.801526
O O14 0.250000 0.750000 0.377679
O O15 0.305613 0.588707 0.309211
#
# Coordination Sequence:
#
# PCOD9397045 Si02
#       8
#     8   8   2   8   8   8   8   4
#     4  12  21  33  51  83 123 174 232 263 291 345
#     4  11  20  31  50  77 120 166 220 258 304 334
#     4  10  24  48  78  96 118 144 194 280 332 430
#     4  11  22  37  58  88 125 172 214 257 316 372
#     4  10  21  43  66  91 118 146 202 254 338 388
#     4  10  23  38  56  87 136 185 227 261 303 359
#     4  10  22  37  58  88 127 167 205 264 302 380
#     4   9  19  33  53  78 112 156 195 261 301 355
#
# _framework density 19.660829
#
# number of rings (size 3 to 8) (size 9 to 14) (size 15 to 20)
#    0.000    1.481    1.481    5.111    0.000    4.741 
#    0.000    0.741    0.000    0.000    0.000    0.000 
#    0.000    0.000    0.000    0.000    0.000    0.000 
#
# Total GULP energy -300604.136655 kJ/mol
# GULP energy per Si atom -5566.743271 kJ/mol
# Density = 1.961608 g / cm^3
# Si number density = 19.660829 Si / 1000 Ang^3
#
#
#
# Elastic Constant Matrix: (Units=GPa)
#
#
# Indices 1 2 3 4 5 6 
#
# 1 120.3310 29.4709 54.0236 0.0000 0.0000 0.0000
# 2 29.4709 92.4521 39.6879 0.0000 0.0000 0.0000
# 3 54.0236 39.6879 80.9257 0.0000 0.0000 0.0000
# 4 0.0000 0.0000 0.0000 18.3027 0.0000 0.0000
# 5 0.0000 0.0000 0.0000 0.0000 19.3960 0.0000
# 6 0.0000 0.0000 0.0000 0.0000 0.0000 20.0754
#
#
#
# Elastic Compliance Matrix: (Units=1/GPa)
#
#
# Indices 1 2 3 4 5 6 
#
# 1 0.011884 -0.000485 -0.007696 0.000000 0.000000 0.000000
# 2 -0.000485 0.013721 -0.006405 0.000000 0.000000 0.000000
# 3 -0.007696 -0.006405 0.020636 0.000000 0.000000 0.000000
# 4 0.000000 0.000000 0.000000 0.054637 0.000000 0.000000
# 5 0.000000 0.000000 0.000000 0.000000 0.051557 0.000000
# 6 0.000000 0.000000 0.000000 0.000000 0.000000 0.049812
#
#
# Mechanical properties :
#
#
# Convention : Reuss Voigt Hill
#
# Bulk Modulus (GPa) = 58.58591 60.00815 59.29703
# Shear Modulus (GPa) = 21.08739 22.92323 22.00531
#
# Velocity S-wave (km/s) = 3.27855 3.41828 3.34914
# Velocity P-wave (km/s) = 6.64792 6.79466 6.72169
#
# Compressibility (1/GPa) = 0.01706895
#
# Stress axis : x y z
#
# Youngs Moduli (GPa) = 84.14511 72.88302 48.45918
#
# Poissons Ratio (x) = 0.03532 0.37294
# Poissons Ratio (y) = 0.04078 0.31040
# Poissons Ratio (z) = 0.64757 0.46684
#
# Static dielectric constant tensor:
#      x y z
#    x 1.638840 0.000000 0.000000 
#    y 0.000000 1.660050 0.000000 
#    z 0.000000 0.000000 1.717180 
# 
# From -- ./inp_files/26581.got.cif
#   From: 2010.05.17/outbox.cif.g08.bks.cpg/sg50_14_cif.got.tgz:26581.got - 2010.06.03 11:33:33.
