data_PCOD9397662
_publ_section_title
;
Structure prediction by ZEFSAII (Michael W. Deem and Ramdas Pophale) SiO2 
 PCOD9397662
Probable space group: P B A N
;
_chemical_formula_sum "Si O2"
_cell_formula_units_Z 40
_cell_length_a 10.867333
_cell_length_b 9.026238
_cell_length_c 18.497331
_cell_angle_alpha 90.000000
_cell_angle_beta 90.000000
_cell_angle_gamma 90.000000
_cell_volume 1814.424175
_symmetry_space_group_name_H-M "P B A N"
_symmetry_group_IT_number 50
_space_group.IT_coordinate_system_code '2'
_symmetry_cell_setting 'orthorhombic'
loop_
_space_group_symop_operation_xyz
x,y,z
1/2-x,1/2-y,z
x,1/2-y,-z
1/2-x,y,-z
-x,-y,-z
1/2+x,1/2+y,-z
-x,1/2+y,z
1/2+x,-y,z
loop_
_atom_site_type_symbol
_atom_site_label
_atom_site_fract_x
_atom_site_fract_y
_atom_site_fract_z
Si Si1 0.210081 0.080214 0.188623
Si Si2 0.543520 0.070934 0.307323
Si Si3 0.134760 0.643418 0.260367
Si Si4 0.380117 0.080915 0.971156
Si Si5 0.119791 0.583037 0.528720
O O1 0.250000 0.250000 0.194981
O O2 0.133111 0.070775 0.115002
O O3 0.128095 0.028286 0.255584
O O4 0.321652 0.957343 0.192283
O O5 0.532518 0.226568 0.264491
O O6 0.605400 0.087413 0.384925
O O7 0.414884 0.982804 0.314203
O O8 0.250000 0.750000 0.278350
O O9 0.385583 0.250000 0.000000
O O10 0.250000 0.018177 0.000000
O O11 0.500000 0.000000 0.000000
O O12 0.114931 0.750000 0.500000
O O13 0.250000 0.519330 0.500000
O O14 0.000000 0.500000 0.500000
#
# Coordination Sequence:
#
# PCOD9397662 Si02
#       5
#     8   8   8   8   8
#     4  11  24  44  76 107 149 198 256 312 381 471
#     4  11  24  44  74 108 150 200 260 322 390 466
#     4  10  24  42  72 109 149 190 260 320 394 452
#     4  11  26  51  75 108 157 199 255 312 394 470
#     4  11  27  47  75 106 155 204 254 318 400 470
#
# _framework density 22.045562
#
# number of rings (size 3 to 8) (size 9 to 14) (size 15 to 20)
#    0.000    1.200    2.000    2.400   16.800    4.000 
#    3.600    0.000    0.000    0.000    0.000    0.000 
#    0.000    0.000    0.000    0.000    0.000    0.000 
#
# Total GULP energy -223056.041080 kJ/mol
# GULP energy per Si atom -5576.401027 kJ/mol
# Density = 2.199538 g / cm^3
# Si number density = 22.045562 Si / 1000 Ang^3
#
#
#
# Elastic Constant Matrix: (Units=GPa)
#
#
# Indices 1 2 3 4 5 6 
#
# 1 141.6430 85.4240 62.3059 0.0000 0.0000 0.0000
# 2 85.4240 155.8373 65.2216 0.0000 0.0000 0.0000
# 3 62.3059 65.2216 184.3091 0.0000 0.0000 0.0000
# 4 0.0000 0.0000 0.0000 30.2192 0.0000 0.0000
# 5 0.0000 0.0000 0.0000 0.0000 43.1107 0.0000
# 6 0.0000 0.0000 0.0000 0.0000 0.0000 43.4777
#
#
#
# Elastic Compliance Matrix: (Units=1/GPa)
#
#
# Indices 1 2 3 4 5 6 
#
# 1 0.011071 -0.005285 -0.001872 0.000000 0.000000 0.000000
# 2 -0.005285 0.010056 -0.001772 0.000000 0.000000 0.000000
# 3 -0.001872 -0.001772 0.006686 0.000000 0.000000 0.000000
# 4 0.000000 0.000000 0.000000 0.033092 0.000000 0.000000
# 5 0.000000 0.000000 0.000000 0.000000 0.023196 0.000000
# 6 0.000000 0.000000 0.000000 0.000000 0.000000 0.023000
#
#
# Mechanical properties :
#
#
# Convention : Reuss Voigt Hill
#
# Bulk Modulus (GPa) = 100.46384 100.85470 100.65927
# Shear Modulus (GPa) = 38.97837 41.28405 40.13121
#
# Velocity S-wave (km/s) = 4.20942 4.33213 4.27122
# Velocity P-wave (km/s) = 8.32439 8.41848 8.37157
#
# Compressibility (1/GPa) = 0.00995383
#
# Stress axis : x y z
#
# Youngs Moduli (GPa) = 90.32609 99.44770 149.57579
#
# Poissons Ratio (x) = 0.52559 0.28005
# Poissons Ratio (y) = 0.47738 0.26501
# Poissons Ratio (z) = 0.16912 0.17619
#
# Static dielectric constant tensor:
#      x y z
#    x 2.041410 0.000000 0.000000 
#    y 0.000000 1.816250 0.000000 
#    z 0.000000 0.000000 1.807860 
# 
# From -- ./inp_files/29083.got.cif
#   From: 2010.05.17/outbox.cif.g08.bks.cpg/sg50_15_cif.got.tgz:29083.got - 2010.06.03 11:33:33.
