data_PCOD9397098
_publ_section_title
;
Structure prediction by ZEFSAII (Michael W. Deem and Ramdas Pophale) SiO2 
 PCOD9397098
Probable space group: P B A N
;
_chemical_formula_sum "Si O2"
_cell_formula_units_Z 46
_cell_length_a 5.378297
_cell_length_b 17.085523
_cell_length_c 26.411467
_cell_angle_alpha 90.000000
_cell_angle_beta 90.000000
_cell_angle_gamma 90.000000
_cell_volume 2426.976566
_symmetry_space_group_name_H-M "P B A N"
_symmetry_group_IT_number 50
_space_group.IT_coordinate_system_code '2'
_symmetry_cell_setting 'orthorhombic'
loop_
_space_group_symop_operation_xyz
x,y,z
1/2-x,1/2-y,z
x,1/2-y,-z
1/2-x,y,-z
-x,-y,-z
1/2+x,1/2+y,-z
-x,1/2+y,z
1/2+x,-y,z
loop_
_atom_site_type_symbol
_atom_site_label
_atom_site_fract_x
_atom_site_fract_y
_atom_site_fract_z
Si Si1 0.562201 0.682916 0.914762
Si Si2 0.865642 0.663566 0.761164
Si Si3 0.165988 0.053582 0.665409
Si Si4 0.228590 0.053034 0.554254
Si Si5 0.750000 0.250000 0.000000
Si Si6 0.305329 0.449626 0.151294
Si Si7 0.750000 0.250000 0.177448
O O1 0.750000 0.750000 0.930129
O O2 0.372753 0.688578 0.960486
O O3 0.693480 0.602864 0.899535
O O4 0.442225 0.712156 0.861946
O O5 0.750000 0.750000 0.756536
O O6 0.862073 0.618767 0.708303
O O7 0.726379 0.606944 0.800413
O O8 0.129488 0.683460 0.787473
O O9 0.197299 0.091754 0.609272
O O10 0.417270 0.000623 0.670191
O O11 0.250000 0.096835 0.500000
O O12 0.483083 0.002279 0.554140
O O13 0.566999 0.494170 0.152716
#
# Coordination Sequence:
#
# PCOD9397098 Si02
#       7
#     8   8   8   8   2   8   4
#     4  11  22  45  68  97 120 167 213 252 304 377
#     4  12  24  38  60  89 124 171 210 249 307 381
#     4  10  22  37  55  88 127 158 204 265 318 362
#     4   8  14  28  51  77 110 154 202 252 306 364
#     4  10  26  40  80  90 128 160 222 248 304 364
#     4  12  25  41  66  96 129 162 201 255 311 362
#     4  11  20  39  66  86 124 163 221 250 290 380
#
# _framework density 18.953624000000001
#
# number of rings (size 3 to 8) (size 9 to 14) (size 15 to 20)
#    0.000    1.391    3.478    2.348    4.870    0.000 
#    0.000    0.870    0.000    0.522    0.000    0.000 
#    0.000    0.000    0.000    0.000    0.000    0.000 
#
# Total GULP energy -256129.820207 kJ/mol
# GULP energy per Si atom -5568.039570 kJ/mol
# Density = 1.891048 g / cm^3
# Si number density = 18.953624 Si / 1000 Ang^3
#
#
#
# Elastic Constant Matrix: (Units=GPa)
#
#
# Indices 1 2 3 4 5 6 
#
# 1 75.2935 12.2252 13.7386 0.0000 0.0000 0.0000
# 2 12.2252 68.2161 46.3896 0.0000 0.0000 0.0000
# 3 13.7386 46.3896 164.8712 0.0000 0.0000 0.0000
# 4 0.0000 0.0000 0.0000 0.4156 0.0000 0.0000
# 5 0.0000 0.0000 0.0000 0.0000 33.1044 0.0000
# 6 0.0000 0.0000 0.0000 0.0000 0.0000 36.2144
#
#
#
# Elastic Compliance Matrix: (Units=1/GPa)
#
#
# Indices 1 2 3 4 5 6 
#
# 1 0.013721 -0.002079 -0.000558 0.000000 0.000000 0.000000
# 2 -0.002079 0.018443 -0.005016 0.000000 0.000000 0.000000
# 3 -0.000558 -0.005016 0.007523 0.000000 0.000000 0.000000
# 4 0.000000 0.000000 0.000000 2.406408 0.000000 0.000000
# 5 0.000000 0.000000 0.000000 0.000000 0.030207 0.000000
# 6 0.000000 0.000000 0.000000 0.000000 0.000000 0.027613
#
#
# Mechanical properties :
#
#
# Convention : Reuss Voigt Hill
#
# Bulk Modulus (GPa) = 41.01751 50.34310 45.68030
# Shear Modulus (GPa) = 1.97836 29.68203 15.83020
#
# Velocity S-wave (km/s) = 1.02277 3.96161 2.89313
# Velocity P-wave (km/s) = 4.80445 6.89526 5.94253
#
# Compressibility (1/GPa) = 0.02437983
#
# Stress axis : x y z
#
# Youngs Moduli (GPa) = 72.88186 54.22107 132.92188
#
# Poissons Ratio (x) = 0.11274 0.07421
# Poissons Ratio (y) = 0.15154 0.66674
# Poissons Ratio (z) = 0.04069 0.27197
#
# Static dielectric constant tensor:
#      x y z
#    x 1.752630 0.000000 0.000000 
#    y 0.000000 1.826460 0.000000 
#    z 0.000000 0.000000 1.690230 
# 
# From -- ./inp_files/31476.got.cif
#   From: 2010.05.17/outbox.cif.g08.bks.cpg/sg50_16_cif.got.tgz:31476.got - 2010.06.03 11:33:33.
