data_PCOD9397905
_publ_section_title
;
Structure prediction by ZEFSAII (Michael W. Deem and Ramdas Pophale) SiO2 
 PCOD9397905
Probable space group: P B A N
;
_chemical_formula_sum "Si O2"
_cell_formula_units_Z 42
_cell_length_a 21.096712
_cell_length_b 21.423444
_cell_length_c 5.124198
_cell_angle_alpha 90.000000
_cell_angle_beta 90.000000
_cell_angle_gamma 90.000000
_cell_volume 2315.954194
_symmetry_space_group_name_H-M "P B A N"
_symmetry_group_IT_number 50
_space_group.IT_coordinate_system_code '2'
_symmetry_cell_setting 'orthorhombic'
loop_
_space_group_symop_operation_xyz
x,y,z
1/2-x,1/2-y,z
x,1/2-y,-z
1/2-x,y,-z
-x,-y,-z
1/2+x,1/2+y,-z
-x,1/2+y,z
1/2+x,-y,z
loop_
_atom_site_type_symbol
_atom_site_label
_atom_site_fract_x
_atom_site_fract_y
_atom_site_fract_z
Si Si1 0.507631 0.680768 0.594565
Si Si2 0.157799 0.185467 0.361217
Si Si3 0.897082 0.515405 0.074681
Si Si4 0.016470 0.897012 0.071741
Si Si5 0.250000 0.250000 0.000000
Si Si6 0.320366 0.448578 0.576202
O O1 0.490001 0.750000 0.500000
O O2 0.582288 0.682709 0.670448
O O3 0.495939 0.633586 0.353823
O O4 0.473721 0.655780 0.853077
O O5 0.173537 0.250000 0.500000
O O6 0.199365 0.197906 0.108063
O O7 0.177098 0.125966 0.530341
O O8 0.843401 0.530194 0.860047
O O9 0.954081 0.563482 0.010951
O O10 0.926590 0.446506 0.064352
O O11 0.869925 0.526446 0.361857
O O12 0.250000 0.469880 0.500000
#
# Coordination Sequence:
#
# PCOD9397905 Si02
#       6
#     8   8   8   8   2   8
#     4  11  23  36  61  85 116 144 194 245 286 330
#     4  11  25  37  51  76 114 160 207 241 280 311
#     4  11  23  39  59  82 112 157 196 234 294 340
#     4  11  21  41  60  82 114 151 195 241 292 344
#     4  12  26  36  52  70 116 176 202 244 270 324
#     4  12  24  38  57  83 117 152 203 239 277 338
#
# _framework density 18.135075000000001
#
# number of rings (size 3 to 8) (size 9 to 14) (size 15 to 20)
#    0.000    0.762    3.810    3.714   10.667    3.048 
#    0.000    0.000    0.000    0.000    0.000    0.000 
#    0.000   53.333    0.000    0.000    0.000    0.000 
#
# Total GULP energy -234486.907764 kJ/mol
# GULP energy per Si atom -5583.021613 kJ/mol
# Density = 1.809380 g / cm^3
# Si number density = 18.135075 Si / 1000 Ang^3
#
#
#
# Elastic Constant Matrix: (Units=GPa)
#
#
# Indices 1 2 3 4 5 6 
#
# 1 35.4270 35.9643 -3.2498 0.0000 0.0000 0.0000
# 2 35.9643 85.8142 21.5301 0.0000 0.0000 0.0000
# 3 -3.2498 21.5301 63.2697 0.0000 0.0000 0.0000
# 4 0.0000 0.0000 0.0000 78.7584 0.0000 0.0000
# 5 0.0000 0.0000 0.0000 0.0000 6.2040 0.0000
# 6 0.0000 0.0000 0.0000 0.0000 0.0000 14.0546
#
#
#
# Elastic Compliance Matrix: (Units=1/GPa)
#
#
# Indices 1 2 3 4 5 6 
#
# 1 0.056333 -0.026606 0.011947 0.000000 0.000000 0.000000
# 2 -0.026606 0.025307 -0.009978 0.000000 0.000000 0.000000
# 3 0.011947 -0.009978 0.019815 0.000000 0.000000 0.000000
# 4 0.000000 0.000000 0.000000 0.012697 0.000000 0.000000
# 5 0.000000 0.000000 0.000000 0.000000 0.161187 0.000000
# 6 0.000000 0.000000 0.000000 0.000000 0.000000 0.071151
#
#
# Mechanical properties :
#
#
# Convention : Reuss Voigt Hill
#
# Bulk Modulus (GPa) = 19.16446 32.55556 25.86001
# Shear Modulus (GPa) = 12.10191 28.48782 20.29486
#
# Velocity S-wave (km/s) = 2.58606 3.96772 3.34892
# Velocity P-wave (km/s) = 4.41673 6.24348 5.40780
#
# Compressibility (1/GPa) = 0.05217993
#
# Stress axis : x y z
#
# Youngs Moduli (GPa) = 17.75161 39.51444 50.46783
#
# Poissons Ratio (x) = 1.05134 -0.60296
# Poissons Ratio (y) = 0.47231 0.50359
# Poissons Ratio (z) = -0.21209 0.39429
#
# Static dielectric constant tensor:
#      x y z
#    x 1.737690 0.000000 0.000000 
#    y 0.000000 1.628520 0.000000 
#    z 0.000000 0.000000 1.805380 
# 
# From -- ./inp_files/5242.got.cif
#   From: 2010.05.17/outbox.cif.g08.bks.cpg/sg50_3_cif.got.tgz:5242.got - 2010.06.03 11:33:33.
