data_PCOD9397463
_publ_section_title
;
Structure prediction by ZEFSAII (Michael W. Deem and Ramdas Pophale) SiO2 
 PCOD9397463
Probable space group: P B A N
;
_chemical_formula_sum "Si O2"
_cell_formula_units_Z 32
_cell_length_a 8.493271
_cell_length_b 15.090105
_cell_length_c 11.600495
_cell_angle_alpha 90.000000
_cell_angle_beta 90.000000
_cell_angle_gamma 90.000000
_cell_volume 1486.769915
_symmetry_space_group_name_H-M "P B A N"
_symmetry_group_IT_number 50
_space_group.IT_coordinate_system_code '2'
_symmetry_cell_setting 'orthorhombic'
loop_
_space_group_symop_operation_xyz
x,y,z
1/2-x,1/2-y,z
x,1/2-y,-z
1/2-x,y,-z
-x,-y,-z
1/2+x,1/2+y,-z
-x,1/2+y,z
1/2+x,-y,z
loop_
_atom_site_type_symbol
_atom_site_label
_atom_site_fract_x
_atom_site_fract_y
_atom_site_fract_z
Si Si1 0.163086 0.920634 0.892161
Si Si2 0.251542 0.387900 0.369007
Si Si3 0.939880 0.457676 0.263620
Si Si4 0.495960 0.250000 0.000000
Si Si5 0.750000 0.750000 0.186642
O O1 0.302732 0.904082 0.800724
O O2 0.250000 0.967939 0.000000
O O3 0.034679 0.982448 0.830259
O O4 0.090901 0.830589 0.943413
O O5 0.250000 0.357436 0.500000
O O6 0.350015 0.477688 0.352556
O O7 0.320931 0.321698 0.273545
O O8 0.072416 0.402923 0.328868
O O9 0.382550 0.287174 0.899028
#
# Coordination Sequence:
#
# PCOD9397463 Si02
#       5
#     8   8   8   4   4
#     4  11  21  38  62  92 130 165 204 262 318 379
#     4  11  22  42  66  93 127 171 213 265 311 371
#     4  10  23  40  64  96 126 159 225 257 316 373
#     4  11  23  40  62  92 130 166 204 264 326 388
#     4  11  23  40  62  96 125 167 212 258 324 387
#
# _framework density 21.523168999999999
#
# number of rings (size 3 to 8) (size 9 to 14) (size 15 to 20)
#    0.000    1.250    2.500    3.750    0.000    2.000 
#    0.000    0.000    0.000    0.000    0.000    0.000 
#    0.000    0.000    0.000    0.000    0.000    0.000 
#
# Total GULP energy -178864.459212 kJ/mol
# GULP energy per Si atom -5589.514350 kJ/mol
# Density = 2.147418 g / cm^3
# Si number density = 21.523169 Si / 1000 Ang^3
#
#
#
# Elastic Constant Matrix: (Units=GPa)
#
#
# Indices 1 2 3 4 5 6 
#
# 1 106.7827 30.3000 51.3311 0.0000 0.0000 0.0000
# 2 30.3000 61.1022 45.5854 0.0000 0.0000 0.0000
# 3 51.3311 45.5854 151.8361 0.0000 0.0000 0.0000
# 4 0.0000 0.0000 0.0000 13.0729 0.0000 0.0000
# 5 0.0000 0.0000 0.0000 0.0000 21.9941 0.0000
# 6 0.0000 0.0000 0.0000 0.0000 0.0000 27.0765
#
#
#
# Elastic Compliance Matrix: (Units=1/GPa)
#
#
# Indices 1 2 3 4 5 6 
#
# 1 0.011799 -0.003705 -0.002877 0.000000 0.000000 0.000000
# 2 -0.003705 0.022253 -0.005429 0.000000 0.000000 0.000000
# 3 -0.002877 -0.005429 0.009188 0.000000 0.000000 0.000000
# 4 0.000000 0.000000 0.000000 0.076494 0.000000 0.000000
# 5 0.000000 0.000000 0.000000 0.000000 0.045467 0.000000
# 6 0.000000 0.000000 0.000000 0.000000 0.000000 0.036932
#
#
# Mechanical properties :
#
#
# Convention : Reuss Voigt Hill
#
# Bulk Modulus (GPa) = 52.02784 63.79489 57.91137
# Shear Modulus (GPa) = 21.49980 25.26232 23.38106
#
# Velocity S-wave (km/s) = 3.16399 3.42969 3.29951
# Velocity P-wave (km/s) = 6.12970 6.73707 6.44055
#
# Compressibility (1/GPa) = 0.01922048
#
# Stress axis : x y z
#
# Youngs Moduli (GPa) = 84.75403 44.93736 108.83411
#
# Poissons Ratio (x) = 0.16649 0.31306
# Poissons Ratio (y) = 0.31401 0.59081
# Poissons Ratio (z) = 0.24380 0.24394
#
# Static dielectric constant tensor:
#      x y z
#    x 1.826540 0.000000 0.000000 
#    y 0.000000 1.830090 0.000000 
#    z 0.000000 0.000000 1.772440 
# 
# From -- ./inp_files/18405.got.cif
#   From: 2010.05.17/outbox.cif.g08.bks.cpg/sg50_10_cif.got.tgz:18405.got - 2010.06.03 11:33:33.
