data_PCOD9397911
_publ_section_title
;
Structure prediction by ZEFSAII (Michael W. Deem and Ramdas Pophale) SiO2 
 PCOD9397911
Probable space group: P B A N
;
_chemical_formula_sum "Si O2"
_cell_formula_units_Z 48
_cell_length_a 28.259025
_cell_length_b 9.885692
_cell_length_c 7.930630
_cell_angle_alpha 90.000000
_cell_angle_beta 90.000000
_cell_angle_gamma 90.000000
_cell_volume 2215.500935
_symmetry_space_group_name_H-M "P B A N"
_symmetry_group_IT_number 50
_space_group.IT_coordinate_system_code '2'
_symmetry_cell_setting 'orthorhombic'
loop_
_space_group_symop_operation_xyz
x,y,z
1/2-x,1/2-y,z
x,1/2-y,-z
1/2-x,y,-z
-x,-y,-z
1/2+x,1/2+y,-z
-x,1/2+y,z
1/2+x,-y,z
loop_
_atom_site_type_symbol
_atom_site_label
_atom_site_fract_x
_atom_site_fract_y
_atom_site_fract_z
Si Si1 0.246064 0.091565 0.797978
Si Si2 0.155734 0.520921 0.730069
Si Si3 0.906180 0.693140 0.174233
Si Si4 0.907149 0.278555 0.701298
Si Si5 0.642037 0.949663 0.660128
Si Si6 0.992037 0.871726 0.622603
O O1 0.250000 0.250000 0.745263
O O2 0.195283 0.052203 0.726531
O O3 0.287543 0.990890 0.733894
O O4 0.250000 0.087489 0.000000
O O5 0.138000 0.405024 0.857165
O O6 0.125701 0.656382 0.769799
O O7 0.141747 0.470712 0.541766
O O8 0.886512 0.816483 0.285920
O O9 0.947298 0.605747 0.259382
O O10 0.924754 0.750000 0.000000
O O11 0.906346 0.250000 0.500000
O O12 0.882223 0.419197 0.738849
O O13 0.962817 0.313492 0.727001
O O14 0.978602 0.750000 0.500000
O O15 0.000000 0.000000 0.500000
#
# Coordination Sequence:
#
# PCOD9397911 Si02
#       6
#     8   8   8   8   8   8
#     4  11  23  40  61  91 128 162 205 263 321 380
#     4  11  22  40  66  92 124 163 212 264 317 382
#     4  12  24  39  61  95 130 164 209 268 322 374
#     4   9  21  40  62  93 124 157 208 268 312 366
#     4  11  22  40  67  92 120 163 215 256 312 384
#     4  11  21  41  68  91 124 171 219 263 316 385
#
# _framework density 21.665531000000001
#
# number of rings (size 3 to 8) (size 9 to 14) (size 15 to 20)
#    0.000    1.167    1.667    7.000    0.000    1.333 
#    0.000   15.833    0.000    0.000    0.000    0.000 
#    0.000    0.000    0.000    0.000    0.000    0.000 
#
# Total GULP energy -267904.238289 kJ/mol
# GULP energy per Si atom -5581.338298 kJ/mol
# Density = 2.161622 g / cm^3
# Si number density = 21.665531 Si / 1000 Ang^3
#
#
#
# Elastic Constant Matrix: (Units=GPa)
#
#
# Indices 1 2 3 4 5 6 
#
# 1 162.3466 36.7188 18.6968 0.0000 0.0000 0.0000
# 2 36.7188 90.9987 0.5398 0.0000 0.0000 0.0000
# 3 18.6968 0.5398 38.3981 0.0000 0.0000 0.0000
# 4 0.0000 0.0000 0.0000 13.6725 0.0000 0.0000
# 5 0.0000 0.0000 0.0000 0.0000 11.3055 0.0000
# 6 0.0000 0.0000 0.0000 0.0000 0.0000 33.4947
#
#
#
# Elastic Compliance Matrix: (Units=1/GPa)
#
#
# Indices 1 2 3 4 5 6 
#
# 1 0.007213 -0.002890 -0.003472 0.000000 0.000000 0.000000
# 2 -0.002890 0.012148 0.001236 0.000000 0.000000 0.000000
# 3 -0.003472 0.001236 0.027716 0.000000 0.000000 0.000000
# 4 0.000000 0.000000 0.000000 0.073140 0.000000 0.000000
# 5 0.000000 0.000000 0.000000 0.000000 0.088453 0.000000
# 6 0.000000 0.000000 0.000000 0.000000 0.000000 0.029855
#
#
# Mechanical properties :
#
#
# Convention : Reuss Voigt Hill
#
# Bulk Modulus (GPa) = 27.15417 44.85046 36.00231
# Shear Modulus (GPa) = 19.15336 27.41374 23.28355
#
# Velocity S-wave (km/s) = 2.97652 3.56099 3.28179
# Velocity P-wave (km/s) = 4.93695 6.13626 5.56898
#
# Compressibility (1/GPa) = 0.03682676
#
# Stress axis : x y z
#
# Youngs Moduli (GPa) = 138.63651 82.31839 36.08030
#
# Poissons Ratio (x) = 0.23790 0.12526
# Poissons Ratio (y) = 0.40065 -0.04461
# Poissons Ratio (z) = 0.48129 -0.10178
#
# Static dielectric constant tensor:
#      x y z
#    x 1.833730 0.000000 0.000000 
#    y 0.000000 1.770740 0.000000 
#    z 0.000000 0.000000 1.632310 
# 
# From -- ./inp_files/16965.got.cif
#   From: 2010.05.17/outbox.cif.g08.bks.cpg/sg50_9_cif.got.tgz:16965.got - 2010.06.03 11:33:33.
