data_PCOD9397585
_publ_section_title
;
Structure prediction by ZEFSAII (Michael W. Deem and Ramdas Pophale) SiO2 
 PCOD9397585
Probable space group: P B A N
;
_chemical_formula_sum "Si O2"
_cell_formula_units_Z 38
_cell_length_a 25.487922
_cell_length_b 11.773387
_cell_length_c 5.530265
_cell_angle_alpha 90.000000
_cell_angle_beta 90.000000
_cell_angle_gamma 90.000000
_cell_volume 1659.517328
_symmetry_space_group_name_H-M "P B A N"
_symmetry_group_IT_number 50
_space_group.IT_coordinate_system_code '2'
_symmetry_cell_setting 'orthorhombic'
loop_
_space_group_symop_operation_xyz
x,y,z
1/2-x,1/2-y,z
x,1/2-y,-z
1/2-x,y,-z
-x,-y,-z
1/2+x,1/2+y,-z
-x,1/2+y,z
1/2+x,-y,z
loop_
_atom_site_type_symbol
_atom_site_label
_atom_site_fract_x
_atom_site_fract_y
_atom_site_fract_z
Si Si1 0.322296 0.557437 0.191156
Si Si2 0.750000 0.250000 0.000000
Si Si3 0.570425 0.323978 0.748259
Si Si4 0.840653 0.638590 0.832940
Si Si5 0.543969 0.821788 0.747600
Si Si6 0.750000 0.605821 0.500000
O O1 0.288024 0.669581 0.153408
O O2 0.381000 0.590822 0.261344
O O3 0.291397 0.475938 0.368327
O O4 0.325817 0.480682 0.952873
O O5 0.572899 0.250000 0.500000
O O6 0.512829 0.382658 0.755811
O O7 0.575690 0.250000 0.000000
O O8 0.899292 0.619608 0.730527
O O9 0.790093 0.668477 0.675954
O O10 0.846229 0.750000 0.000000
O O11 0.541844 0.750000 0.500000
O O12 0.543979 0.750000 0.000000
#
# Coordination Sequence:
#
# PCOD9397585 Si02
#       6
#     8   2   8   8   8   4
#     4  12  27  45  72 105 144 199 238 304 370 438
#     4  12  24  50  62 104 154 180 250 298 372 448
#     4  10  23  44  75 108 147 193 246 300 371 441
#     4  11  27  49  71 105 147 189 249 306 368 438
#     4   9  21  45  73 106 145 190 240 310 366 430
#     4  12  28  46  70 108 140 201 247 298 376 436
#
# _framework density 22.898223000000002
#
# number of rings (size 3 to 8) (size 9 to 14) (size 15 to 20)
#    0.000    1.263    3.158    0.000   11.789    3.368 
#    0.000    1.053    0.000    0.000    0.000    0.000 
#    0.000    0.000    0.000    0.000    0.000    0.000 
#
# Total GULP energy -212060.953161 kJ/mol
# GULP energy per Si atom -5580.551399 kJ/mol
# Density = 2.284611 g / cm^3
# Si number density = 22.898223 Si / 1000 Ang^3
#
#
#
# Elastic Constant Matrix: (Units=GPa)
#
#
# Indices 1 2 3 4 5 6 
#
# 1 265.2572 39.1253 45.9585 0.0000 0.0000 0.0000
# 2 39.1253 49.4175 8.7640 0.0000 0.0000 0.0000
# 3 45.9585 8.7640 96.3113 0.0000 0.0000 0.0000
# 4 0.0000 0.0000 0.0000 -3.4282 0.0000 0.0000
# 5 0.0000 0.0000 0.0000 0.0000 29.1822 0.0000
# 6 0.0000 0.0000 0.0000 0.0000 0.000021399.6405
#
#
#
# Elastic Compliance Matrix: (Units=1/GPa)
#
#
# Indices 1 2 3 4 5 6 
#
# 1 0.004583 -0.003294 -0.001887 0.000000 0.000000 0.000000
# 2 -0.003294 0.022935 -0.000515 0.000000 0.000000 0.000000
# 3 -0.001887 -0.000515 0.011330 0.000000 0.000000 0.000000
# 4 0.000000 0.000000 0.000000 -0.291700 0.000000 0.000000
# 5 0.000000 0.000000 0.000000 0.000000 0.034267 0.000000
# 6 0.000000 0.000000 0.000000 0.000000 0.000000 0.000047
#
#
# Mechanical properties :
#
#
# Convention : Reuss Voigt Hill
#
# Bulk Modulus (GPa) = 36.42212 66.52016 51.47114
# Shear Modulus (GPa) = -25.25324 4306.22144 2140.48410
#
# Velocity S-wave (km/s) = -3.32452 43.41284 30.60737
# Velocity P-wave (km/s) = 1.09730 50.41838 35.65962
#
# Compressibility (1/GPa) = 0.02745584
#
# Stress axis : x y z
#
# Youngs Moduli (GPa) = 218.21269 43.60195 88.25821
#
# Poissons Ratio (x) = 0.14361 0.16655
# Poissons Ratio (y) = 0.71870 0.04548
# Poissons Ratio (z) = 0.41179 0.02247
#
# Static dielectric constant tensor:
#      x y z
#    x 1.866400 0.000000 0.000000 
#    y 0.000000 2.204010 0.000000 
#    z 0.000000 0.000000 1.922780 
# 
# From -- ./inp_files/6441.got.cif
#   From: 2010.05.17/outbox.cif.g08.bks.cpg/sg50_4_cif.got.tgz:6441.got - 2010.06.03 11:33:33.
