data_PCOD9397634
_publ_section_title
;
Structure prediction by ZEFSAII (Michael W. Deem and Ramdas Pophale) SiO2 
 PCOD9397634
Probable space group: P B A N
;
_chemical_formula_sum "Si O2"
_cell_formula_units_Z 32
_cell_length_a 9.821733
_cell_length_b 11.724336
_cell_length_c 13.996068
_cell_angle_alpha 90.000000
_cell_angle_beta 90.000000
_cell_angle_gamma 90.000000
_cell_volume 1611.693386
_symmetry_space_group_name_H-M "P B A N"
_symmetry_group_IT_number 50
_space_group.IT_coordinate_system_code '2'
_symmetry_cell_setting 'orthorhombic'
loop_
_space_group_symop_operation_xyz
x,y,z
1/2-x,1/2-y,z
x,1/2-y,-z
1/2-x,y,-z
-x,-y,-z
1/2+x,1/2+y,-z
-x,1/2+y,z
1/2+x,-y,z
loop_
_atom_site_type_symbol
_atom_site_label
_atom_site_fract_x
_atom_site_fract_y
_atom_site_fract_z
Si Si1 0.542318 0.820826 0.845151
Si Si2 0.250000 0.250000 0.500000
Si Si3 0.250000 0.250000 0.000000
Si Si4 0.349374 0.525040 0.734438
Si Si5 0.100936 0.135972 0.327376
Si Si6 0.250000 0.750000 0.158138
O O1 0.577775 0.731320 0.757612
O O2 0.394628 0.786546 0.886544
O O3 0.555548 0.947304 0.802664
O O4 0.652536 0.817336 0.928687
O O5 0.151241 0.185777 0.426810
O O6 0.224122 0.446436 0.704070
O O7 0.458755 0.570380 0.658509
O O8 0.288025 0.637711 0.781873
#
# Coordination Sequence:
#
# PCOD9397634 Si02
#       6
#     8   2   2   8   8   4
#     4  11  22  43  66  95 129 177 219 277 328 391
#     4  12  22  40  64 102 128 172 214 274 342 394
#     4  12  22  38  76 100 128 174 230 264 342 396
#     4  11  20  43  65  92 130 175 218 273 321 394
#     4  11  23  40  67  91 131 171 222 266 337 388
#     4  10  24  39  68  95 128 182 220 261 336 397
#
# _framework density 19.854894999999999
#
# number of rings (size 3 to 8) (size 9 to 14) (size 15 to 20)
#    0.000    1.000    7.500    0.000    0.000    1.500 
#    0.000   11.250    0.000    8.250    0.000    0.000 
#    0.000    0.000    0.000    0.000    0.000    0.000 
#
# Total GULP energy -178265.972165 kJ/mol
# GULP energy per Si atom -5570.811630 kJ/mol
# Density = 1.980970 g / cm^3
# Si number density = 19.854895 Si / 1000 Ang^3
#
#
#
# Elastic Constant Matrix: (Units=GPa)
#
#
# Indices 1 2 3 4 5 6 
#
# 1 153.2271 36.5615 37.0434 0.0000 0.0000 0.0000
# 2 36.5615 103.9031 30.9942 0.0000 0.0000 0.0000
# 3 37.0434 30.9942 83.8555 0.0000 0.0000 0.0000
# 4 0.0000 0.0000 0.0000 11.0885 0.0000 0.0000
# 5 0.0000 0.0000 0.0000 0.0000 -4.5279 0.0000
# 6 0.0000 0.0000 0.0000 0.0000 0.0000 13.9694
#
#
#
# Elastic Compliance Matrix: (Units=1/GPa)
#
#
# Indices 1 2 3 4 5 6 
#
# 1 0.007622 -0.001885 -0.002670 0.000000 0.000000 0.000000
# 2 -0.001885 0.011283 -0.003338 0.000000 0.000000 0.000000
# 3 -0.002670 -0.003338 0.014338 0.000000 0.000000 0.000000
# 4 0.000000 0.000000 0.000000 0.090183 0.000000 0.000000
# 5 0.000000 0.000000 0.000000 0.000000 -0.220853 0.000000
# 6 0.000000 0.000000 0.000000 0.000000 0.000000 0.071585
#
#
# Mechanical properties :
#
#
# Convention : Reuss Voigt Hill
#
# Bulk Modulus (GPa) = 57.28253 61.13155 59.20704
# Shear Modulus (GPa) = -1180.39945 19.86511 -580.26717
#
# Velocity S-wave (km/s) = -24.40909 3.16652 -17.11398
# Velocity P-wave (km/s) = 27.66752 6.65020 18.99035
#
# Compressibility (1/GPa) = 0.01745733
#
# Stress axis : x y z
#
# Youngs Moduli (GPa) = 131.20554 88.62572 69.74293
#
# Poissons Ratio (x) = 0.16710 0.18621
# Poissons Ratio (y) = 0.24738 0.23277
# Poissons Ratio (z) = 0.35032 0.29580
#
# Static dielectric constant tensor:
#      x y z
#    x 1.744590 0.000000 0.000000 
#    y 0.000000 1.756380 0.000000 
#    z 0.000000 0.000000 1.697590 
# 
# From -- ./inp_files/19803.got.cif
#   From: 2010.05.17/outbox.cif.g08.bks.cpg/sg50_10_cif.got.tgz:19803.got - 2010.06.03 11:33:33.
