data_PCOD9397361
_publ_section_title
;
Structure prediction by ZEFSAII (Michael W. Deem and Ramdas Pophale) SiO2 
 PCOD9397361
Probable space group: P B A N
;
_chemical_formula_sum "Si O2"
_cell_formula_units_Z 34
_cell_length_a 5.725374
_cell_length_b 31.357781
_cell_length_c 8.702362
_cell_angle_alpha 90.000000
_cell_angle_beta 90.000000
_cell_angle_gamma 90.000000
_cell_volume 1562.378771
_symmetry_space_group_name_H-M "P B A N"
_symmetry_group_IT_number 50
_space_group.IT_coordinate_system_code '2'
_symmetry_cell_setting 'orthorhombic'
loop_
_space_group_symop_operation_xyz
x,y,z
1/2-x,1/2-y,z
x,1/2-y,-z
1/2-x,y,-z
-x,-y,-z
1/2+x,1/2+y,-z
-x,1/2+y,z
1/2+x,-y,z
loop_
_atom_site_type_symbol
_atom_site_label
_atom_site_fract_x
_atom_site_fract_y
_atom_site_fract_z
Si Si1 0.063770 0.609650 0.736972
Si Si2 0.750000 0.876245 0.000000
Si Si3 0.461407 0.680831 0.774690
Si Si4 0.750000 0.250000 0.000000
Si Si5 0.750000 0.661194 0.500000
Si Si6 0.056348 0.985450 0.325473
O O1 0.251383 0.647193 0.756268
O O2 0.139390 0.563592 0.678618
O O3 0.893532 0.629612 0.609636
O O4 0.947853 0.600277 0.903546
O O5 0.644395 0.845428 0.126455
O O6 0.578428 0.688706 0.608878
O O7 0.392341 0.720277 0.881763
O O8 0.287403 0.010084 0.259110
O O9 0.000000 0.000000 0.500000
#
# Coordination Sequence:
#
# PCOD9397361 Si02
#       6
#     8   4   8   2   4   8
#     4  11  22  43  71 103 146 186 248 297 378 440
#     4  10  22  43  72 101 128 202 235 290 374 449
#     4  11  24  45  74 103 139 190 235 307 359 466
#     4  12  24  50  74 102 150 190 242 286 404 458
#     4  10  24  40  73 106 134 186 236 300 362 437
#     4  10  23  38  63 102 142 194 242 309 368 439
#
# _framework density 21.761686999999998
#
# number of rings (size 3 to 8) (size 9 to 14) (size 15 to 20)
#    0.000    1.412    2.353    2.118   13.176    0.471 
#    0.000    4.706    0.000    0.000    0.000    0.000 
#    0.000    0.000    0.000    0.000    0.000    0.000 
#
# Total GULP energy -189418.341777 kJ/mol
# GULP energy per Si atom -5571.127699 kJ/mol
# Density = 2.171216 g / cm^3
# Si number density = 21.761687 Si / 1000 Ang^3
#
#
#
# Elastic Constant Matrix: (Units=GPa)
#
#
# Indices 1 2 3 4 5 6 
#
# 1 97.3549 15.7601 28.0888 0.0000 0.0000 0.0000
# 2 15.7601 100.8663 36.0477 0.0000 0.0000 0.0000
# 3 28.0888 36.0477 119.8203 0.0000 0.0000 0.0000
# 4 0.0000 0.0000 0.0000 38.0228 0.0000 0.0000
# 5 0.0000 0.0000 0.0000 0.0000 46.8337 0.0000
# 6 0.0000 0.0000 0.0000 0.0000 0.0000 2.5067
#
#
#
# Elastic Compliance Matrix: (Units=1/GPa)
#
#
# Indices 1 2 3 4 5 6 
#
# 1 0.011089 -0.000900 -0.002329 0.000000 0.000000 0.000000
# 2 -0.000900 0.011182 -0.003153 0.000000 0.000000 0.000000
# 3 -0.002329 -0.003153 0.009840 0.000000 0.000000 0.000000
# 4 0.000000 0.000000 0.000000 0.026300 0.000000 0.000000
# 5 0.000000 0.000000 0.000000 0.000000 0.021352 0.000000
# 6 0.000000 0.000000 0.000000 0.000000 0.000000 0.398931
#
#
# Mechanical properties :
#
#
# Convention : Reuss Voigt Hill
#
# Bulk Modulus (GPa) = 51.68721 53.09273 52.38997
# Shear Modulus (GPa) = 10.04202 33.34898 21.69550
#
# Velocity S-wave (km/s) = 2.15048 3.91892 3.16089
# Velocity P-wave (km/s) = 5.47441 6.70280 6.11950
#
# Compressibility (1/GPa) = 0.01934714
#
# Stress axis : x y z
#
# Youngs Moduli (GPa) = 90.17671 89.43280 101.62318
#
# Poissons Ratio (x) = 0.08053 0.23665
# Poissons Ratio (y) = 0.08120 0.32040
# Poissons Ratio (z) = 0.21000 0.28197
#
# Static dielectric constant tensor:
#      x y z
#    x 1.976270 0.000000 0.000000 
#    y 0.000000 1.864210 0.000000 
#    z 0.000000 0.000000 1.906900 
# 
# From -- ./inp_files/8048.got.cif
#   From: 2010.05.17/outbox.cif.g08.bks.cpg/sg50_5_cif.got.tgz:8048.got - 2010.06.03 11:33:33.
