data_PCOD9397120
_publ_section_title
;
Structure prediction by ZEFSAII (Michael W. Deem and Ramdas Pophale) SiO2 
 PCOD9397120
Probable space group: P B A N
;
_chemical_formula_sum "Si O2"
_cell_formula_units_Z 34
_cell_length_a 4.956513
_cell_length_b 11.977741
_cell_length_c 23.363523
_cell_angle_alpha 90.000000
_cell_angle_beta 90.000000
_cell_angle_gamma 90.000000
_cell_volume 1387.041638
_symmetry_space_group_name_H-M "P B A N"
_symmetry_group_IT_number 50
_space_group.IT_coordinate_system_code '2'
_symmetry_cell_setting 'orthorhombic'
loop_
_space_group_symop_operation_xyz
x,y,z
1/2-x,1/2-y,z
x,1/2-y,-z
1/2-x,y,-z
-x,-y,-z
1/2+x,1/2+y,-z
-x,1/2+y,z
1/2+x,-y,z
loop_
_atom_site_type_symbol
_atom_site_label
_atom_site_fract_x
_atom_site_fract_y
_atom_site_fract_z
Si Si1 0.250000 0.416904 0.500000
Si Si2 0.250000 0.250000 0.000000
Si Si3 0.561072 0.076253 0.788593
Si Si4 0.750000 0.750000 0.714201
Si Si5 0.558310 0.425918 0.076406
Si Si6 0.078337 0.078276 0.619387
O O1 0.500000 0.500000 0.500000
O O2 0.319680 0.362143 0.560743
O O3 0.441157 0.174248 0.960271
O O4 0.461886 0.181810 0.752842
O O5 0.538699 0.101940 0.856206
O O6 0.855777 0.026827 0.776981
O O7 0.881549 0.659392 0.672183
O O8 0.860918 0.467928 0.065410
O O9 0.276315 0.970182 0.621237
#
# Coordination Sequence:
#
# PCOD9397120 Si02
#       6
#     4   2   8   4   8   8
#     4   8  16  35  56  75 110 150 180 225 284 337
#     4  12  22  38  64  92 118 150 192 236 288 332
#     4  10  23  42  60  83 117 154 192 233 281 339
#     4  12  23  37  62  87 113 150 192 238 288 330
#     4  10  23  41  60  86 119 153 191 234 281 338
#     4  10  22  38  57  84 115 147 188 235 283 340
#
# _framework density 24.512601
#
# number of rings (size 3 to 8) (size 9 to 14) (size 15 to 20)
#    0.000    1.882    0.000    2.824    0.000    6.118 
#    0.000    7.059    0.000    8.471    0.000    0.000 
#    0.000    0.000    0.000    0.000    0.000    0.000 
#
# Total GULP energy -190372.487193 kJ/mol
# GULP energy per Si atom -5599.190800 kJ/mol
# Density = 2.445681 g / cm^3
# Si number density = 24.512601 Si / 1000 Ang^3
#
#
#
# Elastic Constant Matrix: (Units=GPa)
#
#
# Indices 1 2 3 4 5 6 
#
# 1 99.3159 0.9347 11.1457 0.0000 0.0000 0.0000
# 2 0.9347 89.3808 59.4549 0.0000 0.0000 0.0000
# 3 11.1457 59.4549 147.9558 0.0000 0.0000 0.0000
# 4 0.0000 0.0000 0.0000 278.6222 0.0000 0.0000
# 5 0.0000 0.0000 0.0000 0.0000 23.8155 0.0000
# 6 0.0000 0.0000 0.0000 0.0000 0.0000 1.8928
#
#
#
# Elastic Compliance Matrix: (Units=1/GPa)
#
#
# Indices 1 2 3 4 5 6 
#
# 1 0.010175 0.000551 -0.000988 0.000000 0.000000 0.000000
# 2 0.000551 0.015299 -0.006189 0.000000 0.000000 0.000000
# 3 -0.000988 -0.006189 0.009320 0.000000 0.000000 0.000000
# 4 0.000000 0.000000 0.000000 0.003589 0.000000 0.000000
# 5 0.000000 0.000000 0.000000 0.000000 0.041990 0.000000
# 6 0.000000 0.000000 0.000000 0.000000 0.000000 0.528316
#
#
# Mechanical properties :
#
#
# Convention : Reuss Voigt Hill
#
# Bulk Modulus (GPa) = 46.42253 53.30257 49.86255
# Shear Modulus (GPa) = 7.94758 78.54057 43.24407
#
# Velocity S-wave (km/s) = 1.80258 5.66661 4.20474
# Velocity P-wave (km/s) = 4.82822 8.03779 6.63015
#
# Compressibility (1/GPa) = 0.02154126
#
# Stress axis : x y z
#
# Youngs Moduli (GPa) = 98.28453 65.36174 107.29186
#
# Poissons Ratio (x) = -0.03599 0.10597
# Poissons Ratio (y) = -0.05412 0.66408
# Poissons Ratio (z) = 0.09708 0.40455
#
# Static dielectric constant tensor:
#      x y z
#    x 1.879130 0.000000 0.000000 
#    y 0.000000 1.970120 0.000000 
#    z 0.000000 0.000000 2.034960 
# 
# From -- ./inp_files/31359.got.cif
#   From: 2010.05.17/outbox.cif.g08.bks.cpg/sg50_16_cif.got.tgz:31359.got - 2010.06.03 11:33:33.
