data_PCOD9397702
_publ_section_title
;
Structure prediction by ZEFSAII (Michael W. Deem and Ramdas Pophale) SiO2 
 PCOD9397702
Probable space group: P B A N
;
_chemical_formula_sum "Si O2"
_cell_formula_units_Z 32
_cell_length_a 7.680786
_cell_length_b 25.362915
_cell_length_c 7.205667
_cell_angle_alpha 90.000000
_cell_angle_beta 90.000000
_cell_angle_gamma 90.000000
_cell_volume 1403.715254
_symmetry_space_group_name_H-M "P B A N"
_symmetry_group_IT_number 50
_space_group.IT_coordinate_system_code '2'
_symmetry_cell_setting 'orthorhombic'
loop_
_space_group_symop_operation_xyz
x,y,z
1/2-x,1/2-y,z
x,1/2-y,-z
1/2-x,y,-z
-x,-y,-z
1/2+x,1/2+y,-z
-x,1/2+y,z
1/2+x,-y,z
loop_
_atom_site_type_symbol
_atom_site_label
_atom_site_fract_x
_atom_site_fract_y
_atom_site_fract_z
Si Si1 0.677801 0.922136 0.791656
Si Si2 0.250000 0.607180 0.000000
Si Si3 0.750000 0.250000 0.500000
Si Si4 0.750000 0.750000 0.000000
Si Si5 0.698694 0.031733 0.294108
Si Si6 0.496346 0.321650 0.754551
O O1 0.491664 0.951826 0.776287
O O2 0.634980 0.867841 0.684937
O O3 0.796601 0.968669 0.712888
O O4 0.750000 0.910926 0.000000
O O5 0.318316 0.566442 0.843950
O O6 0.115665 0.645978 0.899868
O O7 0.622656 0.288711 0.618865
O O8 0.624875 0.717119 0.132091
O O9 0.750000 0.048496 0.500000
#
# Coordination Sequence:
#
# PCOD9397702 Si02
#       6
#     8   4   2   2   8   8
#     4  11  23  44  68 109 147 198 236 308 375 466
#     4  10  24  44  76 104 148 206 234 300 382 484
#     4  12  28  56  76 108 142 206 268 326 384 460
#     4  12  24  50  72 108 144 194 248 348 386 424
#     4  11  24  42  71 106 152 195 244 297 372 467
#     4  11  26  46  77 102 145 191 262 316 392 445
#
# _framework density 22.796647
#
# number of rings (size 3 to 8) (size 9 to 14) (size 15 to 20)
#    0.000    1.000    2.500    3.000   10.500    0.500 
#    4.500    0.000    0.000    0.000    0.000    0.000 
#    0.000    0.000    0.000    0.000    0.000    0.000 
#
# Total GULP energy -178450.298208 kJ/mol
# GULP energy per Si atom -5576.571819 kJ/mol
# Density = 2.274476 g / cm^3
# Si number density = 22.796647 Si / 1000 Ang^3
#
#
#
# Elastic Constant Matrix: (Units=GPa)
#
#
# Indices 1 2 3 4 5 6 
#
# 1 117.5692 76.2753 66.7073 0.0000 0.0000 0.0000
# 2 76.2753 206.3696 80.4384 0.0000 0.0000 0.0000
# 3 66.7073 80.4384 156.9882 0.0000 0.0000 0.0000
# 4 0.0000 0.0000 0.0000 63.2512 0.0000 0.0000
# 5 0.0000 0.0000 0.0000 0.0000 40.3439 0.0000
# 6 0.0000 0.0000 0.0000 0.0000 0.0000 56.0492
#
#
#
# Elastic Compliance Matrix: (Units=1/GPa)
#
#
# Indices 1 2 3 4 5 6 
#
# 1 0.012740 -0.003247 -0.003750 0.000000 0.000000 0.000000
# 2 -0.003247 0.006883 -0.002147 0.000000 0.000000 0.000000
# 3 -0.003750 -0.002147 0.009063 0.000000 0.000000 0.000000
# 4 0.000000 0.000000 0.000000 0.015810 0.000000 0.000000
# 5 0.000000 0.000000 0.000000 0.000000 0.024787 0.000000
# 6 0.000000 0.000000 0.000000 0.000000 0.000000 0.017841
#
#
# Mechanical properties :
#
#
# Convention : Reuss Voigt Hill
#
# Bulk Modulus (GPa) = 96.16772 103.08545 99.62658
# Shear Modulus (GPa) = 45.92337 49.09593 47.50965
#
# Velocity S-wave (km/s) = 4.49316 4.64577 4.57011
# Velocity P-wave (km/s) = 8.31833 8.60787 8.46434
#
# Compressibility (1/GPa) = 0.01039850
#
# Stress axis : x y z
#
# Youngs Moduli (GPa) = 78.49439 145.29375 110.33714
#
# Poissons Ratio (x) = 0.47180 0.41372
# Poissons Ratio (y) = 0.25489 0.23687
# Poissons Ratio (z) = 0.29432 0.31191
#
# Static dielectric constant tensor:
#      x y z
#    x 2.028110 0.000000 0.000000 
#    y 0.000000 1.903600 0.000000 
#    z 0.000000 0.000000 1.918120 
# 
# From -- ./inp_files/9435.got.cif
#   From: 2010.05.17/outbox.cif.g08.bks.cpg/sg50_5_cif.got.tgz:9435.got - 2010.06.03 11:33:33.
