data_PCOD9397673
_publ_section_title
;
Structure prediction by ZEFSAII (Michael W. Deem and Ramdas Pophale) SiO2 
 PCOD9397673
Probable space group: P B A N
;
_chemical_formula_sum "Si O2"
_cell_formula_units_Z 60
_cell_length_a 8.478848
_cell_length_b 27.436748
_cell_length_c 11.736827
_cell_angle_alpha 90.000000
_cell_angle_beta 90.000000
_cell_angle_gamma 90.000000
_cell_volume 2730.361725
_symmetry_space_group_name_H-M "P B A N"
_symmetry_group_IT_number 50
_space_group.IT_coordinate_system_code '2'
_symmetry_cell_setting 'orthorhombic'
loop_
_space_group_symop_operation_xyz
x,y,z
1/2-x,1/2-y,z
x,1/2-y,-z
1/2-x,y,-z
-x,-y,-z
1/2+x,1/2+y,-z
-x,1/2+y,z
1/2+x,-y,z
loop_
_atom_site_type_symbol
_atom_site_label
_atom_site_fract_x
_atom_site_fract_y
_atom_site_fract_z
Si Si1 0.889955 0.221973 0.731328
Si Si2 0.135555 0.880297 0.166241
Si Si3 0.750000 0.321945 0.500000
Si Si4 0.509104 0.115376 0.921036
Si Si5 0.582940 0.775508 0.112302
Si Si6 0.924815 0.881057 0.534942
Si Si7 0.011829 0.453851 0.329554
Si Si8 0.137702 0.446210 0.740053
O O1 0.750000 0.250000 0.795270
O O2 0.929648 0.171061 0.789344
O O3 0.821347 0.207418 0.608138
O O4 0.023439 0.260737 0.760513
O O5 0.318902 0.876035 0.135408
O O6 0.110781 0.919166 0.265009
O O7 0.041583 0.894234 0.053272
O O8 0.590597 0.351774 0.467152
O O9 0.418765 0.166620 0.905385
O O10 0.427953 0.069220 0.862043
O O11 0.750000 0.750000 0.110901
O O12 0.499835 0.750000 0.000000
O O13 0.750000 0.859225 0.500000
O O14 0.950777 0.927379 0.449447
O O15 0.900291 0.899932 0.661610
O O16 0.176174 0.454113 0.261924
O O17 0.942750 0.507740 0.321448
#
# Coordination Sequence:
#
# PCOD9397673 Si02
#       8
#     8   8   4   8   8   8   8   8
#     4  12  24  44  69 103 137 185 242 285 358 428
#     4  11  23  42  69  95 136 183 227 286 342 419
#     4  12  25  44  76  98 146 192 232 306 365 428
#     4  11  24  42  66 100 134 179 231 289 351 421
#     4  11  25  41  69 102 143 187 241 298 360 431
#     4  10  24  43  70 104 135 183 243 297 358 430
#     4  11  24  44  69  98 138 180 229 294 353 431
#     4  11  25  42  69 101 136 176 232 290 360 427
#
# _framework density 21.975110999999998
#
# number of rings (size 3 to 8) (size 9 to 14) (size 15 to 20)
#    0.000    0.933    4.000    2.200    3.733    1.333 
#    0.000    0.000    0.000    0.000    0.000    0.000 
#    0.000    0.000    0.000    0.000    0.000    0.000 
#
# Total GULP energy -334614.461077 kJ/mol
# GULP energy per Si atom -5576.907685 kJ/mol
# Density = 2.192509 g / cm^3
# Si number density = 21.975111 Si / 1000 Ang^3
#
#
#
# Elastic Constant Matrix: (Units=GPa)
#
#
# Indices 1 2 3 4 5 6 
#
# 1 75.5382 7.8682 15.0078 0.0000 0.0000 0.0000
# 2 7.8682 34.4824 2.9306 0.0000 0.0000 0.0000
# 3 15.0078 2.9306 81.8006 0.0000 0.0000 0.0000
# 4 0.0000 0.0000 0.0000 26.1906 0.0000 0.0000
# 5 0.0000 0.0000 0.0000 0.0000 -1.5604 0.0000
# 6 0.0000 0.0000 0.0000 0.0000 0.0000 73.4067
#
#
#
# Elastic Compliance Matrix: (Units=1/GPa)
#
#
# Indices 1 2 3 4 5 6 
#
# 1 0.014041 -0.002994 -0.002469 0.000000 0.000000 0.000000
# 2 -0.002994 0.029727 -0.000516 0.000000 0.000000 0.000000
# 3 -0.002469 -0.000516 0.012696 0.000000 0.000000 0.000000
# 4 0.000000 0.000000 0.000000 0.038182 0.000000 0.000000
# 5 0.000000 0.000000 0.000000 0.000000 -0.640864 0.000000
# 6 0.000000 0.000000 0.000000 0.000000 0.000000 0.013623
#
#
# Mechanical properties :
#
#
# Convention : Reuss Voigt Hill
#
# Bulk Modulus (GPa) = 22.46821 27.04827 24.75824
# Shear Modulus (GPa) = -9.88528 30.67502 10.39487
#
# Velocity S-wave (km/s) = -2.12324 3.74023 2.17728
# Velocity P-wave (km/s) = 2.05808 5.56666 4.19663
#
# Compressibility (1/GPa) = 0.04450732
#
# Stress axis : x y z
#
# Youngs Moduli (GPa) = 71.22162 33.63912 78.76336
#
# Poissons Ratio (x) = 0.10072 0.19445
# Poissons Ratio (y) = 0.21324 0.04062
# Poissons Ratio (z) = 0.17583 0.01735
#
# Static dielectric constant tensor:
#      x y z
#    x 1.864660 0.000000 0.000000 
#    y 0.000000 1.840130 0.000000 
#    z 0.000000 0.000000 1.835680 
# 
# From -- ./inp_files/19423.got.cif
#   From: 2010.05.17/outbox.cif.g08.bks.cpg/sg50_10_cif.got.tgz:19423.got - 2010.06.03 11:33:33.
