data_PCOD9397965
_publ_section_title
;
Structure prediction by ZEFSAII (Michael W. Deem and Ramdas Pophale) SiO2 
 PCOD9397965
Probable space group: P B A N
;
_chemical_formula_sum "Si O2"
_cell_formula_units_Z 32
_cell_length_a 7.268832
_cell_length_b 20.569344
_cell_length_c 8.960489
_cell_angle_alpha 90.000000
_cell_angle_beta 90.000000
_cell_angle_gamma 90.000000
_cell_volume 1339.728462
_symmetry_space_group_name_H-M "P B A N"
_symmetry_group_IT_number 50
_space_group.IT_coordinate_system_code '2'
_symmetry_cell_setting 'orthorhombic'
loop_
_space_group_symop_operation_xyz
x,y,z
1/2-x,1/2-y,z
x,1/2-y,-z
1/2-x,y,-z
-x,-y,-z
1/2+x,1/2+y,-z
-x,1/2+y,z
1/2+x,-y,z
loop_
_atom_site_type_symbol
_atom_site_label
_atom_site_fract_x
_atom_site_fract_y
_atom_site_fract_z
Si Si1 0.496384 0.582248 0.812802
Si Si2 0.143562 0.544553 0.651606
Si Si3 0.335334 0.351955 0.645657
Si Si4 0.961111 0.683143 0.946049
O O1 0.298786 0.585823 0.736056
O O2 0.567651 0.509201 0.769972
O O3 0.656129 0.622766 0.732874
O O4 0.477713 0.614878 0.977142
O O5 0.250000 0.521583 0.500000
O O6 0.971330 0.588677 0.603910
O O7 0.250000 0.320546 0.500000
O O8 0.452783 0.313954 0.767717
O O9 0.050702 0.750000 0.000000
O O10 0.750000 0.685820 0.000000
#
# Coordination Sequence:
#
# PCOD9397965 Si02
#       4
#     8   8   8   8
#     4  11  22  39  66  96 133 175 214 275 339 392
#     4  12  22  37  65 101 141 172 218 274 339 417
#     4  11  22  41  67  95 133 177 215 273 347 400
#     4   9  22  46  68  96 130 174 237 280 324 403
#
# _framework density 23.885439000000002
#
# number of rings (size 3 to 8) (size 9 to 14) (size 15 to 20)
#    0.000    1.250    5.000    1.500    0.000    2.000 
#    4.500   13.750    0.000    1.500    0.000    0.000 
#    0.000    0.000    0.000    0.000    0.000    0.000 
#
# Total GULP energy -178354.467566 kJ/mol
# GULP energy per Si atom -5573.577111 kJ/mol
# Density = 2.383107 g / cm^3
# Si number density = 23.885439 Si / 1000 Ang^3
#
#
#
# Elastic Constant Matrix: (Units=GPa)
#
#
# Indices 1 2 3 4 5 6 
#
# 1 126.7179 28.3649 41.7755 0.0000 0.0000 0.0000
# 2 28.3649 108.6157 80.9924 0.0000 0.0000 0.0000
# 3 41.7755 80.9924 161.8065 0.0000 0.0000 0.0000
# 4 0.0000 0.0000 0.0000 -35.9921 0.0000 0.0000
# 5 0.0000 0.0000 0.0000 0.0000 31.0363 0.0000
# 6 0.0000 0.0000 0.0000 0.0000 0.0000 42.8040
#
#
#
# Elastic Compliance Matrix: (Units=1/GPa)
#
#
# Indices 1 2 3 4 5 6 
#
# 1 0.008687 -0.000951 -0.001767 0.000000 0.000000 0.000000
# 2 -0.000951 0.014794 -0.007159 0.000000 0.000000 0.000000
# 3 -0.001767 -0.007159 0.010220 0.000000 0.000000 0.000000
# 4 0.000000 0.000000 0.000000 -0.027784 0.000000 0.000000
# 5 0.000000 0.000000 0.000000 0.000000 0.032220 0.000000
# 6 0.000000 0.000000 0.000000 0.000000 0.000000 0.023362
#
#
# Mechanical properties :
#
#
# Convention : Reuss Voigt Hill
#
# Bulk Modulus (GPa) = 71.70494 77.71175 74.70835
# Shear Modulus (GPa) = 58.20522 23.97013 41.08768
#
# Velocity S-wave (km/s) = 4.94180 3.17132 4.15203
# Velocity P-wave (km/s) = 7.91501 6.78347 7.37099
#
# Compressibility (1/GPa) = 0.01394604
#
# Stress axis : x y z
#
# Youngs Moduli (GPa) = 115.11604 67.59564 97.84702
#
# Poissons Ratio (x) = 0.06430 0.17286
# Poissons Ratio (y) = 0.10950 0.70054
# Poissons Ratio (z) = 0.20337 0.48395
#
# Static dielectric constant tensor:
#      x y z
#    x 1.902970 0.000000 0.000000 
#    y 0.000000 1.997050 0.000000 
#    z 0.000000 0.000000 2.023970 
# 
# From -- ./inp_files/9107.got.cif
#   From: 2010.05.17/outbox.cif.g08.bks.cpg/sg50_5_cif.got.tgz:9107.got - 2010.06.03 11:33:33.
