data_PCOD9397901
_publ_section_title
;
Structure prediction by ZEFSAII (Michael W. Deem and Ramdas Pophale) SiO2 
 PCOD9397901
Probable space group: P B A N
;
_chemical_formula_sum "Si O2"
_cell_formula_units_Z 32
_cell_length_a 8.277587
_cell_length_b 10.070855
_cell_length_c 16.606267
_cell_angle_alpha 90.000000
_cell_angle_beta 90.000000
_cell_angle_gamma 90.000000
_cell_volume 1384.337914
_symmetry_space_group_name_H-M "P B A N"
_symmetry_group_IT_number 50
_space_group.IT_coordinate_system_code '2'
_symmetry_cell_setting 'orthorhombic'
loop_
_space_group_symop_operation_xyz
x,y,z
1/2-x,1/2-y,z
x,1/2-y,-z
1/2-x,y,-z
-x,-y,-z
1/2+x,1/2+y,-z
-x,1/2+y,z
1/2+x,-y,z
loop_
_atom_site_type_symbol
_atom_site_label
_atom_site_fract_x
_atom_site_fract_y
_atom_site_fract_z
Si Si1 0.878985 0.568217 0.438220
Si Si2 0.161460 0.615663 0.327210
Si Si3 0.148060 0.952283 0.847680
Si Si4 0.028223 0.804263 0.090590
O O1 0.750000 0.627418 0.500000
O O2 0.781464 0.459581 0.387189
O O3 0.000000 0.500000 0.500000
O O4 0.993935 0.644412 0.374550
O O5 0.250000 0.750000 0.300805
O O6 0.144517 0.525513 0.247917
O O7 0.018724 0.832400 0.859636
O O8 0.312475 0.885970 0.880937
O O9 0.109230 0.086649 0.895109
O O10 0.040745 0.750000 0.000000
#
# Coordination Sequence:
#
# PCOD9397901 Si02
#       4
#     8   8   8   8
#     4   9  21  40  63  97 134 176 231 287 349 421
#     4  11  21  40  69  94 140 183 227 297 354 413
#     4  11  23  43  69 103 140 182 234 284 356 417
#     4  11  24  44  69 101 141 181 228 290 348 422
#
# _framework density 23.115742000000001
#
# number of rings (size 3 to 8) (size 9 to 14) (size 15 to 20)
#    0.000    1.500    2.500    3.750    0.000    5.500 
#    0.000   11.250    0.000    0.000    0.000    0.000 
#    0.000    0.000    0.000    0.000    0.000    0.000 
#
# Total GULP energy -178657.573116 kJ/mol
# GULP energy per Si atom -5583.049160 kJ/mol
# Density = 2.306313 g / cm^3
# Si number density = 23.115742 Si / 1000 Ang^3
#
#
#
# Elastic Constant Matrix: (Units=GPa)
#
#
# Indices 1 2 3 4 5 6 
#
# 1 95.4364 20.4613 45.1318 0.0000 0.0000 0.0000
# 2 20.4613 81.1878 27.8979 0.0000 0.0000 0.0000
# 3 45.1318 27.8979 161.0236 0.0000 0.0000 0.0000
# 4 0.0000 0.0000 0.0000 42.3978 0.0000 0.0000
# 5 0.0000 0.0000 0.0000 0.0000 18.4373 0.0000
# 6 0.0000 0.0000 0.0000 0.0000 0.0000 27.7897
#
#
#
# Elastic Compliance Matrix: (Units=1/GPa)
#
#
# Indices 1 2 3 4 5 6 
#
# 1 0.012393 -0.002052 -0.003118 0.000000 0.000000 0.000000
# 2 -0.002052 0.013437 -0.001753 0.000000 0.000000 0.000000
# 3 -0.003118 -0.001753 0.007388 0.000000 0.000000 0.000000
# 4 0.000000 0.000000 0.000000 0.023586 0.000000 0.000000
# 5 0.000000 0.000000 0.000000 0.000000 0.054238 0.000000
# 6 0.000000 0.000000 0.000000 0.000000 0.000000 0.035985
#
#
# Mechanical properties :
#
#
# Convention : Reuss Voigt Hill
#
# Bulk Modulus (GPa) = 51.62151 58.29219 54.95685
# Shear Modulus (GPa) = 29.88144 34.00207 31.94175
#
# Velocity S-wave (km/s) = 3.59930 3.83946 3.72131
# Velocity P-wave (km/s) = 6.29710 6.70280 6.50311
#
# Compressibility (1/GPa) = 0.01937177
#
# Stress axis : x y z
#
# Youngs Moduli (GPa) = 80.69366 74.42384 135.35750
#
# Poissons Ratio (x) = 0.15271 0.42203
# Poissons Ratio (y) = 0.16557 0.23726
# Poissons Ratio (z) = 0.25159 0.13045
#
# Static dielectric constant tensor:
#      x y z
#    x 1.956830 0.000000 0.000000 
#    y 0.000000 1.853240 0.000000 
#    z 0.000000 0.000000 1.865220 
# 
# From -- ./inp_files/24411.got.cif
#   From: 2010.05.17/outbox.cif.g08.bks.cpg/sg50_13_cif.got.tgz:24411.got - 2010.06.03 11:33:33.
