data_PCOD9397245
_publ_section_title
;
Structure prediction by ZEFSAII (Michael W. Deem and Ramdas Pophale) SiO2 
 PCOD9397245
Probable space group: P B A N
;
_chemical_formula_sum "Si O2"
_cell_formula_units_Z 42
_cell_length_a 25.251712
_cell_length_b 10.704665
_cell_length_c 7.205647
_cell_angle_alpha 90.000000
_cell_angle_beta 90.000000
_cell_angle_gamma 90.000000
_cell_volume 1947.766494
_symmetry_space_group_name_H-M "P B A N"
_symmetry_group_IT_number 50
_space_group.IT_coordinate_system_code '2'
_symmetry_cell_setting 'orthorhombic'
loop_
_space_group_symop_operation_xyz
x,y,z
1/2-x,1/2-y,z
x,1/2-y,-z
1/2-x,y,-z
-x,-y,-z
1/2+x,1/2+y,-z
-x,1/2+y,z
1/2+x,-y,z
loop_
_atom_site_type_symbol
_atom_site_label
_atom_site_fract_x
_atom_site_fract_y
_atom_site_fract_z
Si Si1 0.955977 0.896905 0.197654
Si Si2 0.662288 0.860274 0.741370
Si Si3 0.250000 0.750000 0.000000
Si Si4 0.249278 0.548892 0.722494
Si Si5 0.527275 0.615522 0.766375
Si Si6 0.146491 0.418537 0.695830
O O1 0.892701 0.912302 0.178501
O O2 0.969100 0.762094 0.291294
O O3 0.977352 0.882737 0.989475
O O4 0.982019 0.017882 0.293073
O O5 0.655803 0.888854 0.521137
O O6 0.661259 0.714154 0.786895
O O7 0.717559 0.926590 0.777911
O O8 0.275012 0.655704 0.849553
O O9 0.250000 0.573164 0.500000
O O10 0.187370 0.523318 0.762343
O O11 0.584722 0.557639 0.721452
#
# Coordination Sequence:
#
# PCOD9397245 Si02
#       6
#     8   8   2   8   8   8
#     4   9  18  33  51  77 111 147 188 238 286 339
#     4   9  18  35  60  84 110 143 184 241 297 342
#     4  12  26  40  58  82 116 172 190 230 280 356
#     4  10  22  41  59  85 119 150 193 240 288 344
#     4   9  18  33  51  77 111 147 188 238 286 339
#     4   9  18  35  60  84 110 143 184 241 297 342
#
# _framework density 21.563161000000001
#
# number of rings (size 3 to 8) (size 9 to 14) (size 15 to 20)
#    0.000    2.667    0.000    0.857    2.667    3.048 
#    3.429    0.952    0.000    0.000    0.000    0.000 
#    0.000    0.000    0.000    0.000    0.000    0.000 
#
# Total GULP energy -233866.031361 kJ/mol
# GULP energy per Si atom -5568.238842 kJ/mol
# Density = 2.151408 g / cm^3
# Si number density = 21.563161 Si / 1000 Ang^3
#
#
#
# Elastic Constant Matrix: (Units=GPa)
#
#
# Indices 1 2 3 4 5 6 
#
# 1 89.3965 44.5199 -7.4189 0.0000 0.0000 0.0000
# 2 44.5199 46.6730 4.7135 0.0000 0.0000 0.0000
# 3 -7.4189 4.7135 69.3585 0.0000 0.0000 0.0000
# 4 0.0000 0.0000 0.0000 13.4002 0.0000 0.0000
# 5 0.0000 0.0000 0.0000 0.0000 19.8000 0.0000
# 6 0.0000 0.0000 0.0000 0.0000 0.0000 17.0546
#
#
#
# Elastic Compliance Matrix: (Units=1/GPa)
#
#
# Indices 1 2 3 4 5 6 
#
# 1 0.022287 -0.021648 0.003855 0.000000 0.000000 0.000000
# 2 -0.021648 0.042601 -0.005211 0.000000 0.000000 0.000000
# 3 0.003855 -0.005211 0.015184 0.000000 0.000000 0.000000
# 4 0.000000 0.000000 0.000000 0.074626 0.000000 0.000000
# 5 0.000000 0.000000 0.000000 0.000000 0.050505 0.000000
# 6 0.000000 0.000000 0.000000 0.000000 0.000000 0.058635
#
#
# Mechanical properties :
#
#
# Convention : Reuss Voigt Hill
#
# Bulk Modulus (GPa) = 29.35554 32.11743 30.73649
# Shear Modulus (GPa) = 15.56658 20.95853 18.26256
#
# Velocity S-wave (km/s) = 2.68975 3.12101 2.91337
# Velocity P-wave (km/s) = 4.82593 5.28342 5.05985
#
# Compressibility (1/GPa) = 0.03406512
#
# Stress axis : x y z
#
# Youngs Moduli (GPa) = 44.86942 23.47346 65.85748
#
# Poissons Ratio (x) = 0.50816 -0.25389
# Poissons Ratio (y) = 0.97134 0.34316
# Poissons Ratio (z) = -0.17298 0.12231
#
# Static dielectric constant tensor:
#      x y z
#    x 1.756960 0.000000 0.000000 
#    y 0.000000 1.830260 0.000000 
#    z 0.000000 0.000000 1.894330 
# 
# From -- ./inp_files/15145.got.cif
#   From: 2010.05.17/outbox.cif.g08.bks.cpg/sg50_8_cif.got.tgz:15145.got - 2010.06.03 11:33:33.
