data_PCOD9397035
_publ_section_title
;
Structure prediction by ZEFSAII (Michael W. Deem and Ramdas Pophale) SiO2 
 PCOD9397035
Probable space group: P B A N
;
_chemical_formula_sum "Si O2"
_cell_formula_units_Z 48
_cell_length_a 9.173788
_cell_length_b 15.007946
_cell_length_c 16.293313
_cell_angle_alpha 90.000000
_cell_angle_beta 90.000000
_cell_angle_gamma 90.000000
_cell_volume 2243.258689
_symmetry_space_group_name_H-M "P B A N"
_symmetry_group_IT_number 50
_space_group.IT_coordinate_system_code '2'
_symmetry_cell_setting 'orthorhombic'
loop_
_space_group_symop_operation_xyz
x,y,z
1/2-x,1/2-y,z
x,1/2-y,-z
1/2-x,y,-z
-x,-y,-z
1/2+x,1/2+y,-z
-x,1/2+y,z
1/2+x,-y,z
loop_
_atom_site_type_symbol
_atom_site_label
_atom_site_fract_x
_atom_site_fract_y
_atom_site_fract_z
Si Si1 0.910251 0.851191 0.754145
Si Si2 0.323685 0.114055 0.124169
Si Si3 0.750000 0.025306 0.000000
Si Si4 0.750000 0.250000 0.500000
Si Si5 0.250000 0.250000 0.000000
Si Si6 0.335200 0.657673 0.877678
Si Si7 0.092521 0.783274 0.341647
Si Si8 0.411598 0.942209 0.775771
O O1 0.751549 0.845686 0.795147
O O2 0.018284 0.824280 0.828321
O O3 0.970871 0.791576 0.679260
O O4 0.917457 0.957926 0.741352
O O5 0.348461 0.190555 0.058592
O O6 0.468785 0.067125 0.153252
O O7 0.221388 0.043840 0.074620
O O8 0.859704 0.096174 0.041867
O O9 0.859814 0.201978 0.563823
O O10 0.250000 0.750000 0.894765
O O11 0.236371 0.596505 0.816124
O O12 0.250000 0.750000 0.305755
O O13 0.051777 0.873489 0.296625
#
# Coordination Sequence:
#
# PCOD9397035 Si02
#       8
#     8   8   4   2   2   8   8   8
#     4  12  21  40  64  91 121 166 214 259 306 384
#     4  11  25  36  55  80 128 163 218 263 326 352
#     4  11  23  41  51  88 120 178 215 299 311 345
#     4   8  20  44  76 102 128 152 192 258 312 380
#     4  10  24  40  42  74 118 174 202 262 336 362
#     4  12  23  41  58  83 120 168 235 273 313 360
#     4  10  21  42  73  96 122 158 202 246 310 385
#     4  12  21  40  64  91 121 166 214 259 306 384
#
# _framework density 21.397445000000001
#
# number of rings (size 3 to 8) (size 9 to 14) (size 15 to 20)
#    0.500    0.333    6.667    1.250    0.000    4.000 
#    0.000    0.833    0.000    2.000    0.000    0.000 
#    0.000    0.000    0.000    0.000    0.000    0.000 
#
# Total GULP energy -267565.639191 kJ/mol
# GULP energy per Si atom -5574.284150 kJ/mol
# Density = 2.134874 g / cm^3
# Si number density = 21.397445 Si / 1000 Ang^3
#
#
#
# Elastic Constant Matrix: (Units=GPa)
#
#
# Indices 1 2 3 4 5 6 
#
# 1 58.6906 -3.1474 12.2127 0.0000 0.0000 0.0000
# 2 -3.1474 148.1265 44.0904 0.0000 0.0000 0.0000
# 3 12.2127 44.0904 101.9866 0.0000 0.0000 0.0000
# 4 0.0000 0.0000 0.0000 14.0977 0.0000 0.0000
# 5 0.0000 0.0000 0.0000 0.0000 23.7494 0.0000
# 6 0.0000 0.0000 0.0000 0.0000 0.0000 27.1351
#
#
#
# Elastic Compliance Matrix: (Units=1/GPa)
#
#
# Indices 1 2 3 4 5 6 
#
# 1 0.017644 0.001152 -0.002611 0.000000 0.000000 0.000000
# 2 0.001152 0.007823 -0.003520 0.000000 0.000000 0.000000
# 3 -0.002611 -0.003520 0.011640 0.000000 0.000000 0.000000
# 4 0.000000 0.000000 0.000000 0.070934 0.000000 0.000000
# 5 0.000000 0.000000 0.000000 0.000000 0.042106 0.000000
# 6 0.000000 0.000000 0.000000 0.000000 0.000000 0.036853
#
#
# Mechanical properties :
#
#
# Convention : Reuss Voigt Hill
#
# Bulk Modulus (GPa) = 36.83418 46.12389 41.47903
# Shear Modulus (GPa) = 24.27109 30.03963 27.15536
#
# Velocity S-wave (km/s) = 3.37159 3.75092 3.56630
# Velocity P-wave (km/s) = 5.69284 6.35309 6.03201
#
# Compressibility (1/GPa) = 0.02714870
#
# Stress axis : x y z
#
# Youngs Moduli (GPa) = 56.67791 127.82458 85.91349
#
# Poissons Ratio (x) = -0.14725 0.22430
# Poissons Ratio (y) = -0.06529 0.30242
# Poissons Ratio (z) = 0.14797 0.44995
#
# Static dielectric constant tensor:
#      x y z
#    x 1.847820 0.000000 0.000000 
#    y 0.000000 1.853820 0.000000 
#    z 0.000000 0.000000 1.783380 
# 
# From -- ./inp_files/28783.got.cif
#   From: 2010.05.17/outbox.cif.g08.bks.cpg/sg50_15_cif.got.tgz:28783.got - 2010.06.03 11:33:33.
