data_PCOD9397428
_publ_section_title
;
Structure prediction by ZEFSAII (Michael W. Deem and Ramdas Pophale) SiO2 
 PCOD9397428
Probable space group: P B A N
;
_chemical_formula_sum "Si O2"
_cell_formula_units_Z 56
_cell_length_a 14.751388
_cell_length_b 23.091608
_cell_length_c 7.992140
_cell_angle_alpha 90.000000
_cell_angle_beta 90.000000
_cell_angle_gamma 90.000000
_cell_volume 2722.388776
_symmetry_space_group_name_H-M "P B A N"
_symmetry_group_IT_number 50
_space_group.IT_coordinate_system_code '2'
_symmetry_cell_setting 'orthorhombic'
loop_
_space_group_symop_operation_xyz
x,y,z
1/2-x,1/2-y,z
x,1/2-y,-z
1/2-x,y,-z
-x,-y,-z
1/2+x,1/2+y,-z
-x,1/2+y,z
1/2+x,-y,z
loop_
_atom_site_type_symbol
_atom_site_label
_atom_site_fract_x
_atom_site_fract_y
_atom_site_fract_z
Si Si1 0.359609 0.178536 0.800689
Si Si2 0.785499 0.992078 0.681231
Si Si3 0.176012 0.594117 0.874075
Si Si4 0.345428 0.184851 0.202388
Si Si5 0.526779 0.574814 0.653174
Si Si6 0.995260 0.899287 0.271764
Si Si7 0.389485 0.999268 0.134673
O O1 0.363664 0.247290 0.766066
O O2 0.255741 0.165054 0.748195
O O3 0.435685 0.137308 0.718982
O O4 0.359201 0.173821 0.003182
O O5 0.750000 0.977586 0.500000
O O6 0.783558 0.061536 0.713016
O O7 0.704315 0.972455 0.801629
O O8 0.885243 0.965205 0.690723
O O9 0.087528 0.625977 0.806762
O O10 0.250000 0.621350 0.000000
O O11 0.140736 0.537524 0.975838
O O12 0.420268 0.148842 0.295323
O O13 0.499310 0.573649 0.457306
O O14 0.440734 0.548175 0.750045
O O15 0.957784 0.946891 0.139345
#
# Coordination Sequence:
#
# PCOD9397428 Si02
#       7
#     8   8   8   8   8   8   8
#     4   9  20  38  55  84 114 155 196 235 287 332
#     4  11  21  36  51  80 120 151 185 237 294 344
#     4  10  23  37  55  79 113 154 194 243 287 344
#     4   9  20  37  59  80 116 153 197 240 274 348
#     4  12  23  35  56  83 122 157 190 239 292 356
#     4  12  21  35  54  82 112 154 192 237 290 346
#     4  11  22  36  54  81 113 150 198 236 283 350
#
# _framework density 20.570170000000001
#
# number of rings (size 3 to 8) (size 9 to 14) (size 15 to 20)
#    0.000    1.429    2.857    4.286    2.000    0.571 
#    0.000    1.429    0.000    0.000    0.000   17.000 
#    0.000   19.429    0.000    0.000    0.000    0.000 
#
# Total GULP energy -312204.147890 kJ/mol
# GULP energy per Si atom -5575.074069 kJ/mol
# Density = 2.052335 g / cm^3
# Si number density = 20.570170 Si / 1000 Ang^3
#
#
#
# Elastic Constant Matrix: (Units=GPa)
#
#
# Indices 1 2 3 4 5 6 
#
# 1 115.7222 22.5324 28.7452 0.0000 0.0000 0.0000
# 2 22.5324 54.4808 7.9740 0.0000 0.0000 0.0000
# 3 28.7452 7.9740 51.2188 0.0000 0.0000 0.0000
# 4 0.0000 0.0000 0.0000 20.1440 0.0000 0.0000
# 5 0.0000 0.0000 0.0000 0.0000 28.5163 0.0000
# 6 0.0000 0.0000 0.0000 0.0000 0.0000 30.0202
#
#
#
# Elastic Compliance Matrix: (Units=1/GPa)
#
#
# Indices 1 2 3 4 5 6 
#
# 1 0.010699 -0.003629 -0.005440 0.000000 0.000000 0.000000
# 2 -0.003629 0.020014 -0.001079 0.000000 0.000000 0.000000
# 3 -0.005440 -0.001079 0.022745 0.000000 0.000000 0.000000
# 4 0.000000 0.000000 0.000000 0.049643 0.000000 0.000000
# 5 0.000000 0.000000 0.000000 0.000000 0.035068 0.000000
# 6 0.000000 0.000000 0.000000 0.000000 0.000000 0.033311
#
#
# Mechanical properties :
#
#
# Convention : Reuss Voigt Hill
#
# Bulk Modulus (GPa) = 30.15457 37.76945 33.96201
# Shear Modulus (GPa) = 24.65133 26.54746 25.59940
#
# Velocity S-wave (km/s) = 3.46555 3.59636 3.53156
# Velocity P-wave (km/s) = 5.54117 5.97045 5.75981
#
# Compressibility (1/GPa) = 0.03316247
#
# Stress axis : x y z
#
# Youngs Moduli (GPa) = 93.46520 49.96530 43.96573
#
# Poissons Ratio (x) = 0.18132 0.23916
# Poissons Ratio (y) = 0.33917 0.04745
# Poissons Ratio (z) = 0.50842 0.05393
#
# Static dielectric constant tensor:
#      x y z
#    x 1.818930 0.000000 0.000000 
#    y 0.000000 1.742240 0.000000 
#    z 0.000000 0.000000 1.810140 
# 
# From -- ./inp_files/13293.got.cif
#   From: 2010.05.17/outbox.cif.g08.bks.cpg/sg50_7_cif.got.tgz:13293.got - 2010.06.03 11:33:33.
