data_PCOD9397465
_publ_section_title
;
Structure prediction by ZEFSAII (Michael W. Deem and Ramdas Pophale) SiO2 
 PCOD9397465
Probable space group: P B A N
;
_chemical_formula_sum "Si O2"
_cell_formula_units_Z 48
_cell_length_a 12.060361
_cell_length_b 16.387800
_cell_length_c 11.387341
_cell_angle_alpha 90.000000
_cell_angle_beta 90.000000
_cell_angle_gamma 90.000000
_cell_volume 2250.625778
_symmetry_space_group_name_H-M "P B A N"
_symmetry_group_IT_number 50
_space_group.IT_coordinate_system_code '2'
_symmetry_cell_setting 'orthorhombic'
loop_
_space_group_symop_operation_xyz
x,y,z
1/2-x,1/2-y,z
x,1/2-y,-z
1/2-x,y,-z
-x,-y,-z
1/2+x,1/2+y,-z
-x,1/2+y,z
1/2+x,-y,z
loop_
_atom_site_type_symbol
_atom_site_label
_atom_site_fract_x
_atom_site_fract_y
_atom_site_fract_z
Si Si1 0.778235 0.344738 0.135116
Si Si2 0.593924 0.623266 0.788545
Si Si3 0.802590 0.622433 0.625425
Si Si4 0.628428 0.462799 0.266352
Si Si5 0.472778 0.193816 0.195829
Si Si6 0.101723 0.439674 0.033420
O O1 0.750000 0.250000 0.129279
O O2 0.706413 0.386598 0.237200
O O3 0.905741 0.346110 0.177041
O O4 0.750000 0.375837 0.000000
O O5 0.698795 0.639919 0.709120
O O6 0.499279 0.566365 0.729569
O O7 0.532460 0.708831 0.816095
O O8 0.643110 0.579750 0.903934
O O9 0.750000 0.643770 0.500000
O O10 0.835200 0.526057 0.633633
O O11 0.909013 0.668164 0.683711
O O12 0.645259 0.513063 0.146014
O O13 0.413036 0.150403 0.087097
O O14 0.000000 0.500000 0.000000
#
# Coordination Sequence:
#
# PCOD9397465 Si02
#       6
#     8   8   8   8   8   8
#     4  11  22  37  68 105 149 178 209 268 351 432
#     4  11  22  42  67  96 139 175 230 282 345 419
#     4  11  28  47  70  92 128 187 241 297 345 393
#     4  10  23  40  65 101 133 177 223 277 346 419
#     4  11  23  41  66 103 137 181 226 277 345 425
#     4   9  20  36  61  97 138 173 209 265 340 413
#
# _framework density 21.327401999999999
#
# number of rings (size 3 to 8) (size 9 to 14) (size 15 to 20)
#    0.000    1.500    1.667    3.000   11.667    4.000 
#    0.000    3.333    0.000    0.500    0.000    0.000 
#    0.000    0.000    0.000    0.000    0.000    0.000 
#
# Total GULP energy -267325.861081 kJ/mol
# GULP energy per Si atom -5569.288773 kJ/mol
# Density = 2.127886 g / cm^3
# Si number density = 21.327402 Si / 1000 Ang^3
#
#
#
# Elastic Constant Matrix: (Units=GPa)
#
#
# Indices 1 2 3 4 5 6 
#
# 1 104.2005 -5.8764 23.3556 0.0000 0.0000 0.0000
# 2 -5.8764 57.0817 -10.6326 0.0000 0.0000 0.0000
# 3 23.3556 -10.6326 93.3528 0.0000 0.0000 0.0000
# 4 0.0000 0.0000 0.0000 15.4541 0.0000 0.0000
# 5 0.0000 0.0000 0.0000 0.0000 8.9261 0.0000
# 6 0.0000 0.0000 0.0000 0.0000 0.0000 32.9548
#
#
#
# Elastic Compliance Matrix: (Units=1/GPa)
#
#
# Indices 1 2 3 4 5 6 
#
# 1 0.010186 0.000586 -0.002482 0.000000 0.000000 0.000000
# 2 0.000586 0.017932 0.001896 0.000000 0.000000 0.000000
# 3 -0.002482 0.001896 0.011549 0.000000 0.000000 0.000000
# 4 0.000000 0.000000 0.000000 0.064708 0.000000 0.000000
# 5 0.000000 0.000000 0.000000 0.000000 0.112030 0.000000
# 6 0.000000 0.000000 0.000000 0.000000 0.000000 0.030345
#
#
# Mechanical properties :
#
#
# Convention : Reuss Voigt Hill
#
# Bulk Modulus (GPa) = 25.20914 29.81426 27.51170
# Shear Modulus (GPa) = 19.23285 27.98623 23.60954
#
# Velocity S-wave (km/s) = 3.00624 3.62639 3.33078
# Velocity P-wave (km/s) = 4.88832 5.61640 5.26496
#
# Compressibility (1/GPa) = 0.03966815
#
# Stress axis : x y z
#
# Youngs Moduli (GPa) = 98.17214 55.76549 86.58873
#
# Poissons Ratio (x) = -0.03270 0.21488
# Poissons Ratio (y) = -0.05757 -0.16415
# Poissons Ratio (z) = 0.24363 -0.10572
#
# Static dielectric constant tensor:
#      x y z
#    x 1.699160 0.000000 0.000000 
#    y 0.000000 1.772250 0.000000 
#    z 0.000000 0.000000 1.778310 
# 
# From -- ./inp_files/20202.got.cif
#   From: 2010.05.17/outbox.cif.g08.bks.cpg/sg50_11_cif.got.tgz:20202.got - 2010.06.03 11:33:33.
