data_PCOD9397334
_publ_section_title
;
Structure prediction by ZEFSAII (Michael W. Deem and Ramdas Pophale) SiO2 
 PCOD9397334
Probable space group: P B A N
;
_chemical_formula_sum "Si O2"
_cell_formula_units_Z 58
_cell_length_a 17.634082
_cell_length_b 8.527253
_cell_length_c 18.476182
_cell_angle_alpha 90.000000
_cell_angle_beta 90.000000
_cell_angle_gamma 90.000000
_cell_volume 2778.268635
_symmetry_space_group_name_H-M "P B A N"
_symmetry_group_IT_number 50
_space_group.IT_coordinate_system_code '2'
_symmetry_cell_setting 'orthorhombic'
loop_
_space_group_symop_operation_xyz
x,y,z
1/2-x,1/2-y,z
x,1/2-y,-z
1/2-x,y,-z
-x,-y,-z
1/2+x,1/2+y,-z
-x,1/2+y,z
1/2+x,-y,z
loop_
_atom_site_type_symbol
_atom_site_label
_atom_site_fract_x
_atom_site_fract_y
_atom_site_fract_z
Si Si1 0.066869 0.664987 0.428206
Si Si2 0.338314 0.750059 0.859818
Si Si3 0.250000 0.250000 0.000000
Si Si4 0.668636 0.674726 0.721755
Si Si5 0.126596 0.115651 0.115824
Si Si6 0.965238 0.125160 0.055077
Si Si7 0.830611 0.304783 0.307296
Si Si8 0.900486 0.702242 0.574651
O O1 0.097739 0.750000 0.500000
O O2 0.103499 0.744299 0.358388
O O3 0.082665 0.481568 0.429820
O O4 0.977490 0.696671 0.427411
O O5 0.250000 0.750000 0.884627
O O6 0.393845 0.614190 0.891043
O O7 0.337330 0.733276 0.773112
O O8 0.370581 0.925256 0.876374
O O9 0.191028 0.337689 0.944002
O O10 0.750000 0.750000 0.728157
O O11 0.637733 0.682965 0.803577
O O12 0.669181 0.491309 0.701406
O O13 0.632588 0.762076 0.653328
O O14 0.042781 0.175523 0.094109
O O15 0.932104 0.250000 0.000000
O O16 0.000000 0.000000 0.000000
O O17 0.750000 0.250000 0.338347
O O18 0.857515 0.750000 0.500000
#
# Coordination Sequence:
#
# PCOD9397334 Si02
#       8
#     8   8   2   8   8   8   8   8
#     4  11  22  41  66  97 133 176 223 276 337 405
#     4  10  25  45  69  95 135 185 230 282 354 419
#     4  12  24  44  70 100 136 180 230 284 356 400
#     4  11  23  43  65  97 137 175 228 276 344 416
#     4  11  25  43  67 100 134 181 229 293 346 414
#     4  12  25  45  65  99 132 170 232 286 343 414
#     4  10  22  43  64  95 130 173 225 276 336 406
#     4  11  23  41  67 100 133 177 222 277 339 409
#
# _framework density 20.87631
#
# number of rings (size 3 to 8) (size 9 to 14) (size 15 to 20)
#    0.000    1.103    2.759    4.138    3.862    0.828 
#    4.966    2.759    0.000    0.000    0.000    0.000 
#    0.000    0.000    0.000    0.000    0.000    0.000 
#
# Total GULP energy -323439.023370 kJ/mol
# GULP energy per Si atom -5576.534886 kJ/mol
# Density = 2.082879 g / cm^3
# Si number density = 20.876310 Si / 1000 Ang^3
#
#
#
# Elastic Constant Matrix: (Units=GPa)
#
#
# Indices 1 2 3 4 5 6 
#
# 1 91.0347 3.4557 55.6642 0.0000 0.0000 0.0000
# 2 3.4557 67.5638 42.9737 0.0000 0.0000 0.0000
# 3 55.6642 42.9737 154.0842 0.0000 0.0000 0.0000
# 4 0.0000 0.0000 0.0000 33.5984 0.0000 0.0000
# 5 0.0000 0.0000 0.0000 0.0000 42.8758 0.0000
# 6 0.0000 0.0000 0.0000 0.0000 0.0000 28.0127
#
#
#
# Elastic Compliance Matrix: (Units=1/GPa)
#
#
# Indices 1 2 3 4 5 6 
#
# 1 0.014640 0.003179 -0.006176 0.000000 0.000000 0.000000
# 2 0.003179 0.018683 -0.006359 0.000000 0.000000 0.000000
# 3 -0.006176 -0.006359 0.010494 0.000000 0.000000 0.000000
# 4 0.000000 0.000000 0.000000 0.029763 0.000000 0.000000
# 5 0.000000 0.000000 0.000000 0.000000 0.023323 0.000000
# 6 0.000000 0.000000 0.000000 0.000000 0.000000 0.035698
#
#
# Mechanical properties :
#
#
# Convention : Reuss Voigt Hill
#
# Bulk Modulus (GPa) = 39.83024 57.42999 48.63011
# Shear Modulus (GPa) = 31.31220 34.93665 33.12443
#
# Velocity S-wave (km/s) = 3.87704 4.09529 3.98766
# Velocity P-wave (km/s) = 6.25800 7.06620 6.67435
#
# Compressibility (1/GPa) = 0.02510655
#
# Stress axis : x y z
#
# Youngs Moduli (GPa) = 68.30479 53.52493 95.28835
#
# Poissons Ratio (x) = -0.17016 0.58846
# Poissons Ratio (y) = -0.21715 0.60595
# Poissons Ratio (z) = 0.42182 0.34037
#
# Static dielectric constant tensor:
#      x y z
#    x 1.747920 0.000000 0.000000 
#    y 0.000000 1.771910 0.000000 
#    z 0.000000 0.000000 2.168000 
# 
# From -- ./inp_files/29706.got.cif
#   From: 2010.05.17/outbox.cif.g08.bks.cpg/sg50_15_cif.got.tgz:29706.got - 2010.06.03 11:33:33.
