data_PCOD9397268
_publ_section_title
;
Structure prediction by ZEFSAII (Michael W. Deem and Ramdas Pophale) SiO2 
 PCOD9397268
Probable space group: P B A N
;
_chemical_formula_sum "Si O2"
_cell_formula_units_Z 48
_cell_length_a 8.710611
_cell_length_b 13.741231
_cell_length_c 16.233459
_cell_angle_alpha 90.000000
_cell_angle_beta 90.000000
_cell_angle_gamma 90.000000
_cell_volume 1943.056049
_symmetry_space_group_name_H-M "P B A N"
_symmetry_group_IT_number 50
_space_group.IT_coordinate_system_code '2'
_symmetry_cell_setting 'orthorhombic'
loop_
_space_group_symop_operation_xyz
x,y,z
1/2-x,1/2-y,z
x,1/2-y,-z
1/2-x,y,-z
-x,-y,-z
1/2+x,1/2+y,-z
-x,1/2+y,z
1/2+x,-y,z
loop_
_atom_site_type_symbol
_atom_site_label
_atom_site_fract_x
_atom_site_fract_y
_atom_site_fract_z
Si Si1 0.084444 0.788757 0.680317
Si Si2 0.883826 0.530056 0.328900
Si Si3 0.711821 0.358683 0.097594
Si Si4 0.514000 0.491449 0.900940
Si Si5 0.513385 0.750000 0.500000
Si Si6 0.250000 0.421659 0.500000
Si Si7 0.588370 0.877035 0.756166
O O1 0.250000 0.750000 0.706800
O O2 0.074740 0.767902 0.583205
O O3 0.034206 0.901162 0.680806
O O4 0.952359 0.732467 0.731776
O O5 0.820773 0.520732 0.422671
O O6 0.744594 0.583229 0.282548
O O7 0.945397 0.432346 0.288660
O O8 0.750000 0.250000 0.126634
O O9 0.545913 0.400934 0.123128
O O10 0.819629 0.449843 0.120795
O O11 0.750000 0.352820 0.000000
O O12 0.418522 0.407981 0.852107
O O13 0.500000 0.500000 0.000000
O O14 0.616536 0.655384 0.477674
#
# Coordination Sequence:
#
# PCOD9397268 Si02
#       7
#     8   8   8   8   4   4   8
#     4  11  23  42  65  96 133 178 225 284 347 414
#     4  11  24  42  64  95 135 178 227 287 340 415
#     4   9  19  39  66  94 127 174 223 279 356 427
#     4  10  22  41  66  95 132 175 228 294 356 431
#     4   9  17  38  66  90 126 174 226 266 340 408
#     4   9  18  38  64  88 129 176 220 271 340 404
#     4  12  24  41  63  97 132 175 232 283 349 417
#
# _framework density 24.703353
#
# number of rings (size 3 to 8) (size 9 to 14) (size 15 to 20)
#    0.000    1.667    1.667    2.750    0.000    2.667 
#    3.000    2.500    0.000    7.000    0.000    0.000 
#    0.000    0.000    0.000    0.000    0.000    0.000 
#
# Total GULP energy -267789.504614 kJ/mol
# GULP energy per Si atom -5578.948013 kJ/mol
# Density = 2.464713 g / cm^3
# Si number density = 24.703353 Si / 1000 Ang^3
#
#
#
# Elastic Constant Matrix: (Units=GPa)
#
#
# Indices 1 2 3 4 5 6 
#
# 1 96.8713 34.1332 9.3029 0.0000 0.0000 0.0000
# 2 34.1332 132.0237 25.9245 0.0000 0.0000 0.0000
# 3 9.3029 25.9245 145.1249 0.0000 0.0000 0.0000
# 4 0.0000 0.0000 0.0000 26.0857 0.0000 0.0000
# 5 0.0000 0.0000 0.0000 0.0000 -41.2663 0.0000
# 6 0.0000 0.0000 0.0000 0.0000 0.0000 35.5360
#
#
#
# Elastic Compliance Matrix: (Units=1/GPa)
#
#
# Indices 1 2 3 4 5 6 
#
# 1 0.011364 -0.002897 -0.000211 0.000000 0.000000 0.000000
# 2 -0.002897 0.008588 -0.001348 0.000000 0.000000 0.000000
# 3 -0.000211 -0.001348 0.007145 0.000000 0.000000 0.000000
# 4 0.000000 0.000000 0.000000 0.038335 0.000000 0.000000
# 5 0.000000 0.000000 0.000000 0.000000 -0.024233 0.000000
# 6 0.000000 0.000000 0.000000 0.000000 0.000000 0.028140
#
#
# Mechanical properties :
#
#
# Convention : Reuss Voigt Hill
#
# Bulk Modulus (GPa) = 54.99079 56.97123 55.98101
# Shear Modulus (GPa) = 59.30247 24.38169 41.84208
#
# Velocity S-wave (km/s) = 4.90489 3.14503 4.12002
# Velocity P-wave (km/s) = 7.37469 6.02499 6.73374
#
# Compressibility (1/GPa) = 0.01818486
#
# Stress axis : x y z
#
# Youngs Moduli (GPa) = 87.99822 116.44073 139.95753
#
# Poissons Ratio (x) = 0.33728 0.02953
# Poissons Ratio (y) = 0.25489 0.18873
# Poissons Ratio (z) = 0.01857 0.15702
#
# Static dielectric constant tensor:
#      x y z
#    x 1.840470 0.000000 0.000000 
#    y 0.000000 1.840400 0.000000 
#    z 0.000000 0.000000 2.019160 
# 
# From -- ./inp_files/28757.got.cif
#   From: 2010.05.17/outbox.cif.g08.bks.cpg/sg50_15_cif.got.tgz:28757.got - 2010.06.03 11:33:33.
