data_PCOD9397528
_publ_section_title
;
Structure prediction by ZEFSAII (Michael W. Deem and Ramdas Pophale) SiO2 
 PCOD9397528
Probable space group: P B A N
;
_chemical_formula_sum "Si O2"
_cell_formula_units_Z 56
_cell_length_a 19.220472
_cell_length_b 9.255776
_cell_length_c 14.537160
_cell_angle_alpha 90.000000
_cell_angle_beta 90.000000
_cell_angle_gamma 90.000000
_cell_volume 2586.166338
_symmetry_space_group_name_H-M "P B A N"
_symmetry_group_IT_number 50
_space_group.IT_coordinate_system_code '2'
_symmetry_cell_setting 'orthorhombic'
loop_
_space_group_symop_operation_xyz
x,y,z
1/2-x,1/2-y,z
x,1/2-y,-z
1/2-x,y,-z
-x,-y,-z
1/2+x,1/2+y,-z
-x,1/2+y,z
1/2+x,-y,z
loop_
_atom_site_type_symbol
_atom_site_label
_atom_site_fract_x
_atom_site_fract_y
_atom_site_fract_z
Si Si1 0.564223 0.225831 0.403695
Si Si2 0.250000 0.250000 0.278079
Si Si3 0.250000 0.750000 0.263100
Si Si4 0.619016 0.426110 0.774820
Si Si5 0.508674 0.134819 0.067704
Si Si6 0.935469 0.554371 0.624837
Si Si7 0.718839 0.002404 0.597968
Si Si8 0.392102 0.229751 0.199290
O O1 0.603930 0.250000 0.500000
O O2 0.600757 0.127877 0.327666
O O3 0.548511 0.384565 0.363188
O O4 0.495330 0.135709 0.429914
O O5 0.235242 0.117547 0.348080
O O6 0.311281 0.190011 0.213422
O O7 0.307081 0.655010 0.207953
O O8 0.212853 0.635973 0.331800
O O9 0.560319 0.378326 0.846774
O O10 0.613072 0.598921 0.783083
O O11 0.434442 0.189681 0.108022
O O12 0.541213 0.250000 0.000000
O O13 0.500000 0.000000 0.000000
O O14 0.858175 0.562517 0.583706
O O15 0.930705 0.640735 0.720542
O O16 0.750000 0.040497 0.500000
#
# Coordination Sequence:
#
# PCOD9397528 Si02
#       8
#     8   4   4   8   8   8   8   8
#     4  12  26  42  64 106 146 196 245 306 370 436
#     4  10  23  42  69  98 144 200 242 294 384 428
#     4  12  25  44  75  98 146 200 246 302 378 440
#     4  12  26  48  74 107 150 194 245 313 379 444
#     4  12  27  48  82 113 140 186 243 310 390 466
#     4  11  25  42  67 101 145 195 245 310 365 436
#     4  11  24  41  64 101 143 201 259 304 354 445
#     4  11  24  47  74 104 147 190 243 306 376 452
#
# _framework density 21.653672
#
# number of rings (size 3 to 8) (size 9 to 14) (size 15 to 20)
#    0.000    0.571    5.714    1.714    4.000    2.286 
#    0.000    0.714    0.000    0.000    0.000    0.000 
#    0.000    0.000    0.000    0.000    0.000    0.000 
#
# Total GULP energy -312688.137175 kJ/mol
# GULP energy per Si atom -5583.716735 kJ/mol
# Density = 2.160439 g / cm^3
# Si number density = 21.653672 Si / 1000 Ang^3
#
#
#
# Elastic Constant Matrix: (Units=GPa)
#
#
# Indices 1 2 3 4 5 6 
#
# 1 105.6737 26.6817 40.8481 0.0000 0.0000 0.0000
# 2 26.6817 143.0468 34.0545 0.0000 0.0000 0.0000
# 3 40.8481 34.0545 100.2129 0.0000 0.0000 0.0000
# 4 0.0000 0.0000 0.0000 35.8044 0.0000 0.0000
# 5 0.0000 0.0000 0.0000 0.0000 11.8965 0.0000
# 6 0.0000 0.0000 0.0000 0.0000 0.0000 31.5714
#
#
#
# Elastic Compliance Matrix: (Units=1/GPa)
#
#
# Indices 1 2 3 4 5 6 
#
# 1 0.011392 -0.001109 -0.004267 0.000000 0.000000 0.000000
# 2 -0.001109 0.007714 -0.002169 0.000000 0.000000 0.000000
# 3 -0.004267 -0.002169 0.012455 0.000000 0.000000 0.000000
# 4 0.000000 0.000000 0.000000 0.027930 0.000000 0.000000
# 5 0.000000 0.000000 0.000000 0.000000 0.084058 0.000000
# 6 0.000000 0.000000 0.000000 0.000000 0.000000 0.031674
#
#
# Mechanical properties :
#
#
# Convention : Reuss Voigt Hill
#
# Bulk Modulus (GPa) = 60.71236 61.34466 61.02851
# Shear Modulus (GPa) = 25.53565 32.34441 28.94003
#
# Velocity S-wave (km/s) = 3.43778 3.86905 3.65978
# Velocity P-wave (km/s) = 6.62243 6.95348 6.78997
#
# Compressibility (1/GPa) = 0.01647111
#
# Stress axis : x y z
#
# Youngs Moduli (GPa) = 87.77719 129.63375 80.28826
#
# Poissons Ratio (x) = 0.14379 0.34257
# Poissons Ratio (y) = 0.09736 0.17417
# Poissons Ratio (z) = 0.37453 0.28121
#
# Static dielectric constant tensor:
#      x y z
#    x 1.873520 0.000000 0.000000 
#    y 0.000000 1.823030 0.000000 
#    z 0.000000 0.000000 1.779280 
# 
# From -- ./inp_files/27276.got.cif
#   From: 2010.05.17/outbox.cif.g08.bks.cpg/sg50_14_cif.got.tgz:27276.got - 2010.06.03 11:33:33.
