data_PCOD9397498
_publ_section_title
;
Structure prediction by ZEFSAII (Michael W. Deem and Ramdas Pophale) SiO2 
 PCOD9397498
Probable space group: P B A N
;
_chemical_formula_sum "Si O2"
_cell_formula_units_Z 58
_cell_length_a 9.019436
_cell_length_b 25.581446
_cell_length_c 11.050571
_cell_angle_alpha 90.000000
_cell_angle_beta 90.000000
_cell_angle_gamma 90.000000
_cell_volume 2549.700623
_symmetry_space_group_name_H-M "P B A N"
_symmetry_group_IT_number 50
_space_group.IT_coordinate_system_code '2'
_symmetry_cell_setting 'orthorhombic'
loop_
_space_group_symop_operation_xyz
x,y,z
1/2-x,1/2-y,z
x,1/2-y,-z
1/2-x,y,-z
-x,-y,-z
1/2+x,1/2+y,-z
-x,1/2+y,z
1/2+x,-y,z
loop_
_atom_site_type_symbol
_atom_site_label
_atom_site_fract_x
_atom_site_fract_y
_atom_site_fract_z
Si Si1 0.089640 0.560855 0.796155
Si Si2 0.411031 0.065645 0.955644
Si Si3 0.083746 0.973951 0.731878
Si Si4 0.250000 0.250000 0.000000
Si Si5 0.095967 0.880742 0.550988
Si Si6 0.520014 0.224005 0.628160
Si Si7 0.185354 0.168556 0.188171
Si Si8 0.508966 0.162624 0.301546
O O1 0.245752 0.532761 0.768684
O O2 0.968153 0.533313 0.705351
O O3 0.117254 0.620920 0.758394
O O4 0.020442 0.568212 0.930255
O O5 0.489123 0.031434 0.854494
O O6 0.377755 0.118402 0.880552
O O7 0.250000 0.046629 0.000000
O O8 0.040816 0.927172 0.639165
O O9 0.161144 0.213170 0.088814
O O10 0.250000 0.902575 0.500000
O O11 0.134292 0.823775 0.610565
O O12 0.995025 0.860786 0.438773
O O13 0.478250 0.250000 0.500000
O O14 0.390652 0.191480 0.692583
O O15 0.558128 0.276840 0.699994
O O16 0.355404 0.159916 0.226365
#
# Coordination Sequence:
#
# PCOD9397498 Si02
#       8
#     8   8   8   2   8   8   8   8
#     4  12  26  47  73 105 142 190 243 298 370 442
#     4  12  24  45  73 106 141 191 239 302 367 431
#     4  12  27  49  74 105 142 187 247 307 365 443
#     4  12  20  36  62 100 150 180 228 306 350 430
#     4  11  24  47  70 104 141 190 243 297 371 435
#     4  10  23  41  70 102 143 190 240 300 359 435
#     4  12  22  40  69 106 147 187 244 300 368 428
#     4  11  23  42  70 103 143 188 239 295 359 441
#
# _framework density 22.747768000000001
#
# number of rings (size 3 to 8) (size 9 to 14) (size 15 to 20)
#    0.000    0.552    6.207    1.655    0.000    6.897 
#    0.000    0.000    0.000    0.000    0.000    0.000 
#    0.000    0.000    0.000    0.000    0.000    0.000 
#
# Total GULP energy -323322.636341 kJ/mol
# GULP energy per Si atom -5574.528213 kJ/mol
# Density = 2.269599 g / cm^3
# Si number density = 22.747768 Si / 1000 Ang^3
#
#
#
# Elastic Constant Matrix: (Units=GPa)
#
#
# Indices 1 2 3 4 5 6 
#
# 1 70.1862 15.9412 13.0278 0.0000 0.0000 0.0000
# 2 15.9412 130.9157 35.8942 0.0000 0.0000 0.0000
# 3 13.0278 35.8942 88.2382 0.0000 0.0000 0.0000
# 4 0.0000 0.0000 0.0000 79.5347 0.0000 0.0000
# 5 0.0000 0.0000 0.0000 0.0000 35.9978 0.0000
# 6 0.0000 0.0000 0.0000 0.0000 0.0000 1.0050
#
#
#
# Elastic Compliance Matrix: (Units=1/GPa)
#
#
# Indices 1 2 3 4 5 6 
#
# 1 0.014861 -0.001360 -0.001641 0.000000 0.000000 0.000000
# 2 -0.001360 0.008722 -0.003347 0.000000 0.000000 0.000000
# 3 -0.001641 -0.003347 0.012937 0.000000 0.000000 0.000000
# 4 0.000000 0.000000 0.000000 0.012573 0.000000 0.000000
# 5 0.000000 0.000000 0.000000 0.000000 0.027779 0.000000
# 6 0.000000 0.000000 0.000000 0.000000 0.000000 0.995018
#
#
# Mechanical properties :
#
#
# Convention : Reuss Voigt Hill
#
# Bulk Modulus (GPa) = 41.97435 46.56292 44.26864
# Shear Modulus (GPa) = 4.57654 38.27262 21.42458
#
# Velocity S-wave (km/s) = 1.41994 4.10625 3.07226
# Velocity P-wave (km/s) = 4.60222 6.55709 5.66462
#
# Compressibility (1/GPa) = 0.02382407
#
# Stress axis : x y z
#
# Youngs Moduli (GPa) = 67.28908 114.65543 77.29865
#
# Poissons Ratio (x) = 0.15589 0.12685
# Poissons Ratio (y) = 0.09149 0.25873
# Poissons Ratio (z) = 0.11043 0.38377
#
# Static dielectric constant tensor:
#      x y z
#    x 2.201760 0.000000 0.000000 
#    y 0.000000 2.124140 0.000000 
#    z 0.000000 0.000000 1.981770 
# 
# From -- ./inp_files/19406.got.cif
#   From: 2010.05.17/outbox.cif.g08.bks.cpg/sg50_10_cif.got.tgz:19406.got - 2010.06.03 11:33:33.
