data_PCOD9397487
_publ_section_title
;
Structure prediction by ZEFSAII (Michael W. Deem and Ramdas Pophale) SiO2 
 PCOD9397487
Probable space group: P B A N
;
_chemical_formula_sum "Si O2"
_cell_formula_units_Z 48
_cell_length_a 11.296917
_cell_length_b 18.832144
_cell_length_c 10.926761
_cell_angle_alpha 90.000000
_cell_angle_beta 90.000000
_cell_angle_gamma 90.000000
_cell_volume 2324.615601
_symmetry_space_group_name_H-M "P B A N"
_symmetry_group_IT_number 50
_space_group.IT_coordinate_system_code '2'
_symmetry_cell_setting 'orthorhombic'
loop_
_space_group_symop_operation_xyz
x,y,z
1/2-x,1/2-y,z
x,1/2-y,-z
1/2-x,y,-z
-x,-y,-z
1/2+x,1/2+y,-z
-x,1/2+y,z
1/2+x,-y,z
loop_
_atom_site_type_symbol
_atom_site_label
_atom_site_fract_x
_atom_site_fract_y
_atom_site_fract_z
Si Si1 0.989004 0.355540 0.738077
Si Si2 0.876664 0.212784 0.814384
Si Si3 0.555048 0.399473 0.006516
Si Si4 0.231961 0.605119 0.635869
Si Si5 0.202858 0.058655 0.364333
Si Si6 0.664930 0.963288 0.892735
O O1 0.965166 0.271574 0.758157
O O2 0.863590 0.389180 0.694310
O O3 0.092885 0.388998 0.658159
O O4 0.019396 0.380163 0.874724
O O5 0.750000 0.250000 0.828693
O O6 0.903208 0.171873 0.940440
O O7 0.855610 0.152097 0.714624
O O8 0.469540 0.437136 0.909602
O O9 0.649500 0.453844 0.065918
O O10 0.250000 0.634137 0.500000
O O11 0.178782 0.526087 0.627807
O O12 0.250000 0.076901 0.500000
O O13 0.286136 0.057249 0.241298
O O14 0.750000 0.933409 0.000000
#
# Coordination Sequence:
#
# PCOD9397487 Si02
#       6
#     8   8   8   8   8   8
#     4  11  23  41  63  99 132 176 224 282 345 404
#     4  10  24  41  66  98 136 170 224 285 345 404
#     4  11  23  38  67  97 128 172 223 277 346 392
#     4  10  23  41  65  96 136 178 226 281 337 403
#     4  11  24  43  69 102 138 180 230 284 340 413
#     4  11  22  40  67  97 133 171 227 280 333 401
#
# _framework density 20.648575000000001
#
# number of rings (size 3 to 8) (size 9 to 14) (size 15 to 20)
#    0.000    1.333    3.333    1.500    4.667    9.000 
#    0.000    0.833    0.000    1.000    0.000    1.167 
#    0.000    0.000    0.000    0.000    0.000    0.000 
#
# Total GULP energy -267366.845277 kJ/mol
# GULP energy per Si atom -5570.142610 kJ/mol
# Density = 2.060158 g / cm^3
# Si number density = 20.648575 Si / 1000 Ang^3
#
#
#
# Elastic Constant Matrix: (Units=GPa)
#
#
# Indices 1 2 3 4 5 6 
#
# 1 73.0490 57.9303 65.3999 0.0000 0.0000 0.0000
# 2 57.9303 93.1287 52.8170 0.0000 0.0000 0.0000
# 3 65.3999 52.8170 128.5014 0.0000 0.0000 0.0000
# 4 0.0000 0.0000 0.0000 -24.2554 0.0000 0.0000
# 5 0.0000 0.0000 0.0000 0.0000 29.5785 0.0000
# 6 0.0000 0.0000 0.0000 0.0000 0.0000 18.3282
#
#
#
# Elastic Compliance Matrix: (Units=1/GPa)
#
#
# Indices 1 2 3 4 5 6 
#
# 1 0.038073 -0.016552 -0.012574 0.000000 0.000000 0.000000
# 2 -0.016552 0.021198 -0.000289 0.000000 0.000000 0.000000
# 3 -0.012574 -0.000289 0.014300 0.000000 0.000000 0.000000
# 4 0.000000 0.000000 0.000000 -0.041228 0.000000 0.000000
# 5 0.000000 0.000000 0.000000 0.000000 0.033808 0.000000
# 6 0.000000 0.000000 0.000000 0.000000 0.000000 0.054561
#
#
# Mechanical properties :
#
#
# Convention : Reuss Voigt Hill
#
# Bulk Modulus (GPa) = 67.83466 71.88594 69.86030
# Shear Modulus (GPa) = 27.10704 12.63239 19.86971
#
# Velocity S-wave (km/s) = 3.62716 2.47610 3.10543
# Velocity P-wave (km/s) = 7.10387 6.56234 6.83847
#
# Compressibility (1/GPa) = 0.01474173
#
# Stress axis : x y z
#
# Youngs Moduli (GPa) = 26.26551 47.17497 69.93040
#
# Poissons Ratio (x) = 0.78084 0.87928
# Poissons Ratio (y) = 0.43475 0.02019
# Poissons Ratio (z) = 0.33025 0.01362
#
# Static dielectric constant tensor:
#      x y z
#    x 1.743390 0.000000 0.000000 
#    y 0.000000 1.795010 0.000000 
#    z 0.000000 0.000000 1.774390 
# 
# From -- ./inp_files/20322.got.cif
#   From: 2010.05.17/outbox.cif.g08.bks.cpg/sg50_11_cif.got.tgz:20322.got - 2010.06.03 11:33:33.
