data_PCOD9397109
_publ_section_title
;
Structure prediction by ZEFSAII (Michael W. Deem and Ramdas Pophale) SiO2 
 PCOD9397109
Probable space group: P B A N
;
_chemical_formula_sum "Si O2"
_cell_formula_units_Z 64
_cell_length_a 15.440816
_cell_length_b 17.244338
_cell_length_c 11.526653
_cell_angle_alpha 90.000000
_cell_angle_beta 90.000000
_cell_angle_gamma 90.000000
_cell_volume 3069.163281
_symmetry_space_group_name_H-M "P B A N"
_symmetry_group_IT_number 50
_space_group.IT_coordinate_system_code '2'
_symmetry_cell_setting 'orthorhombic'
loop_
_space_group_symop_operation_xyz
x,y,z
1/2-x,1/2-y,z
x,1/2-y,-z
1/2-x,y,-z
-x,-y,-z
1/2+x,1/2+y,-z
-x,1/2+y,z
1/2+x,-y,z
loop_
_atom_site_type_symbol
_atom_site_label
_atom_site_fract_x
_atom_site_fract_y
_atom_site_fract_z
Si Si1 0.241545 0.937862 0.866833
Si Si2 0.151292 0.842708 0.493617
Si Si3 0.100004 0.698744 0.121360
Si Si4 0.743427 0.612070 0.141475
Si Si5 0.414807 0.334143 0.703231
Si Si6 0.480049 0.087428 0.534474
Si Si7 0.598285 0.144603 0.237776
Si Si8 0.425680 0.341457 0.243640
O O1 0.170387 0.869278 0.861480
O O2 0.334992 0.906552 0.830917
O O3 0.226013 0.022851 0.816197
O O4 0.250000 0.955513 0.000000
O O5 0.152946 0.750000 0.500000
O O6 0.250000 0.870748 0.500000
O O7 0.116761 0.870357 0.370591
O O8 0.072811 0.873216 0.571039
O O9 0.120583 0.765898 0.213464
O O10 0.005802 0.663789 0.152675
O O11 0.101940 0.750000 0.000000
O O12 0.669436 0.655354 0.216568
O O13 0.836226 0.643621 0.180094
O O14 0.750000 0.619393 0.000000
O O15 0.429075 0.372031 0.574680
O O16 0.496355 0.365274 0.779757
O O17 0.427257 0.241781 0.691472
O O18 0.430167 0.094579 0.655321
O O19 0.500000 0.000000 0.500000
#
# Coordination Sequence:
#
# PCOD9397109 Si02
#       8
#     8   8   8   8   8   8   8   8
#     4  11  24  40  61  98 144 173 228 283 354 437
#     4  10  22  38  62  93 129 171 219 273 347 415
#     4  11  23  39  69 103 135 185 231 284 361 438
#     4  11  28  45  70 103 141 190 240 311 359 420
#     4  10  24  48  72  95 140 184 239 296 355 421
#     4  11  25  45  69 105 140 182 231 297 363 433
#     4  10  22  37  64  92 132 178 220 280 348 429
#     4  11  26  45  74 102 137 186 247 295 354 439
#
# _framework density 20.852589999999999
#
# number of rings (size 3 to 8) (size 9 to 14) (size 15 to 20)
#    0.000    1.375    1.250    3.375   14.000    1.000 
#    0.000    3.750    0.000    0.000    0.000    0.000 
#    0.000    0.000    0.000    0.000    0.000    0.000 
#
# Total GULP energy -356550.714916 kJ/mol
# GULP energy per Si atom -5571.104921 kJ/mol
# Density = 2.080513 g / cm^3
# Si number density = 20.852590 Si / 1000 Ang^3
#
#
#
# Elastic Constant Matrix: (Units=GPa)
#
#
# Indices 1 2 3 4 5 6 
#
# 1 89.7650 -15.3217 27.4249 0.0000 0.0000 0.0000
# 2 -15.3217 38.4014 3.9604 0.0000 0.0000 0.0000
# 3 27.4249 3.9604 64.9896 0.0000 0.0000 0.0000
# 4 0.0000 0.0000 0.0000 30.4005 0.0000 0.0000
# 5 0.0000 0.0000 0.0000 0.0000 41.9760 0.0000
# 6 0.0000 0.0000 0.0000 0.0000 0.0000 12.2211
#
#
#
# Elastic Compliance Matrix: (Units=1/GPa)
#
#
# Indices 1 2 3 4 5 6 
#
# 1 0.014159 0.006305 -0.006359 0.000000 0.000000 0.000000
# 2 0.006305 0.029013 -0.004429 0.000000 0.000000 0.000000
# 3 -0.006359 -0.004429 0.018341 0.000000 0.000000 0.000000
# 4 0.000000 0.000000 0.000000 0.032894 0.000000 0.000000
# 5 0.000000 0.000000 0.000000 0.000000 0.023823 0.000000
# 6 0.000000 0.000000 0.000000 0.000000 0.000000 0.081826
#
#
# Mechanical properties :
#
#
# Convention : Reuss Voigt Hill
#
# Bulk Modulus (GPa) = 19.03047 25.03148 22.03098
# Shear Modulus (GPa) = 22.07138 28.72566 25.39852
#
# Velocity S-wave (km/s) = 3.25691 3.71557 3.49378
# Velocity P-wave (km/s) = 4.82590 5.51701 5.18299
#
# Compressibility (1/GPa) = 0.05254730
#
# Stress axis : x y z
#
# Youngs Moduli (GPa) = 70.62487 34.46708 54.52403
#
# Poissons Ratio (x) = -0.21732 0.34674
# Poissons Ratio (y) = -0.44531 0.24148
# Poissons Ratio (z) = 0.44913 0.15265
#
# Static dielectric constant tensor:
#      x y z
#    x 1.727740 0.000000 0.000000 
#    y 0.000000 1.848850 0.000000 
#    z 0.000000 0.000000 1.772500 
# 
# From -- ./inp_files/21354.got.cif
#   From: 2010.05.17/outbox.cif.g08.bks.cpg/sg50_11_cif.got.tgz:21354.got - 2010.06.03 11:33:33.
