data_PCOD9397675
_publ_section_title
;
Structure prediction by ZEFSAII (Michael W. Deem and Ramdas Pophale) SiO2 
 PCOD9397675
Probable space group: P B A N
;
_chemical_formula_sum "Si O2"
_cell_formula_units_Z 34
_cell_length_a 18.692773
_cell_length_b 8.822433
_cell_length_c 9.002712
_cell_angle_alpha 90.000000
_cell_angle_beta 90.000000
_cell_angle_gamma 90.000000
_cell_volume 1484.688888
_symmetry_space_group_name_H-M "P B A N"
_symmetry_group_IT_number 50
_space_group.IT_coordinate_system_code '2'
_symmetry_cell_setting 'orthorhombic'
loop_
_space_group_symop_operation_xyz
x,y,z
1/2-x,1/2-y,z
x,1/2-y,-z
1/2-x,y,-z
-x,-y,-z
1/2+x,1/2+y,-z
-x,1/2+y,z
1/2+x,-y,z
loop_
_atom_site_type_symbol
_atom_site_label
_atom_site_fract_x
_atom_site_fract_y
_atom_site_fract_z
Si Si1 0.381544 0.096998 0.596627
Si Si2 0.250000 0.750000 0.000000
Si Si3 0.244350 0.585269 0.725856
Si Si4 0.017266 0.241628 0.822560
Si Si5 0.090868 0.947223 0.695768
O O1 0.374658 0.250000 0.500000
O O2 0.428257 0.142629 0.739068
O O3 0.305672 0.032397 0.646237
O O4 0.414350 0.975141 0.481057
O O5 0.211943 0.863999 0.114136
O O6 0.250000 0.750000 0.650442
O O7 0.326085 0.532609 0.739256
O O8 0.941112 0.288918 0.751959
O O9 0.045293 0.077483 0.775625
O O10 0.015833 0.250000 0.000000
#
# Coordination Sequence:
#
# PCOD9397675 Si02
#       5
#     8   2   8   8   8
#     4  10  24  47  70 103 142 189 243 297 358 431
#     4   8  24  40  66 114 140 176 232 302 360 428
#     4  10  24  43  75 101 144 182 244 297 364 422
#     4  11  26  42  72 100 147 188 238 296 360 432
#     4  11  25  44  68 104 141 190 237 293 363 426
#
# _framework density 22.900421999999999
#
# number of rings (size 3 to 8) (size 9 to 14) (size 15 to 20)
#    0.706    0.941    0.000    2.118    8.235    8.471 
#    0.000    1.176    0.000    0.000    0.000    0.000 
#    0.000    0.000    0.000    0.000    0.000    0.000 
#
# Total GULP energy -189897.159924 kJ/mol
# GULP energy per Si atom -5585.210586 kJ/mol
# Density = 2.284830 g / cm^3
# Si number density = 22.900422 Si / 1000 Ang^3
#
#
#
# Elastic Constant Matrix: (Units=GPa)
#
#
# Indices 1 2 3 4 5 6 
#
# 1 143.0472 49.0397 52.6192 0.0000 0.0000 0.0000
# 2 49.0397 65.8458 50.8265 0.0000 0.0000 0.0000
# 3 52.6192 50.8265 178.9410 0.0000 0.0000 0.0000
# 4 0.0000 0.0000 0.0000 9.5905 0.0000 0.0000
# 5 0.0000 0.0000 0.0000 0.0000 24.7238 0.0000
# 6 0.0000 0.0000 0.0000 0.0000 0.0000 37.4280
#
#
#
# Elastic Compliance Matrix: (Units=1/GPa)
#
#
# Indices 1 2 3 4 5 6 
#
# 1 0.009527 -0.006318 -0.001007 0.000000 0.000000 0.000000
# 2 -0.006318 0.023642 -0.004857 0.000000 0.000000 0.000000
# 3 -0.001007 -0.004857 0.007264 0.000000 0.000000 0.000000
# 4 0.000000 0.000000 0.000000 0.104269 0.000000 0.000000
# 5 0.000000 0.000000 0.000000 0.000000 0.040447 0.000000
# 6 0.000000 0.000000 0.000000 0.000000 0.000000 0.026718
#
#
# Mechanical properties :
#
#
# Convention : Reuss Voigt Hill
#
# Bulk Modulus (GPa) = 62.23415 76.97830 69.60623
# Shear Modulus (GPa) = 20.69634 30.03838 25.36736
#
# Velocity S-wave (km/s) = 3.00951 3.62566 3.33186
# Velocity P-wave (km/s) = 6.26986 7.15644 6.72777
#
# Compressibility (1/GPa) = 0.01606835
#
# Stress axis : x y z
#
# Youngs Moduli (GPa) = 104.96360 42.29760 137.66132
#
# Poissons Ratio (x) = 0.26725 0.13861
# Poissons Ratio (y) = 0.66319 0.66867
# Poissons Ratio (z) = 0.10569 0.20545
#
# Static dielectric constant tensor:
#      x y z
#    x 1.895330 0.000000 0.000000 
#    y 0.000000 1.819410 0.000000 
#    z 0.000000 0.000000 1.887360 
# 
# From -- ./inp_files/14931.got.cif
#   From: 2010.05.17/outbox.cif.g08.bks.cpg/sg50_8_cif.got.tgz:14931.got - 2010.06.03 11:33:33.
