data_PCOD9397440
_publ_section_title
;
Structure prediction by ZEFSAII (Michael W. Deem and Ramdas Pophale) SiO2 
 PCOD9397440
Probable space group: P B A N
;
_chemical_formula_sum "Si O2"
_cell_formula_units_Z 46
_cell_length_a 8.900144
_cell_length_b 25.349541
_cell_length_c 10.239536
_cell_angle_alpha 90.000000
_cell_angle_beta 90.000000
_cell_angle_gamma 90.000000
_cell_volume 2310.188463
_symmetry_space_group_name_H-M "P B A N"
_symmetry_group_IT_number 50
_space_group.IT_coordinate_system_code '2'
_symmetry_cell_setting 'orthorhombic'
loop_
_space_group_symop_operation_xyz
x,y,z
1/2-x,1/2-y,z
x,1/2-y,-z
1/2-x,y,-z
-x,-y,-z
1/2+x,1/2+y,-z
-x,1/2+y,z
1/2+x,-y,z
loop_
_atom_site_type_symbol
_atom_site_label
_atom_site_fract_x
_atom_site_fract_y
_atom_site_fract_z
Si Si1 0.331387 0.997219 0.249711
Si Si2 0.750000 0.250000 0.500000
Si Si3 0.067193 0.546775 0.586688
Si Si4 0.499952 0.837077 0.515278
Si Si5 0.436224 0.047181 0.914194
Si Si6 0.750000 0.638711 0.000000
Si Si7 0.230288 0.187401 0.290201
O O1 0.446582 0.042493 0.294854
O O2 0.214560 0.025076 0.152560
O O3 0.226069 0.972019 0.359168
O O4 0.433047 0.949880 0.193263
O O5 0.626284 0.206693 0.448413
O O6 0.000000 0.500000 0.500000
O O7 0.063485 0.603862 0.523476
O O8 0.633502 0.834552 0.621736
O O9 0.578871 0.826625 0.373488
O O10 0.394813 0.100097 0.988795
O O11 0.500000 0.000000 0.000000
O O12 0.757504 0.668660 0.139355
O O13 0.250000 0.250000 0.292391
#
# Coordination Sequence:
#
# PCOD9397440 Si02
#       7
#     8   2   8   8   8   4   8
#     4  10  23  39  59  90 147 175 225 261 342 402
#     4  12  24  46  72 106 124 186 224 284 348 402
#     4  11  25  38  62 104 137 180 215 289 337 413
#     4  11  25  44  75  95 139 171 235 272 349 410
#     4  11  21  39  59  91 130 187 216 264 321 423
#     4  12  25  38  76  96 130 178 231 276 340 398
#     4  11  24  49  69  99 122 180 229 292 329 412
#
# _framework density 19.911795000000001
#
# number of rings (size 3 to 8) (size 9 to 14) (size 15 to 20)
#    0.000    1.043    3.478    2.348   14.609    0.000 
#    0.000    0.000    0.000    1.043    0.000    0.000 
#    0.000    0.000    0.000    0.000    0.000    0.000 
#
# Total GULP energy -256410.752189 kJ/mol
# GULP energy per Si atom -5574.146787 kJ/mol
# Density = 1.986648 g / cm^3
# Si number density = 19.911795 Si / 1000 Ang^3
#
#
#
# Elastic Constant Matrix: (Units=GPa)
#
#
# Indices 1 2 3 4 5 6 
#
# 1 114.4397 19.4122 28.7010 0.0000 0.0000 0.0000
# 2 19.4122 122.2302 30.4023 0.0000 0.0000 0.0000
# 3 28.7010 30.4023 111.9946 0.0000 0.0000 0.0000
# 4 0.0000 0.0000 0.0000 33.2289 0.0000 0.0000
# 5 0.0000 0.0000 0.0000 0.0000 36.8166 0.0000
# 6 0.0000 0.0000 0.0000 0.0000 0.0000 29.4541
#
#
#
# Elastic Compliance Matrix: (Units=1/GPa)
#
#
# Indices 1 2 3 4 5 6 
#
# 1 0.009443 -0.000963 -0.002159 0.000000 0.000000 0.000000
# 2 -0.000963 0.008872 -0.002162 0.000000 0.000000 0.000000
# 3 -0.002159 -0.002162 0.010069 0.000000 0.000000 0.000000
# 4 0.000000 0.000000 0.000000 0.030094 0.000000 0.000000
# 5 0.000000 0.000000 0.000000 0.000000 0.027162 0.000000
# 6 0.000000 0.000000 0.000000 0.000000 0.000000 0.033951
#
#
# Mechanical properties :
#
#
# Convention : Reuss Voigt Hill
#
# Bulk Modulus (GPa) = 56.12388 56.18839 56.15614
# Shear Modulus (GPa) = 36.73878 37.90988 37.32433
#
# Velocity S-wave (km/s) = 4.30009 4.36809 4.33423
# Velocity P-wave (km/s) = 7.27337 7.32941 7.30144
#
# Compressibility (1/GPa) = 0.01781773
#
# Stress axis : x y z
#
# Youngs Moduli (GPa) = 105.89963 112.71602 99.31481
#
# Poissons Ratio (x) = 0.10852 0.21438
# Poissons Ratio (y) = 0.10196 0.21468
# Poissons Ratio (z) = 0.22859 0.24365
#
# Static dielectric constant tensor:
#      x y z
#    x 1.936430 0.000000 0.000000 
#    y 0.000000 1.691370 0.000000 
#    z 0.000000 0.000000 2.013360 
# 
# From -- ./inp_files/19226.got.cif
#   From: 2010.05.17/outbox.cif.g08.bks.cpg/sg50_10_cif.got.tgz:19226.got - 2010.06.03 11:33:33.
