data_PCOD9397620
_publ_section_title
;
Structure prediction by ZEFSAII (Michael W. Deem and Ramdas Pophale) SiO2 
 PCOD9397620
Probable space group: P B A N
;
_chemical_formula_sum "Si O2"
_cell_formula_units_Z 38
_cell_length_a 13.448976
_cell_length_b 15.783421
_cell_length_c 8.198996
_cell_angle_alpha 90.000000
_cell_angle_beta 90.000000
_cell_angle_gamma 90.000000
_cell_volume 1740.407852
_symmetry_space_group_name_H-M "P B A N"
_symmetry_group_IT_number 50
_space_group.IT_coordinate_system_code '2'
_symmetry_cell_setting 'orthorhombic'
loop_
_space_group_symop_operation_xyz
x,y,z
1/2-x,1/2-y,z
x,1/2-y,-z
1/2-x,y,-z
-x,-y,-z
1/2+x,1/2+y,-z
-x,1/2+y,z
1/2+x,-y,z
loop_
_atom_site_type_symbol
_atom_site_label
_atom_site_fract_x
_atom_site_fract_y
_atom_site_fract_z
Si Si1 0.229262 0.609948 0.251987
Si Si2 0.490019 0.915437 0.165032
Si Si3 0.063467 0.153188 0.510205
Si Si4 0.250000 0.750000 0.500000
Si Si5 0.443845 0.609783 0.167517
Si Si6 0.750000 0.965751 0.500000
O O1 0.130059 0.577284 0.167390
O O2 0.197151 0.684724 0.376919
O O3 0.328522 0.638626 0.158175
O O4 0.270051 0.529957 0.353201
O O5 0.520716 0.872299 0.333649
O O6 0.541002 0.007607 0.163978
O O7 0.505710 0.865137 0.995232
O O8 0.095808 0.250000 0.500000
O O9 0.155719 0.091145 0.540519
O O10 0.987284 0.141663 0.660459
#
# Coordination Sequence:
#
# PCOD9397620 Si02
#       6
#     8   8   8   2   8   4
#     4  11  22  41  65  96 135 164 220 265 321 392
#     4  11  24  43  69  96 126 173 221 265 322 384
#     4  12  25  43  67  97 133 168 218 270 322 385
#     4  10  24  36  64 100 122 180 206 260 326 386
#     4  11  24  43  69  96 126 173 221 265 322 384
#     4  11  21  43  69  92 126 174 217 265 329 381
#
# _framework density 21.833962
#
# number of rings (size 3 to 8) (size 9 to 14) (size 15 to 20)
#    0.000    0.842    4.211    4.105    5.895    0.842 
#    0.000    2.105    0.000    2.526    0.000    0.000 
#    0.000    0.000    0.000    0.000    0.000    0.000 
#
# Total GULP energy -212083.485996 kJ/mol
# GULP energy per Si atom -5581.144368 kJ/mol
# Density = 2.178427 g / cm^3
# Si number density = 21.833962 Si / 1000 Ang^3
#
#
#
# Elastic Constant Matrix: (Units=GPa)
#
#
# Indices 1 2 3 4 5 6 
#
# 1 83.4071 9.2434 10.8962 0.0000 0.0000 0.0000
# 2 9.2434 84.3496 11.3041 0.0000 0.0000 0.0000
# 3 10.8962 11.3041 119.5343 0.0000 0.0000 0.0000
# 4 0.0000 0.0000 0.0000 4.8254 0.0000 0.0000
# 5 0.0000 0.0000 0.0000 0.0000 25.0610 0.0000
# 6 0.0000 0.0000 0.0000 0.0000 0.0000 7.9847
#
#
#
# Elastic Compliance Matrix: (Units=1/GPa)
#
#
# Indices 1 2 3 4 5 6 
#
# 1 0.012254 -0.001209 -0.001003 0.000000 0.000000 0.000000
# 2 -0.001209 0.012127 -0.001037 0.000000 0.000000 0.000000
# 3 -0.001003 -0.001037 0.008555 0.000000 0.000000 0.000000
# 4 0.000000 0.000000 0.000000 0.207238 0.000000 0.000000
# 5 0.000000 0.000000 0.000000 0.000000 0.039903 0.000000
# 6 0.000000 0.000000 0.000000 0.000000 0.000000 0.125240
#
#
# Mechanical properties :
#
#
# Convention : Reuss Voigt Hill
#
# Bulk Modulus (GPa) = 37.82073 38.90872 38.36472
# Shear Modulus (GPa) = 11.88705 24.63070 18.25887
#
# Velocity S-wave (km/s) = 2.33583 3.36235 2.89495
# Velocity P-wave (km/s) = 4.96330 5.73871 5.36504
#
# Compressibility (1/GPa) = 0.02644053
#
# Stress axis : x y z
#
# Youngs Moduli (GPa) = 81.60385 82.46215 116.88744
#
# Poissons Ratio (x) = 0.09966 0.11721
# Poissons Ratio (y) = 0.09862 0.12117
# Poissons Ratio (z) = 0.08183 0.08548
#
# Static dielectric constant tensor:
#      x y z
#    x 1.789810 0.000000 0.000000 
#    y 0.000000 1.759560 0.000000 
#    z 0.000000 0.000000 1.930070 
# 
# From -- ./inp_files/12458.got.cif
#   From: 2010.05.17/outbox.cif.g08.bks.cpg/sg50_7_cif.got.tgz:12458.got - 2010.06.03 11:33:33.
