data_PCOD9397580
_publ_section_title
;
Structure prediction by ZEFSAII (Michael W. Deem and Ramdas Pophale) SiO2 
 PCOD9397580
Probable space group: P B A N
;
_chemical_formula_sum "Si O2"
_cell_formula_units_Z 28
_cell_length_a 9.091987
_cell_length_b 25.460626
_cell_length_c 5.190544
_cell_angle_alpha 90.000000
_cell_angle_beta 90.000000
_cell_angle_gamma 90.000000
_cell_volume 1201.546992
_symmetry_space_group_name_H-M "P B A N"
_symmetry_group_IT_number 50
_space_group.IT_coordinate_system_code '2'
_symmetry_cell_setting 'orthorhombic'
loop_
_space_group_symop_operation_xyz
x,y,z
1/2-x,1/2-y,z
x,1/2-y,-z
1/2-x,y,-z
-x,-y,-z
1/2+x,1/2+y,-z
-x,1/2+y,z
1/2+x,-y,z
loop_
_atom_site_type_symbol
_atom_site_label
_atom_site_fract_x
_atom_site_fract_y
_atom_site_fract_z
Si Si1 0.250000 0.012224 0.500000
Si Si2 0.900423 0.141239 0.150109
Si Si3 0.683385 0.808588 0.247770
Si Si4 0.538860 0.072536 0.334353
O O1 0.381318 0.046607 0.385583
O O2 0.338581 0.973217 0.691256
O O3 0.908723 0.108067 0.418531
O O4 0.009068 0.189352 0.217876
O O5 0.750000 0.157141 0.000000
O O6 0.967312 0.104729 0.927700
O O7 0.750000 0.750000 0.250129
O O8 0.750000 0.834758 0.500000
O O9 0.750000 0.835757 0.000000
#
# Coordination Sequence:
#
# PCOD9397580 Si02
#       4
#     4   8   8   8
#     4  10  24  44  62  98 143 185 232 288 332 402
#     4  12  24  43  67 103 137 179 231 284 347 413
#     4  10  23  44  71 102 131 170 226 289 347 426
#     4  11  25  41  66  97 140 184 232 280 342 397
#
# _framework density 23.303293
#
# number of rings (size 3 to 8) (size 9 to 14) (size 15 to 20)
#    0.000    1.143    2.857    1.714    6.000    6.857 
#    0.000    2.857    0.000    6.857    0.000    0.000 
#    0.000    0.000    0.000    0.000    0.000    0.000 
#
# Total GULP energy -156169.155389 kJ/mol
# GULP energy per Si atom -5577.469835 kJ/mol
# Density = 2.325025 g / cm^3
# Si number density = 23.303293 Si / 1000 Ang^3
#
#
#
# Elastic Constant Matrix: (Units=GPa)
#
#
# Indices 1 2 3 4 5 6 
#
# 1 183.8665 55.7391 6.8032 0.0000 0.0000 0.0000
# 2 55.7391 76.5749 12.4143 0.0000 0.0000 0.0000
# 3 6.8032 12.4143 160.6981 0.0000 0.0000 0.0000
# 4 0.0000 0.0000 0.0000 14.5964 0.0000 0.0000
# 5 0.0000 0.0000 0.0000 0.0000 23.9485 0.0000
# 6 0.0000 0.0000 0.0000 0.0000 0.0000 41.5445
#
#
#
# Elastic Compliance Matrix: (Units=1/GPa)
#
#
# Indices 1 2 3 4 5 6 
#
# 1 0.006980 -0.005097 0.000098 0.000000 0.000000 0.000000
# 2 -0.005097 0.016946 -0.001093 0.000000 0.000000 0.000000
# 3 0.000098 -0.001093 0.006303 0.000000 0.000000 0.000000
# 4 0.000000 0.000000 0.000000 0.068510 0.000000 0.000000
# 5 0.000000 0.000000 0.000000 0.000000 0.041756 0.000000
# 6 0.000000 0.000000 0.000000 0.000000 0.000000 0.024071
#
#
# Mechanical properties :
#
#
# Convention : Reuss Voigt Hill
#
# Bulk Modulus (GPa) = 55.41464 63.45031 59.43248
# Shear Modulus (GPa) = 27.35743 39.09674 33.22708
#
# Velocity S-wave (km/s) = 3.43005 4.10046 3.78014
# Velocity P-wave (km/s) = 6.28636 7.05021 6.67922
#
# Compressibility (1/GPa) = 0.01804577
#
# Stress axis : x y z
#
# Youngs Moduli (GPa) = 143.26245 59.00974 158.65071
#
# Poissons Ratio (x) = 0.30076 -0.01558
# Poissons Ratio (y) = 0.73018 0.17346
# Poissons Ratio (z) = -0.01407 0.06452
#
# Static dielectric constant tensor:
#      x y z
#    x 1.960730 0.000000 0.000000 
#    y 0.000000 1.850640 0.000000 
#    z 0.000000 0.000000 1.915340 
# 
# From -- ./inp_files/1061.got.cif
#   From: 2010.05.17/outbox.cif.g08.bks.cpg/sg50_1_cif.got.tgz:1061.got - 2010.06.03 11:33:33.
