data_PCOD9397990
_publ_section_title
;
Structure prediction by ZEFSAII (Michael W. Deem and Ramdas Pophale) SiO2 
 PCOD9397990
Probable space group: P B A N
;
_chemical_formula_sum "Si O2"
_cell_formula_units_Z 64
_cell_length_a 11.689019
_cell_length_b 14.759311
_cell_length_c 17.796751
_cell_angle_alpha 90.000000
_cell_angle_beta 90.000000
_cell_angle_gamma 90.000000
_cell_volume 3070.328704
_symmetry_space_group_name_H-M "P B A N"
_symmetry_group_IT_number 50
_space_group.IT_coordinate_system_code '2'
_symmetry_cell_setting 'orthorhombic'
loop_
_space_group_symop_operation_xyz
x,y,z
1/2-x,1/2-y,z
x,1/2-y,-z
1/2-x,y,-z
-x,-y,-z
1/2+x,1/2+y,-z
-x,1/2+y,z
1/2+x,-y,z
loop_
_atom_site_type_symbol
_atom_site_label
_atom_site_fract_x
_atom_site_fract_y
_atom_site_fract_z
Si Si1 0.499640 0.066776 0.645946
Si Si2 0.623248 0.276677 0.414112
Si Si3 0.529355 0.869465 0.668544
Si Si4 0.149250 0.512925 0.059901
Si Si5 0.842804 0.386140 0.786706
Si Si6 0.403203 0.822577 0.807613
Si Si7 0.998940 0.648981 0.968076
Si Si8 0.762345 0.857937 0.586419
O O1 0.591833 0.117893 0.593310
O O2 0.565735 0.079072 0.725631
O O3 0.380708 0.115496 0.625887
O O4 0.472406 0.961371 0.638834
O O5 0.750000 0.250000 0.387330
O O6 0.613876 0.250000 0.500000
O O7 0.531860 0.217425 0.368249
O O8 0.509214 0.854696 0.756893
O O9 0.658028 0.883438 0.640662
O O10 0.168573 0.544929 0.144400
O O11 0.111128 0.408461 0.056808
O O12 0.250000 0.524736 0.000000
O O13 0.053715 0.584129 0.030966
O O14 0.709201 0.366062 0.768240
O O15 0.888140 0.285773 0.807689
O O16 0.419744 0.848574 0.894476
O O17 0.981632 0.750000 0.000000
O O18 0.750000 0.750000 0.580359
O O19 0.750000 0.893383 0.500000
#
# Coordination Sequence:
#
# PCOD9397990 Si02
#       8
#     8   8   8   8   8   8   8   8
#     4  12  26  44  69 101 139 179 235 286 353 423
#     4  11  24  44  69  98 136 179 228 289 350 417
#     4  12  26  44  68 100 139 179 229 290 346 418
#     4  11  23  42  67 101 137 178 227 280 342 409
#     4  11  22  41  72 100 135 182 232 294 341 410
#     4  11  22  41  71 100 133 180 232 287 351 402
#     4  11  23  41  68 100 138 177 225 279 339 412
#     4  11  24  46  71  95 134 183 227 284 351 418
#
# _framework density 20.844674000000001
#
# number of rings (size 3 to 8) (size 9 to 14) (size 15 to 20)
#    0.000    0.750    5.000    2.250    3.500    2.500 
#    0.000    0.000    2.750    0.000    0.000    0.000 
#    0.000    0.000    0.000    0.000    0.000    0.000 
#
# Total GULP energy -357012.337388 kJ/mol
# GULP energy per Si atom -5578.317772 kJ/mol
# Density = 2.079723 g / cm^3
# Si number density = 20.844674 Si / 1000 Ang^3
#
#
#
# Elastic Constant Matrix: (Units=GPa)
#
#
# Indices 1 2 3 4 5 6 
#
# 1 85.7749 15.7802 38.2502 0.0000 0.0000 0.0000
# 2 15.7802 103.1500 16.0111 0.0000 0.0000 0.0000
# 3 38.2502 16.0111 100.8747 0.0000 0.0000 0.0000
# 4 0.0000 0.0000 0.0000 -17.4750 0.0000 0.0000
# 5 0.0000 0.0000 0.0000 0.0000-8580.0976 0.0000
# 6 0.0000 0.0000 0.0000 0.0000 0.0000 21.5426
#
#
#
# Elastic Compliance Matrix: (Units=1/GPa)
#
#
# Indices 1 2 3 4 5 6 
#
# 1 0.014218 -0.001372 -0.005173 0.000000 0.000000 0.000000
# 2 -0.001372 0.010072 -0.001078 0.000000 0.000000 0.000000
# 3 -0.005173 -0.001078 0.012046 0.000000 0.000000 0.000000
# 4 0.000000 0.000000 0.000000 -0.057225 0.000000 0.000000
# 5 0.000000 0.000000 0.000000 0.000000 -0.000117 0.000000
# 6 0.000000 0.000000 0.000000 0.000000 0.000000 0.046420
#
#
# Mechanical properties :
#
#
# Convention : Reuss Voigt Hill
#
# Bulk Modulus (GPa) = 47.41993 47.76474 47.59233
# Shear Modulus (GPa) = 104.84065 -1700.55546 -797.85741
#
# Velocity S-wave (km/s) = 7.09967 -28.59359 -19.58556
# Velocity P-wave (km/s) = 9.48713 32.66742 22.10379
#
# Compressibility (1/GPa) = 0.02108818
#
# Stress axis : x y z
#
# Youngs Moduli (GPa) = 70.33409 99.28600 83.01416
#
# Poissons Ratio (x) = 0.13623 0.42947
# Poissons Ratio (y) = 0.09650 0.08952
# Poissons Ratio (z) = 0.36387 0.10707
#
# Static dielectric constant tensor:
#      x y z
#    x 1.773640 0.000000 0.000000 
#    y 0.000000 1.762510 0.000000 
#    z 0.000000 0.000000 1.768490 
# 
# From -- ./inp_files/29241.got.cif
#   From: 2010.05.17/outbox.cif.g08.bks.cpg/sg50_15_cif.got.tgz:29241.got - 2010.06.03 11:33:33.
