data_PCOD9397089
_publ_section_title
;
Structure prediction by ZEFSAII (Michael W. Deem and Ramdas Pophale) SiO2 
 PCOD9397089
Probable space group: P B A N
;
_chemical_formula_sum "Si O2"
_cell_formula_units_Z 58
_cell_length_a 14.247521
_cell_length_b 18.969328
_cell_length_c 11.090565
_cell_angle_alpha 90.000000
_cell_angle_beta 90.000000
_cell_angle_gamma 90.000000
_cell_volume 2997.401521
_symmetry_space_group_name_H-M "P B A N"
_symmetry_group_IT_number 50
_space_group.IT_coordinate_system_code '2'
_symmetry_cell_setting 'orthorhombic'
loop_
_space_group_symop_operation_xyz
x,y,z
1/2-x,1/2-y,z
x,1/2-y,-z
1/2-x,y,-z
-x,-y,-z
1/2+x,1/2+y,-z
-x,1/2+y,z
1/2+x,-y,z
loop_
_atom_site_type_symbol
_atom_site_label
_atom_site_fract_x
_atom_site_fract_y
_atom_site_fract_z
Si Si1 0.120767 0.565348 0.234816
Si Si2 0.531267 0.482150 0.633201
Si Si3 0.003675 0.845550 0.213772
Si Si4 0.651528 0.221563 0.762967
Si Si5 0.907943 0.455382 0.036101
Si Si6 0.708430 0.970138 0.245994
Si Si7 0.283749 0.328713 0.859669
Si Si8 0.250000 0.750000 0.000000
O O1 0.128515 0.644155 0.283223
O O2 0.198093 0.511530 0.280068
O O3 0.023255 0.531482 0.271834
O O4 0.135248 0.563705 0.091538
O O5 0.500000 0.500000 0.500000
O O6 0.510574 0.402092 0.676366
O O7 0.636889 0.507379 0.650846
O O8 0.896481 0.834028 0.166975
O O9 0.064781 0.775837 0.243575
O O10 0.059100 0.886466 0.107921
O O11 0.750000 0.250000 0.707758
O O12 0.681672 0.212779 0.904137
O O13 0.838900 0.498459 0.123448
O O14 0.000000 0.500000 0.000000
O O15 0.733551 0.889393 0.218681
O O16 0.250000 0.250000 0.828165
O O17 0.250000 0.339793 0.000000
#
# Coordination Sequence:
#
# PCOD9397089 Si02
#       8
#     8   8   8   8   8   8   8   2
#     4  12  22  38  65  95 123 166 206 255 323 390
#     4  11  26  45  66  89 114 168 228 278 318 363
#     4  11  22  42  61  92 135 167 210 263 312 389
#     4  10  22  36  59  95 131 167 197 246 321 380
#     4  11  19  33  62  94 130 165 200 247 319 385
#     4  11  22  40  64  91 132 160 214 266 313 394
#     4  11  24  37  60  98 138 173 199 252 322 397
#     4   8  20  36  52  96 136 164 190 232 312 402
#
# _framework density 19.350093999999999
#
# number of rings (size 3 to 8) (size 9 to 14) (size 15 to 20)
#    0.414    0.690    4.138    4.552    3.862    2.759 
#    0.000    0.690    0.000    1.655    0.000    0.000 
#    0.000    0.000    0.000    0.000    0.000    0.000 
#
# Total GULP energy -323306.809543 kJ/mol
# GULP energy per Si atom -5574.255337 kJ/mol
# Density = 1.930605 g / cm^3
# Si number density = 19.350094 Si / 1000 Ang^3
#
#
#
# Elastic Constant Matrix: (Units=GPa)
#
#
# Indices 1 2 3 4 5 6 
#
# 1 67.6070 26.3301 -3.4008 0.0000 0.0000 0.0000
# 2 26.3301 140.4367 6.9793 0.0000 0.0000 0.0000
# 3 -3.4008 6.9793 59.9138 0.0000 0.0000 0.0000
# 4 0.0000 0.0000 0.0000 5.3178 0.0000 0.0000
# 5 0.0000 0.0000 0.0000 0.0000 10.3880 0.0000
# 6 0.0000 0.0000 0.0000 0.0000 0.0000 18.9226
#
#
#
# Elastic Compliance Matrix: (Units=1/GPa)
#
#
# Indices 1 2 3 4 5 6 
#
# 1 0.016052 -0.003073 0.001269 0.000000 0.000000 0.000000
# 2 -0.003073 0.007750 -0.001077 0.000000 0.000000 0.000000
# 3 0.001269 -0.001077 0.016888 0.000000 0.000000 0.000000
# 4 0.000000 0.000000 0.000000 0.188046 0.000000 0.000000
# 5 0.000000 0.000000 0.000000 0.000000 0.096265 0.000000
# 6 0.000000 0.000000 0.000000 0.000000 0.000000 0.052847
#
#
# Mechanical properties :
#
#
# Convention : Reuss Voigt Hill
#
# Bulk Modulus (GPa) = 28.62974 36.41943 32.52458
# Shear Modulus (GPa) = 12.65013 22.79561 17.72287
#
# Velocity S-wave (km/s) = 2.55963 3.43601 3.02968
# Velocity P-wave (km/s) = 4.85421 5.88250 5.39292
#
# Compressibility (1/GPa) = 0.03492872
#
# Stress axis : x y z
#
# Youngs Moduli (GPa) = 62.29816 129.02800 59.21304
#
# Poissons Ratio (x) = 0.39645 -0.07514
# Poissons Ratio (y) = 0.19142 0.06379
# Poissons Ratio (z) = -0.07906 0.13899
#
# Static dielectric constant tensor:
#      x y z
#    x 1.629080 0.000000 0.000000 
#    y 0.000000 1.682940 0.000000 
#    z 0.000000 0.000000 1.686170 
# 
# From -- ./inp_files/21303.got.cif
#   From: 2010.05.17/outbox.cif.g08.bks.cpg/sg50_11_cif.got.tgz:21303.got - 2010.06.03 11:33:33.
