data_PCOD9397577
_publ_section_title
;
Structure prediction by ZEFSAII (Michael W. Deem and Ramdas Pophale) SiO2 
 PCOD9397577
Probable space group: P B A N
;
_chemical_formula_sum "Si O2"
_cell_formula_units_Z 40
_cell_length_a 15.267787
_cell_length_b 14.463751
_cell_length_c 7.411156
_cell_angle_alpha 90.000000
_cell_angle_beta 90.000000
_cell_angle_gamma 90.000000
_cell_volume 1636.601648
_symmetry_space_group_name_H-M "P B A N"
_symmetry_group_IT_number 50
_space_group.IT_coordinate_system_code '2'
_symmetry_cell_setting 'orthorhombic'
loop_
_space_group_symop_operation_xyz
x,y,z
1/2-x,1/2-y,z
x,1/2-y,-z
1/2-x,y,-z
-x,-y,-z
1/2+x,1/2+y,-z
-x,1/2+y,z
1/2+x,-y,z
loop_
_atom_site_type_symbol
_atom_site_label
_atom_site_fract_x
_atom_site_fract_y
_atom_site_fract_z
Si Si1 0.742623 0.946863 0.284147
Si Si2 0.611059 0.794421 0.321833
Si Si3 0.970874 0.084186 0.242337
Si Si4 0.430435 0.105063 0.141746
Si Si5 0.770608 0.352376 0.788604
O O1 0.750000 0.933395 0.500000
O O2 0.677461 0.864859 0.227985
O O3 0.829874 0.931184 0.165063
O O4 0.717497 0.055245 0.269717
O O5 0.651098 0.750000 0.500000
O O6 0.529640 0.857954 0.378141
O O7 0.575686 0.709774 0.205660
O O8 0.872377 0.122382 0.243523
O O9 0.975912 0.974104 0.264004
O O10 0.016753 0.101580 0.046259
O O11 0.750000 0.250000 0.713070
O O12 0.750000 0.346945 0.000000
#
# Coordination Sequence:
#
# PCOD9397577 Si02
#       5
#     8   8   8   8   8
#     4  11  24  45  67 104 143 185 227 282 355 432
#     4  12  25  41  72 104 145 185 223 291 353 424
#     4  10  25  45  66 105 129 182 244 288 347 415
#     4  10  23  44  70  95 143 178 236 290 338 419
#     4  10  25  47  75  96 136 185 236 301 346 418
#
# _framework density 24.440888999999999
#
# number of rings (size 3 to 8) (size 9 to 14) (size 15 to 20)
#    0.000    1.400    2.000    1.200   14.000    1.200 
#    7.200    2.000    0.000    0.000    0.000    0.000 
#    0.000    0.000    0.000    0.000    0.000    0.000 
#
# Total GULP energy -223315.337838 kJ/mol
# GULP energy per Si atom -5582.883446 kJ/mol
# Density = 2.438526 g / cm^3
# Si number density = 24.440889 Si / 1000 Ang^3
#
#
#
# Elastic Constant Matrix: (Units=GPa)
#
#
# Indices 1 2 3 4 5 6 
#
# 1 85.1674 60.3185 -2.3085 0.0000 0.0000 0.0000
# 2 60.3185 278.0615 42.9931 0.0000 0.0000 0.0000
# 3 -2.3085 42.9931 68.2297 0.0000 0.0000 0.0000
# 4 0.0000 0.0000 0.0000 42.0893 0.0000 0.0000
# 5 0.0000 0.0000 0.0000 0.0000 10.4745 0.0000
# 6 0.0000 0.0000 0.0000 0.0000 0.0000 3252.5893
#
#
#
# Elastic Compliance Matrix: (Units=1/GPa)
#
#
# Indices 1 2 3 4 5 6 
#
# 1 0.014309 -0.003522 0.002703 0.000000 0.000000 0.000000
# 2 -0.003522 0.004851 -0.003176 0.000000 0.000000 0.000000
# 3 0.002703 -0.003176 0.016749 0.000000 0.000000 0.000000
# 4 0.000000 0.000000 0.000000 0.023759 0.000000 0.000000
# 5 0.000000 0.000000 0.000000 0.000000 0.095470 0.000000
# 6 0.000000 0.000000 0.000000 0.000000 0.000000 0.000307
#
#
# Mechanical properties :
#
#
# Convention : Reuss Voigt Hill
#
# Bulk Modulus (GPa) = 35.81600 70.38498 53.10049
# Shear Modulus (GPa) = 28.94471 683.06099 356.00285
#
# Velocity S-wave (km/s) = 3.44506 16.73563 12.08201
# Velocity P-wave (km/s) = 5.52364 20.05748 14.71076
#
# Compressibility (1/GPa) = 0.02792048
#
# Stress axis : x y z
#
# Youngs Moduli (GPa) = 69.88462 206.12443 59.70423
#
# Poissons Ratio (x) = 0.72598 -0.16141
# Poissons Ratio (y) = 0.24614 0.18963
# Poissons Ratio (z) = -0.18893 0.65469
#
# Static dielectric constant tensor:
#      x y z
#    x 1.985930 0.000000 0.000000 
#    y 0.000000 1.984080 0.000000 
#    z 0.000000 0.000000 2.107100 
# 
# From -- ./inp_files/12547.got.cif
#   From: 2010.05.17/outbox.cif.g08.bks.cpg/sg50_7_cif.got.tgz:12547.got - 2010.06.03 11:33:33.
