data_PCOD9397584
_publ_section_title
;
Structure prediction by ZEFSAII (Michael W. Deem and Ramdas Pophale) SiO2 
 PCOD9397584
Probable space group: P B A N
;
_chemical_formula_sum "Si O2"
_cell_formula_units_Z 32
_cell_length_a 10.941046
_cell_length_b 11.045180
_cell_length_c 12.015774
_cell_angle_alpha 90.000000
_cell_angle_beta 90.000000
_cell_angle_gamma 90.000000
_cell_volume 1452.056092
_symmetry_space_group_name_H-M "P B A N"
_symmetry_group_IT_number 50
_space_group.IT_coordinate_system_code '2'
_symmetry_cell_setting 'orthorhombic'
loop_
_space_group_symop_operation_xyz
x,y,z
1/2-x,1/2-y,z
x,1/2-y,-z
1/2-x,y,-z
-x,-y,-z
1/2+x,1/2+y,-z
-x,1/2+y,z
1/2+x,-y,z
loop_
_atom_site_type_symbol
_atom_site_label
_atom_site_fract_x
_atom_site_fract_y
_atom_site_fract_z
Si Si1 0.427064 0.736276 0.870310
Si Si2 0.244089 0.577579 0.244532
Si Si3 0.435625 0.618661 0.560223
Si Si4 0.360029 0.175017 0.740982
O O1 0.350170 0.827567 0.791044
O O2 0.370398 0.607326 0.834535
O O3 0.568687 0.742665 0.839540
O O4 0.403829 0.750000 0.000000
O O5 0.188569 0.585547 0.370146
O O6 0.302002 0.449553 0.221483
O O7 0.415844 0.750000 0.500000
O O8 0.500000 0.500000 0.500000
O O9 0.537514 0.651042 0.650784
O O10 0.250000 0.250000 0.690727
#
# Coordination Sequence:
#
# PCOD9397584 Si02
#       4
#     8   8   8   8
#     4  10  24  47  71  99 137 183 234 289 362 422
#     4  10  23  44  73  97 140 184 225 293 349 423
#     4  11  26  45  72 104 140 191 237 286 359 428
#     4  11  26  45  68 101 143 176 236 295 348 424
#
# _framework density 22.037717000000001
#
# number of rings (size 3 to 8) (size 9 to 14) (size 15 to 20)
#    0.000    1.500    0.000    3.000   17.500    5.000 
#    9.000    0.000    0.000    0.000    0.000    0.000 
#    0.000    0.000    0.000    0.000    0.000    0.000 
#
# Total GULP energy -178447.675862 kJ/mol
# GULP energy per Si atom -5576.489871 kJ/mol
# Density = 2.198756 g / cm^3
# Si number density = 22.037717 Si / 1000 Ang^3
#
#
#
# Elastic Constant Matrix: (Units=GPa)
#
#
# Indices 1 2 3 4 5 6 
#
# 1 112.9449 39.7796 37.6685 0.0000 0.0000 0.0000
# 2 39.7796 91.5966 34.2233 0.0000 0.0000 0.0000
# 3 37.6685 34.2233 112.8673 0.0000 0.0000 0.0000
# 4 0.0000 0.0000 0.0000 18.2385 0.0000 0.0000
# 5 0.0000 0.0000 0.0000 0.0000 13.9616 0.0000
# 6 0.0000 0.0000 0.0000 0.0000 0.0000 31.1130
#
#
#
# Elastic Compliance Matrix: (Units=1/GPa)
#
#
# Indices 1 2 3 4 5 6 
#
# 1 0.011053 -0.003859 -0.002519 0.000000 0.000000 0.000000
# 2 -0.003859 0.013660 -0.002854 0.000000 0.000000 0.000000
# 3 -0.002519 -0.002854 0.010566 0.000000 0.000000 0.000000
# 4 0.000000 0.000000 0.000000 0.054829 0.000000 0.000000
# 5 0.000000 0.000000 0.000000 0.000000 0.071625 0.000000
# 6 0.000000 0.000000 0.000000 0.000000 0.000000 0.032141
#
#
# Mechanical properties :
#
#
# Convention : Reuss Voigt Hill
#
# Bulk Modulus (GPa) = 59.47010 60.08349 59.77680
# Shear Modulus (GPa) = 22.94182 26.37844 24.66013
#
# Velocity S-wave (km/s) = 3.22999 3.46348 3.34877
# Velocity P-wave (km/s) = 6.39958 6.58159 6.49122
#
# Compressibility (1/GPa) = 0.01681517
#
# Stress axis : x y z
#
# Youngs Moduli (GPa) = 90.47219 73.20776 94.64403
#
# Poissons Ratio (x) = 0.28252 0.23838
# Poissons Ratio (y) = 0.34915 0.27010
# Poissons Ratio (z) = 0.22787 0.20893
#
# Static dielectric constant tensor:
#      x y z
#    x 1.894290 0.000000 0.000000 
#    y 0.000000 1.949410 0.000000 
#    z 0.000000 0.000000 1.857380 
# 
# From -- ./inp_files/19755.got.cif
#   From: 2010.05.17/outbox.cif.g08.bks.cpg/sg50_10_cif.got.tgz:19755.got - 2010.06.03 11:33:33.
