data_PCOD9397121
_publ_section_title
;
Structure prediction by ZEFSAII (Michael W. Deem and Ramdas Pophale) SiO2 
 PCOD9397121
Probable space group: P B A N
;
_chemical_formula_sum "Si O2"
_cell_formula_units_Z 38
_cell_length_a 4.835938
_cell_length_b 11.719646
_cell_length_c 26.613299
_cell_angle_alpha 90.000000
_cell_angle_beta 90.000000
_cell_angle_gamma 90.000000
_cell_volume 1508.321533
_symmetry_space_group_name_H-M "P B A N"
_symmetry_group_IT_number 50
_space_group.IT_coordinate_system_code '2'
_symmetry_cell_setting 'orthorhombic'
loop_
_space_group_symop_operation_xyz
x,y,z
1/2-x,1/2-y,z
x,1/2-y,-z
1/2-x,y,-z
-x,-y,-z
1/2+x,1/2+y,-z
-x,1/2+y,z
1/2+x,-y,z
loop_
_atom_site_type_symbol
_atom_site_label
_atom_site_fract_x
_atom_site_fract_y
_atom_site_fract_z
Si Si1 0.250000 0.250000 0.740932
Si Si2 0.060429 0.579016 0.811824
Si Si3 0.774179 0.578328 0.555390
Si Si4 0.046347 0.422249 0.073150
Si Si5 0.459886 0.419436 0.341626
Si Si6 0.250000 0.750000 0.000000
O O1 0.456648 0.323513 0.775130
O O2 0.095045 0.336147 0.703782
O O3 0.370072 0.534219 0.804703
O O4 0.008360 0.615385 0.869481
O O5 0.750000 0.629625 0.500000
O O6 0.591771 0.460892 0.556682
O O7 0.642670 0.633897 0.605101
O O8 0.859159 0.536389 0.066434
O O9 0.940684 0.328467 0.035146
O O10 0.768627 0.467081 0.338252
#
# Coordination Sequence:
#
# PCOD9397121 Si02
#       6
#     4   8   8   8   8   2
#     4  12  24  40  67  91 118 166 210 254 314 366
#     4  10  24  44  64  90 125 162 205 252 298 359
#     4   8  14  28  51  76 109 154 195 240 305 370
#     4  10  24  44  65  96 133 166 206 254 302 362
#     4  10  22  38  57  88 123 155 203 261 311 367
#     4  12  24  42  76 104 132 170 208 254 318 372
#
# _framework density 25.193565
#
# number of rings (size 3 to 8) (size 9 to 14) (size 15 to 20)
#    0.000    2.105    0.000    1.895    0.000   10.105 
#    0.000    0.526    0.000    0.000    0.000   14.737 
#    0.000    0.000    0.000    0.000    0.000    0.000 
#
# Total GULP energy -212815.843135 kJ/mol
# GULP energy per Si atom -5600.416925 kJ/mol
# Density = 2.513622 g / cm^3
# Si number density = 25.193565 Si / 1000 Ang^3
#
#
#
# Elastic Constant Matrix: (Units=GPa)
#
#
# Indices 1 2 3 4 5 6 
#
# 1 69.4470 -8.0988 12.2459 0.0000 0.0000 0.0000
# 2 -8.0988 66.7005 75.6605 0.0000 0.0000 0.0000
# 3 12.2459 75.6605 217.8187 0.0000 0.0000 0.0000
# 4 0.0000 0.0000 0.0000 -470.1509 0.0000 0.0000
# 5 0.0000 0.0000 0.0000 0.0000 35.4751 0.0000
# 6 0.0000 0.0000 0.0000 0.0000 0.0000 6.4631
#
#
#
# Elastic Compliance Matrix: (Units=1/GPa)
#
#
# Indices 1 2 3 4 5 6 
#
# 1 0.015389 0.004703 -0.002499 0.000000 0.000000 0.000000
# 2 0.004703 0.026178 -0.009357 0.000000 0.000000 0.000000
# 3 -0.002499 -0.009357 0.007982 0.000000 0.000000 0.000000
# 4 0.000000 0.000000 0.000000 -0.002127 0.000000 0.000000
# 5 0.000000 0.000000 0.000000 0.000000 0.028189 0.000000
# 6 0.000000 0.000000 0.000000 0.000000 0.000000 0.154723
#
#
# Mechanical properties :
#
#
# Convention : Reuss Voigt Hill
#
# Bulk Modulus (GPa) = 28.37557 57.06461 42.72009
# Shear Modulus (GPa) = 19.50176 -67.36530 -23.93177
#
# Velocity S-wave (km/s) = 2.78524 -5.17660 -3.08541
# Velocity P-wave (km/s) = 4.65090 3.60969 2.07377
#
# Compressibility (1/GPa) = 0.03524158
#
# Stress axis : x y z
#
# Youngs Moduli (GPa) = 64.98355 38.20029 125.28516
#
# Poissons Ratio (x) = -0.17965 0.31305
# Poissons Ratio (y) = -0.30561 1.17234
# Poissons Ratio (z) = 0.16237 0.35746
#
# Static dielectric constant tensor:
#      x y z
#    x 1.911070 0.000000 0.000000 
#    y 0.000000 1.959320 0.000000 
#    z 0.000000 0.000000 2.033040 
# 
# From -- ./inp_files/31957.got.cif
#   From: 2010.05.17/outbox.cif.g08.bks.cpg/sg50_16_cif.got.tgz:31957.got - 2010.06.03 11:33:33.
