data_PCOD9397505
_publ_section_title
;
Structure prediction by ZEFSAII (Michael W. Deem and Ramdas Pophale) SiO2 
 PCOD9397505
Probable space group: P B A N
;
_chemical_formula_sum "Si O2"
_cell_formula_units_Z 60
_cell_length_a 8.341021
_cell_length_b 24.874002
_cell_length_c 11.936397
_cell_angle_alpha 90.000000
_cell_angle_beta 90.000000
_cell_angle_gamma 90.000000
_cell_volume 2476.498871
_symmetry_space_group_name_H-M "P B A N"
_symmetry_group_IT_number 50
_space_group.IT_coordinate_system_code '2'
_symmetry_cell_setting 'orthorhombic'
loop_
_space_group_symop_operation_xyz
x,y,z
1/2-x,1/2-y,z
x,1/2-y,-z
1/2-x,y,-z
-x,-y,-z
1/2+x,1/2+y,-z
-x,1/2+y,z
1/2+x,-y,z
loop_
_atom_site_type_symbol
_atom_site_label
_atom_site_fract_x
_atom_site_fract_y
_atom_site_fract_z
Si Si1 0.717401 0.195528 0.692902
Si Si2 0.100143 0.827380 0.082867
Si Si3 0.750000 0.390943 0.500000
Si Si4 0.364835 0.145730 0.915403
Si Si5 0.658245 0.805612 0.307191
Si Si6 0.902462 0.916087 0.565925
Si Si7 0.352731 0.550121 0.113563
Si Si8 0.968473 0.451389 0.796807
O O1 0.750000 0.250000 0.626938
O O2 0.837171 0.195347 0.799151
O O3 0.743804 0.145743 0.611681
O O4 0.529958 0.200115 0.723762
O O5 0.075762 0.890648 0.108594
O O6 0.250000 0.820943 0.000000
O O7 0.953369 0.813166 0.999901
O O8 0.572925 0.417604 0.498834
O O9 0.272849 0.172188 0.810607
O O10 0.487669 0.103079 0.863304
O O11 0.250000 0.114236 0.000000
O O12 0.750000 0.750000 0.338479
O O13 0.649292 0.854557 0.396671
O O14 0.750000 0.938265 0.500000
O O15 0.938741 0.946656 0.680949
O O16 0.476173 0.503295 0.135912
O O17 0.221722 0.548172 0.212815
O O18 0.250000 0.542380 0.000000
#
# Coordination Sequence:
#
# PCOD9397505 Si02
#       8
#     8   8   4   8   8   8   8   8
#     4  11  24  41  68  95 129 171 228 277 327 407
#     4  11  21  42  63  91 132 179 213 265 334 389
#     4  10  23  46  72  98 126 180 234 282 338 399
#     4  11  23  38  60  91 136 175 217 267 330 406
#     4  10  23  42  60  95 131 169 219 275 338 394
#     4  10  24  47  73  94 133 176 228 287 347 401
#     4  11  21  38  68  96 134 174 219 270 333 403
#     4  11  23  42  63 102 130 172 225 281 331 410
#
# _framework density 24.227751999999999
#
# number of rings (size 3 to 8) (size 9 to 14) (size 15 to 20)
#    0.000    1.333    4.000    2.600    5.600    1.867 
#    2.400    0.667    1.467    0.000    0.000    0.000 
#    0.000    0.000    0.000    0.000    0.000    0.000 
#
# Total GULP energy -335071.616124 kJ/mol
# GULP energy per Si atom -5584.526935 kJ/mol
# Density = 2.417261 g / cm^3
# Si number density = 24.227752 Si / 1000 Ang^3
#
#
#
# Elastic Constant Matrix: (Units=GPa)
#
#
# Indices 1 2 3 4 5 6 
#
# 1 92.5322 6.8618 45.6394 0.0000 0.0000 0.0000
# 2 6.8618 73.6786 10.0476 0.0000 0.0000 0.0000
# 3 45.6394 10.0476 100.7288 0.0000 0.0000 0.0000
# 4 0.0000 0.0000 0.0000 -36.6410 0.0000 0.0000
# 5 0.0000 0.0000 0.0000 0.0000 35.0860 0.0000
# 6 0.0000 0.0000 0.0000 0.0000 0.0000 27.2816
#
#
#
# Elastic Compliance Matrix: (Units=1/GPa)
#
#
# Indices 1 2 3 4 5 6 
#
# 1 0.013931 -0.000443 -0.006268 0.000000 0.000000 0.000000
# 2 -0.000443 0.013774 -0.001173 0.000000 0.000000 0.000000
# 3 -0.006268 -0.001173 0.012885 0.000000 0.000000 0.000000
# 4 0.000000 0.000000 0.000000 -0.027292 0.000000 0.000000
# 5 0.000000 0.000000 0.000000 0.000000 0.028501 0.000000
# 6 0.000000 0.000000 0.000000 0.000000 0.000000 0.036655
#
#
# Mechanical properties :
#
#
# Convention : Reuss Voigt Hill
#
# Bulk Modulus (GPa) = 40.28735 43.55967 41.92351
# Shear Modulus (GPa) = 48.78230 18.77138 33.77684
#
# Velocity S-wave (km/s) = 4.49206 2.78652 3.73787
# Velocity P-wave (km/s) = 6.60072 5.32646 5.99753
#
# Compressibility (1/GPa) = 0.02482169
#
# Stress axis : x y z
#
# Youngs Moduli (GPa) = 71.78000 72.60211 77.61143
#
# Poissons Ratio (x) = 0.03214 0.48647
# Poissons Ratio (y) = 0.03178 0.09106
# Poissons Ratio (z) = 0.44992 0.08519
#
# Static dielectric constant tensor:
#      x y z
#    x 2.016430 0.000000 0.000000 
#    y 0.000000 1.950200 0.000000 
#    z 0.000000 0.000000 1.983650 
# 
# From -- ./inp_files/19421.got.cif
#   From: 2010.05.17/outbox.cif.g08.bks.cpg/sg50_10_cif.got.tgz:19421.got - 2010.06.03 11:33:33.
