data_PCOD9397058
_publ_section_title
;
Structure prediction by ZEFSAII (Michael W. Deem and Ramdas Pophale) SiO2 
 PCOD9397058
Probable space group: P B A N
;
_chemical_formula_sum "Si O2"
_cell_formula_units_Z 28
_cell_length_a 5.421876
_cell_length_b 12.500087
_cell_length_c 17.394202
_cell_angle_alpha 90.000000
_cell_angle_beta 90.000000
_cell_angle_gamma 90.000000
_cell_volume 1178.873284
_symmetry_space_group_name_H-M "P B A N"
_symmetry_group_IT_number 50
_space_group.IT_coordinate_system_code '2'
_symmetry_cell_setting 'orthorhombic'
loop_
_space_group_symop_operation_xyz
x,y,z
1/2-x,1/2-y,z
x,1/2-y,-z
1/2-x,y,-z
-x,-y,-z
1/2+x,1/2+y,-z
-x,1/2+y,z
1/2+x,-y,z
loop_
_atom_site_type_symbol
_atom_site_label
_atom_site_fract_x
_atom_site_fract_y
_atom_site_fract_z
Si Si1 0.750000 0.750000 0.198176
Si Si2 0.997843 0.062585 0.711254
Si Si3 0.723444 0.938424 0.091038
Si Si4 0.497230 0.703877 0.412902
O O1 0.937434 0.824771 0.247085
O O2 0.637668 0.836811 0.140037
O O3 0.000160 0.083295 0.617869
O O4 0.231466 0.986593 0.729293
O O5 0.504122 0.023128 0.108068
O O6 0.750000 0.915941 0.000000
O O7 0.750000 0.750000 0.382954
O O8 0.492654 0.750000 0.500000
O O9 0.250000 0.750000 0.377282
#
# Coordination Sequence:
#
# PCOD9397058 Si02
#       4
#     4   8   8   8
#     4  12  25  44  71  96 146 180 224 278 347 400
#     4  12  27  44  69 102 137 180 227 278 344 416
#     4  10  23  44  69 101 135 176 233 281 332 402
#     4  10  21  44  71  93 132 176 225 283 341 404
#
# _framework density 23.751491000000001
#
# number of rings (size 3 to 8) (size 9 to 14) (size 15 to 20)
#    0.000    1.143    1.429    3.857    0.000    3.429 
#    0.000   21.429    0.000    0.000    0.000    0.000 
#    0.000    0.000    0.000    0.000    0.000    0.000 
#
# Total GULP energy -155875.912551 kJ/mol
# GULP energy per Si atom -5566.996877 kJ/mol
# Density = 2.369743 g / cm^3
# Si number density = 23.751491 Si / 1000 Ang^3
#
#
#
# Elastic Constant Matrix: (Units=GPa)
#
#
# Indices 1 2 3 4 5 6 
#
# 1 188.0876 40.0839 35.6461 0.0000 0.0000 0.0000
# 2 40.0839 97.6146 57.3963 0.0000 0.0000 0.0000
# 3 35.6461 57.3963 122.0285 0.0000 0.0000 0.0000
# 4 0.0000 0.0000 0.0000 47.1383 0.0000 0.0000
# 5 0.0000 0.0000 0.0000 0.0000 30.7613 0.0000
# 6 0.0000 0.0000 0.0000 0.0000 0.0000 32.2580
#
#
#
# Elastic Compliance Matrix: (Units=1/GPa)
#
#
# Indices 1 2 3 4 5 6 
#
# 1 0.005883 -0.001943 -0.000805 0.000000 0.000000 0.000000
# 2 -0.001943 0.014802 -0.006395 0.000000 0.000000 0.000000
# 3 -0.000805 -0.006395 0.011438 0.000000 0.000000 0.000000
# 4 0.000000 0.000000 0.000000 0.021214 0.000000 0.000000
# 5 0.000000 0.000000 0.000000 0.000000 0.032508 0.000000
# 6 0.000000 0.000000 0.000000 0.000000 0.000000 0.031000
#
#
# Mechanical properties :
#
#
# Convention : Reuss Voigt Hill
#
# Bulk Modulus (GPa) = 72.26155 74.88702 73.57429
# Shear Modulus (GPa) = 35.78002 40.33849 38.05926
#
# Velocity S-wave (km/s) = 3.88549 4.12558 4.00733
# Velocity P-wave (km/s) = 7.11473 7.36829 7.24262
#
# Compressibility (1/GPa) = 0.01383862
#
# Stress axis : x y z
#
# Youngs Moduli (GPa) = 169.97557 67.55802 87.43033
#
# Poissons Ratio (x) = 0.13124 0.07037
# Poissons Ratio (y) = 0.33019 0.55909
# Poissons Ratio (z) = 0.13681 0.43201
#
# Static dielectric constant tensor:
#      x y z
#    x 1.858530 0.000000 0.000000 
#    y 0.000000 1.945060 0.000000 
#    z 0.000000 0.000000 1.194770 
# 
# From -- ./inp_files/30127.got.cif
#   From: 2010.05.17/outbox.cif.g08.bks.cpg/sg50_16_cif.got.tgz:30127.got - 2010.06.03 11:33:33.
