data_PCOD9397913
_publ_section_title
;
Structure prediction by ZEFSAII (Michael W. Deem and Ramdas Pophale) SiO2 
 PCOD9397913
Probable space group: P B A N
;
_chemical_formula_sum "Si O2"
_cell_formula_units_Z 58
_cell_length_a 15.118122
_cell_length_b 9.667383
_cell_length_c 17.853241
_cell_angle_alpha 90.000000
_cell_angle_beta 90.000000
_cell_angle_gamma 90.000000
_cell_volume 2609.298941
_symmetry_space_group_name_H-M "P B A N"
_symmetry_group_IT_number 50
_space_group.IT_coordinate_system_code '2'
_symmetry_cell_setting 'orthorhombic'
loop_
_space_group_symop_operation_xyz
x,y,z
1/2-x,1/2-y,z
x,1/2-y,-z
1/2-x,y,-z
-x,-y,-z
1/2+x,1/2+y,-z
-x,1/2+y,z
1/2+x,-y,z
loop_
_atom_site_type_symbol
_atom_site_label
_atom_site_fract_x
_atom_site_fract_y
_atom_site_fract_z
Si Si1 0.888456 0.218339 0.243374
Si Si2 0.642810 0.910976 0.508362
Si Si3 0.361827 0.954299 0.643155
Si Si4 0.587457 0.816748 0.259087
Si Si5 0.902789 0.610865 0.094665
Si Si6 0.415975 0.788147 0.919816
Si Si7 0.750000 0.750000 0.000000
Si Si8 0.663649 0.951508 0.673388
O O1 0.854989 0.309166 0.313813
O O2 0.863482 0.250675 0.157168
O O3 0.868152 0.061447 0.265407
O O4 0.992588 0.248579 0.243571
O O5 0.612056 0.750000 0.500000
O O6 0.750000 0.904284 0.500000
O O7 0.615954 0.020107 0.443750
O O8 0.619730 0.963379 0.591219
O O9 0.266476 0.022120 0.658564
O O10 0.428023 0.051781 0.688550
O O11 0.624583 0.870150 0.181066
O O12 0.645811 0.701714 0.298121
O O13 0.929662 0.452729 0.081340
O O14 0.989783 0.706053 0.081469
O O15 0.818110 0.656401 0.047128
O O16 0.373373 0.750000 0.000000
#
# Coordination Sequence:
#
# PCOD9397913 Si02
#       8
#     8   8   8   8   8   8   2   8
#     4  11  25  41  62  98 134 167 215 269 337 396
#     4   9  18  36  63  93 124 170 223 268 326 397
#     4  11  21  42  65  92 130 169 223 273 323 394
#     4  11  23  41  65  93 130 175 214 263 319 401
#     4  11  26  45  72 101 135 179 226 273 337 395
#     4  11  24  47  74  94 132 187 223 261 334 421
#     4  12  28  44  70 108 140 156 238 292 328 384
#     4  11  23  39  68  96 126 175 221 274 328 389
#
# _framework density 22.228192
#
# number of rings (size 3 to 8) (size 9 to 14) (size 15 to 20)
#    0.000    1.241    3.448    2.069    7.724    0.552 
#    0.000    6.552    0.000    0.000    0.000    0.000 
#    0.000    0.000    0.000    0.000    0.000    0.000 
#
# Total GULP energy -323809.422862 kJ/mol
# GULP energy per Si atom -5582.921084 kJ/mol
# Density = 2.217760 g / cm^3
# Si number density = 22.228192 Si / 1000 Ang^3
#
#
#
# Elastic Constant Matrix: (Units=GPa)
#
#
# Indices 1 2 3 4 5 6 
#
# 1 42.4760 17.0471 14.0772 0.0000 0.0000 0.0000
# 2 17.0471 119.2264 50.9866 0.0000 0.0000 0.0000
# 3 14.0772 50.9866 170.1938 0.0000 0.0000 0.0000
# 4 0.0000 0.0000 0.0000 54.0366 0.0000 0.0000
# 5 0.0000 0.0000 0.0000 0.0000 25.7577 0.0000
# 6 0.0000 0.0000 0.0000 0.0000 0.0000 25.8136
#
#
#
# Elastic Compliance Matrix: (Units=1/GPa)
#
#
# Indices 1 2 3 4 5 6 
#
# 1 0.025171 -0.003107 -0.001151 0.000000 0.000000 0.000000
# 2 -0.003107 0.010003 -0.002740 0.000000 0.000000 0.000000
# 3 -0.001151 -0.002740 0.006792 0.000000 0.000000 0.000000
# 4 0.000000 0.000000 0.000000 0.018506 0.000000 0.000000
# 5 0.000000 0.000000 0.000000 0.000000 0.038823 0.000000
# 6 0.000000 0.000000 0.000000 0.000000 0.000000 0.038739
#
#
# Mechanical properties :
#
#
# Convention : Reuss Voigt Hill
#
# Bulk Modulus (GPa) = 35.75196 55.12423 45.43809
# Shear Modulus (GPa) = 30.98787 37.77394 34.38091
#
# Velocity S-wave (km/s) = 3.73779 4.12681 3.93711
# Velocity P-wave (km/s) = 5.89466 6.89642 6.41512
#
# Compressibility (1/GPa) = 0.02797050
#
# Stress axis : x y z
#
# Youngs Moduli (GPa) = 39.72819 99.96737 147.23911
#
# Poissons Ratio (x) = 0.31056 0.16951
# Poissons Ratio (y) = 0.12342 0.40341
# Poissons Ratio (z) = 0.04574 0.27389
#
# Static dielectric constant tensor:
#      x y z
#    x 1.855310 0.000000 0.000000 
#    y 0.000000 1.770530 0.000000 
#    z 0.000000 0.000000 1.920140 
# 
# From -- ./inp_files/29714.got.cif
#   From: 2010.05.17/outbox.cif.g08.bks.cpg/sg50_15_cif.got.tgz:29714.got - 2010.06.03 11:33:33.
