data_PCOD9397405
_publ_section_title
;
Structure prediction by ZEFSAII (Michael W. Deem and Ramdas Pophale) SiO2 
 PCOD9397405
Probable space group: P B A N
;
_chemical_formula_sum "Si O2"
_cell_formula_units_Z 48
_cell_length_a 26.362250
_cell_length_b 9.469804
_cell_length_c 6.803611
_cell_angle_alpha 90.000000
_cell_angle_beta 90.000000
_cell_angle_gamma 90.000000
_cell_volume 1698.489785
_symmetry_space_group_name_H-M "P B A N"
_symmetry_group_IT_number 50
_space_group.IT_coordinate_system_code '2'
_symmetry_cell_setting 'orthorhombic'
loop_
_space_group_symop_operation_xyz
x,y,z
1/2-x,1/2-y,z
x,1/2-y,-z
1/2-x,y,-z
-x,-y,-z
1/2+x,1/2+y,-z
-x,1/2+y,z
1/2+x,-y,z
loop_
_atom_site_type_symbol
_atom_site_label
_atom_site_fract_x
_atom_site_fract_y
_atom_site_fract_z
Si Si1 0.713436 0.898084 0.132631
Si Si2 0.940439 0.242948 0.761128
Si Si3 0.673575 0.297441 0.771241
Si Si4 0.971595 0.953327 0.198505
Si Si5 0.379090 0.211389 0.293053
Si Si6 0.791795 0.501935 0.659830
O O1 0.750000 0.750000 0.183317
O O2 0.658582 0.823498 0.186548
O O3 0.702849 0.054359 0.234814
O O4 0.783594 0.955775 0.104263
O O5 0.985728 0.141089 0.699535
O O6 0.884686 0.188634 0.707643
O O7 0.939948 0.250000 0.000000
O O8 0.000000 0.000000 0.000000
O O9 0.548759 0.095889 0.702917
O O10 0.673859 0.250000 0.000000
O O11 0.922318 0.857649 0.160531
O O12 0.802011 0.163606 0.338425
O O13 0.405559 0.250000 0.500000
O O14 0.342345 0.088122 0.373910
O O15 0.750000 0.555295 0.500000
#
# Coordination Sequence:
#
# PCOD9397405 Si02
#       6
#     8   8   8   8   8   8
#     4  12  27  45  73 115 157 205 269 321 386 471
#     4   9  20  40  69 105 142 185 244 324 392 455
#     4  11  23  45  73 110 154 198 260 327 384 463
#     4  10  22  45  75 109 146 195 260 334 400 473
#     4  12  27  51  75 109 159 211 264 332 407 485
#     4  12  25  48  74 106 159 213 263 314 394 472
#
# _framework density 28.260401000000002
#
# number of rings (size 3 to 8) (size 9 to 14) (size 15 to 20)
#    0.000    1.000    5.000    1.000    2.333    2.667 
#    9.000    0.833    3.667    0.000    0.000    0.000 
#    0.000    0.000    0.000    0.000    0.000    0.000 
#
# Total GULP energy -267560.176751 kJ/mol
# GULP energy per Si atom -5574.170349 kJ/mol
# Density = 2.819608 g / cm^3
# Si number density = 28.260401 Si / 1000 Ang^3
#
#
#
# Elastic Constant Matrix: (Units=GPa)
#
#
# Indices 1 2 3 4 5 6 
#
# 1 200.9968 81.7345 63.7173 0.0000 0.0000 0.0000
# 2 81.7345 216.3010 53.0517 0.0000 0.0000 0.0000
# 3 63.7173 53.0517 121.7250 0.0000 0.0000 0.0000
# 4 0.0000 0.0000 0.0000 34.4618 0.0000 0.0000
# 5 0.0000 0.0000 0.0000 0.0000 13.2732 0.0000
# 6 0.0000 0.0000 0.0000 0.0000 0.0000 255.4859
#
#
#
# Elastic Compliance Matrix: (Units=1/GPa)
#
#
# Indices 1 2 3 4 5 6 
#
# 1 0.006554 -0.001831 -0.002633 0.000000 0.000000 0.000000
# 2 -0.001831 0.005688 -0.001521 0.000000 0.000000 0.000000
# 3 -0.002633 -0.001521 0.010256 0.000000 0.000000 0.000000
# 4 0.000000 0.000000 0.000000 0.029018 0.000000 0.000000
# 5 0.000000 0.000000 0.000000 0.000000 0.075340 0.000000
# 6 0.000000 0.000000 0.000000 0.000000 0.000000 0.003914
#
#
# Mechanical properties :
#
#
# Convention : Reuss Voigt Hill
#
# Bulk Modulus (GPa) = 94.97019 104.00329 99.48674
# Shear Modulus (GPa) = 34.18822 83.34545 58.76683
#
# Velocity S-wave (km/s) = 3.48193 5.43654 4.56507
# Velocity P-wave (km/s) = 7.05999 8.73439 7.94145
#
# Compressibility (1/GPa) = 0.01052962
#
# Stress axis : x y z
#
# Youngs Moduli (GPa) = 152.56892 175.80822 97.50221
#
# Poissons Ratio (x) = 0.32190 0.25672
# Poissons Ratio (y) = 0.27935 0.14826
# Poissons Ratio (z) = 0.40170 0.26733
#
# Static dielectric constant tensor:
#      x y z
#    x 2.318840 0.000000 0.000000 
#    y 0.000000 2.494530 0.000000 
#    z 0.000000 0.000000 2.625490 
# 
# From -- ./inp_files/22762.got.cif
#   From: 2010.05.17/outbox.cif.g08.bks.cpg/sg50_12_cif.got.tgz:22762.got - 2010.06.03 11:33:33.
