data_PCOD9397867
_publ_section_title
;
Structure prediction by ZEFSAII (Michael W. Deem and Ramdas Pophale) SiO2 
 PCOD9397867
Probable space group: P B A N
;
_chemical_formula_sum "Si O2"
_cell_formula_units_Z 48
_cell_length_a 13.473164
_cell_length_b 14.626483
_cell_length_c 12.224474
_cell_angle_alpha 90.000000
_cell_angle_beta 90.000000
_cell_angle_gamma 90.000000
_cell_volume 2409.016020
_symmetry_space_group_name_H-M "P B A N"
_symmetry_group_IT_number 50
_space_group.IT_coordinate_system_code '2'
_symmetry_cell_setting 'orthorhombic'
loop_
_space_group_symop_operation_xyz
x,y,z
1/2-x,1/2-y,z
x,1/2-y,-z
1/2-x,y,-z
-x,-y,-z
1/2+x,1/2+y,-z
-x,1/2+y,z
1/2+x,-y,z
loop_
_atom_site_type_symbol
_atom_site_label
_atom_site_fract_x
_atom_site_fract_y
_atom_site_fract_z
Si Si1 0.585856 0.244779 0.368350
Si Si2 0.633881 0.860358 0.504335
Si Si3 0.753962 0.640779 0.125078
Si Si4 0.448473 0.387829 0.272190
Si Si5 0.242794 0.604071 0.628555
Si Si6 0.114210 0.038415 0.723623
O O1 0.564431 0.250000 0.500000
O O2 0.502388 0.288352 0.289895
O O3 0.675836 0.316470 0.355209
O O4 0.635353 0.146433 0.344275
O O5 0.629437 0.750000 0.500000
O O6 0.750000 0.880326 0.500000
O O7 0.586383 0.904390 0.397155
O O8 0.589700 0.903071 0.614668
O O9 0.750000 0.750000 0.126223
O O10 0.855158 0.615623 0.190887
O O11 0.654984 0.604932 0.184267
O O12 0.750000 0.607872 0.000000
O O13 0.527953 0.467052 0.245856
O O14 0.250000 0.583289 0.500000
O O15 0.287210 0.520994 0.695198
#
# Coordination Sequence:
#
# PCOD9397867 Si02
#       6
#     8   8   8   8   8   8
#     4   8  15  30  52  88 133 165 196 232 297 382
#     4  11  21  36  58  91 136 172 203 245 305 376
#     4  11  26  49  67  84 119 165 216 268 316 369
#     4  11  22  38  65  96 123 166 210 252 316 378
#     4   8  15  29  53  88 132 168 189 236 303 368
#     4  11  22  39  64  95 127 161 208 262 310 375
#
# _framework density 19.925148
#
# number of rings (size 3 to 8) (size 9 to 14) (size 15 to 20)
#    0.000    2.000    1.667    3.500    0.000    0.667 
#    9.000    0.000    0.000    0.000    0.000    0.000 
#    0.000    0.000    0.000    0.000    0.000    0.000 
#
# Total GULP energy -267840.107520 kJ/mol
# GULP energy per Si atom -5580.002240 kJ/mol
# Density = 1.987980 g / cm^3
# Si number density = 19.925148 Si / 1000 Ang^3
#
#
#
# Elastic Constant Matrix: (Units=GPa)
#
#
# Indices 1 2 3 4 5 6 
#
# 1 115.5875 31.2228 44.1128 0.0000 0.0000 0.0000
# 2 31.2228 82.3848 26.6901 0.0000 0.0000 0.0000
# 3 44.1128 26.6901 111.4222 0.0000 0.0000 0.0000
# 4 0.0000 0.0000 0.0000 2.6777 0.0000 0.0000
# 5 0.0000 0.0000 0.0000 0.0000 -29.2665 0.0000
# 6 0.0000 0.0000 0.0000 0.0000 0.0000 18.5950
#
#
#
# Elastic Compliance Matrix: (Units=1/GPa)
#
#
# Indices 1 2 3 4 5 6 
#
# 1 0.010810 -0.002938 -0.003576 0.000000 0.000000 0.000000
# 2 -0.002938 0.013958 -0.002180 0.000000 0.000000 0.000000
# 3 -0.003576 -0.002180 0.010913 0.000000 0.000000 0.000000
# 4 0.000000 0.000000 0.000000 0.373456 0.000000 0.000000
# 5 0.000000 0.000000 0.000000 0.000000 -0.034169 0.000000
# 6 0.000000 0.000000 0.000000 0.000000 0.000000 0.053778
#
#
# Mechanical properties :
#
#
# Convention : Reuss Voigt Hill
#
# Bulk Modulus (GPa) = 54.66881 57.04953 55.85917
# Shear Modulus (GPa) = 11.05627 12.22581 11.64104
#
# Velocity S-wave (km/s) = 2.35817 2.47976 2.41973
# Velocity P-wave (km/s) = 5.90857 6.07396 5.99184
#
# Compressibility (1/GPa) = 0.01829197
#
# Stress axis : x y z
#
# Youngs Moduli (GPa) = 92.50824 71.64307 91.63532
#
# Poissons Ratio (x) = 0.21051 0.32767
# Poissons Ratio (y) = 0.27182 0.19978
# Poissons Ratio (z) = 0.33079 0.15620
#
# Static dielectric constant tensor:
#      x y z
#    x 1.769030 0.000000 0.000000 
#    y 0.000000 1.775290 0.000000 
#    z 0.000000 0.000000 1.668420 
# 
# From -- ./inp_files/21074.got.cif
#   From: 2010.05.17/outbox.cif.g08.bks.cpg/sg50_11_cif.got.tgz:21074.got - 2010.06.03 11:33:33.
