data_PCOD9397197
_publ_section_title
;
Structure prediction by ZEFSAII (Michael W. Deem and Ramdas Pophale) SiO2 
 PCOD9397197
Probable space group: P B A N
;
_chemical_formula_sum "Si O2"
_cell_formula_units_Z 48
_cell_length_a 33.390887
_cell_length_b 8.375803
_cell_length_c 8.570701
_cell_angle_alpha 90.000000
_cell_angle_beta 90.000000
_cell_angle_gamma 90.000000
_cell_volume 2397.015015
_symmetry_space_group_name_H-M "P B A N"
_symmetry_group_IT_number 50
_space_group.IT_coordinate_system_code '2'
_symmetry_cell_setting 'orthorhombic'
loop_
_space_group_symop_operation_xyz
x,y,z
1/2-x,1/2-y,z
x,1/2-y,-z
1/2-x,y,-z
-x,-y,-z
1/2+x,1/2+y,-z
-x,1/2+y,z
1/2+x,-y,z
loop_
_atom_site_type_symbol
_atom_site_label
_atom_site_fract_x
_atom_site_fract_y
_atom_site_fract_z
Si Si1 0.958025 0.315598 0.679457
Si Si2 0.126914 0.307244 0.177162
Si Si3 0.792066 0.189787 0.677904
Si Si4 0.959622 0.685034 0.816753
Si Si5 0.291236 0.187948 0.676301
Si Si6 0.625574 0.309944 0.174993
O O1 0.960144 0.250000 0.500000
O O2 0.958749 0.499769 0.750590
O O3 0.914578 0.254548 0.736636
O O4 0.998546 0.247313 0.753061
O O5 0.083681 0.251292 0.243936
O O6 0.167081 0.245469 0.254291
O O7 0.127226 0.498615 0.181578
O O8 0.128000 0.250000 0.000000
O O9 0.750000 0.250000 0.748765
O O10 0.793520 0.250000 0.500000
O O11 0.832604 0.246643 0.758552
O O12 0.790355 0.000848 0.677841
O O13 0.959656 0.750000 0.000000
O O14 0.250000 0.250000 0.753530
O O15 0.290887 0.250000 0.500000
O O16 0.621448 0.250000 0.000000
#
# Coordination Sequence:
#
# PCOD9397197 Si02
#       6
#     8   8   8   8   8   8
#     4  11  23  39  62  92 125 161 208 262 314 374
#     4  10  22  40  59  88 120 156 204 252 302 364
#     4  11  22  39  62  89 122 159 201 253 308 373
#     4  10  22  40  62  88 123 163 206 257 315 377
#     4  11  22  38  61  88 119 158 197 246 304 362
#     4  11  23  40  61  87 121 164 208 256 312 372
#
# _framework density 20.024906000000001
#
# number of rings (size 3 to 8) (size 9 to 14) (size 15 to 20)
#    0.000    1.333    0.000    7.000    0.000    6.667 
#    0.000    3.333    0.000    0.000    0.000    0.000 
#    0.000    0.000    0.000    0.000    0.000    0.000 
#
# Total GULP energy -267284.739440 kJ/mol
# GULP energy per Si atom -5568.432072 kJ/mol
# Density = 1.997933 g / cm^3
# Si number density = 20.024906 Si / 1000 Ang^3
#
#
#
# Elastic Constant Matrix: (Units=GPa)
#
#
# Indices 1 2 3 4 5 6 
#
# 1 269.5735 79.0466 83.2757 0.0000 0.0000 0.0000
# 2 79.0466 127.3612 34.5490 0.0000 0.0000 0.0000
# 3 83.2757 34.5490 95.3686 0.0000 0.0000 0.0000
# 4 0.0000 0.0000 0.0000 31.3068 0.0000 0.0000
# 5 0.0000 0.0000 0.0000 0.0000 41.3235 0.0000
# 6 0.0000 0.0000 0.0000 0.0000 0.0000 40.4340
#
#
#
# Elastic Compliance Matrix: (Units=1/GPa)
#
#
# Indices 1 2 3 4 5 6 
#
# 1 0.005680 -0.002417 -0.004084 0.000000 0.000000 0.000000
# 2 -0.002417 0.009736 -0.001416 0.000000 0.000000 0.000000
# 3 -0.004084 -0.001416 0.014565 0.000000 0.000000 0.000000
# 4 0.000000 0.000000 0.000000 0.031942 0.000000 0.000000
# 5 0.000000 0.000000 0.000000 0.000000 0.024199 0.000000
# 6 0.000000 0.000000 0.000000 0.000000 0.000000 0.024732
#
#
# Mechanical properties :
#
#
# Convention : Reuss Voigt Hill
#
# Bulk Modulus (GPa) = 70.69273 98.44955 84.57114
# Shear Modulus (GPa) = 38.05035 42.30831 40.17933
#
# Velocity S-wave (km/s) = 4.36380 4.60149 4.48422
# Velocity P-wave (km/s) = 7.79547 8.80352 8.31478
#
# Compressibility (1/GPa) = 0.01414573
#
# Stress axis : x y z
#
# Youngs Moduli (GPa) = 176.05449 102.70900 68.65834
#
# Poissons Ratio (x) = 0.24829 0.28040
# Poissons Ratio (y) = 0.42560 0.09724
# Poissons Ratio (z) = 0.71902 0.14546
#
# Static dielectric constant tensor:
#      x y z
#    x 1.735340 0.000000 0.000000 
#    y 0.000000 1.724530 0.000000 
#    z 0.000000 0.000000 1.722060 
# 
# From -- ./inp_files/16939.got.cif
#   From: 2010.05.17/outbox.cif.g08.bks.cpg/sg50_9_cif.got.tgz:16939.got - 2010.06.03 11:33:33.
