data_PCOD9397512
_publ_section_title
;
Structure prediction by ZEFSAII (Michael W. Deem and Ramdas Pophale) SiO2 
 PCOD9397512
Probable space group: P B A N
;
_chemical_formula_sum "Si O2"
_cell_formula_units_Z 26
_cell_length_a 11.915468
_cell_length_b 5.038840
_cell_length_c 18.217167
_cell_angle_alpha 90.000000
_cell_angle_beta 90.000000
_cell_angle_gamma 90.000000
_cell_volume 1093.761198
_symmetry_space_group_name_H-M "P B A N"
_symmetry_group_IT_number 50
_space_group.IT_coordinate_system_code '2'
_symmetry_cell_setting 'orthorhombic'
loop_
_space_group_symop_operation_xyz
x,y,z
1/2-x,1/2-y,z
x,1/2-y,-z
1/2-x,y,-z
-x,-y,-z
1/2+x,1/2+y,-z
-x,1/2+y,z
1/2+x,-y,z
loop_
_atom_site_type_symbol
_atom_site_label
_atom_site_fract_x
_atom_site_fract_y
_atom_site_fract_z
Si Si1 0.250000 0.250000 0.629874
Si Si2 0.750000 0.250000 0.000000
Si Si3 0.078680 0.250000 0.500000
Si Si4 0.922333 0.458446 0.725695
Si Si5 0.073301 0.469671 0.102248
O O1 0.152544 0.308570 0.571725
O O2 0.189404 0.032702 0.681148
O O3 0.827338 0.067173 0.051256
O O4 0.000000 0.500000 0.500000
O O5 0.896418 0.489467 0.812216
O O6 0.978971 0.175026 0.710409
O O7 0.031417 0.170957 0.089586
#
# Coordination Sequence:
#
# PCOD9397512 Si02
#       5
#     4   2   4   8   8
#     4  11  24  42  74  99 130 182 226 265 334 404
#     4  12  24  42  72  96 132 184 228 274 348 428
#     4  11  26  45  66 102 142 175 218 275 330 392
#     4  10  23  42  64  95 132 168 217 277 328 387
#     4  10  24  43  63  94 132 169 218 279 336 395
#
# _framework density 23.771182
#
# number of rings (size 3 to 8) (size 9 to 14) (size 15 to 20)
#    0.000    1.538    0.000    2.769    0.000   16.000 
#    0.000    0.000    0.000    0.000    0.000    0.000 
#    0.000    0.000    0.000    0.000    0.000    0.000 
#
# Total GULP energy -145624.299636 kJ/mol
# GULP energy per Si atom -5600.934601 kJ/mol
# Density = 2.371708 g / cm^3
# Si number density = 23.771182 Si / 1000 Ang^3
#
#
#
# Elastic Constant Matrix: (Units=GPa)
#
#
# Indices 1 2 3 4 5 6 
#
# 1 135.1218 39.3104 96.3537 0.0000 0.0000 0.0000
# 2 39.3104 105.7362 31.4113 0.0000 0.0000 0.0000
# 3 96.3537 31.4113 158.1808 0.0000 0.0000 0.0000
# 4 0.0000 0.0000 0.0000 17.0033 0.0000 0.0000
# 5 0.0000 0.0000 0.0000 0.0000 35.9442 0.0000
# 6 0.0000 0.0000 0.0000 0.0000 0.0000 8.4967
#
#
#
# Elastic Compliance Matrix: (Units=1/GPa)
#
#
# Indices 1 2 3 4 5 6 
#
# 1 0.013824 -0.002803 -0.007864 0.000000 0.000000 0.000000
# 2 -0.002803 0.010619 -0.000401 0.000000 0.000000 0.000000
# 3 -0.007864 -0.000401 0.011192 0.000000 0.000000 0.000000
# 4 0.000000 0.000000 0.000000 0.058812 0.000000 0.000000
# 5 0.000000 0.000000 0.000000 0.000000 0.027821 0.000000
# 6 0.000000 0.000000 0.000000 0.000000 0.000000 0.117693
#
#
# Mechanical properties :
#
#
# Convention : Reuss Voigt Hill
#
# Bulk Modulus (GPa) = 74.08592 81.46550 77.77571
# Shear Modulus (GPa) = 18.75493 27.75307 23.25400
#
# Velocity S-wave (km/s) = 2.81192 3.42059 3.13108
# Velocity P-wave (km/s) = 6.46347 7.06723 6.77208
#
# Compressibility (1/GPa) = 0.01349784
#
# Stress axis : x y z
#
# Youngs Moduli (GPa) = 72.33772 94.17214 89.35099
#
# Poissons Ratio (x) = 0.26399 0.70266
# Poissons Ratio (y) = 0.20278 0.03584
# Poissons Ratio (z) = 0.56887 0.03777
#
# Static dielectric constant tensor:
#      x y z
#    x 1.836050 0.000000 0.000000 
#    y 0.000000 1.859840 0.000000 
#    z 0.000000 0.000000 1.929270 
# 
# From -- ./inp_files/29035.got.cif
#   From: 2010.05.17/outbox.cif.g08.bks.cpg/sg50_15_cif.got.tgz:29035.got - 2010.06.03 11:33:33.
