data_PCOD9397676
_publ_section_title
;
Structure prediction by ZEFSAII (Michael W. Deem and Ramdas Pophale) SiO2 
 PCOD9397676
Probable space group: P B A N
;
_chemical_formula_sum "Si O2"
_cell_formula_units_Z 28
_cell_length_a 18.088526
_cell_length_b 13.040360
_cell_length_c 5.292530
_cell_angle_alpha 90.000000
_cell_angle_beta 90.000000
_cell_angle_gamma 90.000000
_cell_volume 1248.406692
_symmetry_space_group_name_H-M "P B A N"
_symmetry_group_IT_number 50
_space_group.IT_coordinate_system_code '2'
_symmetry_cell_setting 'orthorhombic'
loop_
_space_group_symop_operation_xyz
x,y,z
1/2-x,1/2-y,z
x,1/2-y,-z
1/2-x,y,-z
-x,-y,-z
1/2+x,1/2+y,-z
-x,1/2+y,z
1/2+x,-y,z
loop_
_atom_site_type_symbol
_atom_site_label
_atom_site_fract_x
_atom_site_fract_y
_atom_site_fract_z
Si Si1 0.925439 0.750000 0.500000
Si Si2 0.133906 0.851567 0.330684
Si Si3 0.332862 0.450514 0.617113
Si Si4 0.019889 0.750000 0.000000
Si Si5 0.250000 0.937766 0.000000
O O1 0.876116 0.846209 0.416593
O O2 0.972472 0.778461 0.751449
O O3 0.129784 0.750000 0.500000
O O4 0.214899 0.866461 0.211554
O O5 0.123909 0.955456 0.487646
O O6 0.074645 0.837326 0.107522
O O7 0.250000 0.440075 0.500000
O O8 0.314584 0.488818 0.898573
#
# Coordination Sequence:
#
# PCOD9397676 Si02
#       5
#     4   8   8   4   4
#     4  12  29  50  72 105 150 194 244 286 360 439
#     4  11  24  47  69 110 144 186 247 294 371 422
#     4  10  25  47  74 107 139 190 241 307 357 421
#     4  12  28  47  73 106 146 204 228 298 358 434
#     4  10  24  43  81 106 146 188 241 319 358 420
#
# _framework density 22.428588000000001
#
# number of rings (size 3 to 8) (size 9 to 14) (size 15 to 20)
#    0.000    1.143    1.429    2.143    8.000   16.000 
#    0.000    0.000    0.000    0.000    0.000    0.000 
#    0.000    0.000    0.000    0.000    0.000    0.000 
#
# Total GULP energy -156511.564959 kJ/mol
# GULP energy per Si atom -5589.698749 kJ/mol
# Density = 2.237754 g / cm^3
# Si number density = 22.428588 Si / 1000 Ang^3
#
#
#
# Elastic Constant Matrix: (Units=GPa)
#
#
# Indices 1 2 3 4 5 6 
#
# 1 90.6096 75.6522 55.8051 0.0000 0.0000 0.0000
# 2 75.6522 184.5486 68.7350 0.0000 0.0000 0.0000
# 3 55.8051 68.7350 139.5175 0.0000 0.0000 0.0000
# 4 0.0000 0.0000 0.0000 17.8442 0.0000 0.0000
# 5 0.0000 0.0000 0.0000 0.0000 26.2732 0.0000
# 6 0.0000 0.0000 0.0000 0.0000 0.0000 2.0102
#
#
#
# Elastic Compliance Matrix: (Units=1/GPa)
#
#
# Indices 1 2 3 4 5 6 
#
# 1 0.018905 -0.006042 -0.004585 0.000000 0.000000 0.000000
# 2 -0.006042 0.008567 -0.001804 0.000000 0.000000 0.000000
# 3 -0.004585 -0.001804 0.009890 0.000000 0.000000 0.000000
# 4 0.000000 0.000000 0.000000 0.056041 0.000000 0.000000
# 5 0.000000 0.000000 0.000000 0.000000 0.038062 0.000000
# 6 0.000000 0.000000 0.000000 0.000000 0.000000 0.497471
#
#
# Mechanical properties :
#
#
# Convention : Reuss Voigt Hill
#
# Bulk Modulus (GPa) = 79.99818 90.56225 85.28021
# Shear Modulus (GPa) = 7.59920 23.52442 15.56181
#
# Velocity S-wave (km/s) = 1.84270 3.24212 2.63694
# Velocity P-wave (km/s) = 6.34608 7.38111 6.88308
#
# Compressibility (1/GPa) = 0.01250029
#
# Stress axis : x y z
#
# Youngs Moduli (GPa) = 52.89669 116.72219 101.10901
#
# Poissons Ratio (x) = 0.70523 0.46359
# Poissons Ratio (y) = 0.31960 0.18241
# Poissons Ratio (z) = 0.24253 0.21058
#
# Static dielectric constant tensor:
#      x y z
#    x 1.843970 0.000000 0.000000 
#    y 0.000000 1.758330 0.000000 
#    z 0.000000 0.000000 1.928400 
# 
# From -- ./inp_files/1898.got.cif
#   From: 2010.05.17/outbox.cif.g08.bks.cpg/sg50_1_cif.got.tgz:1898.got - 2010.06.03 11:33:33.
