data_PCOD9397160
_publ_section_title
;
Structure prediction by ZEFSAII (Michael W. Deem and Ramdas Pophale) SiO2 
 PCOD9397160
Probable space group: P B A N
;
_chemical_formula_sum "Si O2"
_cell_formula_units_Z 28
_cell_length_a 10.074612
_cell_length_b 24.964369
_cell_length_c 5.072962
_cell_angle_alpha 90.000000
_cell_angle_beta 90.000000
_cell_angle_gamma 90.000000
_cell_volume 1275.882062
_symmetry_space_group_name_H-M "P B A N"
_symmetry_group_IT_number 50
_space_group.IT_coordinate_system_code '2'
_symmetry_cell_setting 'orthorhombic'
loop_
_space_group_symop_operation_xyz
x,y,z
1/2-x,1/2-y,z
x,1/2-y,-z
1/2-x,y,-z
-x,-y,-z
1/2+x,1/2+y,-z
-x,1/2+y,z
1/2+x,-y,z
loop_
_atom_site_type_symbol
_atom_site_label
_atom_site_fract_x
_atom_site_fract_y
_atom_site_fract_z
Si Si1 0.899707 0.311896 0.090046
Si Si2 0.520539 0.372207 0.380542
Si Si3 0.750000 0.932864 0.500000
Si Si4 0.910358 0.014399 0.249046
O O1 0.924580 0.332784 0.388706
O O2 0.913519 0.250000 0.000000
O O3 0.750000 0.325979 0.000000
O O4 0.998147 0.342241 0.894699
O O5 0.379203 0.396612 0.463397
O O6 0.614315 0.422710 0.298659
O O7 0.785597 0.975208 0.270369
O O8 0.000000 0.000000 0.500000
O O9 0.000000 0.000000 0.000000
#
# Coordination Sequence:
#
# PCOD9397160 Si02
#       4
#     8   8   4   8
#     4  11  25  45  69  95 128 173 235 290 338 405
#     4  11  23  43  68  98 132 180 217 280 352 399
#     4  10  24  42  65 102 141 170 220 282 330 434
#     4  10  22  39  60  94 135 180 216 259 331 418
#
# _framework density 21.945601
#
# number of rings (size 3 to 8) (size 9 to 14) (size 15 to 20)
#    0.000    1.429    0.000    5.143    4.000   12.571 
#    0.000    4.286    0.000    0.000    0.000    0.000 
#    0.000    0.000    0.000    0.000    0.000    0.000 
#
# Total GULP energy -156136.172881 kJ/mol
# GULP energy per Si atom -5576.291889 kJ/mol
# Density = 2.189565 g / cm^3
# Si number density = 21.945601 Si / 1000 Ang^3
#
#
#
# Elastic Constant Matrix: (Units=GPa)
#
#
# Indices 1 2 3 4 5 6 
#
# 1 76.4927 17.3720 6.9643 0.0000 0.0000 0.0000
# 2 17.3720 116.2298 24.2542 0.0000 0.0000 0.0000
# 3 6.9643 24.2542 155.4468 0.0000 0.0000 0.0000
# 4 0.0000 0.0000 0.0000 5.5888 0.0000 0.0000
# 5 0.0000 0.0000 0.0000 0.0000 31.5537 0.0000
# 6 0.0000 0.0000 0.0000 0.0000 0.0000 25.5089
#
#
#
# Elastic Compliance Matrix: (Units=1/GPa)
#
#
# Indices 1 2 3 4 5 6 
#
# 1 0.013546 -0.001962 -0.000301 0.000000 0.000000 0.000000
# 2 -0.001962 0.009177 -0.001344 0.000000 0.000000 0.000000
# 3 -0.000301 -0.001344 0.006656 0.000000 0.000000 0.000000
# 4 0.000000 0.000000 0.000000 0.178930 0.000000 0.000000
# 5 0.000000 0.000000 0.000000 0.000000 0.031692 0.000000
# 6 0.000000 0.000000 0.000000 0.000000 0.000000 0.039202
#
#
# Mechanical properties :
#
#
# Convention : Reuss Voigt Hill
#
# Bulk Modulus (GPa) = 45.11350 49.48335 47.29842
# Shear Modulus (GPa) = 17.01803 32.50219 24.76011
#
# Velocity S-wave (km/s) = 2.78774 3.85260 3.36259
# Velocity P-wave (km/s) = 5.56449 6.51054 6.05602
#
# Compressibility (1/GPa) = 0.02216632
#
# Stress axis : x y z
#
# Youngs Moduli (GPa) = 73.82207 108.96408 150.23463
#
# Poissons Ratio (x) = 0.21377 0.04519
# Poissons Ratio (y) = 0.14483 0.20192
# Poissons Ratio (z) = 0.02220 0.14645
#
# Static dielectric constant tensor:
#      x y z
#    x 1.801740 0.000000 0.000000 
#    y 0.000000 2.059490 0.000000 
#    z 0.000000 0.000000 1.824130 
# 
# From -- ./inp_files/2118.got.cif
#   From: 2010.05.17/outbox.cif.g08.bks.cpg/sg50_2_cif.got.tgz:2118.got - 2010.06.03 11:33:33.
