data_PCOD9397007
_publ_section_title
;
Structure prediction by ZEFSAII (Michael W. Deem and Ramdas Pophale) SiO2 
 PCOD9397007
Probable space group: P B A N
;
_chemical_formula_sum "Si O2"
_cell_formula_units_Z 56
_cell_length_a 8.499829
_cell_length_b 13.544971
_cell_length_c 22.081846
_cell_angle_alpha 90.000000
_cell_angle_beta 90.000000
_cell_angle_gamma 90.000000
_cell_volume 2542.281546
_symmetry_space_group_name_H-M "P B A N"
_symmetry_group_IT_number 50
_space_group.IT_coordinate_system_code '2'
_symmetry_cell_setting 'orthorhombic'
loop_
_space_group_symop_operation_xyz
x,y,z
1/2-x,1/2-y,z
x,1/2-y,-z
1/2-x,y,-z
-x,-y,-z
1/2+x,1/2+y,-z
-x,1/2+y,z
1/2+x,-y,z
loop_
_atom_site_type_symbol
_atom_site_label
_atom_site_fract_x
_atom_site_fract_y
_atom_site_fract_z
Si Si1 0.992408 0.596006 0.225727
Si Si2 0.452865 0.118853 0.632567
Si Si3 0.680744 0.079735 0.159932
Si Si4 0.208610 0.095775 0.069984
Si Si5 0.656448 0.534741 0.435707
Si Si6 0.068257 0.712194 0.564779
Si Si7 0.951512 0.751065 0.131137
O O1 0.167436 0.600015 0.199930
O O2 0.978339 0.598315 0.297296
O O3 0.925925 0.492876 0.200632
O O4 0.912611 0.691005 0.193047
O O5 0.284440 0.081797 0.609360
O O6 0.476512 0.233541 0.618269
O O7 0.588826 0.066080 0.592011
O O8 0.602619 0.182442 0.142325
O O9 0.708624 0.010602 0.101141
O O10 0.050169 0.159960 0.083064
O O11 0.333628 0.165371 0.105070
O O12 0.250000 0.091418 0.000000
O O13 0.750000 0.528510 0.500000
O O14 0.496330 0.600810 0.436772
O O15 0.250000 0.750000 0.568366
O O16 0.008115 0.750000 0.500000
#
# Coordination Sequence:
#
# PCOD9397007 Si02
#       7
#     8   8   8   8   8   8   8
#     4  11  25  43  67 100 142 183 246 285 359 426
#     4  12  26  43  70 103 133 191 234 297 360 442
#     4  11  22  45  69  99 140 191 229 301 352 419
#     4  10  22  44  70 106 145 184 240 293 365 435
#     4  12  25  46  72 103 140 181 241 300 371 438
#     4  11  25  44  68  98 139 180 229 295 366 432
#     4  10  21  41  69  95 141 188 226 297 357 404
#
# _framework density 22.027456999999998
#
# number of rings (size 3 to 8) (size 9 to 14) (size 15 to 20)
#    0.000    1.000    2.857    3.857    2.000    2.857 
#   12.857    0.000    0.000    0.000    0.000    0.000 
#    0.000    0.000    0.000    0.000    0.000    0.000 
#
# Total GULP energy -312560.686174 kJ/mol
# GULP energy per Si atom -5581.440825 kJ/mol
# Density = 2.197732 g / cm^3
# Si number density = 22.027457 Si / 1000 Ang^3
#
#
#
# Elastic Constant Matrix: (Units=GPa)
#
#
# Indices 1 2 3 4 5 6 
#
# 1 89.3026 19.5798 53.2097 0.0000 0.0000 0.0000
# 2 19.5798 99.1573 55.5771 0.0000 0.0000 0.0000
# 3 53.2097 55.5771 159.1994 0.0000 0.0000 0.0000
# 4 0.0000 0.0000 0.0000 -10.7999 0.0000 0.0000
# 5 0.0000 0.0000 0.0000 0.0000 13.6760 0.0000
# 6 0.0000 0.0000 0.0000 0.0000 0.0000 42.1100
#
#
#
# Elastic Compliance Matrix: (Units=1/GPa)
#
#
# Indices 1 2 3 4 5 6 
#
# 1 0.013985 -0.000176 -0.004613 0.000000 0.000000 0.000000
# 2 -0.000176 0.012541 -0.004319 0.000000 0.000000 0.000000
# 3 -0.004613 -0.004319 0.009331 0.000000 0.000000 0.000000
# 4 0.000000 0.000000 0.000000 -0.092594 0.000000 0.000000
# 5 0.000000 0.000000 0.000000 0.000000 0.073121 0.000000
# 6 0.000000 0.000000 0.000000 0.000000 0.000000 0.023747
#
#
# Mechanical properties :
#
#
# Convention : Reuss Voigt Hill
#
# Bulk Modulus (GPa) = 56.68733 67.15472 61.92102
# Shear Modulus (GPa) = 77.84906 23.61673 50.73290
#
# Velocity S-wave (km/s) = 5.95135 3.27792 4.80434
# Velocity P-wave (km/s) = 8.54491 6.69921 7.67772
#
# Compressibility (1/GPa) = 0.01764063
#
# Stress axis : x y z
#
# Youngs Moduli (GPa) = 71.50548 79.74097 107.16966
#
# Poissons Ratio (x) = 0.01404 0.49435
# Poissons Ratio (y) = 0.01259 0.46288
# Poissons Ratio (z) = 0.32984 0.34441
#
# Static dielectric constant tensor:
#      x y z
#    x 1.969830 0.000000 0.000000 
#    y 0.000000 1.844510 0.000000 
#    z 0.000000 0.000000 1.759320 
# 
# From -- ./inp_files/30631.got.cif
#   From: 2010.05.17/outbox.cif.g08.bks.cpg/sg50_16_cif.got.tgz:30631.got - 2010.06.03 11:33:33.
