data_PCOD9397986
_publ_section_title
;
Structure prediction by ZEFSAII (Michael W. Deem and Ramdas Pophale) SiO2 
 PCOD9397986
Probable space group: P B A N
;
_chemical_formula_sum "Si O2"
_cell_formula_units_Z 64
_cell_length_a 14.871460
_cell_length_b 9.396948
_cell_length_c 20.366711
_cell_angle_alpha 90.000000
_cell_angle_beta 90.000000
_cell_angle_gamma 90.000000
_cell_volume 2846.173245
_symmetry_space_group_name_H-M "P B A N"
_symmetry_group_IT_number 50
_space_group.IT_coordinate_system_code '2'
_symmetry_cell_setting 'orthorhombic'
loop_
_space_group_symop_operation_xyz
x,y,z
1/2-x,1/2-y,z
x,1/2-y,-z
1/2-x,y,-z
-x,-y,-z
1/2+x,1/2+y,-z
-x,1/2+y,z
1/2+x,-y,z
loop_
_atom_site_type_symbol
_atom_site_label
_atom_site_fract_x
_atom_site_fract_y
_atom_site_fract_z
Si Si1 0.074832 0.097128 0.463930
Si Si2 0.347817 0.802316 0.821356
Si Si3 0.157581 0.301004 0.131833
Si Si4 0.516493 0.187056 0.667471
Si Si5 0.397026 0.489603 0.072955
Si Si6 0.892861 0.062466 0.071034
Si Si7 0.972603 0.590584 0.753329
Si Si8 0.653567 0.319844 0.566730
O O1 0.091385 0.250000 0.500000
O O2 0.033721 0.113609 0.391937
O O3 0.156582 0.987318 0.450155
O O4 0.000000 0.000000 0.500000
O O5 0.250000 0.750000 0.795976
O O6 0.380665 0.683112 0.874158
O O7 0.425690 0.854988 0.771406
O O8 0.343462 0.938660 0.868082
O O9 0.250000 0.250000 0.163386
O O10 0.120656 0.177911 0.083713
O O11 0.174946 0.435445 0.086272
O O12 0.089474 0.360990 0.186454
O O13 0.448799 0.305673 0.694285
O O14 0.597113 0.270478 0.630325
O O15 0.534685 0.069826 0.725433
O O16 0.505461 0.496679 0.079452
O O17 0.379241 0.579155 0.006776
O O18 0.750000 0.250000 0.574909
O O19 0.613703 0.250000 0.500000
#
# Coordination Sequence:
#
# PCOD9397986 Si02
#       8
#     8   8   8   8   8   8   8   8
#     4  12  20  42  78 107 139 187 241 287 365 430
#     4  12  25  43  67  96 131 175 230 295 364 431
#     4  12  25  44  65  91 131 180 230 291 357 424
#     4  12  23  42  73  98 135 190 238 283 342 419
#     4  11  22  41  68  94 127 170 225 293 375 443
#     4  11  22  41  68  95 127 170 223 297 372 442
#     4  12  25  44  64  94 139 187 236 287 340 423
#     4  11  24  45  73 111 154 183 230 304 365 419
#
# _framework density 22.486333999999999
#
# number of rings (size 3 to 8) (size 9 to 14) (size 15 to 20)
#    0.000    0.375    6.250    3.000    0.000    5.500 
#    2.250    1.250    0.000    0.000    0.000    0.000 
#    0.000    0.000    0.000    0.000    0.000    0.000 
#
# Total GULP energy -356688.815550 kJ/mol
# GULP energy per Si atom -5573.262743 kJ/mol
# Density = 2.243515 g / cm^3
# Si number density = 22.486334 Si / 1000 Ang^3
#
#
#
# Elastic Constant Matrix: (Units=GPa)
#
#
# Indices 1 2 3 4 5 6 
#
# 1 73.1001 22.0389 22.6908 0.0000 0.0000 0.0000
# 2 22.0389 151.6487 30.6960 0.0000 0.0000 0.0000
# 3 22.6908 30.6960 93.4107 0.0000 0.0000 0.0000
# 4 0.0000 0.0000 0.0000 50.8658 0.0000 0.0000
# 5 0.0000 0.0000 0.0000 0.0000 17.4468 0.0000
# 6 0.0000 0.0000 0.0000 0.0000 0.0000 28.0888
#
#
#
# Elastic Compliance Matrix: (Units=1/GPa)
#
#
# Indices 1 2 3 4 5 6 
#
# 1 0.015132 -0.001559 -0.003164 0.000000 0.000000 0.000000
# 2 -0.001559 0.007225 -0.001995 0.000000 0.000000 0.000000
# 3 -0.003164 -0.001995 0.012130 0.000000 0.000000 0.000000
# 4 0.000000 0.000000 0.000000 0.019660 0.000000 0.000000
# 5 0.000000 0.000000 0.000000 0.000000 0.057317 0.000000
# 6 0.000000 0.000000 0.000000 0.000000 0.000000 0.035601
#
#
# Mechanical properties :
#
#
# Convention : Reuss Voigt Hill
#
# Bulk Modulus (GPa) = 47.50457 52.11231 49.80844
# Shear Modulus (GPa) = 29.84783 35.46253 32.65518
#
# Velocity S-wave (km/s) = 3.64727 3.97554 3.81494
# Velocity P-wave (km/s) = 6.23768 6.65572 6.45009
#
# Compressibility (1/GPa) = 0.02105060
#
# Stress axis : x y z
#
# Youngs Moduli (GPa) = 66.08603 138.41542 82.44285
#
# Poissons Ratio (x) = 0.21575 0.26081
# Poissons Ratio (y) = 0.10301 0.16451
# Poissons Ratio (z) = 0.20906 0.27620
#
# Static dielectric constant tensor:
#      x y z
#    x 1.924350 0.000000 0.000000 
#    y 0.000000 1.916920 0.000000 
#    z 0.000000 0.000000 1.952590 
# 
# From -- ./inp_files/31102.got.cif
#   From: 2010.05.17/outbox.cif.g08.bks.cpg/sg50_16_cif.got.tgz:31102.got - 2010.06.03 11:33:33.
