data_PCOD9397220
_publ_section_title
;
Structure prediction by ZEFSAII (Michael W. Deem and Ramdas Pophale) SiO2 
 PCOD9397220
Probable space group: P B A N
;
_chemical_formula_sum "Si O2"
_cell_formula_units_Z 58
_cell_length_a 16.200348
_cell_length_b 8.532254
_cell_length_c 18.937708
_cell_angle_alpha 90.000000
_cell_angle_beta 90.000000
_cell_angle_gamma 90.000000
_cell_volume 2617.673855
_symmetry_space_group_name_H-M "P B A N"
_symmetry_group_IT_number 50
_space_group.IT_coordinate_system_code '2'
_symmetry_cell_setting 'orthorhombic'
loop_
_space_group_symop_operation_xyz
x,y,z
1/2-x,1/2-y,z
x,1/2-y,-z
1/2-x,y,-z
-x,-y,-z
1/2+x,1/2+y,-z
-x,1/2+y,z
1/2+x,-y,z
loop_
_atom_site_type_symbol
_atom_site_label
_atom_site_fract_x
_atom_site_fract_y
_atom_site_fract_z
Si Si1 0.344916 0.560376 0.504960
Si Si2 0.427530 0.908398 0.347474
Si Si3 0.884832 0.421370 0.090365
Si Si4 0.750000 0.250000 0.000000
Si Si5 0.218330 0.572496 0.773942
Si Si6 0.112011 0.455072 0.202773
Si Si7 0.017861 0.190863 0.126940
Si Si8 0.105173 0.965720 0.350165
O O1 0.344156 0.750000 0.500000
O O2 0.250000 0.508354 0.500000
O O3 0.394671 0.528559 0.576924
O O4 0.383259 0.499366 0.432732
O O5 0.384001 0.003189 0.285249
O O6 0.409774 0.722567 0.343270
O O7 0.523114 0.940847 0.331923
O O8 0.808711 0.358857 0.046630
O O9 0.858524 0.416157 0.172789
O O10 0.919713 0.593166 0.078845
O O11 0.961922 0.307069 0.082276
O O12 0.250000 0.750000 0.760816
O O13 0.291666 0.481887 0.815125
O O14 0.182506 0.502158 0.701173
O O15 0.072949 0.289449 0.182277
O O16 0.048863 0.577985 0.165859
#
# Coordination Sequence:
#
# PCOD9397220 Si02
#       8
#     8   8   8   2   8   8   8   8
#     4   9  19  33  53  81 112 156 213 267 326 400
#     4  11  20  34  54  84 118 161 212 266 332 398
#     4  11  23  43  68 100 134 177 218 266 329 395
#     4  12  24  44  76 102 144 186 216 264 340 396
#     4  12  21  37  62  93 123 165 217 277 336 396
#     4  11  20  36  62  91 127 169 215 275 333 388
#     4  10  22  40  65  97 133 172 224 273 324 401
#     4  11  22  35  58  83 118 162 213 271 330 400
#
# _framework density 22.157076
#
# number of rings (size 3 to 8) (size 9 to 14) (size 15 to 20)
#    0.000    1.241    3.448    3.724    1.931    1.103 
#    0.000    0.000    0.000   10.759    0.000    0.000 
#    0.000    0.000    0.000    0.000    0.000    0.000 
#
# Total GULP energy -324062.658316 kJ/mol
# GULP energy per Si atom -5587.287212 kJ/mol
# Density = 2.210665 g / cm^3
# Si number density = 22.157076 Si / 1000 Ang^3
#
#
#
# Elastic Constant Matrix: (Units=GPa)
#
#
# Indices 1 2 3 4 5 6 
#
# 1 112.6084 40.5267 9.6799 0.0000 0.0000 0.0000
# 2 40.5267 67.3038 24.8238 0.0000 0.0000 0.0000
# 3 9.6799 24.8238 59.6363 0.0000 0.0000 0.0000
# 4 0.0000 0.0000 0.0000 4.4916 0.0000 0.0000
# 5 0.0000 0.0000 0.0000 0.0000 -0.4386 0.0000
# 6 0.0000 0.0000 0.0000 0.0000 0.0000 25.5040
#
#
#
# Elastic Compliance Matrix: (Units=1/GPa)
#
#
# Indices 1 2 3 4 5 6 
#
# 1 0.011408 -0.007309 0.001190 0.000000 0.000000 0.000000
# 2 -0.007309 0.022235 -0.008069 0.000000 0.000000 0.000000
# 3 0.001190 -0.008069 0.019934 0.000000 0.000000 0.000000
# 4 0.000000 0.000000 0.000000 0.222636 0.000000 0.000000
# 5 0.000000 0.000000 0.000000 0.000000 -2.280011 0.000000
# 6 0.000000 0.000000 0.000000 0.000000 0.000000 0.039210
#
#
# Mechanical properties :
#
#
# Convention : Reuss Voigt Hill
#
# Bulk Modulus (GPa) = 39.67815 43.28993 41.48404
# Shear Modulus (GPa) = -2.59361 16.87927 7.14283
#
# Velocity S-wave (km/s) = -1.08310 2.76307 1.79742
# Velocity P-wave (km/s) = 4.04752 5.45523 4.80323
#
# Compressibility (1/GPa) = 0.02520278
#
# Stress axis : x y z
#
# Youngs Moduli (GPa) = 87.65569 44.97426 50.16586
#
# Poissons Ratio (x) = 0.32870 -0.05972
# Poissons Ratio (y) = 0.64063 0.40479
# Poissons Ratio (z) = -0.10435 0.36290
#
# Static dielectric constant tensor:
#      x y z
#    x 1.933430 0.000000 0.000000 
#    y 0.000000 1.828140 0.000000 
#    z 0.000000 0.000000 1.836250 
# 
# From -- ./inp_files/29712.got.cif
#   From: 2010.05.17/outbox.cif.g08.bks.cpg/sg50_15_cif.got.tgz:29712.got - 2010.06.03 11:33:33.
