data_PCOD9397707
_publ_section_title
;
Structure prediction by ZEFSAII (Michael W. Deem and Ramdas Pophale) SiO2 
 PCOD9397707
Probable space group: P B A N
;
_chemical_formula_sum "Si O2"
_cell_formula_units_Z 32
_cell_length_a 18.202829
_cell_length_b 5.489234
_cell_length_c 14.113782
_cell_angle_alpha 90.000000
_cell_angle_beta 90.000000
_cell_angle_gamma 90.000000
_cell_volume 1410.243280
_symmetry_space_group_name_H-M "P B A N"
_symmetry_group_IT_number 50
_space_group.IT_coordinate_system_code '2'
_symmetry_cell_setting 'orthorhombic'
loop_
_space_group_symop_operation_xyz
x,y,z
1/2-x,1/2-y,z
x,1/2-y,-z
1/2-x,y,-z
-x,-y,-z
1/2+x,1/2+y,-z
-x,1/2+y,z
1/2+x,-y,z
loop_
_atom_site_type_symbol
_atom_site_label
_atom_site_fract_x
_atom_site_fract_y
_atom_site_fract_z
Si Si1 0.672607 0.109897 0.861850
Si Si2 0.951827 0.250000 0.000000
Si Si3 0.022626 0.422092 0.393026
Si Si4 0.750000 0.250000 0.500000
Si Si5 0.822057 0.585780 0.653184
Si Si6 0.750000 0.750000 0.000000
O O1 0.750000 0.250000 0.860295
O O2 0.603584 0.244657 0.909368
O O3 0.660425 0.024382 0.755400
O O4 0.694470 0.893818 0.932396
O O5 0.000000 0.500000 0.000000
O O6 0.102774 0.298895 0.383487
O O7 0.000000 0.500000 0.500000
O O8 0.025619 0.699368 0.350822
O O9 0.800532 0.401848 0.570313
O O10 0.750000 0.750000 0.664629
#
# Coordination Sequence:
#
# PCOD9397707 Si02
#       6
#     8   4   8   2   8   2
#     4  12  25  47  79 111 150 204 257 324 399 477
#     4  12  28  48  79 121 162 206 256 332 414 496
#     4  10  24  45  69  97 144 202 243 301 394 454
#     4  12  26  44  68 112 156 188 272 340 394 446
#     4  12  28  44  77 112 150 204 275 331 389 477
#     4  12  20  48  80 106 148 198 258 326 406 468
#
# _framework density 22.691120999999999
#
# number of rings (size 3 to 8) (size 9 to 14) (size 15 to 20)
#    0.000    0.500    5.000    2.625   10.500    2.000 
#    0.000    0.000    0.000    0.000    0.000    0.000 
#    0.000    0.000    0.000    0.000    0.000    0.000 
#
# Total GULP energy -178516.106495 kJ/mol
# GULP energy per Si atom -5578.628328 kJ/mol
# Density = 2.263948 g / cm^3
# Si number density = 22.691121 Si / 1000 Ang^3
#
#
#
# Elastic Constant Matrix: (Units=GPa)
#
#
# Indices 1 2 3 4 5 6 
#
# 1 155.9564 35.4447 56.6300 0.0000 0.0000 0.0000
# 2 35.4447 109.3525 37.5298 0.0000 0.0000 0.0000
# 3 56.6300 37.5298 173.3519 0.0000 0.0000 0.0000
# 4 0.0000 0.0000 0.0000 38.5402 0.0000 0.0000
# 5 0.0000 0.0000 0.0000 0.0000 12.4741 0.0000
# 6 0.0000 0.0000 0.0000 0.0000 0.0000 49.0847
#
#
#
# Elastic Compliance Matrix: (Units=1/GPa)
#
#
# Indices 1 2 3 4 5 6 
#
# 1 0.007567 -0.001733 -0.002097 0.000000 0.000000 0.000000
# 2 -0.001733 0.010276 -0.001658 0.000000 0.000000 0.000000
# 3 -0.002097 -0.001658 0.006813 0.000000 0.000000 0.000000
# 4 0.000000 0.000000 0.000000 0.025947 0.000000 0.000000
# 5 0.000000 0.000000 0.000000 0.000000 0.080166 0.000000
# 6 0.000000 0.000000 0.000000 0.000000 0.000000 0.020373
#
#
# Mechanical properties :
#
#
# Convention : Reuss Voigt Hill
#
# Bulk Modulus (GPa) = 73.10618 77.54111 75.32365
# Shear Modulus (GPa) = 29.99797 40.62357 35.31077
#
# Velocity S-wave (km/s) = 3.63989 4.23577 3.94909
# Velocity P-wave (km/s) = 7.06775 7.62685 7.35262
#
# Compressibility (1/GPa) = 0.01367873
#
# Stress axis : x y z
#
# Youngs Moduli (GPa) = 132.14667 97.31700 146.78582
#
# Poissons Ratio (x) = 0.16867 0.30779
# Poissons Ratio (y) = 0.22903 0.24344
# Poissons Ratio (z) = 0.27709 0.16139
#
# Static dielectric constant tensor:
#      x y z
#    x 2.017890 0.000000 0.000000 
#    y 0.000000 2.052750 0.000000 
#    z 0.000000 0.000000 1.812410 
# 
# From -- ./inp_files/23691.got.cif
#   From: 2010.05.17/outbox.cif.g08.bks.cpg/sg50_12_cif.got.tgz:23691.got - 2010.06.03 11:33:33.
