data_PCOD9397622
_publ_section_title
;
Structure prediction by ZEFSAII (Michael W. Deem and Ramdas Pophale) SiO2 
 PCOD9397622
Probable space group: P B A N
;
_chemical_formula_sum "Si O2"
_cell_formula_units_Z 48
_cell_length_a 12.339557
_cell_length_b 23.307469
_cell_length_c 8.912511
_cell_angle_alpha 90.000000
_cell_angle_beta 90.000000
_cell_angle_gamma 90.000000
_cell_volume 2563.272408
_symmetry_space_group_name_H-M "P B A N"
_symmetry_group_IT_number 50
_space_group.IT_coordinate_system_code '2'
_symmetry_cell_setting 'orthorhombic'
loop_
_space_group_symop_operation_xyz
x,y,z
1/2-x,1/2-y,z
x,1/2-y,-z
1/2-x,y,-z
-x,-y,-z
1/2+x,1/2+y,-z
-x,1/2+y,z
1/2+x,-y,z
loop_
_atom_site_type_symbol
_atom_site_label
_atom_site_fract_x
_atom_site_fract_y
_atom_site_fract_z
Si Si1 0.750000 0.960339 0.000000
Si Si2 0.920152 0.242548 0.821076
Si Si3 0.636460 0.459050 0.244850
Si Si4 0.867877 0.729669 0.326928
Si Si5 0.606716 0.594380 0.742984
Si Si6 0.250000 0.028330 0.500000
Si Si7 0.741214 0.342315 0.181447
O O1 0.826257 0.921922 0.893052
O O2 0.672193 0.000215 0.894887
O O3 0.851686 0.187739 0.770489
O O4 0.854487 0.299058 0.769724
O O5 0.039556 0.238155 0.762892
O O6 0.919421 0.250000 0.000000
O O7 0.513927 0.433649 0.242394
O O8 0.668333 0.492068 0.395942
O O9 0.716329 0.404715 0.237858
O O10 0.750000 0.750000 0.275822
O O11 0.877033 0.750000 0.500000
O O12 0.890034 0.662328 0.294138
O O13 0.674292 0.565185 0.609256
O O14 0.750000 0.344134 0.000000
#
# Coordination Sequence:
#
# PCOD9397622 Si02
#       7
#     4   8   8   8   8   4   8
#     4  10  24  40  65  95 118 158 212 258 310 368
#     4   9  19  36  59  88 117 154 192 241 299 361
#     4  11  20  39  65  92 124 160 201 255 314 373
#     4  11  24  41  59  83 120 164 202 244 304 362
#     4  11  23  44  62  86 126 163 207 265 304 362
#     4  10  24  38  59  91 120 164 210 246 310 378
#     4   9  17  35  60  88 123 149 186 246 307 357
#
# _framework density 18.726063
#
# number of rings (size 3 to 8) (size 9 to 14) (size 15 to 20)
#    0.000    1.833    2.500    3.000    0.000    3.000 
#    0.000    4.167    0.000    0.000    0.000    0.000 
#    0.000    0.000    0.000    0.000    0.000    0.000 
#
# Total GULP energy -267645.317864 kJ/mol
# GULP energy per Si atom -5575.944122 kJ/mol
# Density = 1.868344 g / cm^3
# Si number density = 18.726063 Si / 1000 Ang^3
#
#
#
# Elastic Constant Matrix: (Units=GPa)
#
#
# Indices 1 2 3 4 5 6 
#
# 1 136.5883 44.7097 41.8817 0.0000 0.0000 0.0000
# 2 44.7097 93.6552 39.7957 0.0000 0.0000 0.0000
# 3 41.8817 39.7957 70.4962 0.0000 0.0000 0.0000
# 4 0.0000 0.0000 0.0000 10.7266 0.0000 0.0000
# 5 0.0000 0.0000 0.0000 0.0000 36.5846 0.0000
# 6 0.0000 0.0000 0.0000 0.0000 0.0000 163.0486
#
#
#
# Elastic Compliance Matrix: (Units=1/GPa)
#
#
# Indices 1 2 3 4 5 6 
#
# 1 0.009481 -0.002806 -0.004049 0.000000 0.000000 0.000000
# 2 -0.002806 0.014877 -0.006731 0.000000 0.000000 0.000000
# 3 -0.004049 -0.006731 0.020391 0.000000 0.000000 0.000000
# 4 0.000000 0.000000 0.000000 0.093226 0.000000 0.000000
# 5 0.000000 0.000000 0.000000 0.000000 0.027334 0.000000
# 6 0.000000 0.000000 0.000000 0.000000 0.000000 0.006133
#
#
# Mechanical properties :
#
#
# Convention : Reuss Voigt Hill
#
# Bulk Modulus (GPa) = 56.89315 61.50158 59.19736
# Shear Modulus (GPa) = 24.45308 53.69547 39.07428
#
# Velocity S-wave (km/s) = 3.61755 5.36064 4.57291
# Velocity P-wave (km/s) = 6.92074 8.43975 7.71771
#
# Compressibility (1/GPa) = 0.01757681
#
# Stress axis : x y z
#
# Youngs Moduli (GPa) = 105.47211 67.21700 49.04235
#
# Poissons Ratio (x) = 0.18859 0.19857
# Poissons Ratio (y) = 0.29593 0.33012
# Poissons Ratio (z) = 0.42704 0.45247
#
# Static dielectric constant tensor:
#      x y z
#    x 1.635520 0.000000 0.000000 
#    y 0.000000 1.662960 0.000000 
#    z 0.000000 0.000000 1.732320 
# 
# From -- ./inp_files/11578.got.cif
#   From: 2010.05.17/outbox.cif.g08.bks.cpg/sg50_6_cif.got.tgz:11578.got - 2010.06.03 11:33:33.
