data_PCOD9397629
_publ_section_title
;
Structure prediction by ZEFSAII (Michael W. Deem and Ramdas Pophale) SiO2 
 PCOD9397629
Probable space group: P B A N
;
_chemical_formula_sum "Si O2"
_cell_formula_units_Z 48
_cell_length_a 24.956401
_cell_length_b 11.264653
_cell_length_c 8.884089
_cell_angle_alpha 90.000000
_cell_angle_beta 90.000000
_cell_angle_gamma 90.000000
_cell_volume 2497.541274
_symmetry_space_group_name_H-M "P B A N"
_symmetry_group_IT_number 50
_space_group.IT_coordinate_system_code '2'
_symmetry_cell_setting 'orthorhombic'
loop_
_space_group_symop_operation_xyz
x,y,z
1/2-x,1/2-y,z
x,1/2-y,-z
1/2-x,y,-z
-x,-y,-z
1/2+x,1/2+y,-z
-x,1/2+y,z
1/2+x,-y,z
loop_
_atom_site_type_symbol
_atom_site_label
_atom_site_fract_x
_atom_site_fract_y
_atom_site_fract_z
Si Si1 0.060640 0.348552 0.749145
Si Si2 0.246477 0.083825 0.172019
Si Si3 0.514683 0.250000 0.000000
Si Si4 0.201498 0.682381 0.836666
Si Si5 0.167167 0.229350 0.679365
Si Si6 0.915458 0.378197 0.249888
Si Si7 0.515526 0.250000 0.500000
O O1 0.107484 0.249853 0.740953
O O2 0.085643 0.479368 0.749336
O O3 0.022646 0.329344 0.605147
O O4 0.023461 0.327564 0.893193
O O5 0.203381 0.164705 0.255825
O O6 0.302368 0.111047 0.260280
O O7 0.224244 0.951054 0.157873
O O8 0.250000 0.124245 0.000000
O O9 0.551621 0.168289 0.105226
O O10 0.250000 0.750000 0.755336
O O11 0.143912 0.675870 0.760139
O O12 0.195029 0.750000 0.000000
O O13 0.166194 0.250000 0.500000
O O14 0.947559 0.330117 0.393455
#
# Coordination Sequence:
#
# PCOD9397629 Si02
#       7
#     8   8   4   8   8   8   4
#     4  11  22  41  67  97 129 166 216 269 325 386
#     4  11  22  40  66  92 128 169 212 266 317 380
#     4  10  24  38  67  97 124 162 224 266 324 386
#     4  11  22  42  64  93 129 169 214 263 325 374
#     4  11  23  40  62  95 135 166 207 268 330 376
#     4  11  22  44  65  91 131 172 210 275 317 389
#     4  10  24  44  63  95 132 174 216 258 330 390
#
# _framework density 19.218903000000001
#
# number of rings (size 3 to 8) (size 9 to 14) (size 15 to 20)
#    0.000    1.167    5.000    3.000    2.333    0.000 
#    3.000    2.083    0.000    0.000    0.000    0.000 
#    0.000    0.000    0.000    0.000    0.000    0.000 
#
# Total GULP energy -267792.415374 kJ/mol
# GULP energy per Si atom -5579.008654 kJ/mol
# Density = 1.917516 g / cm^3
# Si number density = 19.218903 Si / 1000 Ang^3
#
#
#
# Elastic Constant Matrix: (Units=GPa)
#
#
# Indices 1 2 3 4 5 6 
#
# 1 159.6011 27.0529 43.6143 0.0000 0.0000 0.0000
# 2 27.0529 74.1155 13.5617 0.0000 0.0000 0.0000
# 3 43.6143 13.5617 81.5706 0.0000 0.0000 0.0000
# 4 0.0000 0.0000 0.0000 -0.9075 0.0000 0.0000
# 5 0.0000 0.0000 0.0000 0.0000 -7.9880 0.0000
# 6 0.0000 0.0000 0.0000 0.0000 0.0000 35.3652
#
#
#
# Elastic Compliance Matrix: (Units=1/GPa)
#
#
# Indices 1 2 3 4 5 6 
#
# 1 0.007644 -0.002106 -0.003737 0.000000 0.000000 0.000000
# 2 -0.002106 0.014496 -0.001284 0.000000 0.000000 0.000000
# 3 -0.003737 -0.001284 0.014471 0.000000 0.000000 0.000000
# 4 0.000000 0.000000 0.000000 -1.101882 0.000000 0.000000
# 5 0.000000 0.000000 0.000000 0.000000 -0.125187 0.000000
# 6 0.000000 0.000000 0.000000 0.000000 0.000000 0.028276
#
#
# Mechanical properties :
#
#
# Convention : Reuss Voigt Hill
#
# Bulk Modulus (GPa) = 44.72920 53.74945 49.23932
# Shear Modulus (GPa) = -4.38413 20.69781 8.15684
#
# Velocity S-wave (km/s) = -1.51199 3.28525 2.06237
# Velocity P-wave (km/s) = 4.50288 6.51293 5.59884
#
# Compressibility (1/GPa) = 0.02235676
#
# Stress axis : x y z
#
# Youngs Moduli (GPa) = 130.82487 68.98360 69.10473
#
# Poissons Ratio (x) = 0.14530 0.25823
# Poissons Ratio (y) = 0.27556 0.08872
# Poissons Ratio (z) = 0.48887 0.08857
#
# Static dielectric constant tensor:
#      x y z
#    x 1.680450 0.000000 0.000000 
#    y 0.000000 1.693950 0.000000 
#    z 0.000000 0.000000 3.669560 
# 
# From -- ./inp_files/16017.got.cif
#   From: 2010.05.17/outbox.cif.g08.bks.cpg/sg50_9_cif.got.tgz:16017.got - 2010.06.03 11:33:33.
