data_PCOD9397947
_publ_section_title
;
Structure prediction by ZEFSAII (Michael W. Deem and Ramdas Pophale) SiO2 
 PCOD9397947
Probable space group: P B A N
;
_chemical_formula_sum "Si O2"
_cell_formula_units_Z 64
_cell_length_a 22.254493
_cell_length_b 9.178330
_cell_length_c 16.264492
_cell_angle_alpha 90.000000
_cell_angle_beta 90.000000
_cell_angle_gamma 90.000000
_cell_volume 3322.170185
_symmetry_space_group_name_H-M "P B A N"
_symmetry_group_IT_number 50
_space_group.IT_coordinate_system_code '2'
_symmetry_cell_setting 'orthorhombic'
loop_
_space_group_symop_operation_xyz
x,y,z
1/2-x,1/2-y,z
x,1/2-y,-z
1/2-x,y,-z
-x,-y,-z
1/2+x,1/2+y,-z
-x,1/2+y,z
1/2+x,-y,z
loop_
_atom_site_type_symbol
_atom_site_label
_atom_site_fract_x
_atom_site_fract_y
_atom_site_fract_z
Si Si1 0.569047 0.273744 0.229170
Si Si2 0.583791 0.672796 0.420771
Si Si3 0.245401 0.592492 0.096035
Si Si4 0.041551 0.832087 0.584533
Si Si5 0.864769 0.514469 0.173167
Si Si6 0.320208 0.247591 0.711920
Si Si7 0.538605 0.768304 0.094905
Si Si8 0.869953 0.544840 0.843055
O O1 0.563620 0.266769 0.328167
O O2 0.510095 0.269915 0.169323
O O3 0.597481 0.431427 0.215363
O O4 0.609481 0.143467 0.194749
O O5 0.613182 0.750000 0.500000
O O6 0.528763 0.786973 0.407733
O O7 0.557070 0.506065 0.424310
O O8 0.634802 0.680132 0.352524
O O9 0.250000 0.750000 0.138364
O O10 0.300597 0.496566 0.128144
O O11 0.178045 0.540277 0.105607
O O12 0.250000 0.605971 0.000000
O O13 0.061915 0.750000 0.500000
O O14 0.849184 0.595134 0.259136
O O15 0.914928 0.599942 0.118266
O O16 0.250000 0.250000 0.688703
O O17 0.329338 0.341469 0.793926
O O18 0.579596 0.626217 0.106255
O O19 0.515575 0.750000 0.000000
#
# Coordination Sequence:
#
# PCOD9397947 Si02
#       8
#     8   8   8   8   8   8   8   8
#     4  12  25  41  68  94 131 171 215 267 328 396
#     4  11  24  41  67 100 131 168 212 265 328 392
#     4  11  22  38  62  91 123 167 225 276 322 376
#     4  11  24  42  68 103 134 169 213 272 325 387
#     4  11  24  40  64  94 125 174 216 265 328 375
#     4  11  23  42  67  92 129 164 215 262 320 384
#     4  11  26  42  62  93 133 174 215 267 329 388
#     4  11  22  43  61  92 128 165 218 271 318 378
#
# _framework density 19.264516
#
# number of rings (size 3 to 8) (size 9 to 14) (size 15 to 20)
#    0.000    0.875    3.750    4.500    5.250    3.250 
#    0.000    1.875    0.000    0.000    0.000    0.000 
#    0.000    0.000    0.000    0.000    0.000    0.000 
#
# Total GULP energy -356304.495971 kJ/mol
# GULP energy per Si atom -5567.257750 kJ/mol
# Density = 1.922067 g / cm^3
# Si number density = 19.264516 Si / 1000 Ang^3
#
#
#
# Elastic Constant Matrix: (Units=GPa)
#
#
# Indices 1 2 3 4 5 6 
#
# 1 88.6367 29.8863 30.2811 0.0000 0.0000 0.0000
# 2 29.8863 78.1359 13.3378 0.0000 0.0000 0.0000
# 3 30.2811 13.3378 100.1069 0.0000 0.0000 0.0000
# 4 0.0000 0.0000 0.0000 20.7709 0.0000 0.0000
# 5 0.0000 0.0000 0.0000 0.0000 221.9955 0.0000
# 6 0.0000 0.0000 0.0000 0.0000 0.0000 -23.5563
#
#
#
# Elastic Compliance Matrix: (Units=1/GPa)
#
#
# Indices 1 2 3 4 5 6 
#
# 1 0.014139 -0.004787 -0.003639 0.000000 0.000000 0.000000
# 2 -0.004787 0.014717 -0.000513 0.000000 0.000000 0.000000
# 3 -0.003639 -0.000513 0.011158 0.000000 0.000000 0.000000
# 4 0.000000 0.000000 0.000000 0.048144 0.000000 0.000000
# 5 0.000000 0.000000 0.000000 0.000000 0.004505 0.000000
# 6 0.000000 0.000000 0.000000 0.000000 0.000000 -0.042452
#
#
# Mechanical properties :
#
#
# Convention : Reuss Voigt Hill
#
# Bulk Modulus (GPa) = 45.17399 45.98776 45.58088
# Shear Modulus (GPa) = 66.25267 56.73364 61.49316
#
# Velocity S-wave (km/s) = 5.87075 5.43266 5.65595
# Velocity P-wave (km/s) = 8.33394 7.95457 8.14646
#
# Compressibility (1/GPa) = 0.02213663
#
# Stress axis : x y z
#
# Youngs Moduli (GPa) = 70.72477 67.94998 89.61820
#
# Poissons Ratio (x) = 0.32527 0.32614
# Poissons Ratio (y) = 0.33856 0.04596
# Poissons Ratio (z) = 0.25738 0.03484
#
# Static dielectric constant tensor:
#      x y z
#    x 1.668820 0.000000 0.000000 
#    y 0.000000 1.748490 0.000000 
#    z 0.000000 0.000000 1.763530 
# 
# From -- ./inp_files/27512.got.cif
#   From: 2010.05.17/outbox.cif.g08.bks.cpg/sg50_14_cif.got.tgz:27512.got - 2010.06.03 11:33:33.
