data_PCOD9397597
_publ_section_title
;
Structure prediction by ZEFSAII (Michael W. Deem and Ramdas Pophale) SiO2 
 PCOD9397597
Probable space group: P B A N
;
_chemical_formula_sum "Si O2"
_cell_formula_units_Z 48
_cell_length_a 5.332982
_cell_length_b 28.869608
_cell_length_c 14.007239
_cell_angle_alpha 90.000000
_cell_angle_beta 90.000000
_cell_angle_gamma 90.000000
_cell_volume 2156.569922
_symmetry_space_group_name_H-M "P B A N"
_symmetry_group_IT_number 50
_space_group.IT_coordinate_system_code '2'
_symmetry_cell_setting 'orthorhombic'
loop_
_space_group_symop_operation_xyz
x,y,z
1/2-x,1/2-y,z
x,1/2-y,-z
1/2-x,y,-z
-x,-y,-z
1/2+x,1/2+y,-z
-x,1/2+y,z
1/2+x,-y,z
loop_
_atom_site_type_symbol
_atom_site_label
_atom_site_fract_x
_atom_site_fract_y
_atom_site_fract_z
Si Si1 0.494820 0.469710 0.147479
Si Si2 0.376998 0.200305 0.765726
Si Si3 0.750000 0.250000 0.628636
Si Si4 0.250000 0.904056 0.500000
Si Si5 0.072651 0.331999 0.409150
Si Si6 0.498976 0.867068 0.061340
Si Si7 0.547183 0.527941 0.627929
O O1 0.240865 0.498907 0.126643
O O2 0.509568 0.420594 0.095197
O O3 0.485258 0.458905 0.261146
O O4 0.250000 0.250000 0.794421
O O5 0.601285 0.215175 0.696744
O O6 0.196345 0.171439 0.694694
O O7 0.472135 0.168705 0.851250
O O8 0.555298 0.282349 0.575467
O O9 0.371089 0.872172 0.581082
O O10 0.041084 0.933647 0.554156
O O11 0.250000 0.339104 0.500000
O O12 0.750000 0.861317 0.000000
O O13 0.250000 0.857294 0.000000
O O14 0.832296 0.511521 0.614089
#
# Coordination Sequence:
#
# PCOD9397597 Si02
#       7
#     8   8   4   4   8   8   8
#     4  10  23  45  74 106 145 190 237 304 375 439
#     4  10  26  49  73 102 149 196 245 309 369 443
#     4  10  24  49  69  98 142 198 237 296 365 426
#     4  12  26  37  66 104 144 192 240 299 354 428
#     4  11  26  41  70 108 142 190 242 298 360 438
#     4  12  29  48  78 114 146 189 251 309 379 455
#     4  10  24  44  67  97 144 195 242 291 353 436
#
# _framework density 22.257569
#
# number of rings (size 3 to 8) (size 9 to 14) (size 15 to 20)
#    0.000    1.333    0.000    2.500   11.667   13.000 
#    0.000    0.000    0.000    0.000    0.000    0.000 
#    0.000    0.000    0.000    0.000    0.000    0.000 
#
# Total GULP energy -268700.808632 kJ/mol
# GULP energy per Si atom -5597.933513 kJ/mol
# Density = 2.220691 g / cm^3
# Si number density = 22.257569 Si / 1000 Ang^3
#
#
#
# Elastic Constant Matrix: (Units=GPa)
#
#
# Indices 1 2 3 4 5 6 
#
# 1 112.1129 29.3673 30.9766 0.0000 0.0000 0.0000
# 2 29.3673 82.9785 50.5131 0.0000 0.0000 0.0000
# 3 30.9766 50.5131 75.4443 0.0000 0.0000 0.0000
# 4 0.0000 0.0000 0.0000 68.2191 0.0000 0.0000
# 5 0.0000 0.0000 0.0000 0.0000 22.9043 0.0000
# 6 0.0000 0.0000 0.0000 0.0000 0.0000 429.1262
#
#
#
# Elastic Compliance Matrix: (Units=1/GPa)
#
#
# Indices 1 2 3 4 5 6 
#
# 1 0.010217 -0.001793 -0.002994 0.000000 0.000000 0.000000
# 2 -0.001793 0.020657 -0.013095 0.000000 0.000000 0.000000
# 3 -0.002994 -0.013095 0.023252 0.000000 0.000000 0.000000
# 4 0.000000 0.000000 0.000000 0.014659 0.000000 0.000000
# 5 0.000000 0.000000 0.000000 0.000000 0.043660 0.000000
# 6 0.000000 0.000000 0.000000 0.000000 0.000000 0.002330
#
#
# Mechanical properties :
#
#
# Convention : Reuss Voigt Hill
#
# Bulk Modulus (GPa) = 54.46188 54.69442 54.57815
# Shear Modulus (GPa) = 31.91643 114.69516 73.30579
#
# Velocity S-wave (km/s) = 3.79087 7.18629 5.74515
# Velocity P-wave (km/s) = 6.60931 9.66870 8.28151
#
# Compressibility (1/GPa) = 0.01836147
#
# Stress axis : x y z
#
# Youngs Moduli (GPa) = 97.88021 48.40900 43.00757
#
# Poissons Ratio (x) = 0.08680 0.12878
# Poissons Ratio (y) = 0.17550 0.56317
# Poissons Ratio (z) = 0.29309 0.63390
#
# Static dielectric constant tensor:
#      x y z
#    x 1.834290 0.000000 0.000000 
#    y 0.000000 1.802520 0.000000 
#    z 0.000000 0.000000 1.753950 
# 
# From -- ./inp_files/24101.got.cif
#   From: 2010.05.17/outbox.cif.g08.bks.cpg/sg50_13_cif.got.tgz:24101.got - 2010.06.03 11:33:33.
