data_PCOD9397079
_publ_section_title
;
Structure prediction by ZEFSAII (Michael W. Deem and Ramdas Pophale) SiO2 
 PCOD9397079
Probable space group: P B A N
;
_chemical_formula_sum "Si O2"
_cell_formula_units_Z 64
_cell_length_a 31.337594
_cell_length_b 12.385284
_cell_length_c 8.841457
_cell_angle_alpha 90.000000
_cell_angle_beta 90.000000
_cell_angle_gamma 90.000000
_cell_volume 3431.590512
_symmetry_space_group_name_H-M "P B A N"
_symmetry_group_IT_number 50
_space_group.IT_coordinate_system_code '2'
_symmetry_cell_setting 'orthorhombic'
loop_
_space_group_symop_operation_xyz
x,y,z
1/2-x,1/2-y,z
x,1/2-y,-z
1/2-x,y,-z
-x,-y,-z
1/2+x,1/2+y,-z
-x,1/2+y,z
1/2+x,-y,z
loop_
_atom_site_type_symbol
_atom_site_label
_atom_site_fract_x
_atom_site_fract_y
_atom_site_fract_z
Si Si1 0.043619 0.436996 0.982643
Si Si2 0.264628 0.590070 0.326528
Si Si3 0.678775 0.615708 0.669247
Si Si4 0.658786 0.842949 0.678716
Si Si5 0.650202 0.230303 0.324040
Si Si6 0.821809 0.434502 0.843178
Si Si7 0.921251 0.758201 0.164370
Si Si8 0.873447 0.458654 0.132454
O O1 0.050065 0.349837 0.844208
O O2 0.084356 0.514266 0.961435
O O3 0.049377 0.361327 0.129572
O O4 0.000000 0.500000 0.000000
O O5 0.250000 0.605724 0.500000
O O6 0.283182 0.469030 0.317173
O O7 0.302883 0.675035 0.306978
O O8 0.226139 0.595010 0.207765
O O9 0.688500 0.739070 0.711638
O O10 0.664923 0.620379 0.493722
O O11 0.641614 0.562585 0.771213
O O12 0.612112 0.790968 0.708844
O O13 0.667535 0.945957 0.782167
O O14 0.641922 0.250000 0.500000
O O15 0.649946 0.344111 0.240167
O O16 0.620452 0.141639 0.244782
O O17 0.834851 0.431716 0.017607
O O18 0.896327 0.750000 0.000000
#
# Coordination Sequence:
#
# PCOD9397079 Si02
#       8
#     8   8   8   8   8   8   8   8
#     4   9  18  37  64  94 120 156 194 258 317 382
#     4  11  21  39  60  82 121 167 221 262 311 368
#     4  10  22  35  58  91 119 162 212 261 304 373
#     4  11  19  36  60  87 121 166 203 250 313 379
#     4  11  23  39  59  85 121 170 212 265 324 375
#     4  12  22  36  60  85 119 170 210 268 311 363
#     4   8  17  34  60  89 121 153 196 237 314 388
#     4  11  22  40  61  92 123 153 223 263 312 388
#
# _framework density 18.650245000000002
#
# number of rings (size 3 to 8) (size 9 to 14) (size 15 to 20)
#    0.750    0.750    5.000    1.500    0.000    2.500 
#    4.500    2.500    0.000    3.750    3.250    0.000 
#    0.000    0.000    0.000    0.000    0.000    0.000 
#
# Total GULP energy -356514.456993 kJ/mol
# GULP energy per Si atom -5570.538391 kJ/mol
# Density = 1.860780 g / cm^3
# Si number density = 18.650245 Si / 1000 Ang^3
#
#
#
# Elastic Constant Matrix: (Units=GPa)
#
#
# Indices 1 2 3 4 5 6 
#
# 1 55.2861 5.4537 6.7723 0.0000 0.0000 0.0000
# 2 5.4537 112.5143 30.7798 0.0000 0.0000 0.0000
# 3 6.7723 30.7798 71.3307 0.0000 0.0000 0.0000
# 4 0.0000 0.0000 0.0000 23.2707 0.0000 0.0000
# 5 0.0000 0.0000 0.0000 0.0000 13.8462 0.0000
# 6 0.0000 0.0000 0.0000 0.0000 0.0000 26.0969
#
#
#
# Elastic Compliance Matrix: (Units=1/GPa)
#
#
# Indices 1 2 3 4 5 6 
#
# 1 0.018322 -0.000467 -0.001538 0.000000 0.000000 0.000000
# 2 -0.000467 0.010089 -0.004309 0.000000 0.000000 0.000000
# 3 -0.001538 -0.004309 0.016025 0.000000 0.000000 0.000000
# 4 0.000000 0.000000 0.000000 0.042972 0.000000 0.000000
# 5 0.000000 0.000000 0.000000 0.000000 0.072222 0.000000
# 6 0.000000 0.000000 0.000000 0.000000 0.000000 0.038319
#
#
# Mechanical properties :
#
#
# Convention : Reuss Voigt Hill
#
# Bulk Modulus (GPa) = 31.43943 36.12696 33.78320
# Shear Modulus (GPa) = 22.60596 25.71779 24.16187
#
# Velocity S-wave (km/s) = 3.48530 3.71745 3.60325
# Velocity P-wave (km/s) = 5.75243 6.15132 5.95521
#
# Compressibility (1/GPa) = 0.03180719
#
# Stress axis : x y z
#
# Youngs Moduli (GPa) = 54.57854 99.11529 62.40371
#
# Poissons Ratio (x) = 0.04633 0.09597
# Poissons Ratio (y) = 0.02551 0.26891
# Poissons Ratio (z) = 0.08393 0.42711
#
# Static dielectric constant tensor:
#      x y z
#    x 1.658130 0.000000 0.000000 
#    y 0.000000 1.700610 0.000000 
#    z 0.000000 0.000000 1.657200 
# 
# From -- ./inp_files/17100.got.cif
#   From: 2010.05.17/outbox.cif.g08.bks.cpg/sg50_9_cif.got.tgz:17100.got - 2010.06.03 11:33:33.
