data_PCOD9397274
_publ_section_title
;
Structure prediction by ZEFSAII (Michael W. Deem and Ramdas Pophale) SiO2 
 PCOD9397274
Probable space group: P B A N
;
_chemical_formula_sum "Si O2"
_cell_formula_units_Z 34
_cell_length_a 15.724935
_cell_length_b 10.072067
_cell_length_c 10.501418
_cell_angle_alpha 90.000000
_cell_angle_beta 90.000000
_cell_angle_gamma 90.000000
_cell_volume 1663.241875
_symmetry_space_group_name_H-M "P B A N"
_symmetry_group_IT_number 50
_space_group.IT_coordinate_system_code '2'
_symmetry_cell_setting 'orthorhombic'
loop_
_space_group_symop_operation_xyz
x,y,z
1/2-x,1/2-y,z
x,1/2-y,-z
1/2-x,y,-z
-x,-y,-z
1/2+x,1/2+y,-z
-x,1/2+y,z
1/2+x,-y,z
loop_
_atom_site_type_symbol
_atom_site_label
_atom_site_fract_x
_atom_site_fract_y
_atom_site_fract_z
Si Si1 0.750000 0.250000 0.000000
Si Si2 0.376349 0.541320 0.900246
Si Si3 0.843027 0.788194 0.268543
Si Si4 0.008721 0.870338 0.414695
Si Si5 0.562183 0.973161 0.182296
O O1 0.692659 0.156146 0.910563
O O2 0.340327 0.405783 0.837531
O O3 0.463413 0.572733 0.825361
O O4 0.407660 0.522925 0.045406
O O5 0.750000 0.750000 0.317481
O O6 0.881399 0.653347 0.212329
O O7 0.913650 0.832843 0.369482
O O8 0.043302 0.750000 0.500000
O O9 0.062285 0.913348 0.290207
O O10 0.000000 0.000000 0.500000
#
# Coordination Sequence:
#
# PCOD9397274 Si02
#       5
#     2   8   8   8   8
#     4  12  24  36  58 100 144 168 216 290 344 434
#     4  10  24  37  63  98 135 173 220 281 360 427
#     4  11  23  42  69  96 130 179 234 285 348 423
#     4  11  23  43  67  97 129 180 234 287 345 411
#     4  10  22  41  67  93 131 179 223 281 348 432
#
# _framework density 20.442005999999999
#
# number of rings (size 3 to 8) (size 9 to 14) (size 15 to 20)
#    0.000    1.412    2.353    2.118    9.882    1.412 
#    0.000    0.000    0.000    1.412    0.000    0.000 
#    0.000    0.000    0.000    0.000    0.000    0.000 
#
# Total GULP energy -189948.316554 kJ/mol
# GULP energy per Si atom -5586.715193 kJ/mol
# Density = 2.039548 g / cm^3
# Si number density = 20.442006 Si / 1000 Ang^3
#
#
#
# Elastic Constant Matrix: (Units=GPa)
#
#
# Indices 1 2 3 4 5 6 
#
# 1 66.8264 27.9747 -9.6009 0.0000 0.0000 0.0000
# 2 27.9747 117.6033 31.0738 0.0000 0.0000 0.0000
# 3 -9.6009 31.0738 80.1821 0.0000 0.0000 0.0000
# 4 0.0000 0.0000 0.0000 22.2537 0.0000 0.0000
# 5 0.0000 0.0000 0.0000 0.0000 8.2124 0.0000
# 6 0.0000 0.0000 0.0000 0.0000 0.0000 48.6284
#
#
#
# Elastic Compliance Matrix: (Units=1/GPa)
#
#
# Indices 1 2 3 4 5 6 
#
# 1 0.017806 -0.005346 0.004204 0.000000 0.000000 0.000000
# 2 -0.005346 0.011079 -0.004934 0.000000 0.000000 0.000000
# 3 0.004204 -0.004934 0.014887 0.000000 0.000000 0.000000
# 4 0.000000 0.000000 0.000000 0.044936 0.000000 0.000000
# 5 0.000000 0.000000 0.000000 0.000000 0.121767 0.000000
# 6 0.000000 0.000000 0.000000 0.000000 0.000000 0.020564
#
#
# Mechanical properties :
#
#
# Convention : Reuss Voigt Hill
#
# Bulk Modulus (GPa) = 31.62572 40.38967 36.00770
# Shear Modulus (GPa) = 19.70590 30.16317 24.93454
#
# Velocity S-wave (km/s) = 3.10819 3.84545 3.49631
# Velocity P-wave (km/s) = 5.32782 6.28632 5.82681
#
# Compressibility (1/GPa) = 0.03161983
#
# Stress axis : x y z
#
# Youngs Moduli (GPa) = 56.15999 90.26480 67.17298
#
# Poissons Ratio (x) = 0.48260 -0.28240
# Poissons Ratio (y) = 0.30026 0.33140
# Poissons Ratio (z) = -0.23610 0.44533
#
# Static dielectric constant tensor:
#      x y z
#    x 1.733170 0.000000 0.000000 
#    y 0.000000 1.558530 0.000000 
#    z 0.000000 0.000000 2.926840 
# 
# From -- ./inp_files/20790.got.cif
#   From: 2010.05.17/outbox.cif.g08.bks.cpg/sg50_11_cif.got.tgz:20790.got - 2010.06.03 11:33:33.
