data_PCOD9397123
_publ_section_title
;
Structure prediction by ZEFSAII (Michael W. Deem and Ramdas Pophale) SiO2 
 PCOD9397123
Probable space group: P B A N
;
_chemical_formula_sum "Si O2"
_cell_formula_units_Z 64
_cell_length_a 28.303585
_cell_length_b 9.785172
_cell_length_c 10.950247
_cell_angle_alpha 90.000000
_cell_angle_beta 90.000000
_cell_angle_gamma 90.000000
_cell_volume 3032.730557
_symmetry_space_group_name_H-M "P B A N"
_symmetry_group_IT_number 50
_space_group.IT_coordinate_system_code '2'
_symmetry_cell_setting 'orthorhombic'
loop_
_space_group_symop_operation_xyz
x,y,z
1/2-x,1/2-y,z
x,1/2-y,-z
1/2-x,y,-z
-x,-y,-z
1/2+x,1/2+y,-z
-x,1/2+y,z
1/2+x,-y,z
loop_
_atom_site_type_symbol
_atom_site_label
_atom_site_fract_x
_atom_site_fract_y
_atom_site_fract_z
Si Si1 0.091806 0.882200 0.431017
Si Si2 0.047338 0.000230 0.657327
Si Si3 0.195815 0.281821 0.143915
Si Si4 0.924802 0.101428 0.959754
Si Si5 0.516581 0.277327 0.757855
Si Si6 0.367285 0.965300 0.188276
Si Si7 0.357084 0.469373 0.232325
Si Si8 0.197834 0.779522 0.145291
O O1 0.112601 0.750000 0.500000
O O2 0.052354 0.954251 0.516775
O O3 0.062721 0.816987 0.319516
O O4 0.128206 0.984803 0.367773
O O5 0.017432 0.886323 0.736131
O O6 0.102396 0.997618 0.693829
O O7 0.026198 0.146133 0.692680
O O8 0.250000 0.250000 0.179325
O O9 0.175805 0.433457 0.161271
O O10 0.160575 0.183081 0.216985
O O11 0.192066 0.250000 0.000000
O O12 0.972819 0.156775 0.892105
O O13 0.900073 0.007125 0.858618
O O14 0.904229 0.250000 0.000000
O O15 0.908610 0.024823 0.083848
O O16 0.342560 0.818314 0.198945
O O17 0.316246 0.567014 0.177666
O O18 0.250000 0.750000 0.192962
O O19 0.198663 0.750000 0.000000
#
# Coordination Sequence:
#
# PCOD9397123 Si02
#       8
#     8   8   8   8   8   8   8   8
#     4   9  20  39  65  85 112 155 208 261 304 351
#     4  11  23  40  60  88 115 162 205 256 304 365
#     4  11  23  38  58  93 135 164 196 250 314 381
#     4  11  18  36  58  85 121 161 199 251 305 362
#     4  10  22  38  60  86 122 155 201 257 309 360
#     4  12  21  38  59  85 129 162 204 252 301 378
#     4  11  19  36  61  88 121 159 201 254 307 367
#     4  11  19  31  59  91 117 155 204 251 304 367
#
# _framework density 21.103095
#
# number of rings (size 3 to 8) (size 9 to 14) (size 15 to 20)
#    0.000    1.250    5.000    2.625    0.000    4.500 
#    0.000    1.875    0.000    7.875    0.000    0.000 
#    0.000    0.000    0.000    0.000    0.000    0.000 
#
# Total GULP energy -356418.639560 kJ/mol
# GULP energy per Si atom -5569.041243 kJ/mol
# Density = 2.105506 g / cm^3
# Si number density = 21.103095 Si / 1000 Ang^3
#
#
#
# Elastic Constant Matrix: (Units=GPa)
#
#
# Indices 1 2 3 4 5 6 
#
# 1 44.3391 10.0010 12.5754 0.0000 0.0000 0.0000
# 2 10.0010 40.2521 11.6683 0.0000 0.0000 0.0000
# 3 12.5754 11.6683 52.8646 0.0000 0.0000 0.0000
# 4 0.0000 0.0000 0.0000 24.1572 0.0000 0.0000
# 5 0.0000 0.0000 0.0000 0.0000 10.8207 0.0000
# 6 0.0000 0.0000 0.0000 0.0000 0.0000 -84.9248
#
#
#
# Elastic Compliance Matrix: (Units=1/GPa)
#
#
# Indices 1 2 3 4 5 6 
#
# 1 0.025024 -0.004799 -0.004893 0.000000 0.000000 0.000000
# 2 -0.004799 0.027462 -0.004920 0.000000 0.000000 0.000000
# 3 -0.004893 -0.004920 0.021166 0.000000 0.000000 0.000000
# 4 0.000000 0.000000 0.000000 0.041395 0.000000 0.000000
# 5 0.000000 0.000000 0.000000 0.000000 0.092416 0.000000
# 6 0.000000 0.000000 0.000000 0.000000 0.000000 -0.011775
#
#
# Mechanical properties :
#
#
# Convention : Reuss Voigt Hill
#
# Bulk Modulus (GPa) = 22.50854 22.88279 22.69566
# Shear Modulus (GPa) = 20.85755 -3.10863 8.87446
#
# Velocity S-wave (km/s) = 3.14724 -1.21502 2.05290
# Velocity P-wave (km/s) = 4.88835 2.98304 4.04935
#
# Compressibility (1/GPa) = 0.04442759
#
# Stress axis : x y z
#
# Youngs Moduli (GPa) = 39.96201 36.41408 47.24506
#
# Poissons Ratio (x) = 0.17475 0.23119
# Poissons Ratio (y) = 0.19177 0.23244
# Poissons Ratio (z) = 0.19555 0.17915
#
# Static dielectric constant tensor:
#      x y z
#    x 1.780100 0.000000 0.000000 
#    y 0.000000 1.761150 0.000000 
#    z 0.000000 0.000000 2.835400 
# 
# From -- ./inp_files/23390.got.cif
#   From: 2010.05.17/outbox.cif.g08.bks.cpg/sg50_12_cif.got.tgz:23390.got - 2010.06.03 11:33:33.
