data_PCOD9397723
_publ_section_title
;
Structure prediction by ZEFSAII (Michael W. Deem and Ramdas Pophale) SiO2 
 PCOD9397723
Probable space group: P B A N
;
_chemical_formula_sum "Si O2"
_cell_formula_units_Z 28
_cell_length_a 8.416115
_cell_length_b 14.515562
_cell_length_c 9.649973
_cell_angle_alpha 90.000000
_cell_angle_beta 90.000000
_cell_angle_gamma 90.000000
_cell_volume 1178.885469
_symmetry_space_group_name_H-M "P B A N"
_symmetry_group_IT_number 50
_space_group.IT_coordinate_system_code '2'
_symmetry_cell_setting 'orthorhombic'
loop_
_space_group_symop_operation_xyz
x,y,z
1/2-x,1/2-y,z
x,1/2-y,-z
1/2-x,y,-z
-x,-y,-z
1/2+x,1/2+y,-z
-x,1/2+y,z
1/2+x,-y,z
loop_
_atom_site_type_symbol
_atom_site_label
_atom_site_fract_x
_atom_site_fract_y
_atom_site_fract_z
Si Si1 0.750000 0.522392 0.500000
Si Si2 0.063278 0.236316 0.834218
Si Si3 0.993522 0.090546 0.327639
Si Si4 0.608072 0.052110 0.108457
O O1 0.666512 0.456176 0.384692
O O2 0.607722 0.590656 0.540856
O O3 0.250000 0.250000 0.795830
O O4 0.969033 0.313875 0.749716
O O5 0.980389 0.137592 0.819801
O O6 0.056633 0.250000 0.000000
O O7 0.102408 0.028109 0.224604
O O8 0.750000 0.079461 0.000000
O O9 0.500000 0.000000 0.000000
#
# Coordination Sequence:
#
# PCOD9397723 Si02
#       4
#     4   8   8   8
#     4  10  24  46  72  98 148 212 240 290 358 448
#     4  11  23  41  70 107 147 187 241 314 382 444
#     4  11  23  46  70 102 146 192 250 295 364 449
#     4  12  24  43  73 109 147 188 239 319 390 445
#
# _framework density 23.751246999999999
#
# number of rings (size 3 to 8) (size 9 to 14) (size 15 to 20)
#    0.000    0.857    2.857    5.143    0.000    0.571 
#    0.000   15.000    0.000    0.000    0.000    0.000 
#    0.000    0.000    0.000    0.000    0.000    0.000 
#
# Total GULP energy -155947.868854 kJ/mol
# GULP energy per Si atom -5569.566745 kJ/mol
# Density = 2.369719 g / cm^3
# Si number density = 23.751247 Si / 1000 Ang^3
#
#
#
# Elastic Constant Matrix: (Units=GPa)
#
#
# Indices 1 2 3 4 5 6 
#
# 1 105.9107 32.2799 24.4983 0.0000 0.0000 0.0000
# 2 32.2799 160.7600 33.2733 0.0000 0.0000 0.0000
# 3 24.4983 33.2733 38.6682 0.0000 0.0000 0.0000
# 4 0.0000 0.0000 0.0000 41.8920 0.0000 0.0000
# 5 0.0000 0.0000 0.0000 0.0000 23.0368 0.0000
# 6 0.0000 0.0000 0.0000 0.0000 0.0000 17.4900
#
#
#
# Elastic Compliance Matrix: (Units=1/GPa)
#
#
# Indices 1 2 3 4 5 6 
#
# 1 0.011181 -0.000948 -0.006268 0.000000 0.000000 0.000000
# 2 -0.000948 0.007649 -0.005981 0.000000 0.000000 0.000000
# 3 -0.006268 -0.005981 0.034979 0.000000 0.000000 0.000000
# 4 0.000000 0.000000 0.000000 0.023871 0.000000 0.000000
# 5 0.000000 0.000000 0.000000 0.000000 0.043409 0.000000
# 6 0.000000 0.000000 0.000000 0.000000 0.000000 0.057176
#
#
# Mechanical properties :
#
#
# Convention : Reuss Voigt Hill
#
# Bulk Modulus (GPa) = 36.47720 53.93801 45.20760
# Shear Modulus (GPa) = 23.38686 30.83625 27.11155
#
# Velocity S-wave (km/s) = 3.14133 3.60710 3.38224
# Velocity P-wave (km/s) = 5.34309 6.33302 5.85900
#
# Compressibility (1/GPa) = 0.02741438
#
# Stress axis : x y z
#
# Youngs Moduli (GPa) = 89.44047 130.74118 28.58875
#
# Poissons Ratio (x) = 0.12390 0.17919
# Poissons Ratio (y) = 0.08476 0.17099
# Poissons Ratio (z) = 0.56061 0.78198
#
# Static dielectric constant tensor:
#      x y z
#    x 1.955580 0.000000 0.000000 
#    y 0.000000 1.883810 0.000000 
#    z 0.000000 0.000000 1.880560 
# 
# From -- ./inp_files/8825.got.cif
#   From: 2010.05.17/outbox.cif.g08.bks.cpg/sg50_5_cif.got.tgz:8825.got - 2010.06.03 11:33:33.
