data_PCOD9397004
_publ_section_title
;
Structure prediction by ZEFSAII (Michael W. Deem and Ramdas Pophale) SiO2 
 PCOD9397004
Probable space group: P B A N
;
_chemical_formula_sum "Si O2"
_cell_formula_units_Z 26
_cell_length_a 30.603030
_cell_length_b 5.039520
_cell_length_c 8.570378
_cell_angle_alpha 90.000000
_cell_angle_beta 90.000000
_cell_angle_gamma 90.000000
_cell_volume 1321.762962
_symmetry_space_group_name_H-M "P B A N"
_symmetry_group_IT_number 50
_space_group.IT_coordinate_system_code '2'
_symmetry_cell_setting 'orthorhombic'
loop_
_space_group_symop_operation_xyz
x,y,z
1/2-x,1/2-y,z
x,1/2-y,-z
1/2-x,y,-z
-x,-y,-z
1/2+x,1/2+y,-z
-x,1/2+y,z
1/2+x,-y,z
loop_
_atom_site_type_symbol
_atom_site_label
_atom_site_fract_x
_atom_site_fract_y
_atom_site_fract_z
Si Si1 0.527747 0.746937 0.184562
Si Si2 0.394739 0.008477 0.606996
Si Si3 0.664307 0.013482 0.100281
Si Si4 0.250000 0.750000 0.000000
O O1 0.513487 0.443877 0.212912
O O2 0.564777 0.870394 0.293785
O O3 0.539456 0.750000 0.000000
O O4 0.380121 0.250000 0.500000
O O5 0.356789 0.964458 0.732105
O O6 0.404256 0.750000 0.500000
O O7 0.716261 0.074400 0.099764
O O8 0.656746 0.750000 0.000000
O O9 0.643469 0.250000 0.000000
#
# Coordination Sequence:
#
# PCOD9397004 Si02
#       4
#     8   8   8   2
#     4  10  22  40  62  88 121 168 221 257 291 356
#     4  12  25  39  61  96 133 165 199 254 326 369
#     4  10  21  41  69  89 119 159 216 249 301 373
#     4   8  22  40  76  88 110 160 220 252 302 364
#
# _framework density 19.670697000000001
#
# number of rings (size 3 to 8) (size 9 to 14) (size 15 to 20)
#    0.923    0.615    0.000    5.077    0.000    7.385 
#    0.000    0.769    0.000    0.000    0.000    0.000 
#    0.000    0.000    0.000    0.000    0.000    0.000 
#
# Total GULP energy -144949.296130 kJ/mol
# GULP energy per Si atom -5574.972928 kJ/mol
# Density = 1.962593 g / cm^3
# Si number density = 19.670697 Si / 1000 Ang^3
#
#
#
# Elastic Constant Matrix: (Units=GPa)
#
#
# Indices 1 2 3 4 5 6 
#
# 1 69.7370 7.6113 64.9895 0.0000 0.0000 0.0000
# 2 7.6113 138.7098 65.5420 0.0000 0.0000 0.0000
# 3 64.9895 65.5420 145.7897 0.0000 0.0000 0.0000
# 4 0.0000 0.0000 0.0000 41.6240 0.0000 0.0000
# 5 0.0000 0.0000 0.0000 0.0000 133.6192 0.0000
# 6 0.0000 0.0000 0.0000 0.0000 0.0000 153.3242
#
#
#
# Elastic Compliance Matrix: (Units=1/GPa)
#
#
# Indices 1 2 3 4 5 6 
#
# 1 0.027402 0.005419 -0.014652 0.000000 0.000000 0.000000
# 2 0.005419 0.010226 -0.007013 0.000000 0.000000 0.000000
# 3 -0.014652 -0.007013 0.016543 0.000000 0.000000 0.000000
# 4 0.000000 0.000000 0.000000 0.024025 0.000000 0.000000
# 5 0.000000 0.000000 0.000000 0.000000 0.007484 0.000000
# 6 0.000000 0.000000 0.000000 0.000000 0.000000 0.006522
#
#
# Mechanical properties :
#
#
# Convention : Reuss Voigt Hill
#
# Bulk Modulus (GPa) = 46.12342 70.05800 58.09071
# Shear Modulus (GPa) = 37.90195 80.11973 59.01084
#
# Velocity S-wave (km/s) = 4.39432 6.38897 5.48311
# Velocity P-wave (km/s) = 7.01751 9.49305 8.34756
#
# Compressibility (1/GPa) = 0.02168096
#
# Stress axis : x y z
#
# Youngs Moduli (GPa) = 36.49320 97.79359 60.44727
#
# Poissons Ratio (x) = -0.52999 0.88566
# Poissons Ratio (y) = -0.19777 0.42391
# Poissons Ratio (z) = 0.53469 0.68582
#
# Static dielectric constant tensor:
#      x y z
#    x 1.705190 0.000000 0.000000 
#    y 0.000000 1.693720 0.000000 
#    z 0.000000 0.000000 1.700610 
# 
# From -- ./inp_files/16629.got.cif
#   From: 2010.05.17/outbox.cif.g08.bks.cpg/sg50_9_cif.got.tgz:16629.got - 2010.06.03 11:33:33.
