data_PCOD9397217
_publ_section_title
;
Structure prediction by ZEFSAII (Michael W. Deem and Ramdas Pophale) SiO2 
 PCOD9397217
Probable space group: P B A N
;
_chemical_formula_sum "Si O2"
_cell_formula_units_Z 38
_cell_length_a 25.033388
_cell_length_b 5.231155
_cell_length_c 13.688391
_cell_angle_alpha 90.000000
_cell_angle_beta 90.000000
_cell_angle_gamma 90.000000
_cell_volume 1792.543160
_symmetry_space_group_name_H-M "P B A N"
_symmetry_group_IT_number 50
_space_group.IT_coordinate_system_code '2'
_symmetry_cell_setting 'orthorhombic'
loop_
_space_group_symop_operation_xyz
x,y,z
1/2-x,1/2-y,z
x,1/2-y,-z
1/2-x,y,-z
-x,-y,-z
1/2+x,1/2+y,-z
-x,1/2+y,z
1/2+x,-y,z
loop_
_atom_site_type_symbol
_atom_site_label
_atom_site_fract_x
_atom_site_fract_y
_atom_site_fract_z
Si Si1 0.152058 0.538044 0.756118
Si Si2 0.163105 0.465990 0.122753
Si Si3 0.310527 0.002266 0.543149
Si Si4 0.967910 0.408275 0.204408
Si Si5 0.750000 0.250000 0.000000
Si Si6 0.925698 0.250000 0.000000
O O1 0.161701 0.828635 0.789437
O O2 0.185863 0.489027 0.659204
O O3 0.088092 0.524311 0.744752
O O4 0.164814 0.322313 0.837933
O O5 0.111968 0.543240 0.056193
O O6 0.213614 0.560853 0.062633
O O7 0.336661 0.750000 0.500000
O O8 0.250000 0.001631 0.500000
O O9 0.337987 0.250000 0.500000
O O10 0.010001 0.628400 0.228188
O O11 0.956913 0.391843 0.086926
#
# Coordination Sequence:
#
# PCOD9397217 Si02
#       6
#     8   8   8   8   2   4
#     4  11  23  41  60  87 123 155 197 258 314 360
#     4  10  23  38  58  84 126 168 200 246 296 353
#     4  10  22  40  65  91 114 144 191 249 312 378
#     4  11  22  36  60  88 120 162 207 251 294 350
#     4  10  24  38  56  86 122 174 220 234 284 372
#     4   9  20  37  56  88 126 164 208 247 286 335
#
# _framework density 21.198934000000001
#
# number of rings (size 3 to 8) (size 9 to 14) (size 15 to 20)
#    0.000    1.684    0.000    4.421    0.000   17.684 
#    0.000    0.000    0.000    3.789    0.000    0.000 
#    0.000    0.000    0.000    0.000    0.000    0.000 
#
# Total GULP energy -212322.113871 kJ/mol
# GULP energy per Si atom -5587.424049 kJ/mol
# Density = 2.115068 g / cm^3
# Si number density = 21.198934 Si / 1000 Ang^3
#
#
#
# Elastic Constant Matrix: (Units=GPa)
#
#
# Indices 1 2 3 4 5 6 
#
# 1 75.4035 6.0640 13.5154 0.0000 0.0000 0.0000
# 2 6.0640 113.5722 5.1076 0.0000 0.0000 0.0000
# 3 13.5154 5.1076 64.5643 0.0000 0.0000 0.0000
# 4 0.0000 0.0000 0.0000 28.7008 0.0000 0.0000
# 5 0.0000 0.0000 0.0000 0.0000 28.1808 0.0000
# 6 0.0000 0.0000 0.0000 0.0000 0.0000 9.4909
#
#
#
# Elastic Compliance Matrix: (Units=1/GPa)
#
#
# Indices 1 2 3 4 5 6 
#
# 1 0.013821 -0.000610 -0.002845 0.000000 0.000000 0.000000
# 2 -0.000610 0.008863 -0.000573 0.000000 0.000000 0.000000
# 3 -0.002845 -0.000573 0.016129 0.000000 0.000000 0.000000
# 4 0.000000 0.000000 0.000000 0.034842 0.000000 0.000000
# 5 0.000000 0.000000 0.000000 0.000000 0.035485 0.000000
# 6 0.000000 0.000000 0.000000 0.000000 0.000000 0.105364
#
#
# Mechanical properties :
#
#
# Convention : Reuss Voigt Hill
#
# Bulk Modulus (GPa) = 32.51310 33.65712 33.08511
# Shear Modulus (GPa) = 21.47636 28.53135 25.00386
#
# Velocity S-wave (km/s) = 3.18636 3.67261 3.43809
# Velocity P-wave (km/s) = 5.37658 5.82197 5.60370
#
# Compressibility (1/GPa) = 0.03075683
#
# Stress axis : x y z
#
# Youngs Moduli (GPa) = 72.35382 112.82434 61.99878
#
# Poissons Ratio (x) = 0.06882 0.17638
# Poissons Ratio (y) = 0.04414 0.03555
# Poissons Ratio (z) = 0.20584 0.06470
#
# Static dielectric constant tensor:
#      x y z
#    x 1.788330 0.000000 0.000000 
#    y 0.000000 1.790020 0.000000 
#    z 0.000000 0.000000 1.783600 
# 
# From -- ./inp_files/22992.got.cif
#   From: 2010.05.17/outbox.cif.g08.bks.cpg/sg50_12_cif.got.tgz:22992.got - 2010.06.03 11:33:33.
