data_PCOD9397502
_publ_section_title
;
Structure prediction by ZEFSAII (Michael W. Deem and Ramdas Pophale) SiO2 
 PCOD9397502
Probable space group: P B A N
;
_chemical_formula_sum "Si O2"
_cell_formula_units_Z 20
_cell_length_a 5.174215
_cell_length_b 14.225252
_cell_length_c 11.605407
_cell_angle_alpha 90.000000
_cell_angle_beta 90.000000
_cell_angle_gamma 90.000000
_cell_volume 854.210322
_symmetry_space_group_name_H-M "P B A N"
_symmetry_group_IT_number 50
_space_group.IT_coordinate_system_code '2'
_symmetry_cell_setting 'orthorhombic'
loop_
_space_group_symop_operation_xyz
x,y,z
1/2-x,1/2-y,z
x,1/2-y,-z
1/2-x,y,-z
-x,-y,-z
1/2+x,1/2+y,-z
-x,1/2+y,z
1/2+x,-y,z
loop_
_atom_site_type_symbol
_atom_site_label
_atom_site_fract_x
_atom_site_fract_y
_atom_site_fract_z
Si Si1 0.750000 0.069212 0.500000
Si Si2 0.014673 0.688074 0.710665
Si Si3 0.003369 0.395208 0.053669
O O1 0.653913 0.138831 0.398161
O O2 0.500000 0.000000 0.500000
O O3 0.250000 0.750000 0.759550
O O4 0.750000 0.750000 0.689138
O O5 0.965783 0.610174 0.809199
O O6 0.250000 0.347705 0.000000
O O7 0.750000 0.352086 0.000000
O O8 0.000000 0.500000 0.000000
#
# Coordination Sequence:
#
# PCOD9397502 Si02
#       3
#     4   8   8
#     4  12  29  48  81 108 150 210 270 316 397 480
#     4  12  27  48  77 113 155 200 259 334 400 458
#     4  10  23  41  72 106 155 197 251 308 390 472
#
# _framework density 23.413437999999999
#
# number of rings (size 3 to 8) (size 9 to 14) (size 15 to 20)
#    0.000    0.800    0.000    5.400   11.200    6.400 
#    0.000    0.000    0.000    0.000    0.000    0.000 
#    0.000    0.000    0.000    0.000    0.000    0.000 
#
# Total GULP energy -111356.133988 kJ/mol
# GULP energy per Si atom -5567.806699 kJ/mol
# Density = 2.336015 g / cm^3
# Si number density = 23.413438 Si / 1000 Ang^3
#
#
#
# Elastic Constant Matrix: (Units=GPa)
#
#
# Indices 1 2 3 4 5 6 
#
# 1 255.9712 46.4404 58.6204 0.0000 0.0000 0.0000
# 2 46.4404 154.6593 67.7294 0.0000 0.0000 0.0000
# 3 58.6204 67.7294 217.0156 0.0000 0.0000 0.0000
# 4 0.0000 0.0000 0.0000 36.0710 0.0000 0.0000
# 5 0.0000 0.0000 0.0000 0.0000 34.6645 0.0000
# 6 0.0000 0.0000 0.0000 0.0000 0.0000 1.0406
#
#
#
# Elastic Compliance Matrix: (Units=1/GPa)
#
#
# Indices 1 2 3 4 5 6 
#
# 1 0.004270 -0.000900 -0.000872 0.000000 0.000000 0.000000
# 2 -0.000900 0.007679 -0.002154 0.000000 0.000000 0.000000
# 3 -0.000872 -0.002154 0.005516 0.000000 0.000000 0.000000
# 4 0.000000 0.000000 0.000000 0.027723 0.000000 0.000000
# 5 0.000000 0.000000 0.000000 0.000000 0.028848 0.000000
# 6 0.000000 0.000000 0.000000 0.000000 0.000000 0.960950
#
#
# Mechanical properties :
#
#
# Convention : Reuss Voigt Hill
#
# Bulk Modulus (GPa) = 104.02939 108.13628 106.08284
# Shear Modulus (GPa) = 4.77992 44.67895 24.72944
#
# Velocity S-wave (km/s) = 1.43037 4.37310 3.25346
# Velocity P-wave (km/s) = 6.87429 8.47258 7.71493
#
# Compressibility (1/GPa) = 0.00961267
#
# Stress axis : x y z
#
# Youngs Moduli (GPa) = 234.20375 130.22260 181.29969
#
# Poissons Ratio (x) = 0.11721 0.15818
# Poissons Ratio (y) = 0.21079 0.39043
# Poissons Ratio (z) = 0.20433 0.28043
#
# Static dielectric constant tensor:
#      x y z
#    x 1.935370 0.000000 0.000000 
#    y 0.000000 1.942340 0.000000 
#    z 0.000000 0.000000 1.927580 
# 
# From -- ./inp_files/17284.got.cif
#   From: 2010.05.17/outbox.cif.g08.bks.cpg/sg50_9_cif.got.tgz:17284.got - 2010.06.03 11:33:33.
