data_PCOD9397212
_publ_section_title
;
Structure prediction by ZEFSAII (Michael W. Deem and Ramdas Pophale) SiO2 
 PCOD9397212
Probable space group: P B A N
;
_chemical_formula_sum "Si O2"
_cell_formula_units_Z 64
_cell_length_a 12.121154
_cell_length_b 8.685229
_cell_length_c 28.238837
_cell_angle_alpha 90.000000
_cell_angle_beta 90.000000
_cell_angle_gamma 90.000000
_cell_volume 2972.843515
_symmetry_space_group_name_H-M "P B A N"
_symmetry_group_IT_number 50
_space_group.IT_coordinate_system_code '2'
_symmetry_cell_setting 'orthorhombic'
loop_
_space_group_symop_operation_xyz
x,y,z
1/2-x,1/2-y,z
x,1/2-y,-z
1/2-x,y,-z
-x,-y,-z
1/2+x,1/2+y,-z
-x,1/2+y,z
1/2+x,-y,z
loop_
_atom_site_type_symbol
_atom_site_label
_atom_site_fract_x
_atom_site_fract_y
_atom_site_fract_z
Si Si1 0.366392 0.317637 0.069459
Si Si2 0.078451 0.408501 0.826821
Si Si3 0.001498 0.580317 0.675300
Si Si4 0.622149 0.072948 0.516166
Si Si5 0.870862 0.246925 0.152250
Si Si6 0.368813 0.829854 0.376238
Si Si7 0.863794 0.824254 0.724208
Si Si8 0.592425 0.175926 0.048739
O O1 0.250000 0.250000 0.055806
O O2 0.377791 0.320977 0.126720
O O3 0.461382 0.205272 0.050961
O O4 0.381814 0.495064 0.053280
O O5 0.082618 0.585587 0.839254
O O6 0.140456 0.367467 0.779183
O O7 0.949780 0.370911 0.822634
O O8 0.905045 0.463327 0.660019
O O9 0.956943 0.695012 0.715354
O O10 0.044122 0.690382 0.632859
O O11 0.099694 0.473773 0.694727
O O12 0.618458 0.250000 0.500000
O O13 0.750000 0.015704 0.500000
O O14 0.624402 0.087957 0.572925
O O15 0.500000 0.000000 0.500000
O O16 0.750000 0.250000 0.172156
O O17 0.867880 0.228761 0.095183
O O18 0.250000 0.750000 0.370071
O O19 0.750000 0.750000 0.707867
O O20 0.631528 0.250000 0.000000
#
# Coordination Sequence:
#
# PCOD9397212 Si02
#       8
#     8   8   8   8   8   8   8   8
#     4  10  22  40  64  95 125 165 207 252 328 373
#     4  10  22  40  65  92 127 161 207 269 303 378
#     4  10  24  39  62  96 128 171 218 260 324 386
#     4  11  23  42  66 101 132 172 226 276 332 390
#     4  10  23  41  62  91 122 164 205 249 329 372
#     4  11  21  41  65  89 132 174 212 273 323 380
#     4  11  22  41  63  94 128 165 217 258 317 383
#     4  10  22  41  63  90 126 158 208 263 305 387
#
# _framework density 21.528212
#
# number of rings (size 3 to 8) (size 9 to 14) (size 15 to 20)
#    0.000    1.625    1.250    3.000    0.000   10.750 
#    0.000    6.875    0.000    0.000    0.000    0.000 
#    0.000    0.000    0.000    0.000    0.000    0.000 
#
# Total GULP energy -357167.203489 kJ/mol
# GULP energy per Si atom -5580.737555 kJ/mol
# Density = 2.147921 g / cm^3
# Si number density = 21.528212 Si / 1000 Ang^3
#
#
#
# Elastic Constant Matrix: (Units=GPa)
#
#
# Indices 1 2 3 4 5 6 
#
# 1 120.1076 25.5008 -0.8743 0.0000 0.0000 0.0000
# 2 25.5008 72.6995 21.7255 0.0000 0.0000 0.0000
# 3 -0.8743 21.7255 87.9652 0.0000 0.0000 0.0000
# 4 0.0000 0.0000 0.0000 21.8203 0.0000 0.0000
# 5 0.0000 0.0000 0.0000 0.0000 -39.2941 0.0000
# 6 0.0000 0.0000 0.0000 0.0000 0.0000 28.3903
#
#
#
# Elastic Compliance Matrix: (Units=1/GPa)
#
#
# Indices 1 2 3 4 5 6 
#
# 1 0.009068 -0.003463 0.000946 0.000000 0.000000 0.000000
# 2 -0.003463 0.016174 -0.004029 0.000000 0.000000 0.000000
# 3 0.000946 -0.004029 0.012373 0.000000 0.000000 0.000000
# 4 0.000000 0.000000 0.000000 0.045829 0.000000 0.000000
# 5 0.000000 0.000000 0.000000 0.000000 -0.025449 0.000000
# 6 0.000000 0.000000 0.000000 0.000000 0.000000 0.035223
#
#
# Mechanical properties :
#
#
# Convention : Reuss Voigt Hill
#
# Bulk Modulus (GPa) = 40.78144 41.49737 41.13940
# Shear Modulus (GPa) = 43.67366 17.81132 30.74249
#
# Velocity S-wave (km/s) = 4.50896 2.87949 3.78300
# Velocity P-wave (km/s) = 6.78911 5.51116 6.18324
#
# Compressibility (1/GPa) = 0.02452096
#
# Stress axis : x y z
#
# Youngs Moduli (GPa) = 110.27688 61.82702 80.82353
#
# Poissons Ratio (x) = 0.21413 -0.07642
# Poissons Ratio (y) = 0.38193 0.32565
# Poissons Ratio (z) = -0.10427 0.24911
#
# Static dielectric constant tensor:
#      x y z
#    x 1.836940 0.000000 0.000000 
#    y 0.000000 1.731770 0.000000 
#    z 0.000000 0.000000 1.845600 
# 
# From -- ./inp_files/32478.got.cif
#   From: 2010.05.17/outbox.cif.g08.bks.cpg/sg50_17_cif.got.tgz:32478.got - 2010.06.03 11:33:33.
