data_PCOD9397213
_publ_section_title
;
Structure prediction by ZEFSAII (Michael W. Deem and Ramdas Pophale) SiO2 
 PCOD9397213
Probable space group: P B A N
;
_chemical_formula_sum "Si O2"
_cell_formula_units_Z 64
_cell_length_a 30.728751
_cell_length_b 11.510828
_cell_length_c 9.305903
_cell_angle_alpha 90.000000
_cell_angle_beta 90.000000
_cell_angle_gamma 90.000000
_cell_volume 3291.622287
_symmetry_space_group_name_H-M "P B A N"
_symmetry_group_IT_number 50
_space_group.IT_coordinate_system_code '2'
_symmetry_cell_setting 'orthorhombic'
loop_
_space_group_symop_operation_xyz
x,y,z
1/2-x,1/2-y,z
x,1/2-y,-z
1/2-x,y,-z
-x,-y,-z
1/2+x,1/2+y,-z
-x,1/2+y,z
1/2+x,-y,z
loop_
_atom_site_type_symbol
_atom_site_label
_atom_site_fract_x
_atom_site_fract_y
_atom_site_fract_z
Si Si1 0.618811 0.882430 0.980898
Si Si2 0.574481 0.061605 0.480707
Si Si3 0.983952 0.646658 0.604065
Si Si4 0.698667 0.884876 0.481566
Si Si5 0.856000 0.033673 0.291861
Si Si6 0.981558 0.626603 0.948129
Si Si7 0.150164 0.520352 0.748265
Si Si8 0.300743 0.753982 0.172827
O O1 0.638834 0.967674 0.098331
O O2 0.635772 0.750000 0.000000
O O3 0.567325 0.875285 0.008472
O O4 0.626413 0.943459 0.827171
O O5 0.536052 0.140955 0.419928
O O6 0.605552 0.094527 0.614858
O O7 0.607163 0.029816 0.351299
O O8 0.545149 0.957709 0.543431
O O9 0.968693 0.750000 0.500000
O O10 0.978503 0.642312 0.775777
O O11 0.687812 0.750000 0.500000
O O12 0.750000 0.899883 0.500000
O O13 0.672476 0.959582 0.597197
O O14 0.682935 0.932278 0.329336
O O15 0.825337 0.130537 0.222793
O O16 0.002879 0.750000 0.000000
O O17 0.000000 0.500000 0.000000
O O18 0.173376 0.644184 0.764042
O O19 0.250000 0.750000 0.217718
O O20 0.301962 0.750000 0.000000
#
# Coordination Sequence:
#
# PCOD9397213 Si02
#       8
#     8   8   8   8   8   8   8   8
#     4  11  23  40  65  94 131 170 231 276 340 405
#     4  10  25  41  63  93 130 167 230 265 345 387
#     4  11  25  42  66  93 135 181 224 285 336 413
#     4  10  22  40  64  95 129 165 212 268 329 400
#     4  11  22  43  66  94 129 171 221 272 335 404
#     4  11  26  46  68  99 136 183 232 294 354 410
#     4  11  23  42  67  96 128 175 221 272 339 408
#     4  11  24  43  68  98 135 174 216 280 348 412
#
# _framework density 19.443300000000001
#
# number of rings (size 3 to 8) (size 9 to 14) (size 15 to 20)
#    0.000    1.250    2.500    2.250    8.750    3.500 
#    2.250    3.125    0.000    3.000    0.000    0.000 
#    0.000    0.000    0.000    0.000    0.000    0.000 
#
# Total GULP energy -356970.255234 kJ/mol
# GULP energy per Si atom -5577.660238 kJ/mol
# Density = 1.939905 g / cm^3
# Si number density = 19.443300 Si / 1000 Ang^3
#
#
#
# Elastic Constant Matrix: (Units=GPa)
#
#
# Indices 1 2 3 4 5 6 
#
# 1 85.1747 34.5412 11.3892 0.0000 0.0000 0.0000
# 2 34.5412 80.4603 16.1365 0.0000 0.0000 0.0000
# 3 11.3892 16.1365 84.3247 0.0000 0.0000 0.0000
# 4 0.0000 0.0000 0.0000 29.6895 0.0000 0.0000
# 5 0.0000 0.0000 0.0000 0.0000 196.2675 0.0000
# 6 0.0000 0.0000 0.0000 0.0000 0.0000 10.3216
#
#
#
# Elastic Compliance Matrix: (Units=1/GPa)
#
#
# Indices 1 2 3 4 5 6 
#
# 1 0.014265 -0.005967 -0.000785 0.000000 0.000000 0.000000
# 2 -0.005967 0.015420 -0.002145 0.000000 0.000000 0.000000
# 3 -0.000785 -0.002145 0.012375 0.000000 0.000000 0.000000
# 4 0.000000 0.000000 0.000000 0.033682 0.000000 0.000000
# 5 0.000000 0.000000 0.000000 0.000000 0.005095 0.000000
# 6 0.000000 0.000000 0.000000 0.000000 0.000000 0.096884
#
#
# Mechanical properties :
#
#
# Convention : Reuss Voigt Hill
#
# Bulk Modulus (GPa) = 41.20689 41.56594 41.38642
# Shear Modulus (GPa) = 24.55749 59.78192 42.16970
#
# Velocity S-wave (km/s) = 3.55777 5.55099 4.66215
# Velocity P-wave (km/s) = 6.17384 7.90627 7.09315
#
# Compressibility (1/GPa) = 0.02426778
#
# Stress axis : x y z
#
# Youngs Moduli (GPa) = 70.10084 64.85061 80.80552
#
# Poissons Ratio (x) = 0.38693 0.06343
# Poissons Ratio (y) = 0.41826 0.17332
# Poissons Ratio (z) = 0.05503 0.13910
#
# Static dielectric constant tensor:
#      x y z
#    x 1.665530 0.000000 0.000000 
#    y 0.000000 1.698600 0.000000 
#    z 0.000000 0.000000 1.608800 
# 
# From -- ./inp_files/17089.got.cif
#   From: 2010.05.17/outbox.cif.g08.bks.cpg/sg50_9_cif.got.tgz:17089.got - 2010.06.03 11:33:33.
