data_PCOD9397379
_publ_section_title
;
Structure prediction by ZEFSAII (Michael W. Deem and Ramdas Pophale) SiO2 
 PCOD9397379
Probable space group: P B A N
;
_chemical_formula_sum "Si O2"
_cell_formula_units_Z 28
_cell_length_a 8.085629
_cell_length_b 15.144720
_cell_length_c 9.398309
_cell_angle_alpha 90.000000
_cell_angle_beta 90.000000
_cell_angle_gamma 90.000000
_cell_volume 1150.866049
_symmetry_space_group_name_H-M "P B A N"
_symmetry_group_IT_number 50
_space_group.IT_coordinate_system_code '2'
_symmetry_cell_setting 'orthorhombic'
loop_
_space_group_symop_operation_xyz
x,y,z
1/2-x,1/2-y,z
x,1/2-y,-z
1/2-x,y,-z
-x,-y,-z
1/2+x,1/2+y,-z
-x,1/2+y,z
1/2+x,-y,z
loop_
_atom_site_type_symbol
_atom_site_label
_atom_site_fract_x
_atom_site_fract_y
_atom_site_fract_z
Si Si1 0.848904 0.557558 0.354216
Si Si2 0.524950 0.595152 0.214912
Si Si3 0.586401 0.287335 0.271654
Si Si4 0.750000 0.117105 0.000000
O O1 0.750000 0.564789 0.500000
O O2 0.715132 0.567328 0.225961
O O3 0.934767 0.463102 0.335880
O O4 0.981680 0.635998 0.343830
O O5 0.519793 0.700040 0.240412
O O6 0.409833 0.575717 0.078492
O O7 0.750000 0.250000 0.347542
O O8 0.660780 0.329215 0.126879
#
# Coordination Sequence:
#
# PCOD9397379 Si02
#       4
#     8   8   8   4
#     4  12  27  46  69 107 145 186 246 290 349 434
#     4  11  23  42  70 100 140 187 230 296 356 416
#     4  10  22  44  71 100 140 184 230 295 360 419
#     4  10  23  46  70 106 145 184 245 296 360 430
#
# _framework density 24.329502999999999
#
# number of rings (size 3 to 8) (size 9 to 14) (size 15 to 20)
#    0.000    1.143    0.000    9.000    0.000    8.000 
#    0.000   12.857    0.000    0.000    0.000    0.000 
#    0.000    0.000    0.000    0.000    0.000    0.000 
#
# Total GULP energy -156502.743332 kJ/mol
# GULP energy per Si atom -5589.383690 kJ/mol
# Density = 2.427413 g / cm^3
# Si number density = 24.329503 Si / 1000 Ang^3
#
#
#
# Elastic Constant Matrix: (Units=GPa)
#
#
# Indices 1 2 3 4 5 6 
#
# 1 134.5519 55.0217 57.1754 0.0000 0.0000 0.0000
# 2 55.0217 129.4845 61.1842 0.0000 0.0000 0.0000
# 3 57.1754 61.1842 120.1078 0.0000 0.0000 0.0000
# 4 0.0000 0.0000 0.0000 -28.4376 0.0000 0.0000
# 5 0.0000 0.0000 0.0000 0.0000 45.6376 0.0000
# 6 0.0000 0.0000 0.0000 0.0000 0.0000 67.7408
#
#
#
# Elastic Compliance Matrix: (Units=1/GPa)
#
#
# Indices 1 2 3 4 5 6 
#
# 1 0.009949 -0.002620 -0.003401 0.000000 0.000000 0.000000
# 2 -0.002620 0.010861 -0.004285 0.000000 0.000000 0.000000
# 3 -0.003401 -0.004285 0.012128 0.000000 0.000000 0.000000
# 4 0.000000 0.000000 0.000000 -0.035165 0.000000 0.000000
# 5 0.000000 0.000000 0.000000 0.000000 0.021912 0.000000
# 6 0.000000 0.000000 0.000000 0.000000 0.000000 0.014762
#
#
# Mechanical properties :
#
#
# Convention : Reuss Voigt Hill
#
# Bulk Modulus (GPa) = 81.14154 81.21183 81.17668
# Shear Modulus (GPa) = 84.50260 31.03902 57.77081
#
# Velocity S-wave (km/s) = 5.89983 3.57568 4.87819
# Velocity P-wave (km/s) = 8.93499 7.10632 8.07260
#
# Compressibility (1/GPa) = 0.01232414
#
# Stress axis : x y z
#
# Youngs Moduli (GPa) = 100.51365 92.06885 82.45397
#
# Poissons Ratio (x) = 0.24126 0.28044
# Poissons Ratio (y) = 0.26339 0.35336
# Poissons Ratio (z) = 0.34186 0.39456
#
# Static dielectric constant tensor:
#      x y z
#    x 1.983360 0.000000 0.000000 
#    y 0.000000 1.936750 0.000000 
#    z 0.000000 0.000000 1.997830 
# 
# From -- ./inp_files/8803.got.cif
#   From: 2010.05.17/outbox.cif.g08.bks.cpg/sg50_5_cif.got.tgz:8803.got - 2010.06.03 11:33:33.
