data_PCOD9397791
_publ_section_title
;
Structure prediction by ZEFSAII (Michael W. Deem and Ramdas Pophale) SiO2 
 PCOD9397791
Probable space group: P B A N
;
_chemical_formula_sum "Si O2"
_cell_formula_units_Z 34
_cell_length_a 5.543473
_cell_length_b 34.435656
_cell_length_c 7.599484
_cell_angle_alpha 90.000000
_cell_angle_beta 90.000000
_cell_angle_gamma 90.000000
_cell_volume 1450.689282
_symmetry_space_group_name_H-M "P B A N"
_symmetry_group_IT_number 50
_space_group.IT_coordinate_system_code '2'
_symmetry_cell_setting 'orthorhombic'
loop_
_space_group_symop_operation_xyz
x,y,z
1/2-x,1/2-y,z
x,1/2-y,-z
1/2-x,y,-z
-x,-y,-z
1/2+x,1/2+y,-z
-x,1/2+y,z
1/2+x,-y,z
loop_
_atom_site_type_symbol
_atom_site_label
_atom_site_fract_x
_atom_site_fract_y
_atom_site_fract_z
Si Si1 0.250000 0.475960 0.500000
Si Si2 0.750000 0.142638 0.500000
Si Si3 0.250000 0.250000 0.000000
Si Si4 0.472447 0.923744 0.258898
Si Si5 0.440909 0.816805 0.839074
Si Si6 0.750000 0.475998 0.000000
Si Si7 0.250000 0.122132 0.000000
O O1 0.500000 0.500000 0.500000
O O2 0.197473 0.447698 0.664706
O O3 0.588096 0.110661 0.605205
O O4 0.671067 0.172500 0.346861
O O5 0.421484 0.223351 0.121800
O O6 0.544515 0.903817 0.077973
O O7 0.265617 0.952558 0.187186
O O8 0.250000 0.821279 0.000000
O O9 0.644074 0.849772 0.854676
O O10 0.500000 0.500000 0.000000
#
# Coordination Sequence:
#
# PCOD9397791 Si02
#       7
#     4   4   2   8   8   4   4
#     4  12  27  46  66 104 155 205 266 335 399 480
#     4  12  25  46  83 116 151 198 258 334 381 462
#     4  10  26  48  84 102 164 202 238 296 386 478
#     4  12  25  46  75 109 149 204 265 328 402 459
#     4  11  23  49  77 114 151 196 248 309 378 468
#     4  12  27  48  73 108 157 219 272 333 409 486
#     4  11  23  45  76 106 143 194 254 318 379 456
#
# _framework density 23.437135999999999
#
# number of rings (size 3 to 8) (size 9 to 14) (size 15 to 20)
#    0.000    0.471    2.353    6.000    0.000    3.765 
#    0.000    3.529    0.000    0.000    0.000    0.000 
#    0.000    0.000    0.000    0.000    0.000    0.000 
#
# Total GULP energy -189845.651853 kJ/mol
# GULP energy per Si atom -5583.695643 kJ/mol
# Density = 2.338379 g / cm^3
# Si number density = 23.437136 Si / 1000 Ang^3
#
#
#
# Elastic Constant Matrix: (Units=GPa)
#
#
# Indices 1 2 3 4 5 6 
#
# 1 135.8038 78.3420 64.4852 0.0000 0.0000 0.0000
# 2 78.3420 142.0698 69.8977 0.0000 0.0000 0.0000
# 3 64.4852 69.8977 155.5315 0.0000 0.0000 0.0000
# 4 0.0000 0.0000 0.0000 11.9094 0.0000 0.0000
# 5 0.0000 0.0000 0.0000 0.0000 45.7404 0.0000
# 6 0.0000 0.0000 0.0000 0.0000 0.0000 48.2215
#
#
#
# Elastic Compliance Matrix: (Units=1/GPa)
#
#
# Indices 1 2 3 4 5 6 
#
# 1 0.011488 -0.005124 -0.002460 0.000000 0.000000 0.000000
# 2 -0.005124 0.011323 -0.002964 0.000000 0.000000 0.000000
# 3 -0.002460 -0.002964 0.008782 0.000000 0.000000 0.000000
# 4 0.000000 0.000000 0.000000 0.083968 0.000000 0.000000
# 5 0.000000 0.000000 0.000000 0.000000 0.021863 0.000000
# 6 0.000000 0.000000 0.000000 0.000000 0.000000 0.020738
#
#
# Mechanical properties :
#
#
# Convention : Reuss Voigt Hill
#
# Bulk Modulus (GPa) = 95.27991 95.42833 95.35412
# Shear Modulus (GPa) = 27.35898 35.88626 31.62262
#
# Velocity S-wave (km/s) = 3.42033 3.91726 3.67720
# Velocity P-wave (km/s) = 7.50599 7.82720 7.66828
#
# Compressibility (1/GPa) = 0.01049539
#
# Stress axis : x y z
#
# Youngs Moduli (GPa) = 87.04839 88.31697 113.87507
#
# Poissons Ratio (x) = 0.45258 0.28013
# Poissons Ratio (y) = 0.44608 0.33752
# Poissons Ratio (z) = 0.21414 0.26177
#
# Static dielectric constant tensor:
#      x y z
#    x 1.744690 0.000000 0.000000 
#    y 0.000000 1.948770 0.000000 
#    z 0.000000 0.000000 1.856080 
# 
# From -- ./inp_files/8062.got.cif
#   From: 2010.05.17/outbox.cif.g08.bks.cpg/sg50_5_cif.got.tgz:8062.got - 2010.06.03 11:33:33.
