data_PCOD9397441
_publ_section_title
;
Structure prediction by ZEFSAII (Michael W. Deem and Ramdas Pophale) SiO2 
 PCOD9397441
Probable space group: P B A N
;
_chemical_formula_sum "Si O2"
_cell_formula_units_Z 48
_cell_length_a 13.219900
_cell_length_b 12.722049
_cell_length_c 14.260988
_cell_angle_alpha 90.000000
_cell_angle_beta 90.000000
_cell_angle_gamma 90.000000
_cell_volume 2398.473080
_symmetry_space_group_name_H-M "P B A N"
_symmetry_group_IT_number 50
_space_group.IT_coordinate_system_code '2'
_symmetry_cell_setting 'orthorhombic'
loop_
_space_group_symop_operation_xyz
x,y,z
1/2-x,1/2-y,z
x,1/2-y,-z
1/2-x,y,-z
-x,-y,-z
1/2+x,1/2+y,-z
-x,1/2+y,z
1/2+x,-y,z
loop_
_atom_site_type_symbol
_atom_site_label
_atom_site_fract_x
_atom_site_fract_y
_atom_site_fract_z
Si Si1 0.426059 0.263439 0.610943
Si Si2 0.365552 0.483187 0.689281
Si Si3 0.482514 0.022964 0.855200
Si Si4 0.646721 0.208712 0.607639
Si Si5 0.809076 0.645438 0.232735
Si Si6 0.129799 0.875725 0.007768
O O1 0.423385 0.250000 0.500000
O O2 0.386827 0.378989 0.631122
O O3 0.541094 0.250969 0.646865
O O4 0.358687 0.180820 0.668303
O O5 0.459535 0.499425 0.758916
O O6 0.353156 0.583921 0.623105
O O7 0.266575 0.451541 0.749377
O O8 0.397637 0.110665 0.835990
O O9 0.567689 0.066873 0.925262
O O10 0.423611 0.923600 0.899551
O O11 0.750000 0.250000 0.653109
O O12 0.647378 0.250000 0.500000
O O13 0.750000 0.750000 0.199383
O O14 0.117991 0.750000 0.000000
O O15 0.250000 0.899228 0.000000
#
# Coordination Sequence:
#
# PCOD9397441 Si02
#       6
#     8   8   8   8   8   8
#     4  10  23  42  63  91 132 177 225 269 320 379
#     4  11  24  40  67  94 131 177 218 277 322 385
#     4  11  23  44  68  99 133 167 215 262 336 387
#     4  10  23  39  59  94 129 174 226 269 324 378
#     4  10  23  41  65 100 131 175 228 266 324 387
#     4  10  24  45  71  99 130 166 206 265 329 405
#
# _framework density 20.012732
#
# number of rings (size 3 to 8) (size 9 to 14) (size 15 to 20)
#    0.000    1.667    1.667    1.000    7.000    8.333 
#    3.000    0.000    0.000    0.000    0.000    0.000 
#    0.000    0.000    0.000    0.000    0.000    0.000 
#
# Total GULP energy -267920.943563 kJ/mol
# GULP energy per Si atom -5581.686324 kJ/mol
# Density = 1.996718 g / cm^3
# Si number density = 20.012732 Si / 1000 Ang^3
#
#
#
# Elastic Constant Matrix: (Units=GPa)
#
#
# Indices 1 2 3 4 5 6 
#
# 1 145.0077 51.5288 24.8941 0.0000 0.0000 0.0000
# 2 51.5288 93.4597 33.1141 0.0000 0.0000 0.0000
# 3 24.8941 33.1141 55.4343 0.0000 0.0000 0.0000
# 4 0.0000 0.0000 0.0000 20.2255 0.0000 0.0000
# 5 0.0000 0.0000 0.0000 0.0000 12.8759 0.0000
# 6 0.0000 0.0000 0.0000 0.0000 0.0000 43.1912
#
#
#
# Elastic Compliance Matrix: (Units=1/GPa)
#
#
# Indices 1 2 3 4 5 6 
#
# 1 0.008651 -0.004304 -0.001314 0.000000 0.000000 0.000000
# 2 -0.004304 0.015714 -0.007454 0.000000 0.000000 0.000000
# 3 -0.001314 -0.007454 0.023082 0.000000 0.000000 0.000000
# 4 0.000000 0.000000 0.000000 0.049443 0.000000 0.000000
# 5 0.000000 0.000000 0.000000 0.000000 0.077664 0.000000
# 6 0.000000 0.000000 0.000000 0.000000 0.000000 0.023153
#
#
# Mechanical properties :
#
#
# Convention : Reuss Voigt Hill
#
# Bulk Modulus (GPa) = 46.94140 56.99728 51.96934
# Shear Modulus (GPa) = 21.64948 27.54951 24.59949
#
# Velocity S-wave (km/s) = 3.29262 3.71428 3.50979
# Velocity P-wave (km/s) = 6.16132 6.85105 6.51531
#
# Compressibility (1/GPa) = 0.02130316
#
# Stress axis : x y z
#
# Youngs Moduli (GPa) = 115.58953 63.63740 43.32373
#
# Poissons Ratio (x) = 0.27392 0.05692
# Poissons Ratio (y) = 0.49754 0.32293
# Poissons Ratio (z) = 0.15186 0.47435
#
# Static dielectric constant tensor:
#      x y z
#    x 1.753560 0.000000 0.000000 
#    y 0.000000 1.674490 0.000000 
#    z 0.000000 0.000000 1.869730 
# 
# From -- ./inp_files/26424.got.cif
#   From: 2010.05.17/outbox.cif.g08.bks.cpg/sg50_14_cif.got.tgz:26424.got - 2010.06.03 11:33:33.
