data_PCOD9397053
_publ_section_title
;
Structure prediction by ZEFSAII (Michael W. Deem and Ramdas Pophale) SiO2 
 PCOD9397053
Probable space group: P B A N
;
_chemical_formula_sum "Si O2"
_cell_formula_units_Z 48
_cell_length_a 17.135282
_cell_length_b 9.161245
_cell_length_c 14.346748
_cell_angle_alpha 90.000000
_cell_angle_beta 90.000000
_cell_angle_gamma 90.000000
_cell_volume 2252.159912
_symmetry_space_group_name_H-M "P B A N"
_symmetry_group_IT_number 50
_space_group.IT_coordinate_system_code '2'
_symmetry_cell_setting 'orthorhombic'
loop_
_space_group_symop_operation_xyz
x,y,z
1/2-x,1/2-y,z
x,1/2-y,-z
1/2-x,y,-z
-x,-y,-z
1/2+x,1/2+y,-z
-x,1/2+y,z
1/2+x,-y,z
loop_
_atom_site_type_symbol
_atom_site_label
_atom_site_fract_x
_atom_site_fract_y
_atom_site_fract_z
Si Si1 0.166483 0.051308 0.840399
Si Si2 0.250000 0.750000 0.803840
Si Si3 0.506749 0.893675 0.337443
Si Si4 0.250000 0.250000 0.000000
Si Si5 0.091256 0.651741 0.766777
Si Si6 0.121627 0.129097 0.629988
Si Si7 0.989370 0.626896 0.930353
Si Si8 0.750000 0.750000 0.500000
O O1 0.204783 0.146984 0.924278
O O2 0.164329 0.105425 0.731819
O O3 0.074726 0.072760 0.858630
O O4 0.203411 0.888372 0.849627
O O5 0.181899 0.669236 0.748637
O O6 0.454231 0.787732 0.275196
O O7 0.568931 0.777582 0.379203
O O8 0.558358 0.004897 0.277329
O O9 0.441613 0.997651 0.387479
O O10 0.069100 0.656380 0.875706
O O11 0.192754 0.147811 0.559957
O O12 0.960788 0.750000 0.000000
O O13 0.000000 0.500000 0.000000
#
# Coordination Sequence:
#
# PCOD9397053 Si02
#       8
#     8   4   8   2   8   8   8   2
#     4  12  26  46  67 100 150 196 248 302 376 430
#     4  12  26  39  66 105 148 184 250 313 364 421
#     4  10  21  43  78  99 141 182 247 284 373 447
#     4  12  30  42  64 102 148 208 250 312 364 428
#     4  11  22  41  65 103 136 196 238 302 354 432
#     4  11  25  49  77 110 141 195 241 313 374 460
#     4  12  24  40  64  97 144 197 254 295 344 432
#     4  12  30  48  80 112 152 182 242 306 392 458
#
# _framework density 21.312874000000001
#
# number of rings (size 3 to 8) (size 9 to 14) (size 15 to 20)
#    0.000    0.667    5.833    2.500    7.000    1.000 
#    0.000    0.000    0.000    6.500    0.000    0.000 
#    0.000    0.000    0.000    0.000    0.000    0.000 
#
# Total GULP energy -267261.983497 kJ/mol
# GULP energy per Si atom -5567.957990 kJ/mol
# Density = 2.126437 g / cm^3
# Si number density = 21.312874 Si / 1000 Ang^3
#
#
#
# Elastic Constant Matrix: (Units=GPa)
#
#
# Indices 1 2 3 4 5 6 
#
# 1 124.5884 54.2325 48.0912 0.0000 0.0000 0.0000
# 2 54.2325 157.0874 34.2502 0.0000 0.0000 0.0000
# 3 48.0912 34.2502 93.8101 0.0000 0.0000 0.0000
# 4 0.0000 0.0000 0.0000 11.4692 0.0000 0.0000
# 5 0.0000 0.0000 0.0000 0.0000 50.7090 0.0000
# 6 0.0000 0.0000 0.0000 0.0000 0.0000 6.9842
#
#
#
# Elastic Compliance Matrix: (Units=1/GPa)
#
#
# Indices 1 2 3 4 5 6 
#
# 1 0.011034 -0.002799 -0.004634 0.000000 0.000000 0.000000
# 2 -0.002799 0.007626 -0.001350 0.000000 0.000000 0.000000
# 3 -0.004634 -0.001350 0.013528 0.000000 0.000000 0.000000
# 4 0.000000 0.000000 0.000000 0.087190 0.000000 0.000000
# 5 0.000000 0.000000 0.000000 0.000000 0.019720 0.000000
# 6 0.000000 0.000000 0.000000 0.000000 0.000000 0.143180
#
#
# Mechanical properties :
#
#
# Convention : Reuss Voigt Hill
#
# Bulk Modulus (GPa) = 68.38698 72.07041 70.22869
# Shear Modulus (GPa) = 16.40854 29.75994 23.08424
#
# Velocity S-wave (km/s) = 2.77770 3.74081 3.29464
# Velocity P-wave (km/s) = 6.51493 7.24894 6.89171
#
# Compressibility (1/GPa) = 0.01462267
#
# Stress axis : x y z
#
# Youngs Moduli (GPa) = 90.63209 131.12378 73.91843
#
# Poissons Ratio (x) = 0.36698 0.34257
# Poissons Ratio (y) = 0.25366 0.09976
# Poissons Ratio (z) = 0.42003 0.17697
#
# Static dielectric constant tensor:
#      x y z
#    x 1.802060 0.000000 0.000000 
#    y 0.000000 1.805850 0.000000 
#    z 0.000000 0.000000 1.762520 
# 
# From -- ./inp_files/26910.got.cif
#   From: 2010.05.17/outbox.cif.g08.bks.cpg/sg50_14_cif.got.tgz:26910.got - 2010.06.03 11:33:33.
