data_PCOD9397934
_publ_section_title
;
Structure prediction by ZEFSAII (Michael W. Deem and Ramdas Pophale) SiO2 
 PCOD9397934
Probable space group: P B A N
;
_chemical_formula_sum "Si O2"
_cell_formula_units_Z 56
_cell_length_a 14.138541
_cell_length_b 9.183931
_cell_length_c 22.237837
_cell_angle_alpha 90.000000
_cell_angle_beta 90.000000
_cell_angle_gamma 90.000000
_cell_volume 2887.524982
_symmetry_space_group_name_H-M "P B A N"
_symmetry_group_IT_number 50
_space_group.IT_coordinate_system_code '2'
_symmetry_cell_setting 'orthorhombic'
loop_
_space_group_symop_operation_xyz
x,y,z
1/2-x,1/2-y,z
x,1/2-y,-z
1/2-x,y,-z
-x,-y,-z
1/2+x,1/2+y,-z
-x,1/2+y,z
1/2+x,-y,z
loop_
_atom_site_type_symbol
_atom_site_label
_atom_site_fract_x
_atom_site_fract_y
_atom_site_fract_z
Si Si1 0.236236 0.074680 0.067082
Si Si2 0.918843 0.911155 0.844202
Si Si3 0.155218 0.589251 0.284872
Si Si4 0.612748 0.931453 0.831860
Si Si5 0.863944 0.758240 0.572009
Si Si6 0.004603 0.000411 0.626686
Si Si7 0.635550 0.093601 0.270422
O O1 0.250000 0.250000 0.063834
O O2 0.134407 0.044233 0.095038
O O3 0.307925 0.027893 0.119561
O O4 0.250000 0.016057 0.000000
O O5 0.910938 0.738279 0.838192
O O6 0.872185 0.985395 0.785447
O O7 0.023320 0.970391 0.845424
O O8 0.138934 0.461278 0.237361
O O9 0.085578 0.595225 0.341028
O O10 0.263995 0.577102 0.303501
O O11 0.136840 0.739361 0.249098
O O12 0.750000 0.750000 0.592092
O O13 0.860465 0.750000 0.500000
O O14 0.931953 0.624077 0.593725
O O15 0.925618 0.902004 0.592118
O O16 0.947849 0.067771 0.682945
#
# Coordination Sequence:
#
# PCOD9397934 Si02
#       7
#     8   8   8   8   8   8   8
#     4   9  20  40  61  83 117 163 214 261 316 387
#     4  11  22  37  59  89 121 164 207 260 323 379
#     4  11  23  38  60  92 131 165 207 263 325 389
#     4  11  22  37  59  89 121 164 207 260 323 379
#     4  11  26  48  73 101 135 179 229 274 325 395
#     4  12  23  44  66 100 133 174 216 274 330 388
#     4  11  23  38  60  92 131 165 207 263 325 389
#
# _framework density 19.393771999999998
#
# number of rings (size 3 to 8) (size 9 to 14) (size 15 to 20)
#    0.000    1.143    4.286    2.143    2.000    0.571 
#    0.000    0.000    0.000    9.429    0.000    0.000 
#    0.000    0.000    0.000    0.000    0.000    0.000 
#
# Total GULP energy -312075.143290 kJ/mol
# GULP energy per Si atom -5572.770416 kJ/mol
# Density = 1.934963 g / cm^3
# Si number density = 19.393772 Si / 1000 Ang^3
#
#
#
# Elastic Constant Matrix: (Units=GPa)
#
#
# Indices 1 2 3 4 5 6 
#
# 1 113.8130 13.8348 27.7912 0.0000 0.0000 0.0000
# 2 13.8348 66.4312 13.8324 0.0000 0.0000 0.0000
# 3 27.7912 13.8324 76.9336 0.0000 0.0000 0.0000
# 4 0.0000 0.0000 0.0000 12.9530 0.0000 0.0000
# 5 0.0000 0.0000 0.0000 0.0000 18.2150 0.0000
# 6 0.0000 0.0000 0.0000 0.0000 0.0000 -21.0746
#
#
#
# Elastic Compliance Matrix: (Units=1/GPa)
#
#
# Indices 1 2 3 4 5 6 
#
# 1 0.009751 -0.001348 -0.003280 0.000000 0.000000 0.000000
# 2 -0.001348 0.015825 -0.002358 0.000000 0.000000 0.000000
# 3 -0.003280 -0.002358 0.014607 0.000000 0.000000 0.000000
# 4 0.000000 0.000000 0.000000 0.077202 0.000000 0.000000
# 5 0.000000 0.000000 0.000000 0.000000 0.054900 0.000000
# 6 0.000000 0.000000 0.000000 0.000000 0.000000 -0.047450
#
#
# Mechanical properties :
#
#
# Convention : Reuss Voigt Hill
#
# Bulk Modulus (GPa) = 38.15248 40.89939 39.52593
# Shear Modulus (GPa) = 33.88816 15.46664 24.67740
#
# Velocity S-wave (km/s) = 4.18469 2.82708 3.57100
# Velocity P-wave (km/s) = 6.56233 5.63837 6.11782
#
# Compressibility (1/GPa) = 0.02621062
#
# Stress axis : x y z
#
# Youngs Moduli (GPa) = 102.55227 63.19147 68.45963
#
# Poissons Ratio (x) = 0.08517 0.22456
# Poissons Ratio (y) = 0.13822 0.16146
# Poissons Ratio (z) = 0.33639 0.14903
#
# Static dielectric constant tensor:
#      x y z
#    x 1.715210 0.000000 0.000000 
#    y 0.000000 1.709130 0.000000 
#    z 0.000000 0.000000 1.658980 
# 
# From -- ./inp_files/30978.got.cif
#   From: 2010.05.17/outbox.cif.g08.bks.cpg/sg50_16_cif.got.tgz:30978.got - 2010.06.03 11:33:33.
