data_PCOD9397897
_publ_section_title
;
Structure prediction by ZEFSAII (Michael W. Deem and Ramdas Pophale) SiO2 
 PCOD9397897
Probable space group: P B A N
;
_chemical_formula_sum "Si O2"
_cell_formula_units_Z 48
_cell_length_a 8.473753
_cell_length_b 15.121483
_cell_length_c 16.473827
_cell_angle_alpha 90.000000
_cell_angle_beta 90.000000
_cell_angle_gamma 90.000000
_cell_volume 2110.885551
_symmetry_space_group_name_H-M "P B A N"
_symmetry_group_IT_number 50
_space_group.IT_coordinate_system_code '2'
_symmetry_cell_setting 'orthorhombic'
loop_
_space_group_symop_operation_xyz
x,y,z
1/2-x,1/2-y,z
x,1/2-y,-z
1/2-x,y,-z
-x,-y,-z
1/2+x,1/2+y,-z
-x,1/2+y,z
1/2+x,-y,z
loop_
_atom_site_type_symbol
_atom_site_label
_atom_site_fract_x
_atom_site_fract_y
_atom_site_fract_z
Si Si1 0.036656 0.876336 0.829447
Si Si2 0.224554 0.030831 0.904578
Si Si3 0.869857 0.670759 0.332528
Si Si4 0.577148 0.360484 0.473716
Si Si5 0.148159 0.452863 0.417667
Si Si6 0.920226 0.716183 0.907609
O O1 0.884051 0.924590 0.870577
O O2 0.991683 0.856698 0.736728
O O3 0.050425 0.776814 0.865055
O O4 0.173956 0.944866 0.853250
O O5 0.092192 0.110200 0.901553
O O6 0.250000 0.009239 0.000000
O O7 0.750000 0.750000 0.311382
O O8 0.753847 0.587564 0.348335
O O9 0.960935 0.695938 0.416881
O O10 0.750000 0.333292 0.500000
O O11 0.499749 0.393898 0.557374
O O12 0.596857 0.446605 0.415619
O O13 0.250000 0.447207 0.500000
O O14 0.750000 0.750000 0.874896
O O15 0.924545 0.750000 0.000000
#
# Coordination Sequence:
#
# PCOD9397897 Si02
#       6
#     8   8   8   8   8   8
#     4  11  24  39  63  99 133 172 219 277 328 393
#     4  11  21  40  67  95 124 175 234 264 325 407
#     4  11  23  39  61  95 137 174 216 271 341 409
#     4   9  18  37  64  93 123 167 224 273 320 391
#     4   8  17  35  61  91 125 170 215 260 321 401
#     4   9  16  35  63  88 122 165 211 268 318 387
#
# _framework density 22.739270000000001
#
# number of rings (size 3 to 8) (size 9 to 14) (size 15 to 20)
#    0.000    2.167    3.333    3.000    2.333    3.000 
#    0.000    2.500    0.000    2.000    0.000    0.000 
#    0.000    0.000    0.000    0.000    0.000    0.000 
#
# Total GULP energy -267643.351475 kJ/mol
# GULP energy per Si atom -5575.903156 kJ/mol
# Density = 2.268751 g / cm^3
# Si number density = 22.739270 Si / 1000 Ang^3
#
#
#
# Elastic Constant Matrix: (Units=GPa)
#
#
# Indices 1 2 3 4 5 6 
#
# 1 68.4666 8.5762 9.9091 0.0000 0.0000 0.0000
# 2 8.5762 123.6265 14.7485 0.0000 0.0000 0.0000
# 3 9.9091 14.7485 86.2755 0.0000 0.0000 0.0000
# 4 0.0000 0.0000 0.0000 23.8432 0.0000 0.0000
# 5 0.0000 0.0000 0.0000 0.0000 17.0882 0.0000
# 6 0.0000 0.0000 0.0000 0.0000 0.0000 7.3960
#
#
#
# Elastic Compliance Matrix: (Units=1/GPa)
#
#
# Indices 1 2 3 4 5 6 
#
# 1 0.014939 -0.000849 -0.001571 0.000000 0.000000 0.000000
# 2 -0.000849 0.008306 -0.001322 0.000000 0.000000 0.000000
# 3 -0.001571 -0.001322 0.011997 0.000000 0.000000 0.000000
# 4 0.000000 0.000000 0.000000 0.041941 0.000000 0.000000
# 5 0.000000 0.000000 0.000000 0.000000 0.058520 0.000000
# 6 0.000000 0.000000 0.000000 0.000000 0.000000 0.135207
#
#
# Mechanical properties :
#
#
# Convention : Reuss Voigt Hill
#
# Bulk Modulus (GPa) = 36.02553 38.31514 37.17033
# Shear Modulus (GPa) = 17.38244 26.00782 21.69513
#
# Velocity S-wave (km/s) = 2.76782 3.38559 3.09217
# Velocity P-wave (km/s) = 5.10800 5.67180 5.39727
#
# Compressibility (1/GPa) = 0.02775809
#
# Stress axis : x y z
#
# Youngs Moduli (GPa) = 66.93742 120.40182 83.35270
#
# Poissons Ratio (x) = 0.10222 0.13092
# Poissons Ratio (y) = 0.05683 0.11022
# Poissons Ratio (z) = 0.10514 0.15921
#
# Static dielectric constant tensor:
#      x y z
#    x 1.934680 0.000000 0.000000 
#    y 0.000000 1.969190 0.000000 
#    z 0.000000 0.000000 1.846790 
# 
# From -- ./inp_files/28700.got.cif
#   From: 2010.05.17/outbox.cif.g08.bks.cpg/sg50_15_cif.got.tgz:28700.got - 2010.06.03 11:33:33.
