data_PCOD9397660
_publ_section_title
;
Structure prediction by ZEFSAII (Michael W. Deem and Ramdas Pophale) SiO2 
 PCOD9397660
Probable space group: P B A N
;
_chemical_formula_sum "Si O2"
_cell_formula_units_Z 38
_cell_length_a 9.841761
_cell_length_b 9.786247
_cell_length_c 17.573607
_cell_angle_alpha 90.000000
_cell_angle_beta 90.000000
_cell_angle_gamma 90.000000
_cell_volume 1692.582699
_symmetry_space_group_name_H-M "P B A N"
_symmetry_group_IT_number 50
_space_group.IT_coordinate_system_code '2'
_symmetry_cell_setting 'orthorhombic'
loop_
_space_group_symop_operation_xyz
x,y,z
1/2-x,1/2-y,z
x,1/2-y,-z
1/2-x,y,-z
-x,-y,-z
1/2+x,1/2+y,-z
-x,1/2+y,z
1/2+x,-y,z
loop_
_atom_site_type_symbol
_atom_site_label
_atom_site_fract_x
_atom_site_fract_y
_atom_site_fract_z
Si Si1 0.250000 0.250000 0.500000
Si Si2 0.250000 0.750000 0.190686
Si Si3 0.699736 0.036181 0.679659
Si Si4 0.500000 0.000000 0.000000
Si Si5 0.025650 0.262472 0.111689
Si Si6 0.250000 0.250000 0.239504
Si Si7 0.567392 0.965317 0.419450
O O1 0.344336 0.163933 0.555869
O O2 0.295644 0.869644 0.246705
O O3 0.126332 0.798576 0.138943
O O4 0.555947 0.052651 0.638535
O O5 0.725007 0.883103 0.709645
O O6 0.822782 0.066018 0.620145
O O7 0.489639 0.125833 0.938168
O O8 0.571415 0.895063 0.936091
O O9 0.121493 0.235038 0.183359
O O10 0.500000 0.000000 0.500000
#
# Coordination Sequence:
#
# PCOD9397660 Si02
#       7
#     2   4   8   4   8   4   8
#     4  12  26  48  74 102 154 180 242 328 372 438
#     4  12  26  43  65 104 144 180 236 302 354 444
#     4  12  26  44  72 103 142 194 241 294 380 430
#     4  10  24  42  72 100 136 186 234 296 358 430
#     4  11  24  43  67 102 139 182 239 293 360 424
#     4  12  25  47  71 100 145 194 238 294 358 451
#     4  12  26  47  72 104 140 191 243 310 363 444
#
# _framework density 22.450897999999999
#
# number of rings (size 3 to 8) (size 9 to 14) (size 15 to 20)
#    0.000    0.421    2.105    5.684    2.947    5.053 
#    0.000    0.000    0.000    0.000    0.000    0.000 
#    0.000    0.000    0.000    0.000    0.000    0.000 
#
# Total GULP energy -211547.127149 kJ/mol
# GULP energy per Si atom -5567.029662 kJ/mol
# Density = 2.239980 g / cm^3
# Si number density = 22.450898 Si / 1000 Ang^3
#
#
#
# Elastic Constant Matrix: (Units=GPa)
#
#
# Indices 1 2 3 4 5 6 
#
# 1 124.9995 -10.2567 26.0888 0.0000 0.0000 0.0000
# 2 -10.2567 116.4578 23.4923 0.0000 0.0000 0.0000
# 3 26.0888 23.4923 98.0451 0.0000 0.0000 0.0000
# 4 0.0000 0.0000 0.0000 27.7792 0.0000 0.0000
# 5 0.0000 0.0000 0.0000 0.0000 -79.6443 0.0000
# 6 0.0000 0.0000 0.0000 0.0000 0.0000 39.6121
#
#
#
# Elastic Compliance Matrix: (Units=1/GPa)
#
#
# Indices 1 2 3 4 5 6 
#
# 1 0.008651 0.001288 -0.002611 0.000000 0.000000 0.000000
# 2 0.001288 0.009215 -0.002551 0.000000 0.000000 0.000000
# 3 -0.002611 -0.002551 0.011505 0.000000 0.000000 0.000000
# 4 0.000000 0.000000 0.000000 0.035998 0.000000 0.000000
# 5 0.000000 0.000000 0.000000 0.000000 -0.012556 0.000000
# 6 0.000000 0.000000 0.000000 0.000000 0.000000 0.025245
#
#
# Mechanical properties :
#
#
# Convention : Reuss Voigt Hill
#
# Bulk Modulus (GPa) = 46.24292 46.46123 46.35207
# Shear Modulus (GPa) = 53.75659 17.56127 35.65893
#
# Velocity S-wave (km/s) = 4.89858 2.79983 3.98968
# Velocity P-wave (km/s) = 7.25512 5.58494 6.47412
#
# Compressibility (1/GPa) = 0.02162493
#
# Stress axis : x y z
#
# Youngs Moduli (GPa) = 115.59873 108.52064 86.91709
#
# Poissons Ratio (x) = -0.13983 0.22690
# Poissons Ratio (y) = -0.14895 0.22171
# Poissons Ratio (z) = 0.30178 0.27681
#
# Static dielectric constant tensor:
#      x y z
#    x 1.792580 0.000000 0.000000 
#    y 0.000000 1.831660 0.000000 
#    z 0.000000 0.000000 1.798690 
# 
# From -- ./inp_files/29119.got.cif
#   From: 2010.05.17/outbox.cif.g08.bks.cpg/sg50_15_cif.got.tgz:29119.got - 2010.06.03 11:33:33.
