data_PCOD9397488
_publ_section_title
;
Structure prediction by ZEFSAII (Michael W. Deem and Ramdas Pophale) SiO2 
 PCOD9397488
Probable space group: P B A N
;
_chemical_formula_sum "Si O2"
_cell_formula_units_Z 64
_cell_length_a 14.623744
_cell_length_b 9.581459
_cell_length_c 18.305473
_cell_angle_alpha 90.000000
_cell_angle_beta 90.000000
_cell_angle_gamma 90.000000
_cell_volume 2564.904364
_symmetry_space_group_name_H-M "P B A N"
_symmetry_group_IT_number 50
_space_group.IT_coordinate_system_code '2'
_symmetry_cell_setting 'orthorhombic'
loop_
_space_group_symop_operation_xyz
x,y,z
1/2-x,1/2-y,z
x,1/2-y,-z
1/2-x,y,-z
-x,-y,-z
1/2+x,1/2+y,-z
-x,1/2+y,z
1/2+x,-y,z
loop_
_atom_site_type_symbol
_atom_site_label
_atom_site_fract_x
_atom_site_fract_y
_atom_site_fract_z
Si Si1 0.498261 0.155343 0.569225
Si Si2 0.295616 0.980392 0.728511
Si Si3 0.524593 0.086985 0.341143
Si Si4 0.786968 0.408898 0.577761
Si Si5 0.607039 0.476578 0.227211
Si Si6 0.986982 0.559959 0.097266
Si Si7 0.646957 0.085887 0.012908
Si Si8 0.348355 0.227901 0.843101
O O1 0.470847 0.250000 0.500000
O O2 0.487076 0.265456 0.634714
O O3 0.605142 0.114859 0.565335
O O4 0.448634 0.010663 0.589494
O O5 0.208237 0.913257 0.769353
O O6 0.328769 0.111290 0.778794
O O7 0.387488 0.896870 0.710352
O O8 0.248141 0.999520 0.647488
O O9 0.446421 0.999413 0.301626
O O10 0.750000 0.250000 0.590725
O O11 0.750000 0.461286 0.500000
O O12 0.534968 0.409097 0.173686
O O13 0.621310 0.632325 0.196481
O O14 0.920605 0.692831 0.093410
O O15 0.072165 0.531149 0.044910
O O16 0.906967 0.443950 0.088539
O O17 0.650854 0.250000 0.000000
O O18 0.750000 0.032397 0.000000
O O19 0.250000 0.250000 0.878349
#
# Coordination Sequence:
#
# PCOD9397488 Si02
#       8
#     8   8   8   8   8   8   8   8
#     4  12  24  42  64  96 130 180 232 297 363 442
#     4  11  22  41  62  94 132 173 229 291 355 410
#     4  12  24  40  68  94 135 174 234 293 363 428
#     4  11  20  39  65  89 123 171 231 295 346 425
#     4  11  24  40  68  95 138 177 230 288 348 411
#     4  11  23  44  73 101 138 186 234 271 346 420
#     4  10  24  45  70 104 145 177 222 283 335 405
#     4  10  23  41  65  98 143 183 228 290 349 425
#
# _framework density 24.952199
#
# number of rings (size 3 to 8) (size 9 to 14) (size 15 to 20)
#    0.000    1.000    5.000    1.875    3.500    0.000 
#    0.000    0.000    0.000    0.000    0.000    0.000 
#    0.000    0.000    0.000    0.000    0.000    0.000 
#
# Total GULP energy -357067.766641 kJ/mol
# GULP energy per Si atom -5579.183854 kJ/mol
# Density = 2.489541 g / cm^3
# Si number density = 24.952199 Si / 1000 Ang^3
#
#
#
# Elastic Constant Matrix: (Units=GPa)
#
#
# Indices 1 2 3 4 5 6 
#
# 1 159.8264 9.0146 31.2718 0.0000 0.0000 0.0000
# 2 9.0146 63.3366 10.7157 0.0000 0.0000 0.0000
# 3 31.2718 10.7157 41.7801 0.0000 0.0000 0.0000
# 4 0.0000 0.0000 0.0000 22.6896 0.0000 0.0000
# 5 0.0000 0.0000 0.0000 0.0000 27.2101 0.0000
# 6 0.0000 0.0000 0.0000 0.0000 0.0000 24.0501
#
#
#
# Elastic Compliance Matrix: (Units=1/GPa)
#
#
# Indices 1 2 3 4 5 6 
#
# 1 0.007331 -0.000120 -0.005456 0.000000 0.000000 0.000000
# 2 -0.000120 0.016507 -0.004144 0.000000 0.000000 0.000000
# 3 -0.005456 -0.004144 0.029082 0.000000 0.000000 0.000000
# 4 0.000000 0.000000 0.000000 0.044073 0.000000 0.000000
# 5 0.000000 0.000000 0.000000 0.000000 0.036751 0.000000
# 6 0.000000 0.000000 0.000000 0.000000 0.000000 0.041580
#
#
# Mechanical properties :
#
#
# Convention : Reuss Voigt Hill
#
# Bulk Modulus (GPa) = 29.86948 40.77192 35.32070
# Shear Modulus (GPa) = 24.28080 29.05269 26.66674
#
# Velocity S-wave (km/s) = 3.12283 3.41594 3.27266
# Velocity P-wave (km/s) = 4.99994 5.65099 5.33540
#
# Compressibility (1/GPa) = 0.03347899
#
# Stress axis : x y z
#
# Youngs Moduli (GPa) = 136.40367 60.58102 34.38597
#
# Poissons Ratio (x) = 0.00729 0.18762
# Poissons Ratio (y) = 0.01641 0.14248
# Poissons Ratio (z) = 0.74428 0.25102
#
# Static dielectric constant tensor:
#      x y z
#    x 1.989560 0.000000 0.000000 
#    y 0.000000 2.066970 0.000000 
#    z 0.000000 0.000000 2.154430 
# 
# From -- ./inp_files/29537.got.cif
#   From: 2010.05.17/outbox.cif.g08.bks.cpg/sg50_15_cif.got.tgz:29537.got - 2010.06.03 11:33:33.
