data_PCOD9397187
_publ_section_title
;
Structure prediction by ZEFSAII (Michael W. Deem and Ramdas Pophale) SiO2 
 PCOD9397187
Probable space group: P B A N
;
_chemical_formula_sum "Si O2"
_cell_formula_units_Z 56
_cell_length_a 19.361232
_cell_length_b 9.089822
_cell_length_c 14.145998
_cell_angle_alpha 90.000000
_cell_angle_beta 90.000000
_cell_angle_gamma 90.000000
_cell_volume 2489.556346
_symmetry_space_group_name_H-M "P B A N"
_symmetry_group_IT_number 50
_space_group.IT_coordinate_system_code '2'
_symmetry_cell_setting 'orthorhombic'
loop_
_space_group_symop_operation_xyz
x,y,z
1/2-x,1/2-y,z
x,1/2-y,-z
1/2-x,y,-z
-x,-y,-z
1/2+x,1/2+y,-z
-x,1/2+y,z
1/2+x,-y,z
loop_
_atom_site_type_symbol
_atom_site_label
_atom_site_fract_x
_atom_site_fract_y
_atom_site_fract_z
Si Si1 0.077442 0.823795 0.407070
Si Si2 0.099164 0.194105 0.910504
Si Si3 0.683146 0.819432 0.246747
Si Si4 0.715128 0.093783 0.103841
Si Si5 0.931396 0.661127 0.408700
Si Si6 0.488708 0.943709 0.142820
Si Si7 0.592039 0.182154 0.206438
O O1 0.109136 0.750000 0.500000
O O2 0.122934 0.826089 0.311578
O O3 0.005259 0.737445 0.386259
O O4 0.059112 0.990545 0.431746
O O5 0.149503 0.198702 0.823110
O O6 0.041983 0.322312 0.895222
O O7 0.058620 0.043248 0.924451
O O8 0.141084 0.250000 0.000000
O O9 0.750000 0.750000 0.293706
O O10 0.622508 0.841043 0.322267
O O11 0.708129 0.957386 0.179258
O O12 0.750000 0.250000 0.135761
O O13 0.635016 0.144074 0.111915
O O14 0.750000 0.061568 0.000000
O O15 0.904540 0.750000 0.500000
O O16 0.434779 0.846227 0.198799
O O17 0.530607 0.062208 0.203978
#
# Coordination Sequence:
#
# PCOD9397187 Si02
#       7
#     8   8   8   8   8   8   8
#     4  11  21  38  72 113 142 175 222 291 375 444
#     4  11  23  39  62  97 133 170 225 291 356 436
#     4  12  28  45  67  97 134 191 247 291 346 419
#     4  11  27  49  71  95 137 195 251 300 350 425
#     4  11  23  45  72 107 149 180 231 292 366 440
#     4  10  22  39  66  99 132 179 215 291 376 428
#     4  11  21  43  69 100 145 176 232 290 363 436
#
# _framework density 22.493967000000001
#
# number of rings (size 3 to 8) (size 9 to 14) (size 15 to 20)
#    0.000    1.000    2.857    4.714    4.000    2.571 
#   10.286    0.000    0.000    0.429    0.000    0.000 
#    0.000    0.000    0.000    0.000    0.000    0.000 
#
# Total GULP energy -312019.542504 kJ/mol
# GULP energy per Si atom -5571.777545 kJ/mol
# Density = 2.244277 g / cm^3
# Si number density = 22.493967 Si / 1000 Ang^3
#
#
#
# Elastic Constant Matrix: (Units=GPa)
#
#
# Indices 1 2 3 4 5 6 
#
# 1 39.8964 8.4503 19.8045 0.0000 0.0000 0.0000
# 2 8.4503 115.0657 10.9954 0.0000 0.0000 0.0000
# 3 19.8045 10.9954 121.0853 0.0000 0.0000 0.0000
# 4 0.0000 0.0000 0.0000 28.3499 0.0000 0.0000
# 5 0.0000 0.0000 0.0000 0.0000 64.9305 0.0000
# 6 0.0000 0.0000 0.0000 0.0000 0.0000 19.9120
#
#
#
# Elastic Compliance Matrix: (Units=1/GPa)
#
#
# Indices 1 2 3 4 5 6 
#
# 1 0.027572 -0.001608 -0.004364 0.000000 0.000000 0.000000
# 2 -0.001608 0.008861 -0.000542 0.000000 0.000000 0.000000
# 3 -0.004364 -0.000542 0.009022 0.000000 0.000000 0.000000
# 4 0.000000 0.000000 0.000000 0.035274 0.000000 0.000000
# 5 0.000000 0.000000 0.000000 0.000000 0.015401 0.000000
# 6 0.000000 0.000000 0.000000 0.000000 0.000000 0.050221
#
#
# Mechanical properties :
#
#
# Convention : Reuss Voigt Hill
#
# Bulk Modulus (GPa) = 30.83799 39.39420 35.11610
# Shear Modulus (GPa) = 29.37990 38.42496 33.90243
#
# Velocity S-wave (km/s) = 3.61795 4.13756 3.88645
# Velocity P-wave (km/s) = 5.58498 6.35430 5.98202
#
# Compressibility (1/GPa) = 0.03242753
#
# Stress axis : x y z
#
# Youngs Moduli (GPa) = 36.26931 112.86022 110.84612
#
# Poissons Ratio (x) = 0.18146 0.48368
# Poissons Ratio (y) = 0.05832 0.06004
# Poissons Ratio (z) = 0.15826 0.06113
#
# Static dielectric constant tensor:
#      x y z
#    x 1.888770 0.000000 0.000000 
#    y 0.000000 1.850430 0.000000 
#    z 0.000000 0.000000 1.919980 
# 
# From -- ./inp_files/27235.got.cif
#   From: 2010.05.17/outbox.cif.g08.bks.cpg/sg50_14_cif.got.tgz:27235.got - 2010.06.03 11:33:33.
