data_PCOD9397263
_publ_section_title
;
Structure prediction by ZEFSAII (Michael W. Deem and Ramdas Pophale) SiO2 
 PCOD9397263
Probable space group: P B A N
;
_chemical_formula_sum "Si O2"
_cell_formula_units_Z 60
_cell_length_a 11.706451
_cell_length_b 19.898974
_cell_length_c 11.593476
_cell_angle_alpha 90.000000
_cell_angle_beta 90.000000
_cell_angle_gamma 90.000000
_cell_volume 2700.658081
_symmetry_space_group_name_H-M "P B A N"
_symmetry_group_IT_number 50
_space_group.IT_coordinate_system_code '2'
_symmetry_cell_setting 'orthorhombic'
loop_
_space_group_symop_operation_xyz
x,y,z
1/2-x,1/2-y,z
x,1/2-y,-z
1/2-x,y,-z
-x,-y,-z
1/2+x,1/2+y,-z
-x,1/2+y,z
1/2+x,-y,z
loop_
_atom_site_type_symbol
_atom_site_label
_atom_site_fract_x
_atom_site_fract_y
_atom_site_fract_z
Si Si1 0.558476 0.315661 0.919405
Si Si2 0.880163 0.034206 0.957723
Si Si3 0.499971 0.924744 0.548109
Si Si4 0.311443 0.973905 0.698174
Si Si5 0.760813 0.884806 0.372351
Si Si6 0.750000 0.250000 0.238872
Si Si7 0.838290 0.134022 0.392040
Si Si8 0.792550 0.673728 0.875560
O O1 0.599041 0.385755 0.975814
O O2 0.659917 0.294009 0.833442
O O3 0.430578 0.329070 0.871834
O O4 0.546425 0.250000 0.000000
O O5 0.861722 0.016773 0.823727
O O6 0.750000 0.018066 0.000000
O O7 0.000000 0.000000 0.000000
O O8 0.397772 0.923753 0.637849
O O9 0.608516 0.905980 0.619897
O O10 0.463912 0.875463 0.445000
O O11 0.500000 0.000000 0.500000
O O12 0.193016 0.933227 0.681787
O O13 0.305364 0.044170 0.630554
O O14 0.750000 0.850594 0.500000
O O15 0.742934 0.853571 0.246038
O O16 0.822848 0.198925 0.315478
O O17 0.750000 0.139432 0.500000
O O18 0.750000 0.750000 0.879031
O O19 0.750000 0.643540 0.000000
#
# Coordination Sequence:
#
# PCOD9397263 Si02
#       8
#     8   8   8   8   8   4   8   8
#     4  12  26  51  79 103 149 203 258 324 387 467
#     4  12  30  48  75 118 155 201 264 333 397 473
#     4  11  21  42  68 101 146 188 236 307 383 464
#     4  11  23  43  68 104 145 191 244 306 389 459
#     4  12  25  43  75 109 148 195 250 318 386 461
#     4  12  24  44  72 108 142 194 252 324 378 460
#     4  10  22  41  65  98 145 185 239 295 380 458
#     4  11  27  53  74 105 147 203 261 313 395 472
#
# _framework density 22.216806999999999
#
# number of rings (size 3 to 8) (size 9 to 14) (size 15 to 20)
#    0.000    0.667    5.333    2.400    7.467    1.333 
#    0.000    0.000    0.000    0.000    0.000    0.000 
#    0.000    0.000    0.000    0.000    0.000    0.000 
#
# Total GULP energy -334492.825303 kJ/mol
# GULP energy per Si atom -5574.880422 kJ/mol
# Density = 2.216624 g / cm^3
# Si number density = 22.216807 Si / 1000 Ang^3
#
#
#
# Elastic Constant Matrix: (Units=GPa)
#
#
# Indices 1 2 3 4 5 6 
#
# 1 103.3756 24.6339 26.1731 0.0000 0.0000 0.0000
# 2 24.6339 97.5864 42.4757 0.0000 0.0000 0.0000
# 3 26.1731 42.4757 132.4402 0.0000 0.0000 0.0000
# 4 0.0000 0.0000 0.0000 35.8958 0.0000 0.0000
# 5 0.0000 0.0000 0.0000 0.0000 32.9484 0.0000
# 6 0.0000 0.0000 0.0000 0.0000 0.0000 27.9295
#
#
#
# Elastic Compliance Matrix: (Units=1/GPa)
#
#
# Indices 1 2 3 4 5 6 
#
# 1 0.010519 -0.002035 -0.001426 0.000000 0.000000 0.000000
# 2 -0.002035 0.012303 -0.003544 0.000000 0.000000 0.000000
# 3 -0.001426 -0.003544 0.008969 0.000000 0.000000 0.000000
# 4 0.000000 0.000000 0.000000 0.027858 0.000000 0.000000
# 5 0.000000 0.000000 0.000000 0.000000 0.030351 0.000000
# 6 0.000000 0.000000 0.000000 0.000000 0.000000 0.035804
#
#
# Mechanical properties :
#
#
# Convention : Reuss Voigt Hill
#
# Bulk Modulus (GPa) = 56.23560 57.77417 57.00488
# Shear Modulus (GPa) = 34.30715 35.36270 34.83493
#
# Velocity S-wave (km/s) = 3.93389 3.99395 3.96404
# Velocity P-wave (km/s) = 6.78241 6.87968 6.83122
#
# Compressibility (1/GPa) = 0.01778233
#
# Stress axis : x y z
#
# Youngs Moduli (GPa) = 95.06217 81.27817 111.49494
#
# Poissons Ratio (x) = 0.16537 0.15903
# Poissons Ratio (y) = 0.19341 0.39512
# Poissons Ratio (z) = 0.13559 0.28804
#
# Static dielectric constant tensor:
#      x y z
#    x 1.906410 0.000000 0.000000 
#    y 0.000000 1.828530 0.000000 
#    z 0.000000 0.000000 2.011290 
# 
# From -- ./inp_files/20414.got.cif
#   From: 2010.05.17/outbox.cif.g08.bks.cpg/sg50_11_cif.got.tgz:20414.got - 2010.06.03 11:33:33.
