data_PCOD9397339
_publ_section_title
;
Structure prediction by ZEFSAII (Michael W. Deem and Ramdas Pophale) SiO2 
 PCOD9397339
Probable space group: P B A N
;
_chemical_formula_sum "Si O2"
_cell_formula_units_Z 38
_cell_length_a 21.861318
_cell_length_b 15.254157
_cell_length_c 5.113146
_cell_angle_alpha 90.000000
_cell_angle_beta 90.000000
_cell_angle_gamma 90.000000
_cell_volume 1705.111358
_symmetry_space_group_name_H-M "P B A N"
_symmetry_group_IT_number 50
_space_group.IT_coordinate_system_code '2'
_symmetry_cell_setting 'orthorhombic'
loop_
_space_group_symop_operation_xyz
x,y,z
1/2-x,1/2-y,z
x,1/2-y,-z
1/2-x,y,-z
-x,-y,-z
1/2+x,1/2+y,-z
-x,1/2+y,z
1/2+x,-y,z
loop_
_atom_site_type_symbol
_atom_site_label
_atom_site_fract_x
_atom_site_fract_y
_atom_site_fract_z
Si Si1 0.448532 0.587158 0.470918
Si Si2 0.524784 0.644738 0.973140
Si Si3 0.750000 0.535263 0.500000
Si Si4 0.750000 0.250000 0.000000
Si Si5 0.871379 0.962119 0.214190
Si Si6 0.332363 0.897581 0.798802
O O1 0.485015 0.598023 0.200617
O O2 0.419012 0.493410 0.558318
O O3 0.385348 0.633237 0.396099
O O4 0.490096 0.623167 0.703573
O O5 0.592167 0.603723 0.023294
O O6 0.526412 0.750000 0.000000
O O7 0.692838 0.575461 0.331537
O O8 0.788364 0.472447 0.312258
O O9 0.707477 0.186247 0.158219
O O10 0.858521 0.052740 0.055712
#
# Coordination Sequence:
#
# PCOD9397339 Si02
#       6
#     8   8   4   2   8   8
#     4  11  25  45  68 102 139 188 230 291 364 429
#     4  12  27  44  69 105 142 183 242 299 352 418
#     4  10  22  43  66 101 130 190 234 284 357 435
#     4  12  24  42  60 104 144 184 238 300 364 436
#     4  11  23  45  73  97 143 186 239 291 362 439
#     4  11  24  42  66  99 139 186 229 289 355 440
#
# _framework density 22.285934999999998
#
# number of rings (size 3 to 8) (size 9 to 14) (size 15 to 20)
#    0.000    0.842    4.211    1.895    7.368    2.105 
#    0.000    0.000    0.000    3.789    0.000    0.000 
#    0.000    0.000    0.000    0.000    0.000    0.000 
#
# Total GULP energy -211920.535032 kJ/mol
# GULP energy per Si atom -5576.856185 kJ/mol
# Density = 2.223521 g / cm^3
# Si number density = 22.285935 Si / 1000 Ang^3
#
#
#
# Elastic Constant Matrix: (Units=GPa)
#
#
# Indices 1 2 3 4 5 6 
#
# 1 175.6894 65.3479 69.0330 0.0000 0.0000 0.0000
# 2 65.3479 33.7168 15.3412 0.0000 0.0000 0.0000
# 3 69.0330 15.3412 127.6276 0.0000 0.0000 0.0000
# 4 0.0000 0.0000 0.0000 -1.2238 0.0000 0.0000
# 5 0.0000 0.0000 0.0000 0.0000 60.9138 0.0000
# 6 0.0000 0.0000 0.0000 0.0000 0.0000 3.9391
#
#
#
# Elastic Compliance Matrix: (Units=1/GPa)
#
#
# Indices 1 2 3 4 5 6 
#
# 1 0.027598 -0.049399 -0.008990 0.000000 0.000000 0.000000
# 2 -0.049399 0.119795 0.012320 0.000000 0.000000 0.000000
# 3 -0.008990 0.012320 0.011217 0.000000 0.000000 0.000000
# 4 0.000000 0.000000 0.000000 -0.817147 0.000000 0.000000
# 5 0.000000 0.000000 0.000000 0.000000 0.016417 0.000000
# 6 0.000000 0.000000 0.000000 0.000000 0.000000 0.253862
#
#
# Mechanical properties :
#
#
# Convention : Reuss Voigt Hill
#
# Bulk Modulus (GPa) = 15.04381 70.71977 42.88179
# Shear Modulus (GPa) = -18.25058 25.21328 3.48135
#
# Velocity S-wave (km/s) = -2.86480 3.36721 1.25121
# Velocity P-wave (km/s) = 2.04395 6.84976 4.62285
#
# Compressibility (1/GPa) = 0.06647253
#
# Stress axis : x y z
#
# Youngs Moduli (GPa) = 36.23448 8.34761 89.15094
#
# Poissons Ratio (x) = 0.41236 0.80145
# Poissons Ratio (y) = 1.78993 -1.09831
# Poissons Ratio (z) = 0.32574 -0.10284
#
# Static dielectric constant tensor:
#      x y z
#    x 2.284140 0.000000 0.000000 
#    y 0.000000 1.782540 0.000000 
#    z 0.000000 0.000000 2.008320 
# 
# From -- ./inp_files/4232.got.cif
#   From: 2010.05.17/outbox.cif.g08.bks.cpg/sg50_3_cif.got.tgz:4232.got - 2010.06.03 11:33:33.
