data_PCOD9397208
_publ_section_title
;
Structure prediction by ZEFSAII (Michael W. Deem and Ramdas Pophale) SiO2 
 PCOD9397208
Probable space group: P B A N
;
_chemical_formula_sum "Si O2"
_cell_formula_units_Z 48
_cell_length_a 16.749081
_cell_length_b 13.313144
_cell_length_c 9.868737
_cell_angle_alpha 90.000000
_cell_angle_beta 90.000000
_cell_angle_gamma 90.000000
_cell_volume 2200.559864
_symmetry_space_group_name_H-M "P B A N"
_symmetry_group_IT_number 50
_space_group.IT_coordinate_system_code '2'
_symmetry_cell_setting 'orthorhombic'
loop_
_space_group_symop_operation_xyz
x,y,z
1/2-x,1/2-y,z
x,1/2-y,-z
1/2-x,y,-z
-x,-y,-z
1/2+x,1/2+y,-z
-x,1/2+y,z
1/2+x,-y,z
loop_
_atom_site_type_symbol
_atom_site_label
_atom_site_fract_x
_atom_site_fract_y
_atom_site_fract_z
Si Si1 0.194323 0.153972 0.745140
Si Si2 0.510683 0.840409 0.423560
Si Si3 0.750000 0.977505 0.000000
Si Si4 0.081932 0.998240 0.084930
Si Si5 0.750000 0.975079 0.500000
Si Si6 0.953443 0.721925 0.147202
Si Si7 0.598595 0.050992 0.377859
O O1 0.250000 0.250000 0.722378
O O2 0.198469 0.090435 0.606900
O O3 0.108829 0.194771 0.798124
O O4 0.231715 0.089691 0.867655
O O5 0.555529 0.750000 0.500000
O O6 0.489529 0.805159 0.272233
O O7 0.438128 0.869260 0.520086
O O8 0.561877 0.941155 0.411762
O O9 0.834420 0.034341 0.981112
O O10 0.093013 0.116511 0.122340
O O11 0.073521 0.934907 0.222513
O O12 0.000000 0.000000 0.000000
O O13 0.691646 0.039868 0.406060
O O14 0.987132 0.750000 0.000000
#
# Coordination Sequence:
#
# PCOD9397208 Si02
#       7
#     8   8   4   8   4   8   8
#     4  12  20  34  60  96 137 168 208 278 357 444
#     4  10  22  40  64  89 128 177 216 280 338 412
#     4  12  21  40  62  96 139 176 222 284 363 420
#     4  11  24  40  61  96 138 184 222 282 354 427
#     4  12  23  38  65  92 134 176 216 284 358 426
#     4  11  21  36  60  98 131 167 220 274 355 425
#     4  10  23  43  60  97 134 170 239 278 346 425
#
# _framework density 21.812629999999999
#
# number of rings (size 3 to 8) (size 9 to 14) (size 15 to 20)
#    0.000    1.000    5.000    2.500    2.333    4.000 
#    0.000    0.417    0.000    0.000    0.000    0.583 
#    0.000    0.000    0.000    0.000    0.000    0.000 
#
# Total GULP energy -267974.404178 kJ/mol
# GULP energy per Si atom -5582.800087 kJ/mol
# Density = 2.176298 g / cm^3
# Si number density = 21.812630 Si / 1000 Ang^3
#
#
#
# Elastic Constant Matrix: (Units=GPa)
#
#
# Indices 1 2 3 4 5 6 
#
# 1 127.8596 16.4899 66.5102 0.0000 0.0000 0.0000
# 2 16.4899 37.4389 28.7895 0.0000 0.0000 0.0000
# 3 66.5102 28.7895 194.6099 0.0000 0.0000 0.0000
# 4 0.0000 0.0000 0.0000 37.0111 0.0000 0.0000
# 5 0.0000 0.0000 0.0000 0.0000 27.6482 0.0000
# 6 0.0000 0.0000 0.0000 0.0000 0.0000 19.1526
#
#
#
# Elastic Compliance Matrix: (Units=1/GPa)
#
#
# Indices 1 2 3 4 5 6 
#
# 1 0.009634 -0.001931 -0.003007 0.000000 0.000000 0.000000
# 2 -0.001931 0.030526 -0.003856 0.000000 0.000000 0.000000
# 3 -0.003007 -0.003856 0.006737 0.000000 0.000000 0.000000
# 4 0.000000 0.000000 0.000000 0.027019 0.000000 0.000000
# 5 0.000000 0.000000 0.000000 0.000000 0.036169 0.000000
# 6 0.000000 0.000000 0.000000 0.000000 0.000000 0.052212
#
#
# Mechanical properties :
#
#
# Convention : Reuss Voigt Hill
#
# Bulk Modulus (GPa) = 34.11943 64.83195 49.47569
# Shear Modulus (GPa) = 26.36382 33.30364 29.83373
#
# Velocity S-wave (km/s) = 3.48033 3.91167 3.70229
# Velocity P-wave (km/s) = 5.64148 7.08437 6.40370
#
# Compressibility (1/GPa) = 0.02930881
#
# Stress axis : x y z
#
# Youngs Moduli (GPa) = 103.79588 32.75918 148.44377
#
# Poissons Ratio (x) = 0.06326 0.44636
# Poissons Ratio (y) = 0.20044 0.57237
# Poissons Ratio (z) = 0.31211 0.12631
#
# Static dielectric constant tensor:
#      x y z
#    x 1.831000 0.000000 0.000000 
#    y 0.000000 1.832940 0.000000 
#    z 0.000000 0.000000 1.848730 
# 
# From -- ./inp_files/14262.got.cif
#   From: 2010.05.17/outbox.cif.g08.bks.cpg/sg50_8_cif.got.tgz:14262.got - 2010.06.03 11:33:33.
