data_PCOD9397882
_publ_section_title
;
Structure prediction by ZEFSAII (Michael W. Deem and Ramdas Pophale) SiO2 
 PCOD9397882
Probable space group: P B A N
;
_chemical_formula_sum "Si O2"
_cell_formula_units_Z 58
_cell_length_a 25.034936
_cell_length_b 9.830918
_cell_length_c 12.210980
_cell_angle_alpha 90.000000
_cell_angle_beta 90.000000
_cell_angle_gamma 90.000000
_cell_volume 3005.322474
_symmetry_space_group_name_H-M "P B A N"
_symmetry_group_IT_number 50
_space_group.IT_coordinate_system_code '2'
_symmetry_cell_setting 'orthorhombic'
loop_
_space_group_symop_operation_xyz
x,y,z
1/2-x,1/2-y,z
x,1/2-y,-z
1/2-x,y,-z
-x,-y,-z
1/2+x,1/2+y,-z
-x,1/2+y,z
1/2+x,-y,z
loop_
_atom_site_type_symbol
_atom_site_label
_atom_site_fract_x
_atom_site_fract_y
_atom_site_fract_z
Si Si1 0.298951 0.053525 0.824523
Si Si2 0.405475 0.032874 0.732312
Si Si3 0.355488 0.897542 0.012183
Si Si4 0.708834 0.126367 0.766700
Si Si5 0.609001 0.229885 0.631597
Si Si6 0.502321 0.874286 0.419249
Si Si7 0.250000 0.250000 0.000000
Si Si8 0.552805 0.912428 0.023437
O O1 0.346171 0.093653 0.743171
O O2 0.246533 0.006335 0.760043
O O3 0.285364 0.161069 0.918173
O O4 0.324659 0.932071 0.899102
O O5 0.446128 0.109194 0.654376
O O6 0.431254 0.052710 0.851768
O O7 0.398969 0.877096 0.689899
O O8 0.313771 0.882506 0.110069
O O9 0.383087 0.750000 0.000000
O O10 0.397332 0.016776 0.039280
O O11 0.750000 0.250000 0.751570
O O12 0.658963 0.152712 0.686537
O O13 0.616912 0.250000 0.500000
O O14 0.553441 0.147523 0.644637
O O15 0.507753 0.750000 0.500000
O O16 0.500000 0.000000 0.500000
O O17 0.548274 0.750000 0.000000
O O18 0.500000 0.000000 0.000000
#
# Coordination Sequence:
#
# PCOD9397882 Si02
#       8
#     8   8   8   8   8   8   2   8
#     4  11  24  40  64  94 138 180 227 278 335 423
#     4  11  24  44  68  97 136 172 230 283 348 414
#     4  11  21  38  65  93 132 175 230 273 333 420
#     4  12  21  38  68  98 128 176 223 278 348 401
#     4  11  24  44  69 104 135 173 234 297 350 411
#     4  11  23  46  73  96 129 181 231 288 347 416
#     4  12  24  44  62  96 146 188 230 280 330 424
#     4  11  27  42  62 100 142 180 222 284 353 418
#
# _framework density 19.299094
#
# number of rings (size 3 to 8) (size 9 to 14) (size 15 to 20)
#    0.000    0.828    6.897    1.241    7.724    0.276 
#    2.483    0.000    0.000    0.000    0.000    0.000 
#    0.000    0.000    0.000    0.000    0.000    0.000 
#
# Total GULP energy -323579.350765 kJ/mol
# GULP energy per Si atom -5578.954324 kJ/mol
# Density = 1.925517 g / cm^3
# Si number density = 19.299094 Si / 1000 Ang^3
#
#
#
# Elastic Constant Matrix: (Units=GPa)
#
#
# Indices 1 2 3 4 5 6 
#
# 1 173.5052 60.3447 53.7070 0.0000 0.0000 0.0000
# 2 60.3447 119.5098 26.8618 0.0000 0.0000 0.0000
# 3 53.7070 26.8618 77.4615 0.0000 0.0000 0.0000
# 4 0.0000 0.0000 0.0000 22.4595 0.0000 0.0000
# 5 0.0000 0.0000 0.0000 0.0000 41.1937 0.0000
# 6 0.0000 0.0000 0.0000 0.0000 0.0000 34.3926
#
#
#
# Elastic Compliance Matrix: (Units=1/GPa)
#
#
# Indices 1 2 3 4 5 6 
#
# 1 0.008301 -0.003143 -0.004665 0.000000 0.000000 0.000000
# 2 -0.003143 0.010265 -0.001381 0.000000 0.000000 0.000000
# 3 -0.004665 -0.001381 0.016623 0.000000 0.000000 0.000000
# 4 0.000000 0.000000 0.000000 0.044525 0.000000 0.000000
# 5 0.000000 0.000000 0.000000 0.000000 0.024276 0.000000
# 6 0.000000 0.000000 0.000000 0.000000 0.000000 0.029076
#
#
# Mechanical properties :
#
#
# Convention : Reuss Voigt Hill
#
# Bulk Modulus (GPa) = 59.48440 72.47815 65.98128
# Shear Modulus (GPa) = 31.83790 34.91336 33.37563
#
# Velocity S-wave (km/s) = 4.06607 4.25793 4.16310
# Velocity P-wave (km/s) = 7.27552 7.86193 7.57440
#
# Compressibility (1/GPa) = 0.01681113
#
# Stress axis : x y z
#
# Youngs Moduli (GPa) = 120.47254 97.42151 60.15737
#
# Poissons Ratio (x) = 0.30616 0.28066
# Poissons Ratio (y) = 0.37861 0.08305
# Poissons Ratio (z) = 0.56205 0.13450
#
# Static dielectric constant tensor:
#      x y z
#    x 1.734730 0.000000 0.000000 
#    y 0.000000 1.739120 0.000000 
#    z 0.000000 0.000000 1.689310 
# 
# From -- ./inp_files/23173.got.cif
#   From: 2010.05.17/outbox.cif.g08.bks.cpg/sg50_12_cif.got.tgz:23173.got - 2010.06.03 11:33:33.
