data_PCOD9397781
_publ_section_title
;
Structure prediction by ZEFSAII (Michael W. Deem and Ramdas Pophale) SiO2 
 PCOD9397781
Probable space group: P B A N
;
_chemical_formula_sum "Si O2"
_cell_formula_units_Z 48
_cell_length_a 12.869533
_cell_length_b 28.127161
_cell_length_c 5.906623
_cell_angle_alpha 90.000000
_cell_angle_beta 90.000000
_cell_angle_gamma 90.000000
_cell_volume 2138.099634
_symmetry_space_group_name_H-M "P B A N"
_symmetry_group_IT_number 50
_space_group.IT_coordinate_system_code '2'
_symmetry_cell_setting 'orthorhombic'
loop_
_space_group_symop_operation_xyz
x,y,z
1/2-x,1/2-y,z
x,1/2-y,-z
1/2-x,y,-z
-x,-y,-z
1/2+x,1/2+y,-z
-x,1/2+y,z
1/2+x,-y,z
loop_
_atom_site_type_symbol
_atom_site_label
_atom_site_fract_x
_atom_site_fract_y
_atom_site_fract_z
Si Si1 0.250000 0.590089 0.000000
Si Si2 0.516857 0.874706 0.453111
Si Si3 0.250000 0.250000 0.500000
Si Si4 0.150886 0.117162 0.852676
Si Si5 0.250000 0.750000 0.000000
Si Si6 0.594199 0.704204 0.866006
Si Si7 0.474576 0.946800 0.076484
Si Si8 0.177420 0.670255 0.694947
O O1 0.355104 0.561233 0.986669
O O2 0.243273 0.626034 0.790593
O O3 0.627365 0.881126 0.583247
O O4 0.521205 0.833283 0.263427
O O5 0.488200 0.924598 0.330730
O O6 0.431086 0.852727 0.621775
O O7 0.325199 0.278908 0.328312
O O8 0.250000 0.098822 0.000000
O O9 0.141494 0.171056 0.938331
O O10 0.054419 0.085695 0.936958
O O11 0.174667 0.713353 0.869395
O O12 0.553908 0.750000 0.000000
O O13 0.500000 0.000000 0.000000
O O14 0.250000 0.690478 0.500000
#
# Coordination Sequence:
#
# PCOD9397781 Si02
#       8
#     4   8   2   8   2   8   8   8
#     4  11  22  47  76 102 146 184 245 306 373 452
#     4  11  24  46  72 103 147 195 243 300 383 437
#     4  12  22  44  64  98 138 204 246 296 376 430
#     4  11  24  45  69 102 144 187 239 299 358 432
#     4  10  26  40  68 102 146 188 258 300 342 448
#     4  11  23  40  64 100 139 188 242 298 356 434
#     4  11  26  45  76 109 139 186 239 308 372 449
#     4  11  22  47  68 101 144 200 240 302 371 437
#
# _framework density 22.449839999999998
#
# number of rings (size 3 to 8) (size 9 to 14) (size 15 to 20)
#    0.000    1.000    3.333    3.500    1.167    2.667 
#   15.000    0.000    3.667    0.000    0.000    0.000 
#    0.000    0.000    0.000    0.000    0.000    0.000 
#
# Total GULP energy -267705.232630 kJ/mol
# GULP energy per Si atom -5577.192346 kJ/mol
# Density = 2.239874 g / cm^3
# Si number density = 22.449840 Si / 1000 Ang^3
#
#
#
# Elastic Constant Matrix: (Units=GPa)
#
#
# Indices 1 2 3 4 5 6 
#
# 1 133.8426 74.0239 37.8268 0.0000 0.0000 0.0000
# 2 74.0239 174.6045 59.3905 0.0000 0.0000 0.0000
# 3 37.8268 59.3905 88.1905 0.0000 0.0000 0.0000
# 4 0.0000 0.0000 0.0000 14.2673 0.0000 0.0000
# 5 0.0000 0.0000 0.0000 0.0000 34.5216 0.0000
# 6 0.0000 0.0000 0.0000 0.0000 0.0000 23.9269
#
#
#
# Elastic Compliance Matrix: (Units=1/GPa)
#
#
# Indices 1 2 3 4 5 6 
#
# 1 0.009989 -0.003603 -0.001858 0.000000 0.000000 0.000000
# 2 -0.003603 0.008728 -0.004333 0.000000 0.000000 0.000000
# 3 -0.001858 -0.004333 0.015054 0.000000 0.000000 0.000000
# 4 0.000000 0.000000 0.000000 0.070090 0.000000 0.000000
# 5 0.000000 0.000000 0.000000 0.000000 0.028967 0.000000
# 6 0.000000 0.000000 0.000000 0.000000 0.000000 0.041794
#
#
# Mechanical properties :
#
#
# Convention : Reuss Voigt Hill
#
# Bulk Modulus (GPa) = 70.50246 82.12448 76.31347
# Shear Modulus (GPa) = 25.13334 29.56959 27.35147
#
# Velocity S-wave (km/s) = 3.34957 3.63318 3.49425
# Velocity P-wave (km/s) = 6.81411 7.36619 7.09552
#
# Compressibility (1/GPa) = 0.01418390
#
# Stress axis : x y z
#
# Youngs Moduli (GPa) = 100.10706 114.56852 66.42792
#
# Poissons Ratio (x) = 0.41278 0.12344
# Poissons Ratio (y) = 0.36067 0.28781
# Poissons Ratio (z) = 0.18603 0.49638
#
# Static dielectric constant tensor:
#      x y z
#    x 1.907390 0.000000 0.000000 
#    y 0.000000 1.789390 0.000000 
#    z 0.000000 0.000000 1.997810 
# 
# From -- ./inp_files/3621.got.cif
#   From: 2010.05.17/outbox.cif.g08.bks.cpg/sg50_2_cif.got.tgz:3621.got - 2010.06.03 11:33:33.
