data_PCOD9397422
_publ_section_title
;
Structure prediction by ZEFSAII (Michael W. Deem and Ramdas Pophale) SiO2 
 PCOD9397422
Probable space group: P B A N
;
_chemical_formula_sum "Si O2"
_cell_formula_units_Z 64
_cell_length_a 32.441255
_cell_length_b 14.650612
_cell_length_c 7.821241
_cell_angle_alpha 90.000000
_cell_angle_beta 90.000000
_cell_angle_gamma 90.000000
_cell_volume 3717.312583
_symmetry_space_group_name_H-M "P B A N"
_symmetry_group_IT_number 50
_space_group.IT_coordinate_system_code '2'
_symmetry_cell_setting 'orthorhombic'
loop_
_space_group_symop_operation_xyz
x,y,z
1/2-x,1/2-y,z
x,1/2-y,-z
1/2-x,y,-z
-x,-y,-z
1/2+x,1/2+y,-z
-x,1/2+y,z
1/2+x,-y,z
loop_
_atom_site_type_symbol
_atom_site_label
_atom_site_fract_x
_atom_site_fract_y
_atom_site_fract_z
Si Si1 0.356111 0.651482 0.198453
Si Si2 0.946245 0.468276 0.853139
Si Si3 0.003742 0.391162 0.366149
Si Si4 0.572137 0.485996 0.745384
Si Si5 0.139811 0.867459 0.800808
Si Si6 0.071630 0.324515 0.626984
Si Si7 0.497512 0.714056 0.816038
Si Si8 0.203228 0.860549 0.499090
O O1 0.394707 0.592678 0.256176
O O2 0.367616 0.758368 0.223080
O O3 0.319083 0.621458 0.320204
O O4 0.346601 0.630115 0.999988
O O5 0.964635 0.558419 0.763922
O O6 0.901217 0.430819 0.792589
O O7 0.976943 0.384927 0.806817
O O8 0.944441 0.486555 0.058042
O O9 0.031751 0.357641 0.519658
O O10 0.965343 0.459080 0.380453
O O11 0.983208 0.296801 0.302872
O O12 0.592045 0.582028 0.687871
O O13 0.174448 0.890747 0.658949
O O14 0.091933 0.250000 0.500000
O O15 0.047212 0.285228 0.790154
O O16 0.485850 0.750000 0.000000
O O17 0.205234 0.750000 0.500000
O O18 0.250000 0.895626 0.500000
#
# Coordination Sequence:
#
# PCOD9397422 Si02
#       8
#     8   8   8   8   8   8   8   8
#     4   9  19  31  50  73 101 134 167 216 252 296
#     4  11  21  32  51  71  94 135 173 217 256 297
#     4  11  21  32  48  67  93 129 172 212 254 297
#     4  11  19  33  48  66  95 129 172 208 257 301
#     4   9  19  32  47  76 104 129 172 210 255 297
#     4  10  23  34  44  66  92 125 172 218 256 296
#     4  11  20  33  48  65  91 128 173 216 252 295
#     4   9  18  33  51  72 100 134 166 197 248 309
#
# _framework density 17.216739
#
# number of rings (size 3 to 8) (size 9 to 14) (size 15 to 20)
#    0.000    1.875    2.500    2.250    3.500    0.500 
#    0.000    6.250    0.000    0.000    0.000    0.000 
#    0.000    0.500    0.000    0.000   17.250    2.250 
#
# Total GULP energy -356378.645611 kJ/mol
# GULP energy per Si atom -5568.416338 kJ/mol
# Density = 1.717755 g / cm^3
# Si number density = 17.216739 Si / 1000 Ang^3
#
#
#
# Elastic Constant Matrix: (Units=GPa)
#
#
# Indices 1 2 3 4 5 6 
#
# 1 72.0977 17.1402 36.0156 0.0000 0.0000 0.0000
# 2 17.1402 82.6103 26.9830 0.0000 0.0000 0.0000
# 3 36.0156 26.9830 56.9206 0.0000 0.0000 0.0000
# 4 0.0000 0.0000 0.0000 23.7193 0.0000 0.0000
# 5 0.0000 0.0000 0.0000 0.0000 18.8345 0.0000
# 6 0.0000 0.0000 0.0000 0.0000 0.0000 10.2586
#
#
#
# Elastic Compliance Matrix: (Units=1/GPa)
#
#
# Indices 1 2 3 4 5 6 
#
# 1 0.020280 -0.000020 -0.012823 0.000000 0.000000 0.000000
# 2 -0.000020 0.014323 -0.006777 0.000000 0.000000 0.000000
# 3 -0.012823 -0.006777 0.028894 0.000000 0.000000 0.000000
# 4 0.000000 0.000000 0.000000 0.042160 0.000000 0.000000
# 5 0.000000 0.000000 0.000000 0.000000 0.053094 0.000000
# 6 0.000000 0.000000 0.000000 0.000000 0.000000 0.097480
#
#
# Mechanical properties :
#
#
# Convention : Reuss Voigt Hill
#
# Bulk Modulus (GPa) = 41.22297 41.32293 41.27295
# Shear Modulus (GPa) = 16.47142 19.32845 17.89994
#
# Velocity S-wave (km/s) = 3.09643 3.35424 3.22791
# Velocity P-wave (km/s) = 6.06460 6.24939 6.15769
#
# Compressibility (1/GPa) = 0.02425832
#
# Stress axis : x y z
#
# Youngs Moduli (GPa) = 49.30928 69.81904 34.60869
#
# Poissons Ratio (x) = 0.00136 0.44378
# Poissons Ratio (y) = 0.00096 0.23455
# Poissons Ratio (z) = 0.63228 0.47319
#
# Static dielectric constant tensor:
#      x y z
#    x 1.574940 0.000000 0.000000 
#    y 0.000000 1.673840 0.000000 
#    z 0.000000 0.000000 1.685910 
# 
# From -- ./inp_files/17149.got.cif
#   From: 2010.05.17/outbox.cif.g08.bks.cpg/sg50_9_cif.got.tgz:17149.got - 2010.06.03 11:33:33.
