data_PCOD9397968
_publ_section_title
;
Structure prediction by ZEFSAII (Michael W. Deem and Ramdas Pophale) SiO2 
 PCOD9397968
Probable space group: P B A N
;
_chemical_formula_sum "Si O2"
_cell_formula_units_Z 64
_cell_length_a 9.923918
_cell_length_b 28.656613
_cell_length_c 10.493071
_cell_angle_alpha 90.000000
_cell_angle_beta 90.000000
_cell_angle_gamma 90.000000
_cell_volume 2984.081205
_symmetry_space_group_name_H-M "P B A N"
_symmetry_group_IT_number 50
_space_group.IT_coordinate_system_code '2'
_symmetry_cell_setting 'orthorhombic'
loop_
_space_group_symop_operation_xyz
x,y,z
1/2-x,1/2-y,z
x,1/2-y,-z
1/2-x,y,-z
-x,-y,-z
1/2+x,1/2+y,-z
-x,1/2+y,z
1/2+x,-y,z
loop_
_atom_site_type_symbol
_atom_site_label
_atom_site_fract_x
_atom_site_fract_y
_atom_site_fract_z
Si Si1 0.590711 0.262539 0.151082
Si Si2 0.475053 0.866653 0.260502
Si Si3 0.913942 0.527889 0.729551
Si Si4 0.737784 0.614587 0.144127
Si Si5 0.680291 0.484469 0.866479
Si Si6 0.089529 0.102971 0.528012
Si Si7 0.035612 0.175465 0.746936
Si Si8 0.292001 0.880147 0.867954
O O1 0.750000 0.250000 0.168027
O O2 0.555219 0.314107 0.205375
O O3 0.502393 0.228874 0.241634
O O4 0.561506 0.250000 0.000000
O O5 0.613566 0.883285 0.198522
O O6 0.502214 0.881150 0.406471
O O7 0.339662 0.890656 0.212995
O O8 0.854866 0.575039 0.794429
O O9 0.785610 0.494565 0.752359
O O10 0.953046 0.553297 0.594924
O O11 0.035597 0.502443 0.805188
O O12 0.660429 0.663142 0.162298
O O13 0.750000 0.603365 0.000000
O O14 0.649294 0.430565 0.898681
O O15 0.750000 0.501767 0.000000
O O16 0.250000 0.097907 0.500000
O O17 0.074287 0.148442 0.618813
O O18 0.901525 0.149882 0.797132
O O19 0.250000 0.856010 0.000000
#
# Coordination Sequence:
#
# PCOD9397968 Si02
#       8
#     8   8   8   8   8   8   8   8
#     4  11  23  42  69 109 145 169 224 299 358 415
#     4  12  25  41  73 100 135 197 224 280 359 418
#     4  11  24  44  69 101 142 183 237 302 351 423
#     4  11  22  39  67  98 137 183 234 287 356 424
#     4  11  24  41  70 108 141 179 235 301 368 420
#     4  11  24  50  67  90 144 189 241 280 332 424
#     4  11  22  44  67  97 143 183 233 284 346 418
#     4  11  22  41  69 104 141 176 231 292 364 424
#
# _framework density 21.447137999999999
#
# number of rings (size 3 to 8) (size 9 to 14) (size 15 to 20)
#    0.000    0.875    6.250    3.000    3.500    1.500 
#    0.000    5.000    0.000    0.000    0.000    0.000 
#    0.000    0.000    0.000    0.000    0.000    0.000 
#
# Total GULP energy -356405.459671 kJ/mol
# GULP energy per Si atom -5568.835307 kJ/mol
# Density = 2.139832 g / cm^3
# Si number density = 21.447138 Si / 1000 Ang^3
#
#
#
# Elastic Constant Matrix: (Units=GPa)
#
#
# Indices 1 2 3 4 5 6 
#
# 1 139.8566 22.1962 17.3273 0.0000 0.0000 0.0000
# 2 22.1962 75.3365 19.8321 0.0000 0.0000 0.0000
# 3 17.3273 19.8321 97.2344 0.0000 0.0000 0.0000
# 4 0.0000 0.0000 0.0000 24.4926 0.0000 0.0000
# 5 0.0000 0.0000 0.0000 0.0000 34.1483 0.0000
# 6 0.0000 0.0000 0.0000 0.0000 0.0000 34.8206
#
#
#
# Elastic Compliance Matrix: (Units=1/GPa)
#
#
# Indices 1 2 3 4 5 6 
#
# 1 0.007582 -0.001985 -0.000946 0.000000 0.000000 0.000000
# 2 -0.001985 0.014546 -0.002613 0.000000 0.000000 0.000000
# 3 -0.000946 -0.002613 0.010986 0.000000 0.000000 0.000000
# 4 0.000000 0.000000 0.000000 0.040829 0.000000 0.000000
# 5 0.000000 0.000000 0.000000 0.000000 0.029284 0.000000
# 6 0.000000 0.000000 0.000000 0.000000 0.000000 0.028719
#
#
# Mechanical properties :
#
#
# Convention : Reuss Voigt Hill
#
# Bulk Modulus (GPa) = 45.40072 47.90432 46.65252
# Shear Modulus (GPa) = 33.24970 35.56376 34.40673
#
# Velocity S-wave (km/s) = 3.94167 4.07652 4.00966
# Velocity P-wave (km/s) = 6.47536 6.67397 6.57542
#
# Compressibility (1/GPa) = 0.02202608
#
# Stress axis : x y z
#
# Youngs Moduli (GPa) = 131.88364 68.74507 91.02439
#
# Poissons Ratio (x) = 0.13645 0.08614
# Poissons Ratio (y) = 0.26177 0.23787
# Poissons Ratio (z) = 0.12481 0.17965
#
# Static dielectric constant tensor:
#      x y z
#    x 1.762210 0.000000 0.000000 
#    y 0.000000 1.826280 0.000000 
#    z 0.000000 0.000000 1.866940 
# 
# From -- ./inp_files/19544.got.cif
#   From: 2010.05.17/outbox.cif.g08.bks.cpg/sg50_10_cif.got.tgz:19544.got - 2010.06.03 11:33:33.
