data_PCOD9397871
_publ_section_title
;
Structure prediction by ZEFSAII (Michael W. Deem and Ramdas Pophale) SiO2 
 PCOD9397871
Probable space group: P B A N
;
_chemical_formula_sum "Si O2"
_cell_formula_units_Z 40
_cell_length_a 13.966195
_cell_length_b 8.097607
_cell_length_c 15.827401
_cell_angle_alpha 90.000000
_cell_angle_beta 90.000000
_cell_angle_gamma 90.000000
_cell_volume 1789.964437
_symmetry_space_group_name_H-M "P B A N"
_symmetry_group_IT_number 50
_space_group.IT_coordinate_system_code '2'
_symmetry_cell_setting 'orthorhombic'
loop_
_space_group_symop_operation_xyz
x,y,z
1/2-x,1/2-y,z
x,1/2-y,-z
1/2-x,y,-z
-x,-y,-z
1/2+x,1/2+y,-z
-x,1/2+y,z
1/2+x,-y,z
loop_
_atom_site_type_symbol
_atom_site_label
_atom_site_fract_x
_atom_site_fract_y
_atom_site_fract_z
Si Si1 0.584955 0.574797 0.706512
Si Si2 0.942031 0.114539 0.435019
Si Si3 0.065929 0.618039 0.059245
Si Si4 0.242846 0.052722 0.600292
Si Si5 0.440721 0.145518 0.180449
O O1 0.521184 0.662661 0.633630
O O2 0.671541 0.485395 0.658038
O O3 0.518200 0.451882 0.761017
O O4 0.619555 0.725014 0.765255
O O5 0.903214 0.250000 0.500000
O O6 0.859528 0.025652 0.382080
O O7 0.000000 0.000000 0.500000
O O8 0.999187 0.734908 0.117000
O O9 0.114476 0.491167 0.124719
O O10 0.120385 0.750000 0.000000
O O11 0.000000 0.500000 0.000000
O O12 0.250000 0.250000 0.609000
O O13 0.250000 0.021581 0.500000
#
# Coordination Sequence:
#
# PCOD9397871 Si02
#       5
#     8   8   8   8   8
#     4  11  21  37  55  82 121 157 206 264 314 370
#     4  12  24  41  62  84 114 162 219 278 327 370
#     4   8  14  28  53  88 126 156 192 238 298 391
#     4  11  23  39  59  80 113 160 219 271 315 372
#     4   9  18  31  53  84 126 162 188 256 323 355
#
# _framework density 22.346812
#
# number of rings (size 3 to 8) (size 9 to 14) (size 15 to 20)
#    0.000    1.800    2.000    3.600    0.000    0.400 
#    0.000    0.000    0.000    0.000    0.000    0.000 
#    0.000  827.200    0.000    0.000    0.000    0.000 
#
# Total GULP energy -222998.379332 kJ/mol
# GULP energy per Si atom -5574.959483 kJ/mol
# Density = 2.229595 g / cm^3
# Si number density = 22.346812 Si / 1000 Ang^3
#
#
#
# Elastic Constant Matrix: (Units=GPa)
#
#
# Indices 1 2 3 4 5 6 
#
# 1 79.5015 20.6634 26.9827 0.0000 0.0000 0.0000
# 2 20.6634 101.9477 47.7198 0.0000 0.0000 0.0000
# 3 26.9827 47.7198 114.4261 0.0000 0.0000 0.0000
# 4 0.0000 0.0000 0.0000 60.8529 0.0000 0.0000
# 5 0.0000 0.0000 0.0000 0.0000 5.4187 0.0000
# 6 0.0000 0.0000 0.0000 0.0000 0.0000 17.7252
#
#
#
# Elastic Compliance Matrix: (Units=1/GPa)
#
#
# Indices 1 2 3 4 5 6 
#
# 1 0.013877 -0.001592 -0.002609 0.000000 0.000000 0.000000
# 2 -0.001592 0.012371 -0.004784 0.000000 0.000000 0.000000
# 3 -0.002609 -0.004784 0.011349 0.000000 0.000000 0.000000
# 4 0.000000 0.000000 0.000000 0.016433 0.000000 0.000000
# 5 0.000000 0.000000 0.000000 0.000000 0.184545 0.000000
# 6 0.000000 0.000000 0.000000 0.000000 0.000000 0.056417
#
#
# Mechanical properties :
#
#
# Convention : Reuss Voigt Hill
#
# Bulk Modulus (GPa) = 50.94380 54.06746 52.50563
# Shear Modulus (GPa) = 15.64928 30.16667 22.90798
#
# Velocity S-wave (km/s) = 2.64917 3.67813 3.20521
# Velocity P-wave (km/s) = 5.67485 6.50272 6.10284
#
# Compressibility (1/GPa) = 0.01962947
#
# Stress axis : x y z
#
# Youngs Moduli (GPa) = 72.05935 80.83598 88.11059
#
# Poissons Ratio (x) = 0.12867 0.22985
# Poissons Ratio (y) = 0.11470 0.42149
# Poissons Ratio (z) = 0.18798 0.38669
#
# Static dielectric constant tensor:
#      x y z
#    x 1.857000 0.000000 0.000000 
#    y 0.000000 1.942860 0.000000 
#    z 0.000000 0.000000 1.887510 
# 
# From -- ./inp_files/24684.got.cif
#   From: 2010.05.17/outbox.cif.g08.bks.cpg/sg50_13_cif.got.tgz:24684.got - 2010.06.03 11:33:33.
