data_PCOD9397561
_publ_section_title
;
Structure prediction by ZEFSAII (Michael W. Deem and Ramdas Pophale) SiO2 
 PCOD9397561
Probable space group: P B A N
;
_chemical_formula_sum "Si O2"
_cell_formula_units_Z 56
_cell_length_a 8.955721
_cell_length_b 13.695045
_cell_length_c 21.838994
_cell_angle_alpha 90.000000
_cell_angle_beta 90.000000
_cell_angle_gamma 90.000000
_cell_volume 2678.530821
_symmetry_space_group_name_H-M "P B A N"
_symmetry_group_IT_number 50
_space_group.IT_coordinate_system_code '2'
_symmetry_cell_setting 'orthorhombic'
loop_
_space_group_symop_operation_xyz
x,y,z
1/2-x,1/2-y,z
x,1/2-y,-z
1/2-x,y,-z
-x,-y,-z
1/2+x,1/2+y,-z
-x,1/2+y,z
1/2+x,-y,z
loop_
_atom_site_type_symbol
_atom_site_label
_atom_site_fract_x
_atom_site_fract_y
_atom_site_fract_z
Si Si1 0.983950 0.628749 0.221884
Si Si2 0.477281 0.123082 0.634434
Si Si3 0.750847 0.001626 0.170207
Si Si4 0.182409 0.351395 0.067548
Si Si5 0.761713 0.486175 0.428566
Si Si6 0.084022 0.710637 0.567457
Si Si7 0.096459 0.802642 0.135673
O O1 0.097593 0.549337 0.193725
O O2 0.017839 0.729136 0.184796
O O3 0.011206 0.629780 0.294038
O O4 0.820229 0.583862 0.211051
O O5 0.612220 0.065482 0.598334
O O6 0.473390 0.234648 0.611665
O O7 0.325326 0.069262 0.615427
O O8 0.775127 0.946956 0.105822
O O9 0.641953 0.094829 0.165931
O O10 0.250000 0.250000 0.093091
O O11 0.007877 0.330094 0.078313
O O12 0.250000 0.361046 0.000000
O O13 0.750000 0.517439 0.500000
O O14 0.892568 0.403678 0.430368
O O15 0.250000 0.750000 0.582767
O O16 0.050558 0.750000 0.500000
O O17 0.250000 0.750000 0.116877
#
# Coordination Sequence:
#
# PCOD9397561 Si02
#       7
#     8   8   8   8   8   8   8
#     4  11  23  40  65  98 133 175 224 275 336 408
#     4  11  23  37  64  95 121 167 219 264 326 400
#     4  11  22  42  68  94 139 178 216 278 335 388
#     4  11  23  43  71 100 134 183 223 270 337 393
#     4  11  21  39  63  88 123 163 215 273 327 388
#     4   9  17  35  58  81 114 162 199 250 321 385
#     4  10  23  43  69  99 137 180 222 274 332 396
#
# _framework density 20.906983
#
# number of rings (size 3 to 8) (size 9 to 14) (size 15 to 20)
#    0.000    1.429    5.714    1.286    0.000    6.857 
#    0.000    2.143    0.000    0.000    0.000    0.000 
#    0.000    0.000    0.000    0.000    0.000    0.000 
#
# Total GULP energy -312235.258226 kJ/mol
# GULP energy per Si atom -5575.629611 kJ/mol
# Density = 2.085940 g / cm^3
# Si number density = 20.906983 Si / 1000 Ang^3
#
#
#
# Elastic Constant Matrix: (Units=GPa)
#
#
# Indices 1 2 3 4 5 6 
#
# 1 26.1025 18.3060 13.3114 0.0000 0.0000 0.0000
# 2 18.3060 108.6305 40.3252 0.0000 0.0000 0.0000
# 3 13.3114 40.3252 141.9587 0.0000 0.0000 0.0000
# 4 0.0000 0.0000 0.0000 25.0664 0.0000 0.0000
# 5 0.0000 0.0000 0.0000 0.0000 4.5672 0.0000
# 6 0.0000 0.0000 0.0000 0.0000 0.0000 26.4758
#
#
#
# Elastic Compliance Matrix: (Units=1/GPa)
#
#
# Indices 1 2 3 4 5 6 
#
# 1 0.044085 -0.006589 -0.002262 0.000000 0.000000 0.000000
# 2 -0.006589 0.011276 -0.002585 0.000000 0.000000 0.000000
# 3 -0.002262 -0.002585 0.007991 0.000000 0.000000 0.000000
# 4 0.000000 0.000000 0.000000 0.039894 0.000000 0.000000
# 5 0.000000 0.000000 0.000000 0.000000 0.218954 0.000000
# 6 0.000000 0.000000 0.000000 0.000000 0.000000 0.037770
#
#
# Mechanical properties :
#
#
# Convention : Reuss Voigt Hill
#
# Bulk Modulus (GPa) = 24.70446 46.73076 35.71761
# Shear Modulus (GPa) = 12.61556 24.87181 18.74369
#
# Velocity S-wave (km/s) = 2.45911 3.45286 2.99746
# Velocity P-wave (km/s) = 4.46150 6.18842 5.39452
#
# Compressibility (1/GPa) = 0.04047852
#
# Stress axis : x y z
#
# Youngs Moduli (GPa) = 22.68335 88.68746 125.14480
#
# Poissons Ratio (x) = 0.58439 0.28308
# Poissons Ratio (y) = 0.14947 0.32351
# Poissons Ratio (z) = 0.05131 0.22926
#
# Static dielectric constant tensor:
#      x y z
#    x 1.833930 0.000000 0.000000 
#    y 0.000000 1.832120 0.000000 
#    z 0.000000 0.000000 1.771950 
# 
# From -- ./inp_files/30632.got.cif
#   From: 2010.05.17/outbox.cif.g08.bks.cpg/sg50_16_cif.got.tgz:30632.got - 2010.06.03 11:33:33.
