data_PCOD9397722
_publ_section_title
;
Structure prediction by ZEFSAII (Michael W. Deem and Ramdas Pophale) SiO2 
 PCOD9397722
Probable space group: P B A N
;
_chemical_formula_sum "Si O2"
_cell_formula_units_Z 40
_cell_length_a 10.490250
_cell_length_b 9.696867
_cell_length_c 18.179769
_cell_angle_alpha 90.000000
_cell_angle_beta 90.000000
_cell_angle_gamma 90.000000
_cell_volume 1849.292626
_symmetry_space_group_name_H-M "P B A N"
_symmetry_group_IT_number 50
_space_group.IT_coordinate_system_code '2'
_symmetry_cell_setting 'orthorhombic'
loop_
_space_group_symop_operation_xyz
x,y,z
1/2-x,1/2-y,z
x,1/2-y,-z
1/2-x,y,-z
-x,-y,-z
1/2+x,1/2+y,-z
-x,1/2+y,z
1/2+x,-y,z
loop_
_atom_site_type_symbol
_atom_site_label
_atom_site_fract_x
_atom_site_fract_y
_atom_site_fract_z
Si Si1 0.750000 0.250000 0.000000
Si Si2 0.250000 0.750000 0.500000
Si Si3 0.529031 0.715367 0.828584
Si Si4 0.125765 0.906969 0.632084
Si Si5 0.750000 0.250000 0.245387
Si Si6 0.952246 0.441420 0.076764
Si Si7 0.110682 0.216608 0.669822
O O1 0.829803 0.148115 0.947355
O O2 0.177151 0.854107 0.554614
O O3 0.380223 0.737713 0.801595
O O4 0.556132 0.564786 0.863096
O O5 0.549426 0.828844 0.891153
O O6 0.608334 0.758651 0.757536
O O7 0.232130 0.875362 0.695940
O O8 0.001830 0.814694 0.644646
O O9 0.084092 0.062496 0.644094
O O10 0.000000 0.500000 0.000000
O O11 0.250000 0.250000 0.640229
#
# Coordination Sequence:
#
# PCOD9397722 Si02
#       7
#     2   2   8   8   4   8   8
#     4  12  26  48  68  86 158 184 230 334 364 460
#     4  10  24  48  82 100 158 212 244 286 390 436
#     4  11  23  42  73 100 135 192 238 297 382 433
#     4  10  24  46  72 111 151 196 241 301 366 444
#     4   9  21  41  75  96 140 178 240 298 351 437
#     4  12  25  44  66 100 135 188 242 297 381 453
#     4  11  26  45  73 110 150 185 255 312 359 439
#
# _framework density 21.629891000000001
#
# number of rings (size 3 to 8) (size 9 to 14) (size 15 to 20)
#    0.000    1.200    2.000    3.000   11.200    2.400 
#    0.000    1.000    0.000    0.000    0.000    0.000 
#    0.000    0.000    0.000    0.000    0.000    0.000 
#
# Total GULP energy -223205.446105 kJ/mol
# GULP energy per Si atom -5580.136153 kJ/mol
# Density = 2.158066 g / cm^3
# Si number density = 21.629891 Si / 1000 Ang^3
#
#
#
# Elastic Constant Matrix: (Units=GPa)
#
#
# Indices 1 2 3 4 5 6 
#
# 1 110.0140 63.3705 52.1739 0.0000 0.0000 0.0000
# 2 63.3705 215.2619 63.9704 0.0000 0.0000 0.0000
# 3 52.1739 63.9704 131.9298 0.0000 0.0000 0.0000
# 4 0.0000 0.0000 0.0000 29.8471 0.0000 0.0000
# 5 0.0000 0.0000 0.0000 0.0000 28.1018 0.0000
# 6 0.0000 0.0000 0.0000 0.0000 0.0000 39.3166
#
#
#
# Elastic Compliance Matrix: (Units=1/GPa)
#
#
# Indices 1 2 3 4 5 6 
#
# 1 0.012268 -0.002535 -0.003622 0.000000 0.000000 0.000000
# 2 -0.002535 0.005951 -0.001883 0.000000 0.000000 0.000000
# 3 -0.003622 -0.001883 0.009925 0.000000 0.000000 0.000000
# 4 0.000000 0.000000 0.000000 0.033504 0.000000 0.000000
# 5 0.000000 0.000000 0.000000 0.000000 0.035585 0.000000
# 6 0.000000 0.000000 0.000000 0.000000 0.000000 0.025435
#
#
# Mechanical properties :
#
#
# Convention : Reuss Voigt Hill
#
# Bulk Modulus (GPa) = 82.89438 90.69282 86.79360
# Shear Modulus (GPa) = 35.02118 37.96582 36.49350
#
# Velocity S-wave (km/s) = 4.02818 4.19411 4.11198
# Velocity P-wave (km/s) = 7.74869 8.09163 7.92202
#
# Compressibility (1/GPa) = 0.01206354
#
# Stress axis : x y z
#
# Youngs Moduli (GPa) = 81.51366 168.02672 100.75106
#
# Poissons Ratio (x) = 0.42595 0.36496
# Poissons Ratio (y) = 0.20664 0.18974
# Poissons Ratio (z) = 0.29527 0.31643
#
# Static dielectric constant tensor:
#      x y z
#    x 1.812900 0.000000 0.000000 
#    y 0.000000 1.842820 0.000000 
#    z 0.000000 0.000000 1.812060 
# 
# From -- ./inp_files/29122.got.cif
#   From: 2010.05.17/outbox.cif.g08.bks.cpg/sg50_15_cif.got.tgz:29122.got - 2010.06.03 11:33:33.
