data_PCOD9397614
_publ_section_title
;
Structure prediction by ZEFSAII (Michael W. Deem and Ramdas Pophale) SiO2 
 PCOD9397614
Probable space group: P B A N
;
_chemical_formula_sum "Si O2"
_cell_formula_units_Z 54
_cell_length_a 26.876435
_cell_length_b 15.822172
_cell_length_c 5.096049
_cell_angle_alpha 90.000000
_cell_angle_beta 90.000000
_cell_angle_gamma 90.000000
_cell_volume 2167.062107
_symmetry_space_group_name_H-M "P B A N"
_symmetry_group_IT_number 50
_space_group.IT_coordinate_system_code '2'
_symmetry_cell_setting 'orthorhombic'
loop_
_space_group_symop_operation_xyz
x,y,z
1/2-x,1/2-y,z
x,1/2-y,-z
1/2-x,y,-z
-x,-y,-z
1/2+x,1/2+y,-z
-x,1/2+y,z
1/2+x,-y,z
loop_
_atom_site_type_symbol
_atom_site_label
_atom_site_fract_x
_atom_site_fract_y
_atom_site_fract_z
Si Si1 0.250000 0.250000 0.000000
Si Si2 0.217302 0.621911 0.238045
Si Si3 0.154682 0.477867 0.300616
Si Si4 0.422529 0.433347 0.098979
Si Si5 0.988359 0.309894 0.752794
Si Si6 0.411324 0.903069 0.602040
Si Si7 0.643932 0.250000 0.500000
Si Si8 0.669257 0.834828 0.367274
O O1 0.286655 0.194026 0.820596
O O2 0.250000 0.602976 0.500000
O O3 0.189227 0.537885 0.129004
O O4 0.178114 0.692801 0.319148
O O5 0.250000 0.652839 0.000000
O O6 0.137451 0.544455 0.519281
O O7 0.185021 0.398815 0.404357
O O8 0.101686 0.447979 0.185591
O O9 0.467336 0.369632 0.143751
O O10 0.435973 0.527046 0.210207
O O11 0.375157 0.385945 0.231623
O O12 0.001632 0.250000 0.500000
O O13 0.946450 0.373499 0.637774
O O14 0.975871 0.250000 0.000000
O O15 0.389616 0.811973 0.679951
O O16 0.648951 0.750000 0.500000
#
# Coordination Sequence:
#
# PCOD9397614 Si02
#       8
#     2   8   8   8   8   8   4   8
#     4  12  26  44  76 106 152 212 272 340 382 492
#     4  11  27  49  74 113 152 202 259 324 390 470
#     4  10  26  46  74 106 151 204 253 324 394 476
#     4  11  26  47  78 107 159 204 254 329 397 473
#     4  12  29  49  81 120 154 203 262 325 397 485
#     4  10  24  49  77 111 152 202 258 316 396 485
#     4  10  23  50  76 112 152 204 256 325 394 464
#     4  11  25  46  69 109 148 208 264 321 397 454
#
# _framework density 24.918527999999998
#
# number of rings (size 3 to 8) (size 9 to 14) (size 15 to 20)
#    0.000    1.185    0.741    2.222   15.556    4.148 
#    6.667    0.000    1.630    0.000    0.000    0.000 
#    0.000    0.000    0.000    0.000    0.000    0.000 
#
# Total GULP energy -301791.395726 kJ/mol
# GULP energy per Si atom -5588.729550 kJ/mol
# Density = 2.486181 g / cm^3
# Si number density = 24.918528 Si / 1000 Ang^3
#
#
#
# Elastic Constant Matrix: (Units=GPa)
#
#
# Indices 1 2 3 4 5 6 
#
# 1 121.7673 71.9021 42.1586 0.0000 0.0000 0.0000
# 2 71.9021 201.1686 66.3792 0.0000 0.0000 0.0000
# 3 42.1586 66.3792 108.4341 0.0000 0.0000 0.0000
# 4 0.0000 0.0000 0.0000 31.9792 0.0000 0.0000
# 5 0.0000 0.0000 0.0000 0.0000 13.7282 0.0000
# 6 0.0000 0.0000 0.0000 0.0000 0.0000 37.2369
#
#
#
# Elastic Compliance Matrix: (Units=1/GPa)
#
#
# Indices 1 2 3 4 5 6 
#
# 1 0.010853 -0.003116 -0.002312 0.000000 0.000000 0.000000
# 2 -0.003116 0.007124 -0.003149 0.000000 0.000000 0.000000
# 3 -0.002312 -0.003149 0.012049 0.000000 0.000000 0.000000
# 4 0.000000 0.000000 0.000000 0.031270 0.000000 0.000000
# 5 0.000000 0.000000 0.000000 0.000000 0.072843 0.000000
# 6 0.000000 0.000000 0.000000 0.000000 0.000000 0.026855
#
#
# Mechanical properties :
#
#
# Convention : Reuss Voigt Hill
#
# Bulk Modulus (GPa) = 77.69568 88.02775 82.86172
# Shear Modulus (GPa) = 27.40637 33.31755 30.36196
#
# Velocity S-wave (km/s) = 3.31998 3.66055 3.49442
# Velocity P-wave (km/s) = 6.77819 7.29857 7.04319
#
# Compressibility (1/GPa) = 0.01287073
#
# Stress axis : x y z
#
# Youngs Moduli (GPa) = 92.14121 140.37102 82.99419
#
# Poissons Ratio (x) = 0.43742 0.19188
# Poissons Ratio (y) = 0.28713 0.26139
# Poissons Ratio (z) = 0.21302 0.44209
#
# Static dielectric constant tensor:
#      x y z
#    x 2.132320 0.000000 0.000000 
#    y 0.000000 1.993580 0.000000 
#    z 0.000000 0.000000 2.328610 
# 
# From -- ./inp_files/7220.got.cif
#   From: 2010.05.17/outbox.cif.g08.bks.cpg/sg50_4_cif.got.tgz:7220.got - 2010.06.03 11:33:33.
