data_PCOD9397979
_publ_section_title
;
Structure prediction by ZEFSAII (Michael W. Deem and Ramdas Pophale) SiO2 
 PCOD9397979
Probable space group: P B A N
;
_chemical_formula_sum "Si O2"
_cell_formula_units_Z 48
_cell_length_a 9.211640
_cell_length_b 16.700915
_cell_length_c 13.620285
_cell_angle_alpha 90.000000
_cell_angle_beta 90.000000
_cell_angle_gamma 90.000000
_cell_volume 2095.383008
_symmetry_space_group_name_H-M "P B A N"
_symmetry_group_IT_number 50
_space_group.IT_coordinate_system_code '2'
_symmetry_cell_setting 'orthorhombic'
loop_
_space_group_symop_operation_xyz
x,y,z
1/2-x,1/2-y,z
x,1/2-y,-z
1/2-x,y,-z
-x,-y,-z
1/2+x,1/2+y,-z
-x,1/2+y,z
1/2+x,-y,z
loop_
_atom_site_type_symbol
_atom_site_label
_atom_site_fract_x
_atom_site_fract_y
_atom_site_fract_z
Si Si1 0.241522 0.342386 0.772197
Si Si2 0.952498 0.662721 0.953317
Si Si3 0.830123 0.399562 0.185328
Si Si4 0.001051 0.562908 0.144006
Si Si5 0.185029 0.896068 0.405560
Si Si6 0.852214 0.938389 0.411583
O O1 0.250000 0.250000 0.747001
O O2 0.325349 0.353192 0.875225
O O3 0.078738 0.373057 0.786082
O O4 0.316799 0.392256 0.687676
O O5 0.101512 0.661975 0.891505
O O6 0.930868 0.750000 0.000000
O O7 0.962075 0.593098 0.034493
O O8 0.934591 0.477728 0.175502
O O9 0.672085 0.430552 0.156245
O O10 0.826141 0.363580 0.295064
O O11 0.250000 0.849977 0.500000
O O12 0.022936 0.927803 0.430212
O O13 0.295161 0.971413 0.395784
O O14 0.750000 0.906964 0.500000
#
# Coordination Sequence:
#
# PCOD9397979 Si02
#       6
#     8   8   8   8   8   8
#     4  12  25  46  70  99 134 187 237 291 352 430
#     4  12  26  48  68 100 144 188 237 289 357 425
#     4  12  25  45  71 107 138 187 237 297 352 425
#     4  12  26  43  70 100 144 183 239 289 353 420
#     4  11  22  40  69 104 138 174 226 293 359 416
#     4  11  23  41  71 101 138 178 232 291 354 423
#
# _framework density 22.907506999999999
#
# number of rings (size 3 to 8) (size 9 to 14) (size 15 to 20)
#    0.000    0.333    5.000    5.500    2.333    3.000 
#    0.000    0.000    0.000    0.000    0.000    0.000 
#    0.000    0.000    0.000    0.000    0.000    0.000 
#
# Total GULP energy -268718.506910 kJ/mol
# GULP energy per Si atom -5598.302227 kJ/mol
# Density = 2.285537 g / cm^3
# Si number density = 22.907507 Si / 1000 Ang^3
#
#
#
# Elastic Constant Matrix: (Units=GPa)
#
#
# Indices 1 2 3 4 5 6 
#
# 1 155.5754 9.3261 20.5700 0.0000 0.0000 0.0000
# 2 9.3261 53.7917 24.9804 0.0000 0.0000 0.0000
# 3 20.5700 24.9804 150.9893 0.0000 0.0000 0.0000
# 4 0.0000 0.0000 0.0000 25.0767 0.0000 0.0000
# 5 0.0000 0.0000 0.0000 0.0000 43.0894 0.0000
# 6 0.0000 0.0000 0.0000 0.0000 0.0000 10.0922
#
#
#
# Elastic Compliance Matrix: (Units=1/GPa)
#
#
# Indices 1 2 3 4 5 6 
#
# 1 0.006576 -0.000784 -0.000766 0.000000 0.000000 0.000000
# 2 -0.000784 0.020231 -0.003240 0.000000 0.000000 0.000000
# 3 -0.000766 -0.003240 0.007263 0.000000 0.000000 0.000000
# 4 0.000000 0.000000 0.000000 0.039878 0.000000 0.000000
# 5 0.000000 0.000000 0.000000 0.000000 0.023208 0.000000
# 6 0.000000 0.000000 0.000000 0.000000 0.000000 0.099086
#
#
# Mechanical properties :
#
#
# Convention : Reuss Voigt Hill
#
# Bulk Modulus (GPa) = 40.83462 52.23439 46.53450
# Shear Modulus (GPa) = 23.36600 36.01701 29.69150
#
# Velocity S-wave (km/s) = 3.19723 3.96950 3.60411
# Velocity P-wave (km/s) = 5.61198 6.62277 6.13821
#
# Compressibility (1/GPa) = 0.02448903
#
# Stress axis : x y z
#
# Youngs Moduli (GPa) = 152.06666 49.42920 137.67582
#
# Poissons Ratio (x) = 0.03877 0.10548
# Poissons Ratio (y) = 0.11927 0.44610
# Poissons Ratio (z) = 0.11650 0.16016
#
# Static dielectric constant tensor:
#      x y z
#    x 1.847130 0.000000 0.000000 
#    y 0.000000 1.838150 0.000000 
#    z 0.000000 0.000000 1.920770 
# 
# From -- ./inp_files/25001.got.cif
#   From: 2010.05.17/outbox.cif.g08.bks.cpg/sg50_13_cif.got.tgz:25001.got - 2010.06.03 11:33:33.
