data_PCOD9397285
_publ_section_title
;
Structure prediction by ZEFSAII (Michael W. Deem and Ramdas Pophale) SiO2 
 PCOD9397285
Probable space group: P B A N
;
_chemical_formula_sum "Si O2"
_cell_formula_units_Z 24
_cell_length_a 4.861133
_cell_length_b 17.326499
_cell_length_c 13.742626
_cell_angle_alpha 90.000000
_cell_angle_beta 90.000000
_cell_angle_gamma 90.000000
_cell_volume 1157.492135
_symmetry_space_group_name_H-M "P B A N"
_symmetry_group_IT_number 50
_space_group.IT_coordinate_system_code '2'
_symmetry_cell_setting 'orthorhombic'
loop_
_space_group_symop_operation_xyz
x,y,z
1/2-x,1/2-y,z
x,1/2-y,-z
1/2-x,y,-z
-x,-y,-z
1/2+x,1/2+y,-z
-x,1/2+y,z
1/2+x,-y,z
loop_
_atom_site_type_symbol
_atom_site_label
_atom_site_fract_x
_atom_site_fract_y
_atom_site_fract_z
Si Si1 0.750000 0.146916 0.000000
Si Si2 0.488967 0.053033 0.823626
Si Si3 0.250000 0.250000 0.000000
Si Si4 0.250000 0.250000 0.500000
Si Si5 0.989857 0.802719 0.690240
O O1 0.592817 0.096996 0.919681
O O2 0.489582 0.194816 0.047151
O O3 0.522786 0.114298 0.737034
O O4 0.178825 0.022784 0.820121
O O5 0.421220 0.302528 0.425046
O O6 0.250000 0.750000 0.704496
O O7 0.750000 0.750000 0.736597
#
# Coordination Sequence:
#
# PCOD9397285 Si02
#       5
#     4   8   2   2   8
#     4  11  24  41  66  91 143 180 232 276 339 383
#     4  12  25  42  64  99 140 181 222 277 342 407
#     4  10  24  38  64 100 116 176 246 288 296 388
#     4   8  22  42  74  96 128 168 228 290 346 394
#     4  10  22  41  70  96 129 172 225 278 338 406
#
# _framework density 20.734483000000001
#
# number of rings (size 3 to 8) (size 9 to 14) (size 15 to 20)
#    1.000    0.333    0.000    5.500    7.000    0.000 
#    0.000    1.667    0.000    0.000    0.000    0.000 
#    0.000    0.000    0.000    0.000    0.000    0.000 
#
# Total GULP energy -133643.213173 kJ/mol
# GULP energy per Si atom -5568.467216 kJ/mol
# Density = 2.068729 g / cm^3
# Si number density = 20.734483 Si / 1000 Ang^3
#
#
#
# Elastic Constant Matrix: (Units=GPa)
#
#
# Indices 1 2 3 4 5 6 
#
# 1 119.0210 12.6042 5.7771 0.0000 0.0000 0.0000
# 2 12.6042 76.3420 41.5464 0.0000 0.0000 0.0000
# 3 5.7771 41.5464 108.5117 0.0000 0.0000 0.0000
# 4 0.0000 0.0000 0.0000 2.3508 0.0000 0.0000
# 5 0.0000 0.0000 0.0000 0.0000 -12.6817 0.0000
# 6 0.0000 0.0000 0.0000 0.0000 0.0000 11.2362
#
#
#
# Elastic Compliance Matrix: (Units=1/GPa)
#
#
# Indices 1 2 3 4 5 6 
#
# 1 0.008552 -0.001471 0.000108 0.000000 0.000000 0.000000
# 2 -0.001471 0.016800 -0.006354 0.000000 0.000000 0.000000
# 3 0.000108 -0.006354 0.011643 0.000000 0.000000 0.000000
# 4 0.000000 0.000000 0.000000 0.425391 0.000000 0.000000
# 5 0.000000 0.000000 0.000000 0.000000 -0.078853 0.000000
# 6 0.000000 0.000000 0.000000 0.000000 0.000000 0.088998
#
#
# Mechanical properties :
#
#
# Convention : Reuss Voigt Hill
#
# Bulk Modulus (GPa) = 46.37988 47.08113 46.73050
# Shear Modulus (GPa) = 10.09793 16.44418 13.27105
#
# Velocity S-wave (km/s) = 2.20923 2.81923 2.53266
# Velocity P-wave (km/s) = 5.37816 5.77524 5.58023
#
# Compressibility (1/GPa) = 0.02156108
#
# Stress axis : x y z
#
# Youngs Moduli (GPa) = 116.92640 59.52522 85.89156
#
# Poissons Ratio (x) = 0.08754 -0.00926
# Poissons Ratio (y) = 0.17196 0.54574
# Poissons Ratio (z) = -0.01260 0.37821
#
# Static dielectric constant tensor:
#      x y z
#    x 1.737100 0.000000 0.000000 
#    y 0.000000 1.768760 0.000000 
#    z 0.000000 0.000000 1.801880 
# 
# From -- ./inp_files/23599.got.cif
#   From: 2010.05.17/outbox.cif.g08.bks.cpg/sg50_12_cif.got.tgz:23599.got - 2010.06.03 11:33:33.
