data_PCOD9397188
_publ_section_title
;
Structure prediction by ZEFSAII (Michael W. Deem and Ramdas Pophale) SiO2 
 PCOD9397188
Probable space group: P B A N
;
_chemical_formula_sum "Si O2"
_cell_formula_units_Z 54
_cell_length_a 14.239315
_cell_length_b 12.198437
_cell_length_c 14.870816
_cell_angle_alpha 90.000000
_cell_angle_beta 90.000000
_cell_angle_gamma 90.000000
_cell_volume 2583.021881
_symmetry_space_group_name_H-M "P B A N"
_symmetry_group_IT_number 50
_space_group.IT_coordinate_system_code '2'
_symmetry_cell_setting 'orthorhombic'
loop_
_space_group_symop_operation_xyz
x,y,z
1/2-x,1/2-y,z
x,1/2-y,-z
1/2-x,y,-z
-x,-y,-z
1/2+x,1/2+y,-z
-x,1/2+y,z
1/2+x,-y,z
loop_
_atom_site_type_symbol
_atom_site_label
_atom_site_fract_x
_atom_site_fract_y
_atom_site_fract_z
Si Si1 0.881843 0.458959 0.077161
Si Si2 0.750000 0.250000 0.500000
Si Si3 0.339198 0.993513 0.113465
Si Si4 0.078159 0.077069 0.259174
Si Si5 0.381426 0.837415 0.258478
Si Si6 0.853764 0.732107 0.851001
Si Si7 0.681055 0.381625 0.662505
Si Si8 0.010982 0.750000 0.000000
O O1 0.771196 0.467253 0.101524
O O2 0.931411 0.508361 0.164847
O O3 0.885296 0.523448 0.982262
O O4 0.921699 0.343140 0.043556
O O5 0.687322 0.325750 0.565075
O O6 0.356906 0.102903 0.170982
O O7 0.378625 0.883384 0.157494
O O8 0.136122 0.185275 0.232111
O O9 0.978509 0.117222 0.295432
O O10 0.130870 0.996232 0.326312
O O11 0.369199 0.708013 0.272360
O O12 0.288787 0.887699 0.304484
O O13 0.750000 0.750000 0.891900
O O14 0.937188 0.767245 0.917610
#
# Coordination Sequence:
#
# PCOD9397188 Si02
#       8
#     8   2   8   8   8   8   8   4
#     4  11  25  39  55  89 123 181 236 289 319 381
#     4   8  20  48  84  96 136 174 192 268 360 418
#     4  11  23  41  57  82 132 178 227 272 338 361
#     4  12  24  40  64  98 127 175 223 275 327 396
#     4  10  22  39  67  94 132 170 216 280 318 388
#     4  12  24  40  56  82 125 178 223 278 331 395
#     4  10  23  46  70 105 130 162 215 265 338 414
#     4  12  27  37  60  82 120 176 250 289 331 366
#
# _framework density 20.905746000000001
#
# number of rings (size 3 to 8) (size 9 to 14) (size 15 to 20)
#    0.000    1.185    2.963    2.889    8.296    2.963 
#    0.000    2.963    0.000    0.000    0.000    4.148 
#    0.000    0.000    0.000    0.000    0.000    0.000 
#
# Total GULP energy -301536.604610 kJ/mol
# GULP energy per Si atom -5584.011196 kJ/mol
# Density = 2.085816 g / cm^3
# Si number density = 20.905746 Si / 1000 Ang^3
#
#
#
# Elastic Constant Matrix: (Units=GPa)
#
#
# Indices 1 2 3 4 5 6 
#
# 1 127.8378 69.1024 19.7479 0.0000 0.0000 0.0000
# 2 69.1024 148.1886 38.8863 0.0000 0.0000 0.0000
# 3 19.7479 38.8863 70.7375 0.0000 0.0000 0.0000
# 4 0.0000 0.0000 0.0000 33.7812 0.0000 0.0000
# 5 0.0000 0.0000 0.0000 0.0000 7.8843 0.0000
# 6 0.0000 0.0000 0.0000 0.0000 0.0000 34.5092
#
#
#
# Elastic Compliance Matrix: (Units=1/GPa)
#
#
# Indices 1 2 3 4 5 6 
#
# 1 0.010463 -0.004806 -0.000279 0.000000 0.000000 0.000000
# 2 -0.004806 0.010093 -0.004207 0.000000 0.000000 0.000000
# 3 -0.000279 -0.004207 0.016527 0.000000 0.000000 0.000000
# 4 0.000000 0.000000 0.000000 0.029602 0.000000 0.000000
# 5 0.000000 0.000000 0.000000 0.000000 0.126834 0.000000
# 6 0.000000 0.000000 0.000000 0.000000 0.000000 0.028978
#
#
# Mechanical properties :
#
#
# Convention : Reuss Voigt Hill
#
# Bulk Modulus (GPa) = 54.05384 66.91523 60.48454
# Shear Modulus (GPa) = 20.22258 29.83676 25.02967
#
# Velocity S-wave (km/s) = 3.11355 3.78193 3.46390
# Velocity P-wave (km/s) = 6.23199 7.15180 6.70768
#
# Compressibility (1/GPa) = 0.01850007
#
# Stress axis : x y z
#
# Youngs Moduli (GPa) = 95.57128 99.07691 60.50607
#
# Poissons Ratio (x) = 0.47616 0.01689
# Poissons Ratio (y) = 0.45931 0.25454
# Poissons Ratio (z) = 0.02667 0.41680
#
# Static dielectric constant tensor:
#      x y z
#    x 1.808390 0.000000 0.000000 
#    y 0.000000 1.819370 0.000000 
#    z 0.000000 0.000000 1.766110 
# 
# From -- ./inp_files/26540.got.cif
#   From: 2010.05.17/outbox.cif.g08.bks.cpg/sg50_14_cif.got.tgz:26540.got - 2010.06.03 11:33:33.
