data_PCOD9397576
_publ_section_title
;
Structure prediction by ZEFSAII (Michael W. Deem and Ramdas Pophale) SiO2 
 PCOD9397576
Probable space group: P B A N
;
_chemical_formula_sum "Si O2"
_cell_formula_units_Z 40
_cell_length_a 9.065170
_cell_length_b 14.123481
_cell_length_c 12.891798
_cell_angle_alpha 90.000000
_cell_angle_beta 90.000000
_cell_angle_gamma 90.000000
_cell_volume 1650.559539
_symmetry_space_group_name_H-M "P B A N"
_symmetry_group_IT_number 50
_space_group.IT_coordinate_system_code '2'
_symmetry_cell_setting 'orthorhombic'
loop_
_space_group_symop_operation_xyz
x,y,z
1/2-x,1/2-y,z
x,1/2-y,-z
1/2-x,y,-z
-x,-y,-z
1/2+x,1/2+y,-z
-x,1/2+y,z
1/2+x,-y,z
loop_
_atom_site_type_symbol
_atom_site_label
_atom_site_fract_x
_atom_site_fract_y
_atom_site_fract_z
Si Si1 0.890638 0.201890 0.165596
Si Si2 0.619841 0.541325 0.815081
Si Si3 0.750000 0.469195 0.500000
Si Si4 0.874048 0.676618 0.805748
Si Si5 0.011500 0.087836 0.632811
Si Si6 0.750000 0.438039 0.000000
O O1 0.750000 0.250000 0.222017
O O2 0.012929 0.130103 0.211484
O O3 0.986219 0.292219 0.127677
O O4 0.825824 0.132544 0.080332
O O5 0.789064 0.577490 0.806009
O O6 0.567800 0.465347 0.730803
O O7 0.634423 0.500676 0.931863
O O8 0.623666 0.407174 0.553970
O O9 0.649716 0.534211 0.422072
O O10 0.750000 0.750000 0.837247
O O11 0.929222 0.682853 0.686696
#
# Coordination Sequence:
#
# PCOD9397576 Si02
#       6
#     8   8   4   8   8   4
#     4  11  25  41  64  99 141 177 226 285 347 405
#     4  11  24  44  72  97 137 183 239 278 345 412
#     4  10  24  38  79 103 136 170 246 282 352 402
#     4  10  23  44  69  95 140 183 217 285 356 404
#     4  11  21  45  70 106 134 181 229 294 336 430
#     4  12  25  42  67 106 132 194 236 286 319 426
#
# _framework density 24.234204999999999
#
# number of rings (size 3 to 8) (size 9 to 14) (size 15 to 20)
#    0.000    1.200    2.000    3.300    2.800    3.200 
#    0.000    4.000    0.000    4.800    0.000    0.000 
#    0.000    0.000    0.000    0.000    0.000    0.000 
#
# Total GULP energy -222671.076598 kJ/mol
# GULP energy per Si atom -5566.776915 kJ/mol
# Density = 2.417905 g / cm^3
# Si number density = 24.234205 Si / 1000 Ang^3
#
#
#
# Elastic Constant Matrix: (Units=GPa)
#
#
# Indices 1 2 3 4 5 6 
#
# 1 151.0691 33.8291 16.4880 0.0000 0.0000 0.0000
# 2 33.8291 67.4546 17.2733 0.0000 0.0000 0.0000
# 3 16.4880 17.2733 56.2397 0.0000 0.0000 0.0000
# 4 0.0000 0.0000 0.0000 10.5857 0.0000 0.0000
# 5 0.0000 0.0000 0.0000 0.0000 45.0231 0.0000
# 6 0.0000 0.0000 0.0000 0.0000 0.0000 24.4733
#
#
#
# Elastic Compliance Matrix: (Units=1/GPa)
#
#
# Indices 1 2 3 4 5 6 
#
# 1 0.007523 -0.003482 -0.001136 0.000000 0.000000 0.000000
# 2 -0.003482 0.017702 -0.004416 0.000000 0.000000 0.000000
# 3 -0.001136 -0.004416 0.019470 0.000000 0.000000 0.000000
# 4 0.000000 0.000000 0.000000 0.094467 0.000000 0.000000
# 5 0.000000 0.000000 0.000000 0.000000 0.022211 0.000000
# 6 0.000000 0.000000 0.000000 0.000000 0.000000 0.040861
#
#
# Mechanical properties :
#
#
# Convention : Reuss Voigt Hill
#
# Bulk Modulus (GPa) = 37.55575 45.54935 41.55255
# Shear Modulus (GPa) = 21.81701 29.82793 25.82247
#
# Velocity S-wave (km/s) = 3.00368 3.51211 3.26780
# Velocity P-wave (km/s) = 5.24977 5.93994 5.60549
#
# Compressibility (1/GPa) = 0.02662708
#
# Stress axis : x y z
#
# Youngs Moduli (GPa) = 132.92167 56.49110 51.35985
#
# Poissons Ratio (x) = 0.19670 0.05835
# Poissons Ratio (y) = 0.46284 0.22681
# Poissons Ratio (z) = 0.15102 0.24947
#
# Static dielectric constant tensor:
#      x y z
#    x 2.039630 0.000000 0.000000 
#    y 0.000000 2.048610 0.000000 
#    z 0.000000 0.000000 1.988150 
# 
# From -- ./inp_files/24731.got.cif
#   From: 2010.05.17/outbox.cif.g08.bks.cpg/sg50_13_cif.got.tgz:24731.got - 2010.06.03 11:33:33.
