data_PCOD9397449
_publ_section_title
;
Structure prediction by ZEFSAII (Michael W. Deem and Ramdas Pophale) SiO2 
 PCOD9397449
Probable space group: P B A N
;
_chemical_formula_sum "Si O2"
_cell_formula_units_Z 60
_cell_length_a 8.943550
_cell_length_b 30.667404
_cell_length_c 12.212089
_cell_angle_alpha 90.000000
_cell_angle_beta 90.000000
_cell_angle_gamma 90.000000
_cell_volume 3349.476341
_symmetry_space_group_name_H-M "P B A N"
_symmetry_group_IT_number 50
_space_group.IT_coordinate_system_code '2'
_symmetry_cell_setting 'orthorhombic'
loop_
_space_group_symop_operation_xyz
x,y,z
1/2-x,1/2-y,z
x,1/2-y,-z
1/2-x,y,-z
-x,-y,-z
1/2+x,1/2+y,-z
-x,1/2+y,z
1/2+x,-y,z
loop_
_atom_site_type_symbol
_atom_site_label
_atom_site_fract_x
_atom_site_fract_y
_atom_site_fract_z
Si Si1 0.468513 0.938020 0.048323
Si Si2 0.939590 0.302393 0.114022
Si Si3 0.061603 0.895689 0.192882
Si Si4 0.576767 0.294667 0.137154
Si Si5 0.750000 0.990775 0.000000
Si Si6 0.102451 0.039062 0.644179
Si Si7 0.403287 0.878792 0.248263
Si Si8 0.452687 0.449557 0.389881
O O1 0.454707 0.900250 0.134455
O O2 0.350250 0.976635 0.071969
O O3 0.435200 0.918946 0.927026
O O4 0.630074 0.960081 0.056979
O O5 0.995023 0.346134 0.172791
O O6 0.757610 0.299757 0.122199
O O7 0.978916 0.254422 0.158649
O O8 0.980675 0.305460 0.985418
O O9 0.225554 0.888236 0.245647
O O10 0.966551 0.927322 0.269653
O O11 0.548616 0.328763 0.233711
O O12 0.043847 0.049732 0.521540
O O13 0.281062 0.042806 0.643771
O O14 0.049201 0.989301 0.660005
O O15 0.482484 0.904698 0.344457
#
# Coordination Sequence:
#
# PCOD9397449 Si02
#       8
#     8   8   8   8   4   8   8   8
#     4  11  22  34  45  75 104 143 172 210 252 314
#     4   8  14  27  48  76 108 138 168 208 257 308
#     4  11  20  32  54  79 108 136 174 214 258 315
#     4   8  14  27  48  76 108 138 168 208 257 308
#     4  10  24  34  44  62 114 146 172 204 256 308
#     4  10  23  40  56  75 101 137 180 222 262 305
#     4  11  20  32  54  79 108 136 174 214 258 315
#     4  10  23  40  56  75 101 137 180 222 262 305
#
# _framework density 17.913246999999998
#
# number of rings (size 3 to 8) (size 9 to 14) (size 15 to 20)
#    0.000    2.133    2.667    1.600    5.600    1.600 
#    0.000    0.000    0.000    1.600    0.000    8.400 
#    0.000    0.000    0.000    0.000    0.000    0.000 
#
# Total GULP energy -334431.575151 kJ/mol
# GULP energy per Si atom -5573.859586 kJ/mol
# Density = 1.787248 g / cm^3
# Si number density = 17.913247 Si / 1000 Ang^3
#
#
#
# Elastic Constant Matrix: (Units=GPa)
#
#
# Indices 1 2 3 4 5 6 
#
# 1 23.2252 3.0769 0.9753 0.0000 0.0000 0.0000
# 2 3.0769 100.8643 18.3709 0.0000 0.0000 0.0000
# 3 0.9753 18.3709 42.0755 0.0000 0.0000 0.0000
# 4 0.0000 0.0000 0.0000 31.2350 0.0000 0.0000
# 5 0.0000 0.0000 0.0000 0.0000 11.3959 0.0000
# 6 0.0000 0.0000 0.0000 0.0000 0.0000 -28.8680
#
#
#
# Elastic Compliance Matrix: (Units=1/GPa)
#
#
# Indices 1 2 3 4 5 6 
#
# 1 0.043240 -0.001235 -0.000463 0.000000 0.000000 0.000000
# 2 -0.001235 0.010806 -0.004690 0.000000 0.000000 0.000000
# 3 -0.000463 -0.004690 0.025825 0.000000 0.000000 0.000000
# 4 0.000000 0.000000 0.000000 0.032015 0.000000 0.000000
# 5 0.000000 0.000000 0.000000 0.000000 0.087751 0.000000
# 6 0.000000 0.000000 0.000000 0.000000 0.000000 -0.034640
#
#
# Mechanical properties :
#
#
# Convention : Reuss Voigt Hill
#
# Bulk Modulus (GPa) = 14.90400 23.44569 19.17485
# Shear Modulus (GPa) = 24.98296 12.33539 18.65917
#
# Velocity S-wave (km/s) = 3.73857 2.62700 3.23095
# Velocity P-wave (km/s) = 5.19365 4.72423 4.96450
#
# Compressibility (1/GPa) = 0.06709607
#
# Stress axis : x y z
#
# Youngs Moduli (GPa) = 23.12689 92.54036 38.72213
#
# Poissons Ratio (x) = 0.11426 0.01794
# Poissons Ratio (y) = 0.02855 0.18159
# Poissons Ratio (z) = 0.01071 0.43397
#
# Static dielectric constant tensor:
#      x y z
#    x 1.643620 0.000000 0.000000 
#    y 0.000000 1.654330 0.000000 
#    z 0.000000 0.000000 1.614240 
# 
# From -- ./inp_files/19508.got.cif
#   From: 2010.05.17/outbox.cif.g08.bks.cpg/sg50_10_cif.got.tgz:19508.got - 2010.06.03 11:33:33.
