data_PCOD9397065
_publ_section_title
;
Structure prediction by ZEFSAII (Michael W. Deem and Ramdas Pophale) SiO2 
 PCOD9397065
Probable space group: P B A N
;
_chemical_formula_sum "Si O2"
_cell_formula_units_Z 48
_cell_length_a 7.646781
_cell_length_b 14.831341
_cell_length_c 19.339421
_cell_angle_alpha 90.000000
_cell_angle_beta 90.000000
_cell_angle_gamma 90.000000
_cell_volume 2193.322735
_symmetry_space_group_name_H-M "P B A N"
_symmetry_group_IT_number 50
_space_group.IT_coordinate_system_code '2'
_symmetry_cell_setting 'orthorhombic'
loop_
_space_group_symop_operation_xyz
x,y,z
1/2-x,1/2-y,z
x,1/2-y,-z
1/2-x,y,-z
-x,-y,-z
1/2+x,1/2+y,-z
-x,1/2+y,z
1/2+x,-y,z
loop_
_atom_site_type_symbol
_atom_site_label
_atom_site_fract_x
_atom_site_fract_y
_atom_site_fract_z
Si Si1 0.140885 0.105954 0.068860
Si Si2 0.250000 0.250000 0.500000
Si Si3 0.101787 0.673236 0.760848
Si Si4 0.507114 0.102549 0.526726
Si Si5 0.275452 0.600594 0.096564
Si Si6 0.811569 0.148403 0.613996
Si Si7 0.250000 0.750000 0.000000
Si Si8 0.250000 0.250000 0.181309
O O1 0.215995 0.164373 0.131881
O O2 0.930890 0.114283 0.080698
O O3 0.173263 0.998714 0.073586
O O4 0.250000 0.134153 0.000000
O O5 0.356109 0.174682 0.545366
O O6 0.250000 0.750000 0.761661
O O7 0.158214 0.611871 0.825532
O O8 0.105030 0.622844 0.686882
O O9 0.918337 0.722399 0.774099
O O10 0.639314 0.095276 0.590665
O O11 0.575552 0.147788 0.455663
O O12 0.500000 0.000000 0.500000
O O13 0.354958 0.683093 0.051408
O O14 0.750000 0.250000 0.621823
#
# Coordination Sequence:
#
# PCOD9397065 Si02
#       8
#     8   2   8   8   8   8   2   4
#     4  12  26  42  71 102 140 187 249 313 374 448
#     4  12  20  36  68 110 142 174 244 302 354 440
#     4  11  24  47  71 102 144 196 236 303 380 451
#     4  11  22  42  71 108 141 188 248 304 366 448
#     4  12  25  45  68 103 144 187 245 308 376 448
#     4  10  21  46  69  92 149 190 229 303 379 422
#     4  12  24  40  70  94 136 182 242 300 376 428
#     4  12  25  47  72 106 146 188 252 298 372 468
#
# _framework density 21.884602999999998
#
# number of rings (size 3 to 8) (size 9 to 14) (size 15 to 20)
#    0.000    0.667    5.000    3.250    4.667    0.667 
#    6.000    0.000    0.000    0.000    0.000    0.000 
#    0.000    0.000    0.000    0.000    0.000    0.000 
#
# Total GULP energy -267503.140387 kJ/mol
# GULP energy per Si atom -5572.982091 kJ/mol
# Density = 2.183479 g / cm^3
# Si number density = 21.884603 Si / 1000 Ang^3
#
#
#
# Elastic Constant Matrix: (Units=GPa)
#
#
# Indices 1 2 3 4 5 6 
#
# 1 139.1702 21.4010 46.9490 0.0000 0.0000 0.0000
# 2 21.4010 121.4826 28.5707 0.0000 0.0000 0.0000
# 3 46.9490 28.5707 164.2541 0.0000 0.0000 0.0000
# 4 0.0000 0.0000 0.0000 14.0982 0.0000 0.0000
# 5 0.0000 0.0000 0.0000 0.0000 60.2658 0.0000
# 6 0.0000 0.0000 0.0000 0.0000 0.0000 21.9820
#
#
#
# Elastic Compliance Matrix: (Units=1/GPa)
#
#
# Indices 1 2 3 4 5 6 
#
# 1 0.008048 -0.000914 -0.002141 0.000000 0.000000 0.000000
# 2 -0.000914 0.008687 -0.001250 0.000000 0.000000 0.000000
# 3 -0.002141 -0.001250 0.006918 0.000000 0.000000 0.000000
# 4 0.000000 0.000000 0.000000 0.070931 0.000000 0.000000
# 5 0.000000 0.000000 0.000000 0.000000 0.016593 0.000000
# 6 0.000000 0.000000 0.000000 0.000000 0.000000 0.045492
#
#
# Mechanical properties :
#
#
# Convention : Reuss Voigt Hill
#
# Bulk Modulus (GPa) = 66.48078 68.74981 67.61530
# Shear Modulus (GPa) = 29.36114 41.13495 35.24804
#
# Velocity S-wave (km/s) = 3.66681 4.34017 4.01762
# Velocity P-wave (km/s) = 6.95494 7.52323 7.24466
#
# Compressibility (1/GPa) = 0.01504194
#
# Stress axis : x y z
#
# Youngs Moduli (GPa) = 124.24744 115.12005 144.55882
#
# Poissons Ratio (x) = 0.10524 0.30957
# Poissons Ratio (y) = 0.11359 0.18065
# Poissons Ratio (z) = 0.26607 0.14386
#
# Static dielectric constant tensor:
#      x y z
#    x 2.061530 0.000000 0.000000 
#    y 0.000000 1.816800 0.000000 
#    z 0.000000 0.000000 1.970300 
# 
# From -- ./inp_files/28777.got.cif
#   From: 2010.05.17/outbox.cif.g08.bks.cpg/sg50_15_cif.got.tgz:28777.got - 2010.06.03 11:33:33.
