data_PCOD9397373
_publ_section_title
;
Structure prediction by ZEFSAII (Michael W. Deem and Ramdas Pophale) SiO2 
 PCOD9397373
Probable space group: P B A N
;
_chemical_formula_sum "Si O2"
_cell_formula_units_Z 30
_cell_length_a 12.720655
_cell_length_b 20.648761
_cell_length_c 5.256371
_cell_angle_alpha 90.000000
_cell_angle_beta 90.000000
_cell_angle_gamma 90.000000
_cell_volume 1380.668709
_symmetry_space_group_name_H-M "P B A N"
_symmetry_group_IT_number 50
_space_group.IT_coordinate_system_code '2'
_symmetry_cell_setting 'orthorhombic'
loop_
_space_group_symop_operation_xyz
x,y,z
1/2-x,1/2-y,z
x,1/2-y,-z
1/2-x,y,-z
-x,-y,-z
1/2+x,1/2+y,-z
-x,1/2+y,z
1/2+x,-y,z
loop_
_atom_site_type_symbol
_atom_site_label
_atom_site_fract_x
_atom_site_fract_y
_atom_site_fract_z
Si Si1 0.988721 0.043613 0.247205
Si Si2 0.821997 0.158059 0.248461
Si Si3 0.358422 0.152799 0.622843
Si Si4 0.019466 0.750000 0.500000
Si Si5 0.250000 0.250000 0.000000
O O1 0.886457 0.090317 0.241459
O O2 0.084409 0.093639 0.250671
O O3 0.000000 0.000000 0.500000
O O4 0.000000 0.000000 0.000000
O O5 0.750000 0.158416 0.500000
O O6 0.905019 0.217095 0.289876
O O7 0.750000 0.164894 0.000000
O O8 0.250000 0.131192 0.500000
O O9 0.441539 0.189651 0.437540
O O10 0.322766 0.205857 0.825436
#
# Coordination Sequence:
#
# PCOD9397373 Si02
#       5
#     8   8   8   4   2
#     4  11  27  48  72 104 144 195 249 298 363 441
#     4  11  25  45  70 102 143 193 241 300 360 439
#     4  11  24  44  71 109 147 186 239 313 379 444
#     4  10  22  44  68 102 144 176 240 298 374 438
#     4  12  22  40  76 110 150 180 250 302 402 436
#
# _framework density 21.728601000000001
#
# number of rings (size 3 to 8) (size 9 to 14) (size 15 to 20)
#    0.000    1.067    2.667    2.000    3.733    9.600 
#    0.000    0.000    0.000    0.000    0.000    0.000 
#    0.000    0.000    0.000    0.000    0.000    0.000 
#
# Total GULP energy -167742.905115 kJ/mol
# GULP energy per Si atom -5591.430170 kJ/mol
# Density = 2.167915 g / cm^3
# Si number density = 21.728601 Si / 1000 Ang^3
#
#
#
# Elastic Constant Matrix: (Units=GPa)
#
#
# Indices 1 2 3 4 5 6 
#
# 1 166.6707 79.4331 74.4045 0.0000 0.0000 0.0000
# 2 79.4331 163.7156 76.3694 0.0000 0.0000 0.0000
# 3 74.4045 76.3694 148.9298 0.0000 0.0000 0.0000
# 4 0.0000 0.0000 0.0000 29.3938 0.0000 0.0000
# 5 0.0000 0.0000 0.0000 0.0000 33.5185 0.0000
# 6 0.0000 0.0000 0.0000 0.0000 0.0000 40.5598
#
#
#
# Elastic Compliance Matrix: (Units=1/GPa)
#
#
# Indices 1 2 3 4 5 6 
#
# 1 0.008634 -0.002862 -0.002846 0.000000 0.000000 0.000000
# 2 -0.002862 0.008977 -0.003174 0.000000 0.000000 0.000000
# 3 -0.002846 -0.003174 0.009764 0.000000 0.000000 0.000000
# 4 0.000000 0.000000 0.000000 0.034021 0.000000 0.000000
# 5 0.000000 0.000000 0.000000 0.000000 0.029834 0.000000
# 6 0.000000 0.000000 0.000000 0.000000 0.000000 0.024655
#
#
# Mechanical properties :
#
#
# Convention : Reuss Voigt Hill
#
# Bulk Modulus (GPa) = 104.03391 104.41446 104.22419
# Shear Modulus (GPa) = 36.53578 37.30172 36.91875
#
# Velocity S-wave (km/s) = 4.10501 4.14782 4.12647
# Velocity P-wave (km/s) = 8.39350 8.43193 8.41274
#
# Compressibility (1/GPa) = 0.00961225
#
# Stress axis : x y z
#
# Youngs Moduli (GPa) = 115.81805 111.39595 102.41730
#
# Poissons Ratio (x) = 0.31876 0.29151
# Poissons Ratio (y) = 0.33142 0.32504
# Poissons Ratio (z) = 0.32965 0.35354
#
# Static dielectric constant tensor:
#      x y z
#    x 1.831800 0.000000 0.000000 
#    y 0.000000 1.764910 0.000000 
#    z 0.000000 0.000000 1.786290 
# 
# From -- ./inp_files/1912.got.cif
#   From: 2010.05.17/outbox.cif.g08.bks.cpg/sg50_1_cif.got.tgz:1912.got - 2010.06.03 11:33:33.
