data_PCOD9397822
_publ_section_title
;
Structure prediction by ZEFSAII (Michael W. Deem and Ramdas Pophale) SiO2 
 PCOD9397822
Probable space group: P B A N
;
_chemical_formula_sum "Si O2"
_cell_formula_units_Z 48
_cell_length_a 17.972688
_cell_length_b 8.482125
_cell_length_c 16.403275
_cell_angle_alpha 90.000000
_cell_angle_beta 90.000000
_cell_angle_gamma 90.000000
_cell_volume 2500.623276
_symmetry_space_group_name_H-M "P B A N"
_symmetry_group_IT_number 50
_space_group.IT_coordinate_system_code '2'
_symmetry_cell_setting 'orthorhombic'
loop_
_space_group_symop_operation_xyz
x,y,z
1/2-x,1/2-y,z
x,1/2-y,-z
1/2-x,y,-z
-x,-y,-z
1/2+x,1/2+y,-z
-x,1/2+y,z
1/2+x,-y,z
loop_
_atom_site_type_symbol
_atom_site_label
_atom_site_fract_x
_atom_site_fract_y
_atom_site_fract_z
Si Si1 0.047538 0.840745 0.079326
Si Si2 0.326619 0.090708 0.954751
Si Si3 0.827887 0.735978 0.784666
Si Si4 0.540046 0.373035 0.558875
Si Si5 0.070436 0.541764 0.184727
Si Si6 0.957852 0.869913 0.675001
O O1 0.079307 0.709255 0.140832
O O2 0.985633 0.938823 0.128280
O O3 0.111951 0.956278 0.047666
O O4 0.017612 0.750000 0.000000
O O5 0.315571 0.151835 0.862805
O O6 0.351545 0.250000 0.000000
O O7 0.250000 0.042933 0.000000
O O8 0.750000 0.750000 0.737881
O O9 0.854444 0.559671 0.807615
O O10 0.897930 0.801020 0.735968
O O11 0.582112 0.250000 0.500000
O O12 0.500000 0.500000 0.500000
O O13 0.577241 0.482873 0.626383
O O14 0.483885 0.262961 0.610843
O O15 0.028282 0.572198 0.270754
#
# Coordination Sequence:
#
# PCOD9397822 Si02
#       6
#     8   8   8   8   8   8
#     4  12  24  38  62  87 121 164 232 286 338 375
#     4  11  23  44  61  82 128 178 228 283 330 391
#     4  12  24  42  65  92 134 179 219 277 343 385
#     4   9  19  35  67 107 130 158 202 267 323 391
#     4  12  23  41  63  97 125 170 223 288 326 390
#     4  11  19  39  66  99 132 159 219 261 318 409
#
# _framework density 19.195215999999999
#
# number of rings (size 3 to 8) (size 9 to 14) (size 15 to 20)
#    0.000    0.833    6.667    1.500    0.000    1.667 
#    0.000    0.000    0.000    4.500    4.333    0.000 
#    0.000    0.000    0.000    0.000    0.000    0.000 
#
# Total GULP energy -267916.258653 kJ/mol
# GULP energy per Si atom -5581.588722 kJ/mol
# Density = 1.915153 g / cm^3
# Si number density = 19.195216 Si / 1000 Ang^3
#
#
#
# Elastic Constant Matrix: (Units=GPa)
#
#
# Indices 1 2 3 4 5 6 
#
# 1 93.7171 38.2223 12.0660 0.0000 0.0000 0.0000
# 2 38.2223 114.0164 29.1169 0.0000 0.0000 0.0000
# 3 12.0660 29.1169 82.8958 0.0000 0.0000 0.0000
# 4 0.0000 0.0000 0.0000 46.5875 0.0000 0.0000
# 5 0.0000 0.0000 0.0000 0.0000 -2.0229 0.0000
# 6 0.0000 0.0000 0.0000 0.0000 0.0000 21.2380
#
#
#
# Elastic Compliance Matrix: (Units=1/GPa)
#
#
# Indices 1 2 3 4 5 6 
#
# 1 0.012371 -0.004051 -0.000378 0.000000 0.000000 0.000000
# 2 -0.004051 0.010961 -0.003260 0.000000 0.000000 0.000000
# 3 -0.000378 -0.003260 0.013264 0.000000 0.000000 0.000000
# 4 0.000000 0.000000 0.000000 0.021465 0.000000 0.000000
# 5 0.000000 0.000000 0.000000 0.000000 -0.494333 0.000000
# 6 0.000000 0.000000 0.000000 0.000000 0.000000 0.047086
#
#
# Mechanical properties :
#
#
# Convention : Reuss Voigt Hill
#
# Bulk Modulus (GPa) = 47.13035 49.93772 48.53403
# Shear Modulus (GPa) = -13.63380 27.24211 6.80415
#
# Velocity S-wave (km/s) = -2.66798 3.77133 1.88478
# Velocity P-wave (km/s) = 3.88788 6.71090 5.48415
#
# Compressibility (1/GPa) = 0.02121775
#
# Stress axis : x y z
#
# Youngs Moduli (GPa) = 80.83325 91.23034 75.39438
#
# Poissons Ratio (x) = 0.36955 0.02849
# Poissons Ratio (y) = 0.32743 0.24582
# Poissons Ratio (z) = 0.03055 0.29746
#
# Static dielectric constant tensor:
#      x y z
#    x 1.688820 0.000000 0.000000 
#    y 0.000000 1.713300 0.000000 
#    z 0.000000 0.000000 1.727920 
# 
# From -- ./inp_files/26843.got.cif
#   From: 2010.05.17/outbox.cif.g08.bks.cpg/sg50_14_cif.got.tgz:26843.got - 2010.06.03 11:33:33.
