data_PCOD9397803
_publ_section_title
;
Structure prediction by ZEFSAII (Michael W. Deem and Ramdas Pophale) SiO2 
 PCOD9397803
Probable space group: P B A N
;
_chemical_formula_sum "Si O2"
_cell_formula_units_Z 42
_cell_length_a 14.426761
_cell_length_b 9.717847
_cell_length_c 13.719514
_cell_angle_alpha 90.000000
_cell_angle_beta 90.000000
_cell_angle_gamma 90.000000
_cell_volume 1923.435474
_symmetry_space_group_name_H-M "P B A N"
_symmetry_group_IT_number 50
_space_group.IT_coordinate_system_code '2'
_symmetry_cell_setting 'orthorhombic'
loop_
_space_group_symop_operation_xyz
x,y,z
1/2-x,1/2-y,z
x,1/2-y,-z
1/2-x,y,-z
-x,-y,-z
1/2+x,1/2+y,-z
-x,1/2+y,z
1/2+x,-y,z
loop_
_atom_site_type_symbol
_atom_site_label
_atom_site_fract_x
_atom_site_fract_y
_atom_site_fract_z
Si Si1 0.561179 0.619191 0.709998
Si Si2 0.250000 0.250000 0.248793
Si Si3 0.250000 0.750000 0.500000
Si Si4 0.250000 0.750000 0.198797
Si Si5 0.100011 0.807217 0.347883
Si Si6 0.478508 0.623165 0.927664
Si Si7 0.281665 0.004893 0.104122
O O1 0.662877 0.685089 0.695865
O O2 0.487883 0.705184 0.644764
O O3 0.564621 0.456706 0.686636
O O4 0.534760 0.634986 0.826021
O O5 0.212718 0.373148 0.180210
O O6 0.175152 0.831658 0.433957
O O7 0.164361 0.725103 0.270944
O O8 0.214522 0.882724 0.139533
O O9 0.373368 0.586361 0.901941
O O10 0.490534 0.750000 0.000000
O O11 0.500000 0.500000 0.000000
O O12 0.250000 0.058910 0.000000
#
# Coordination Sequence:
#
# PCOD9397803 Si02
#       7
#     8   4   2   4   8   8   8
#     4  12  25  44  71 104 147 194 235 299 354 438
#     4  12  25  42  60 103 146 196 246 293 352 408
#     4  10  28  52  86 112 138 176 230 318 376 480
#     4  11  21  43  63  96 134 190 241 293 361 429
#     4  11  25  48  77 107 139 179 236 293 383 442
#     4  12  24  39  59  97 143 198 251 294 339 405
#     4  12  23  37  60  91 142 199 254 304 344 405
#
# _framework density 21.835930999999999
#
# number of rings (size 3 to 8) (size 9 to 14) (size 15 to 20)
#    0.000    0.381    3.810    6.286    0.000    0.762 
#    0.000    0.000    0.000    1.143    0.000    0.000 
#    0.000    0.000    0.000    0.000    0.000    0.000 
#
# Total GULP energy -234272.139398 kJ/mol
# GULP energy per Si atom -5577.908081 kJ/mol
# Density = 2.178623 g / cm^3
# Si number density = 21.835931 Si / 1000 Ang^3
#
#
#
# Elastic Constant Matrix: (Units=GPa)
#
#
# Indices 1 2 3 4 5 6 
#
# 1 90.6208 15.6179 34.6427 0.0000 0.0000 0.0000
# 2 15.6179 145.9963 28.1176 0.0000 0.0000 0.0000
# 3 34.6427 28.1176 50.2820 0.0000 0.0000 0.0000
# 4 0.0000 0.0000 0.0000 11.8098 0.0000 0.0000
# 5 0.0000 0.0000 0.0000 0.0000 27.2219 0.0000
# 6 0.0000 0.0000 0.0000 0.0000 0.0000 30.0466
#
#
#
# Elastic Compliance Matrix: (Units=1/GPa)
#
#
# Indices 1 2 3 4 5 6 
#
# 1 0.015005 0.000432 -0.010580 0.000000 0.000000 0.000000
# 2 0.000432 0.007689 -0.004597 0.000000 0.000000 0.000000
# 3 -0.010580 -0.004597 0.029748 0.000000 0.000000 0.000000
# 4 0.000000 0.000000 0.000000 0.084676 0.000000 0.000000
# 5 0.000000 0.000000 0.000000 0.000000 0.036735 0.000000
# 6 0.000000 0.000000 0.000000 0.000000 0.000000 0.033282
#
#
# Mechanical properties :
#
#
# Convention : Reuss Voigt Hill
#
# Bulk Modulus (GPa) = 43.56930 49.29507 46.43219
# Shear Modulus (GPa) = 20.46884 27.71706 24.09295
#
# Velocity S-wave (km/s) = 3.06501 3.56663 3.32529
# Velocity P-wave (km/s) = 5.70281 6.29169 6.00448
#
# Compressibility (1/GPa) = 0.02295194
#
# Stress axis : x y z
#
# Youngs Moduli (GPa) = 66.64487 130.06192 33.61594
#
# Poissons Ratio (x) = -0.05624 0.35565
# Poissons Ratio (y) = -0.02882 0.15455
# Poissons Ratio (z) = 0.70508 0.59795
#
# Static dielectric constant tensor:
#      x y z
#    x 2.118080 0.000000 0.000000 
#    y 0.000000 1.563120 0.000000 
#    z 0.000000 0.000000 2.766430 
# 
# From -- ./inp_files/26355.got.cif
#   From: 2010.05.17/outbox.cif.g08.bks.cpg/sg50_14_cif.got.tgz:26355.got - 2010.06.03 11:33:33.
