data_PCOD9397609
_publ_section_title
;
Structure prediction by ZEFSAII (Michael W. Deem and Ramdas Pophale) SiO2 
 PCOD9397609
Probable space group: P B A N
;
_chemical_formula_sum "Si O2"
_cell_formula_units_Z 32
_cell_length_a 11.397510
_cell_length_b 20.001381
_cell_length_c 5.460925
_cell_angle_alpha 90.000000
_cell_angle_beta 90.000000
_cell_angle_gamma 90.000000
_cell_volume 1244.904901
_symmetry_space_group_name_H-M "P B A N"
_symmetry_group_IT_number 50
_space_group.IT_coordinate_system_code '2'
_symmetry_cell_setting 'orthorhombic'
loop_
_space_group_symop_operation_xyz
x,y,z
1/2-x,1/2-y,z
x,1/2-y,-z
1/2-x,y,-z
-x,-y,-z
1/2+x,1/2+y,-z
-x,1/2+y,z
1/2+x,-y,z
loop_
_atom_site_type_symbol
_atom_site_label
_atom_site_fract_x
_atom_site_fract_y
_atom_site_fract_z
Si Si1 0.750000 0.250000 0.500000
Si Si2 0.446071 0.944662 0.169431
Si Si3 0.372910 0.351553 0.390621
Si Si4 0.750000 0.454370 0.500000
Si Si5 0.080153 0.847743 0.250963
Si Si6 0.250000 0.250000 0.000000
O O1 0.833468 0.210990 0.684160
O O2 0.558769 0.918878 0.318442
O O3 0.328282 0.978990 0.275792
O O4 0.420353 0.874744 0.024935
O O5 0.500000 0.000000 0.000000
O O6 0.250000 0.371818 0.500000
O O7 0.458051 0.328782 0.615623
O O8 0.332778 0.297924 0.177208
O O9 0.645141 0.409015 0.611343
#
# Coordination Sequence:
#
# PCOD9397609 Si02
#       6
#     2   8   8   4   8   2
#     4  10  24  44  84 110 148 196 264 344 396 504
#     4  11  25  50  78 114 157 215 272 332 403 494
#     4  11  26  46  75 111 156 205 255 331 411 491
#     4   9  22  47  72 104 150 193 259 316 394 467
#     4  10  23  47  71 111 148 200 258 323 407 469
#     4  12  26  48  76 116 156 200 266 330 418 514
#
# _framework density 25.704775999999999
#
# number of rings (size 3 to 8) (size 9 to 14) (size 15 to 20)
#    0.000    1.500    0.000    2.625    7.000    4.000 
#   24.750   11.250    0.000    0.000    0.000    0.000 
#    0.000    0.000    0.000    0.000    0.000    0.000 
#
# Total GULP energy -178395.962202 kJ/mol
# GULP energy per Si atom -5574.873819 kJ/mol
# Density = 2.564627 g / cm^3
# Si number density = 25.704776 Si / 1000 Ang^3
#
#
#
# Elastic Constant Matrix: (Units=GPa)
#
#
# Indices 1 2 3 4 5 6 
#
# 1 248.2560 57.0196 83.0759 0.0000 0.0000 0.0000
# 2 57.0196 82.8985 32.8163 0.0000 0.0000 0.0000
# 3 83.0759 32.8163 89.8631 0.0000 0.0000 0.0000
# 4 0.0000 0.0000 0.0000 49.4336 0.0000 0.0000
# 5 0.0000 0.0000 0.0000 0.0000 60.9186 0.0000
# 6 0.0000 0.0000 0.0000 0.0000 0.0000 24.2312
#
#
#
# Elastic Compliance Matrix: (Units=1/GPa)
#
#
# Indices 1 2 3 4 5 6 
#
# 1 0.006195 -0.002331 -0.004876 0.000000 0.000000 0.000000
# 2 -0.002331 0.014978 -0.003315 0.000000 0.000000 0.000000
# 3 -0.004876 -0.003315 0.016846 0.000000 0.000000 0.000000
# 4 0.000000 0.000000 0.000000 0.020229 0.000000 0.000000
# 5 0.000000 0.000000 0.000000 0.000000 0.016415 0.000000
# 6 0.000000 0.000000 0.000000 0.000000 0.000000 0.041269
#
#
# Mechanical properties :
#
#
# Convention : Reuss Voigt Hill
#
# Bulk Modulus (GPa) = 58.90627 85.20455 72.05541
# Shear Modulus (GPa) = 35.05422 43.45710 39.25566
#
# Velocity S-wave (km/s) = 3.69687 4.11618 3.91215
# Velocity P-wave (km/s) = 6.41784 7.47060 6.96414
#
# Compressibility (1/GPa) = 0.01697612
#
# Stress axis : x y z
#
# Youngs Moduli (GPa) = 161.41566 66.76238 59.36002
#
# Poissons Ratio (x) = 0.15562 0.28944
# Poissons Ratio (y) = 0.37625 0.19678
# Poissons Ratio (z) = 0.78707 0.22131
#
# Static dielectric constant tensor:
#      x y z
#    x 1.950660 0.000000 0.000000 
#    y 0.000000 2.132550 0.000000 
#    z 0.000000 0.000000 2.447980 
# 
# From -- ./inp_files/2069.got.cif
#   From: 2010.05.17/outbox.cif.g08.bks.cpg/sg50_2_cif.got.tgz:2069.got - 2010.06.03 11:33:33.
