data_PCOD9397323
_publ_section_title
;
Structure prediction by ZEFSAII (Michael W. Deem and Ramdas Pophale) SiO2 
 PCOD9397323
Probable space group: P B A N
;
_chemical_formula_sum "Si O2"
_cell_formula_units_Z 48
_cell_length_a 30.328610
_cell_length_b 9.023004
_cell_length_c 8.128129
_cell_angle_alpha 90.000000
_cell_angle_beta 90.000000
_cell_angle_gamma 90.000000
_cell_volume 2224.304518
_symmetry_space_group_name_H-M "P B A N"
_symmetry_group_IT_number 50
_space_group.IT_coordinate_system_code '2'
_symmetry_cell_setting 'orthorhombic'
loop_
_space_group_symop_operation_xyz
x,y,z
1/2-x,1/2-y,z
x,1/2-y,-z
1/2-x,y,-z
-x,-y,-z
1/2+x,1/2+y,-z
-x,1/2+y,z
1/2+x,-y,z
loop_
_atom_site_type_symbol
_atom_site_label
_atom_site_fract_x
_atom_site_fract_y
_atom_site_fract_z
Si Si1 0.877058 0.672284 0.178610
Si Si2 0.845540 0.336161 0.157708
Si Si3 0.611768 0.250000 0.500000
Si Si4 0.526920 0.731057 0.189319
Si Si5 0.250000 0.002698 0.500000
Si Si6 0.535478 0.436592 0.373827
Si Si7 0.250000 0.750000 0.241433
Si Si8 0.675675 0.750000 0.500000
O O1 0.858402 0.507707 0.156762
O O2 0.929184 0.671963 0.219048
O O3 0.853051 0.752821 0.332521
O O4 0.872063 0.750000 0.000000
O O5 0.861018 0.275949 0.334726
O O6 0.793262 0.309460 0.152368
O O7 0.865335 0.250000 0.000000
O O8 0.580387 0.390366 0.461526
O O9 0.539973 0.564160 0.237079
O O10 0.486353 0.790932 0.294841
O O11 0.515169 0.750000 0.000000
O O12 0.262019 0.891643 0.353132
O O13 0.292064 0.108899 0.522808
O O14 0.500000 0.500000 0.500000
#
# Coordination Sequence:
#
# PCOD9397323 Si02
#       8
#     8   8   4   8   4   8   4   4
#     4  11  28  47  72 109 143 194 244 302 363 427
#     4  12  29  48  76 108 145 191 243 304 366 438
#     4  12  28  44  78 107 148 191 248 304 358 434
#     4  11  26  44  71 101 148 188 243 299 358 432
#     4  10  22  42  72 108 136 190 236 294 362 440
#     4  12  24  46  69 106 140 193 239 292 364 428
#     4  11  23  48  72 105 149 182 243 295 366 433
#     4  11  24  45  74  97 148 187 238 301 362 427
#
# _framework density 21.579778999999998
#
# number of rings (size 3 to 8) (size 9 to 14) (size 15 to 20)
#    0.000    0.667    3.333    2.750   11.667    0.667 
#    0.000    1.667    0.000    0.000    0.000    0.000 
#    0.000    0.000    0.000    0.000    0.000    0.000 
#
# Total GULP energy -268435.322304 kJ/mol
# GULP energy per Si atom -5592.402548 kJ/mol
# Density = 2.153066 g / cm^3
# Si number density = 21.579779 Si / 1000 Ang^3
#
#
#
# Elastic Constant Matrix: (Units=GPa)
#
#
# Indices 1 2 3 4 5 6 
#
# 1 78.0610 10.0549 23.0638 0.0000 0.0000 0.0000
# 2 10.0549 98.8091 19.9278 0.0000 0.0000 0.0000
# 3 23.0638 19.9278 111.6055 0.0000 0.0000 0.0000
# 4 0.0000 0.0000 0.0000 30.3665 0.0000 0.0000
# 5 0.0000 0.0000 0.0000 0.0000 25.6965 0.0000
# 6 0.0000 0.0000 0.0000 0.0000 0.0000 8.4507
#
#
#
# Elastic Compliance Matrix: (Units=1/GPa)
#
#
# Indices 1 2 3 4 5 6 
#
# 1 0.013713 -0.000855 -0.002681 0.000000 0.000000 0.000000
# 2 -0.000855 0.010552 -0.001707 0.000000 0.000000 0.000000
# 3 -0.002681 -0.001707 0.009819 0.000000 0.000000 0.000000
# 4 0.000000 0.000000 0.000000 0.032931 0.000000 0.000000
# 5 0.000000 0.000000 0.000000 0.000000 0.038916 0.000000
# 6 0.000000 0.000000 0.000000 0.000000 0.000000 0.118334
#
#
# Mechanical properties :
#
#
# Convention : Reuss Voigt Hill
#
# Bulk Modulus (GPa) = 42.37824 43.84096 43.10960
# Shear Modulus (GPa) = 20.60863 28.59801 24.60332
#
# Velocity S-wave (km/s) = 3.09366 3.64431 3.38021
# Velocity P-wave (km/s) = 5.69574 6.16992 5.93757
#
# Compressibility (1/GPa) = 0.02359702
#
# Stress axis : x y z
#
# Youngs Moduli (GPa) = 72.92479 94.77003 101.84242
#
# Poissons Ratio (x) = 0.08100 0.27306
# Poissons Ratio (y) = 0.06233 0.17389
# Poissons Ratio (z) = 0.19553 0.16182
#
# Static dielectric constant tensor:
#      x y z
#    x 1.748660 0.000000 0.000000 
#    y 0.000000 1.762440 0.000000 
#    z 0.000000 0.000000 1.820670 
# 
# From -- ./inp_files/17027.got.cif
#   From: 2010.05.17/outbox.cif.g08.bks.cpg/sg50_9_cif.got.tgz:17027.got - 2010.06.03 11:33:33.
