data_PCOD9397228
_publ_section_title
;
Structure prediction by ZEFSAII (Michael W. Deem and Ramdas Pophale) SiO2 
 PCOD9397228
Probable space group: P B A N
;
_chemical_formula_sum "Si O2"
_cell_formula_units_Z 48
_cell_length_a 16.455078
_cell_length_b 8.844434
_cell_length_c 14.838314
_cell_angle_alpha 90.000000
_cell_angle_beta 90.000000
_cell_angle_gamma 90.000000
_cell_volume 2159.506660
_symmetry_space_group_name_H-M "P B A N"
_symmetry_group_IT_number 50
_space_group.IT_coordinate_system_code '2'
_symmetry_cell_setting 'orthorhombic'
loop_
_space_group_symop_operation_xyz
x,y,z
1/2-x,1/2-y,z
x,1/2-y,-z
1/2-x,y,-z
-x,-y,-z
1/2+x,1/2+y,-z
-x,1/2+y,z
1/2+x,-y,z
loop_
_atom_site_type_symbol
_atom_site_label
_atom_site_fract_x
_atom_site_fract_y
_atom_site_fract_z
Si Si1 0.097141 0.889933 0.859994
Si Si2 0.177868 0.871780 0.675411
Si Si3 0.344314 0.085833 0.978346
Si Si4 0.939257 0.117239 0.616602
Si Si5 0.073472 0.959646 0.183063
Si Si6 0.378511 0.092737 0.456276
O O1 0.160952 0.917849 0.778603
O O2 0.081046 0.711967 0.851621
O O3 0.014645 0.976295 0.838067
O O4 0.123096 0.954002 0.956430
O O5 0.250000 0.750000 0.670538
O O6 0.098800 0.782758 0.635100
O O7 0.185008 0.016912 0.612080
O O8 0.361719 0.051298 0.874760
O O9 0.382131 0.250000 0.000000
O O10 0.250000 0.093118 0.000000
O O11 0.918472 0.034217 0.709956
O O12 0.035406 0.123564 0.595933
O O13 0.898272 0.028040 0.534885
O O14 0.353074 0.250000 0.500000
#
# Coordination Sequence:
#
# PCOD9397228 Si02
#       6
#     8   8   8   8   8   8
#     4  11  24  42  72 101 139 182 237 294 357 432
#     4  11  25  44  69 103 145 190 234 300 365 438
#     4  11  26  45  68 100 143 188 235 296 364 431
#     4  10  22  40  67 102 139 185 231 289 355 431
#     4  11  23  41  69 101 137 180 237 294 352 432
#     4  11  22  40  71 102 138 183 239 293 353 431
#
# _framework density 22.227298999999999
#
# number of rings (size 3 to 8) (size 9 to 14) (size 15 to 20)
#    0.000    1.167    1.667    4.500    7.000    3.333 
#    0.000    1.667    0.000    0.000    0.000    0.000 
#    0.000    0.000    0.000    0.000    0.000    0.000 
#
# Total GULP energy -268533.816250 kJ/mol
# GULP energy per Si atom -5594.454505 kJ/mol
# Density = 2.217671 g / cm^3
# Si number density = 22.227299 Si / 1000 Ang^3
#
#
#
# Elastic Constant Matrix: (Units=GPa)
#
#
# Indices 1 2 3 4 5 6 
#
# 1 58.6864 6.4924 34.2199 0.0000 0.0000 0.0000
# 2 6.4924 43.8169 26.7381 0.0000 0.0000 0.0000
# 3 34.2199 26.7381 137.4648 0.0000 0.0000 0.0000
# 4 0.0000 0.0000 0.0000 32.8279 0.0000 0.0000
# 5 0.0000 0.0000 0.0000 0.0000 -1.6633 0.0000
# 6 0.0000 0.0000 0.0000 0.0000 0.0000 38.4670
#
#
#
# Elastic Compliance Matrix: (Units=1/GPa)
#
#
# Indices 1 2 3 4 5 6 
#
# 1 0.019933 0.000084 -0.004979 0.000000 0.000000 0.000000
# 2 0.000084 0.025896 -0.005058 0.000000 0.000000 0.000000
# 3 -0.004979 -0.005058 0.009498 0.000000 0.000000 0.000000
# 4 0.000000 0.000000 0.000000 0.030462 0.000000 0.000000
# 5 0.000000 0.000000 0.000000 0.000000 -0.601211 0.000000
# 6 0.000000 0.000000 0.000000 0.000000 0.000000 0.025996
#
#
# Mechanical properties :
#
#
# Convention : Reuss Voigt Hill
#
# Bulk Modulus (GPa) = 28.23016 41.65211 34.94113
# Shear Modulus (GPa) = -10.92388 25.42751 7.25182
#
# Velocity S-wave (km/s) = -2.21930 3.38594 1.80822
# Velocity P-wave (km/s) = 2.48217 5.83661 4.48482
#
# Compressibility (1/GPa) = 0.03542310
#
# Stress axis : x y z
#
# Youngs Moduli (GPa) = 50.16718 38.61559 105.28788
#
# Poissons Ratio (x) = -0.00326 0.52418
# Poissons Ratio (y) = -0.00424 0.53256
# Poissons Ratio (z) = 0.24976 0.19532
#
# Static dielectric constant tensor:
#      x y z
#    x 1.835940 0.000000 0.000000 
#    y 0.000000 1.822510 0.000000 
#    z 0.000000 0.000000 1.823110 
# 
# From -- ./inp_files/26879.got.cif
#   From: 2010.05.17/outbox.cif.g08.bks.cpg/sg50_14_cif.got.tgz:26879.got - 2010.06.03 11:33:33.
