data_PCOD9397735
_publ_section_title
;
Structure prediction by ZEFSAII (Michael W. Deem and Ramdas Pophale) SiO2 
 PCOD9397735
Probable space group: P B A N
;
_chemical_formula_sum "Si O2"
_cell_formula_units_Z 30
_cell_length_a 21.466072
_cell_length_b 13.371573
_cell_length_c 4.854242
_cell_angle_alpha 90.000000
_cell_angle_beta 90.000000
_cell_angle_gamma 90.000000
_cell_volume 1393.338075
_symmetry_space_group_name_H-M "P B A N"
_symmetry_group_IT_number 50
_space_group.IT_coordinate_system_code '2'
_symmetry_cell_setting 'orthorhombic'
loop_
_space_group_symop_operation_xyz
x,y,z
1/2-x,1/2-y,z
x,1/2-y,-z
1/2-x,y,-z
-x,-y,-z
1/2+x,1/2+y,-z
-x,1/2+y,z
1/2+x,-y,z
loop_
_atom_site_type_symbol
_atom_site_label
_atom_site_fract_x
_atom_site_fract_y
_atom_site_fract_z
Si Si1 0.750000 0.250000 0.000000
Si Si2 0.130449 0.464945 0.613199
Si Si3 0.250000 0.907280 0.500000
Si Si4 0.064010 0.957999 0.881187
Si Si5 0.081291 0.250000 0.500000
Si Si6 0.987604 0.250000 0.000000
O O1 0.735957 0.164467 0.238292
O O2 0.191036 0.518257 0.491382
O O3 0.074987 0.512225 0.431388
O O4 0.122689 0.346145 0.576892
O O5 0.117864 0.495745 0.927579
O O6 0.056961 0.839961 0.912507
O O7 0.000000 0.000000 0.000000
O O8 0.034571 0.275638 0.249019
#
# Coordination Sequence:
#
# PCOD9397735 Si02
#       6
#     2   8   4   8   4   4
#     4  10  24  48  72  88 140 162 234 278 328 366
#     4  12  25  42  69  95 137 174 224 273 333 396
#     4  11  26  47  72 100 132 181 220 281 328 400
#     4  12  23  42  64  97 131 176 220 274 333 400
#     4  12  22  41  64  96 132 173 206 276 320 402
#     4  12  24  37  66  94 132 168 219 266 342 386
#
# _framework density 21.531027999999999
#
# number of rings (size 3 to 8) (size 9 to 14) (size 15 to 20)
#    0.000    0.267    5.333    4.000    0.000    6.933 
#    0.000    0.000    0.000    6.400    0.000    0.000 
#    0.000    0.000    0.000    0.000    0.000    0.000 
#
# Total GULP energy -167325.305038 kJ/mol
# GULP energy per Si atom -5577.510168 kJ/mol
# Density = 2.148202 g / cm^3
# Si number density = 21.531028 Si / 1000 Ang^3
#
#
#
# Elastic Constant Matrix: (Units=GPa)
#
#
# Indices 1 2 3 4 5 6 
#
# 1 69.5566 25.3265 1.8646 0.0000 0.0000 0.0000
# 2 25.3265 177.5175 1.0851 0.0000 0.0000 0.0000
# 3 1.8646 1.0851 91.7564 0.0000 0.0000 0.0000
# 4 0.0000 0.0000 0.0000 27.8074 0.0000 0.0000
# 5 0.0000 0.0000 0.0000 0.0000 14.6585 0.0000
# 6 0.0000 0.0000 0.0000 0.0000 0.0000 -0.0073
#
#
#
# Elastic Compliance Matrix: (Units=1/GPa)
#
#
# Indices 1 2 3 4 5 6 
#
# 1 0.015172 -0.002163 -0.000283 0.000000 0.000000 0.000000
# 2 -0.002163 0.005942 -0.000026 0.000000 0.000000 0.000000
# 3 -0.000283 -0.000026 0.010904 0.000000 0.000000 0.000000
# 4 0.000000 0.000000 0.000000 0.035962 0.000000 0.000000
# 5 0.000000 0.000000 0.000000 0.000000 0.068220 0.000000
# 6 0.000000 0.000000 0.000000 0.000000 0.000000**********
#
#
# Mechanical properties :
#
#
# Convention : Reuss Voigt Hill
#
# Bulk Modulus (GPa) = 36.93505 43.93143 40.43324
# Shear Modulus (GPa) = -0.03666 29.19532 14.57933
#
# Velocity S-wave (km/s) = -0.13063 3.68634 2.60500
# Velocity P-wave (km/s) = 4.14353 6.21022 5.27900
#
# Compressibility (1/GPa) = 0.02707456
#
# Stress axis : x y z
#
# Youngs Moduli (GPa) = 65.91139 168.29402 91.70539
#
# Poissons Ratio (x) = 0.36399 0.02593
# Poissons Ratio (y) = 0.14256 0.00241
# Poissons Ratio (z) = 0.01864 0.00443
#
# Static dielectric constant tensor:
#      x y z
#    x 1.841910 0.000000 0.000000 
#    y 0.000000 1.849720 0.000000 
#    z 0.000000 0.000000 1.759350 
# 
# From -- ./inp_files/2998.got.cif
#   From: 2010.05.17/outbox.cif.g08.bks.cpg/sg50_2_cif.got.tgz:2998.got - 2010.06.03 11:33:33.
