data_PCOD9397446
_publ_section_title
;
Structure prediction by ZEFSAII (Michael W. Deem and Ramdas Pophale) SiO2 
 PCOD9397446
Probable space group: P B A N
;
_chemical_formula_sum "Si O2"
_cell_formula_units_Z 34
_cell_length_a 29.050581
_cell_length_b 9.175070
_cell_length_c 5.499473
_cell_angle_alpha 90.000000
_cell_angle_beta 90.000000
_cell_angle_gamma 90.000000
_cell_volume 1465.835661
_symmetry_space_group_name_H-M "P B A N"
_symmetry_group_IT_number 50
_space_group.IT_coordinate_system_code '2'
_symmetry_cell_setting 'orthorhombic'
loop_
_space_group_symop_operation_xyz
x,y,z
1/2-x,1/2-y,z
x,1/2-y,-z
1/2-x,y,-z
-x,-y,-z
1/2+x,1/2+y,-z
-x,1/2+y,z
1/2+x,-y,z
loop_
_atom_site_type_symbol
_atom_site_label
_atom_site_fract_x
_atom_site_fract_y
_atom_site_fract_z
Si Si1 0.250000 0.750000 0.500000
Si Si2 0.776405 0.970479 0.745544
Si Si3 0.421540 0.750000 0.500000
Si Si4 0.558846 0.750000 0.500000
Si Si5 0.882670 0.527035 0.208044
Si Si6 0.542561 0.484988 0.178375
O O1 0.277577 0.642745 0.323358
O O2 0.750000 0.912543 0.500000
O O3 0.829292 0.931652 0.784855
O O4 0.750000 0.944577 0.000000
O O5 0.393020 0.881928 0.627542
O O6 0.453440 0.670890 0.696543
O O7 0.590313 0.665460 0.691115
O O8 0.535329 0.615632 0.366391
O O9 0.907588 0.499161 0.951712
O O10 0.500000 0.500000 0.000000
#
# Coordination Sequence:
#
# PCOD9397446 Si02
#       6
#     2   8   4   4   8   8
#     4   8  20  36  60  98 138 180 244 306 372 432
#     4  10  23  39  67 101 143 190 249 310 374 444
#     4  10  25  43  73 106 146 182 249 302 366 448
#     4  10  26  47  72 100 148 188 240 308 369 448
#     4  11  24  44  73 103 145 190 244 306 377 443
#     4  11  26  47  73 107 145 194 246 304 377 451
#
# _framework density 23.194960999999999
#
# number of rings (size 3 to 8) (size 9 to 14) (size 15 to 20)
#    0.706    0.941    0.000    2.471    6.588   11.294 
#    0.000    4.118    0.000    0.000    0.000    0.000 
#    0.000    0.000    0.000    0.000    0.000    0.000 
#
# Total GULP energy -189946.934589 kJ/mol
# GULP energy per Si atom -5586.674547 kJ/mol
# Density = 2.314217 g / cm^3
# Si number density = 23.194961 Si / 1000 Ang^3
#
#
#
# Elastic Constant Matrix: (Units=GPa)
#
#
# Indices 1 2 3 4 5 6 
#
# 1 133.5788 10.8759 56.5235 0.0000 0.0000 0.0000
# 2 10.8759 97.4976 16.6992 0.0000 0.0000 0.0000
# 3 56.5235 16.6992 125.5632 0.0000 0.0000 0.0000
# 4 0.0000 0.0000 0.0000 27.2427 0.0000 0.0000
# 5 0.0000 0.0000 0.0000 0.0000 6.8893 0.0000
# 6 0.0000 0.0000 0.0000 0.0000 0.0000 -80.2164
#
#
#
# Elastic Compliance Matrix: (Units=1/GPa)
#
#
# Indices 1 2 3 4 5 6 
#
# 1 0.009258 -0.000326 -0.004124 0.000000 0.000000 0.000000
# 2 -0.000326 0.010507 -0.001250 0.000000 0.000000 0.000000
# 3 -0.004124 -0.001250 0.009987 0.000000 0.000000 0.000000
# 4 0.000000 0.000000 0.000000 0.036707 0.000000 0.000000
# 5 0.000000 0.000000 0.000000 0.000000 0.145152 0.000000
# 6 0.000000 0.000000 0.000000 0.000000 0.000000 -0.012466
#
#
# Mechanical properties :
#
#
# Convention : Reuss Voigt Hill
#
# Bulk Modulus (GPa) = 54.49549 58.31519 56.40534
# Shear Modulus (GPa) = 23.07724 8.95254 16.01489
#
# Velocity S-wave (km/s) = 3.15766 1.96674 2.63049
# Velocity P-wave (km/s) = 6.06960 5.50939 5.79626
#
# Compressibility (1/GPa) = 0.01835014
#
# Stress axis : x y z
#
# Youngs Moduli (GPa) = 108.01583 95.17241 100.13075
#
# Poissons Ratio (x) = 0.03106 0.41295
# Poissons Ratio (y) = 0.03525 0.12521
# Poissons Ratio (z) = 0.44547 0.11901
#
# Static dielectric constant tensor:
#      x y z
#    x 1.881840 0.000000 0.000000 
#    y 0.000000 1.828570 0.000000 
#    z 0.000000 0.000000 1.902140 
# 
# From -- ./inp_files/7028.got.cif
#   From: 2010.05.17/outbox.cif.g08.bks.cpg/sg50_4_cif.got.tgz:7028.got - 2010.06.03 11:33:33.
