data_PCOD9397199
_publ_section_title
;
Structure prediction by ZEFSAII (Michael W. Deem and Ramdas Pophale) SiO2 
 PCOD9397199
Probable space group: P B A N
;
_chemical_formula_sum "Si O2"
_cell_formula_units_Z 36
_cell_length_a 4.941514
_cell_length_b 11.706762
_cell_length_c 27.391048
_cell_angle_alpha 90.000000
_cell_angle_beta 90.000000
_cell_angle_gamma 90.000000
_cell_volume 1584.548251
_symmetry_space_group_name_H-M "P B A N"
_symmetry_group_IT_number 50
_space_group.IT_coordinate_system_code '2'
_symmetry_cell_setting 'orthorhombic'
loop_
_space_group_symop_operation_xyz
x,y,z
1/2-x,1/2-y,z
x,1/2-y,-z
1/2-x,y,-z
-x,-y,-z
1/2+x,1/2+y,-z
-x,1/2+y,z
1/2+x,-y,z
loop_
_atom_site_type_symbol
_atom_site_label
_atom_site_fract_x
_atom_site_fract_y
_atom_site_fract_z
Si Si1 0.250000 0.750000 0.500000
Si Si2 0.247038 0.075248 0.820677
Si Si3 0.750000 0.750000 0.000000
Si Si4 0.250000 0.750000 0.661845
Si Si5 0.959645 0.078690 0.420338
Si Si6 0.468341 0.080803 0.078174
Si Si7 0.250000 0.250000 0.266457
O O1 0.082896 0.834871 0.534818
O O2 0.123760 0.133205 0.869491
O O3 0.227021 0.145182 0.771305
O O4 0.559152 0.037822 0.821568
O O5 0.578299 0.830949 0.964725
O O6 0.143319 0.851521 0.626862
O O7 0.499219 0.769958 0.697750
O O8 0.764017 0.968045 0.421907
O O9 0.765432 0.027807 0.074545
#
# Coordination Sequence:
#
# PCOD9397199 Si02
#       7
#     2   8   2   4   8   8   4
#     4  10  24  42  68 100 120 158 216 252 284 358
#     4  10  22  40  61  85 117 154 196 246 297 350
#     4  12  22  38  64  84 116 158 186 238 304 350
#     4  11  26  39  60  94 126 155 206 247 288 362
#     4  11  24  43  65  91 128 166 198 247 305 349
#     4  10  23  40  58  87 118 149 195 242 291 359
#     4  12  23  40  62  90 118 158 205 248 292 352
#
# _framework density 22.719408000000001
#
# number of rings (size 3 to 8) (size 9 to 14) (size 15 to 20)
#    0.000    1.333    0.000    4.667    0.000   10.667 
#    0.000    6.667    0.000    0.000    0.000    0.000 
#    0.000    0.000    0.000    0.000    0.000    0.000 
#
# Total GULP energy -201191.297442 kJ/mol
# GULP energy per Si atom -5588.647151 kJ/mol
# Density = 2.266770 g / cm^3
# Si number density = 22.719408 Si / 1000 Ang^3
#
#
#
# Elastic Constant Matrix: (Units=GPa)
#
#
# Indices 1 2 3 4 5 6 
#
# 1 59.7821 -8.8058 6.7208 0.0000 0.0000 0.0000
# 2 -8.8058 53.6442 48.9126 0.0000 0.0000 0.0000
# 3 6.7208 48.9126 161.7828 0.0000 0.0000 0.0000
# 4 0.0000 0.0000 0.0000 46.1302 0.0000 0.0000
# 5 0.0000 0.0000 0.0000 0.0000 23.0823 0.0000
# 6 0.0000 0.0000 0.0000 0.0000 0.0000 12.6742
#
#
#
# Elastic Compliance Matrix: (Units=1/GPa)
#
#
# Indices 1 2 3 4 5 6 
#
# 1 0.017705 0.004938 -0.002229 0.000000 0.000000 0.000000
# 2 0.004938 0.027113 -0.008402 0.000000 0.000000 0.000000
# 3 -0.002229 -0.008402 0.008814 0.000000 0.000000 0.000000
# 4 0.000000 0.000000 0.000000 0.021678 0.000000 0.000000
# 5 0.000000 0.000000 0.000000 0.000000 0.043323 0.000000
# 6 0.000000 0.000000 0.000000 0.000000 0.000000 0.078900
#
#
# Mechanical properties :
#
#
# Convention : Reuss Voigt Hill
#
# Bulk Modulus (GPa) = 23.67005 40.98493 32.32749
# Shear Modulus (GPa) = 22.42132 31.60276 27.01204
#
# Velocity S-wave (km/s) = 3.14487 3.73366 3.45184
# Velocity P-wave (km/s) = 4.86086 6.05522 5.49062
#
# Compressibility (1/GPa) = 0.04224748
#
# Stress axis : x y z
#
# Youngs Moduli (GPa) = 56.48001 36.88218 113.45488
#
# Poissons Ratio (x) = -0.18214 0.25284
# Poissons Ratio (y) = -0.27892 0.95330
# Poissons Ratio (z) = 0.12587 0.30990
#
# Static dielectric constant tensor:
#      x y z
#    x 1.785700 0.000000 0.000000 
#    y 0.000000 0.400370 0.000000 
#    z 0.000000 0.000000 1.860500 
# 
# From -- ./inp_files/31378.got.cif
#   From: 2010.05.17/outbox.cif.g08.bks.cpg/sg50_16_cif.got.tgz:31378.got - 2010.06.03 11:33:33.
