data_PCOD9397515
_publ_section_title
;
Structure prediction by ZEFSAII (Michael W. Deem and Ramdas Pophale) SiO2 
 PCOD9397515
Probable space group: P B A N
;
_chemical_formula_sum "Si O2"
_cell_formula_units_Z 20
_cell_length_a 12.116613
_cell_length_b 5.397415
_cell_length_c 12.712064
_cell_angle_alpha 90.000000
_cell_angle_beta 90.000000
_cell_angle_gamma 90.000000
_cell_volume 831.348503
_symmetry_space_group_name_H-M "P B A N"
_symmetry_group_IT_number 50
_space_group.IT_coordinate_system_code '2'
_symmetry_cell_setting 'orthorhombic'
loop_
_space_group_symop_operation_xyz
x,y,z
1/2-x,1/2-y,z
x,1/2-y,-z
1/2-x,y,-z
-x,-y,-z
1/2+x,1/2+y,-z
-x,1/2+y,z
1/2+x,-y,z
loop_
_atom_site_type_symbol
_atom_site_label
_atom_site_fract_x
_atom_site_fract_y
_atom_site_fract_z
Si Si1 0.250000 0.250000 0.211234
Si Si2 0.548512 0.995683 0.118859
Si Si3 0.931341 0.772992 0.379961
O O1 0.323356 0.428873 0.136665
O O2 0.160819 0.346281 0.294910
O O3 0.480327 0.762994 0.163721
O O4 0.500000 0.000000 0.000000
O O5 0.888173 0.750000 0.500000
O O6 0.979338 0.493691 0.369156
#
# Coordination Sequence:
#
# PCOD9397515 Si02
#       3
#     4   8   8
#     4  12  23  41  72  98 130 184 226 271 349 416
#     4  10  24  44  63  93 129 166 221 281 332 394
#     4  10  23  42  64  99 141 175 221 280 334 407
#
# _framework density 24.057302
#
# number of rings (size 3 to 8) (size 9 to 14) (size 15 to 20)
#    0.000    1.600    0.000    3.000    0.000    9.600 
#    0.000   14.000    0.000    0.000    0.000    0.000 
#    0.000    0.000    0.000    0.000    0.000    0.000 
#
# Total GULP energy -111421.931272 kJ/mol
# GULP energy per Si atom -5571.096564 kJ/mol
# Density = 2.400255 g / cm^3
# Si number density = 24.057302 Si / 1000 Ang^3
#
#
#
# Elastic Constant Matrix: (Units=GPa)
#
#
# Indices 1 2 3 4 5 6 
#
# 1 136.2274 43.5096 59.1306 0.0000 0.0000 0.0000
# 2 43.5096 177.5396 36.1958 0.0000 0.0000 0.0000
# 3 59.1306 36.1958 153.9585 0.0000 0.0000 0.0000
# 4 0.0000 0.0000 0.0000 38.0874 0.0000 0.0000
# 5 0.0000 0.0000 0.0000 0.0000 55.6572 0.0000
# 6 0.0000 0.0000 0.0000 0.0000 0.0000 29.4496
#
#
#
# Elastic Compliance Matrix: (Units=1/GPa)
#
#
# Indices 1 2 3 4 5 6 
#
# 1 0.009231 -0.001617 -0.003165 0.000000 0.000000 0.000000
# 2 -0.001617 0.006199 -0.000836 0.000000 0.000000 0.000000
# 3 -0.003165 -0.000836 0.007908 0.000000 0.000000 0.000000
# 4 0.000000 0.000000 0.000000 0.026255 0.000000 0.000000
# 5 0.000000 0.000000 0.000000 0.000000 0.017967 0.000000
# 6 0.000000 0.000000 0.000000 0.000000 0.000000 0.033956
#
#
# Mechanical properties :
#
#
# Convention : Reuss Voigt Hill
#
# Bulk Modulus (GPa) = 82.63969 82.82193 82.73081
# Shear Modulus (GPa) = 42.81280 46.56479 44.68880
#
# Velocity S-wave (km/s) = 4.22313 4.40429 4.31466
# Velocity P-wave (km/s) = 7.62925 7.76952 7.69971
#
# Compressibility (1/GPa) = 0.01210072
#
# Stress axis : x y z
#
# Youngs Moduli (GPa) = 108.33094 161.30752 126.46129
#
# Poissons Ratio (x) = 0.26082 0.40027
# Poissons Ratio (y) = 0.17516 0.10578
# Poissons Ratio (z) = 0.34289 0.13493
#
# Static dielectric constant tensor:
#      x y z
#    x 1.960560 0.000000 0.000000 
#    y 0.000000 1.871960 0.000000 
#    z 0.000000 0.000000 3.935790 
# 
# From -- ./inp_files/23468.got.cif
#   From: 2010.05.17/outbox.cif.g08.bks.cpg/sg50_12_cif.got.tgz:23468.got - 2010.06.03 11:33:33.
