data_PCOD9397474
_publ_section_title
;
Structure prediction by ZEFSAII (Michael W. Deem and Ramdas Pophale) SiO2 
 PCOD9397474
Probable space group: P B A N
;
_chemical_formula_sum "Si O2"
_cell_formula_units_Z 30
_cell_length_a 10.221095
_cell_length_b 11.427859
_cell_length_c 12.494811
_cell_angle_alpha 90.000000
_cell_angle_beta 90.000000
_cell_angle_gamma 90.000000
_cell_volume 1459.459304
_symmetry_space_group_name_H-M "P B A N"
_symmetry_group_IT_number 50
_space_group.IT_coordinate_system_code '2'
_symmetry_cell_setting 'orthorhombic'
loop_
_space_group_symop_operation_xyz
x,y,z
1/2-x,1/2-y,z
x,1/2-y,-z
1/2-x,y,-z
-x,-y,-z
1/2+x,1/2+y,-z
-x,1/2+y,z
1/2+x,-y,z
loop_
_atom_site_type_symbol
_atom_site_label
_atom_site_fract_x
_atom_site_fract_y
_atom_site_fract_z
Si Si1 0.250000 0.750000 0.500000
Si Si2 0.116529 0.871250 0.693617
Si Si3 0.367807 0.012759 0.765111
Si Si4 0.039557 0.695135 0.890276
Si Si5 0.750000 0.750000 0.152199
O O1 0.150351 0.815503 0.580112
O O2 0.083672 0.776031 0.788205
O O3 0.996464 0.962470 0.694803
O O4 0.250403 0.937169 0.719879
O O5 0.308164 0.139435 0.786440
O O6 0.415950 0.937369 0.867313
O O7 0.881601 0.697533 0.900200
O O8 0.092302 0.750000 0.000000
#
# Coordination Sequence:
#
# PCOD9397474 Si02
#       5
#     2   8   8   8   4
#     4  12  24  48  70 104 128 188 240 296 354 412
#     4  11  25  43  72  98 139 180 240 288 356 412
#     4  11  22  46  68 105 140 184 227 294 347 423
#     4  11  23  44  71 103 142 187 233 286 353 424
#     4  10  23  40  68 107 150 181 228 284 357 430
#
# _framework density 20.555558999999999
#
# number of rings (size 3 to 8) (size 9 to 14) (size 15 to 20)
#    0.000    1.067    5.333    0.400    0.000    7.467 
#    9.600    0.000    0.000    8.800    0.000    0.000 
#    0.000    0.000    0.000    0.000    0.000    0.000 
#
# Total GULP energy -167181.545370 kJ/mol
# GULP energy per Si atom -5572.718179 kJ/mol
# Density = 2.050877 g / cm^3
# Si number density = 20.555559 Si / 1000 Ang^3
#
#
#
# Elastic Constant Matrix: (Units=GPa)
#
#
# Indices 1 2 3 4 5 6 
#
# 1 172.4431 51.9895 58.2754 0.0000 0.0000 0.0000
# 2 51.9895 97.5782 44.5397 0.0000 0.0000 0.0000
# 3 58.2754 44.5397 112.3064 0.0000 0.0000 0.0000
# 4 0.0000 0.0000 0.0000 -3.9082 0.0000 0.0000
# 5 0.0000 0.0000 0.0000 0.0000 122.6396 0.0000
# 6 0.0000 0.0000 0.0000 0.0000 0.0000 92.3763
#
#
#
# Elastic Compliance Matrix: (Units=1/GPa)
#
#
# Indices 1 2 3 4 5 6 
#
# 1 0.007589 -0.002742 -0.002850 0.000000 0.000000 0.000000
# 2 -0.002742 0.013504 -0.003933 0.000000 0.000000 0.000000
# 3 -0.002850 -0.003933 0.011943 0.000000 0.000000 0.000000
# 4 0.000000 0.000000 0.000000 -0.255873 0.000000 0.000000
# 5 0.000000 0.000000 0.000000 0.000000 0.008154 0.000000
# 6 0.000000 0.000000 0.000000 0.000000 0.000000 0.010825
#
#
# Mechanical properties :
#
#
# Convention : Reuss Voigt Hill
#
# Bulk Modulus (GPa) = 71.50249 76.88188 74.19219
# Shear Modulus (GPa) = -27.75543 57.38976 14.81716
#
# Velocity S-wave (km/s) = -3.67858 5.28961 2.68775
# Velocity P-wave (km/s) = 4.10096 8.64811 6.76785
#
# Compressibility (1/GPa) = 0.01398553
#
# Stress axis : x y z
#
# Youngs Moduli (GPa) = 131.76871 74.04982 83.73164
#
# Poissons Ratio (x) = 0.20307 0.23866
# Poissons Ratio (y) = 0.36136 0.32929
# Poissons Ratio (z) = 0.37558 0.29122
#
# Static dielectric constant tensor:
#      x y z
#    x 1.754760 0.000000 0.000000 
#    y 0.000000 1.788830 0.000000 
#    z 0.000000 0.000000 1.781010 
# 
# From -- ./inp_files/19711.got.cif
#   From: 2010.05.17/outbox.cif.g08.bks.cpg/sg50_10_cif.got.tgz:19711.got - 2010.06.03 11:33:33.
