data_PCOD9397571
_publ_section_title
;
Structure prediction by ZEFSAII (Michael W. Deem and Ramdas Pophale) SiO2 
 PCOD9397571
Probable space group: P B A N
;
_chemical_formula_sum "Si O2"
_cell_formula_units_Z 46
_cell_length_a 10.544620
_cell_length_b 9.464541
_cell_length_c 22.057483
_cell_angle_alpha 90.000000
_cell_angle_beta 90.000000
_cell_angle_gamma 90.000000
_cell_volume 2201.336546
_symmetry_space_group_name_H-M "P B A N"
_symmetry_group_IT_number 50
_space_group.IT_coordinate_system_code '2'
_symmetry_cell_setting 'orthorhombic'
loop_
_space_group_symop_operation_xyz
x,y,z
1/2-x,1/2-y,z
x,1/2-y,-z
1/2-x,y,-z
-x,-y,-z
1/2+x,1/2+y,-z
-x,1/2+y,z
1/2+x,-y,z
loop_
_atom_site_type_symbol
_atom_site_label
_atom_site_fract_x
_atom_site_fract_y
_atom_site_fract_z
Si Si1 0.250000 0.750000 0.607810
Si Si2 0.001571 0.365791 0.543161
Si Si3 0.603905 0.400493 0.707207
Si Si4 0.889643 0.693085 0.330948
Si Si5 0.623410 0.169922 0.155040
Si Si6 0.370551 0.340445 0.118093
Si Si7 0.250000 0.250000 0.000000
O O1 0.135635 0.808339 0.566455
O O2 0.289803 0.871240 0.656077
O O3 0.062557 0.250000 0.500000
O O4 0.000000 0.500000 0.500000
O O5 0.080285 0.377476 0.604325
O O6 0.586013 0.566950 0.715826
O O7 0.482162 0.323738 0.679282
O O8 0.627471 0.331046 0.771790
O O9 0.750000 0.750000 0.327229
O O10 0.750000 0.250000 0.132758
O O11 0.498158 0.254000 0.133380
O O12 0.622367 0.004085 0.137057
O O13 0.250000 0.250000 0.144991
O O14 0.338249 0.336835 0.046176
#
# Coordination Sequence:
#
# PCOD9397571 Si02
#       7
#     4   8   8   8   8   8   2
#     4  10  23  44  68  92 134 173 212 282 352 418
#     4  11  24  44  66  93 123 169 226 285 344 411
#     4  11  25  44  68  97 143 171 224 281 355 416
#     4  11  27  44  67  98 130 180 225 280 360 428
#     4  12  24  43  74 112 139 192 241 298 352 423
#     4  10  24  47  71 105 153 189 244 286 352 412
#     4   8  24  52  68 100 156 200 232 300 342 412
#
# _framework density 20.896397
#
# number of rings (size 3 to 8) (size 9 to 14) (size 15 to 20)
#    0.522    0.696    0.870    4.435    7.304    5.217 
#    0.000    0.000    0.000    0.000    0.000    0.000 
#    0.000    0.000    0.000    0.000    0.000    0.000 
#
# Total GULP energy -256790.757035 kJ/mol
# GULP energy per Si atom -5582.407762 kJ/mol
# Density = 2.084884 g / cm^3
# Si number density = 20.896397 Si / 1000 Ang^3
#
#
#
# Elastic Constant Matrix: (Units=GPa)
#
#
# Indices 1 2 3 4 5 6 
#
# 1 112.1558 67.3155 37.6271 0.0000 0.0000 0.0000
# 2 67.3155 159.3811 32.9331 0.0000 0.0000 0.0000
# 3 37.6271 32.9331 108.4593 0.0000 0.0000 0.0000
# 4 0.0000 0.0000 0.0000 32.6349 0.0000 0.0000
# 5 0.0000 0.0000 0.0000 0.0000 -2.0963 0.0000
# 6 0.0000 0.0000 0.0000 0.0000 0.0000 30.0256
#
#
#
# Elastic Compliance Matrix: (Units=1/GPa)
#
#
# Indices 1 2 3 4 5 6 
#
# 1 0.012789 -0.004785 -0.002984 0.000000 0.000000 0.000000
# 2 -0.004785 0.008485 -0.000916 0.000000 0.000000 0.000000
# 3 -0.002984 -0.000916 0.010533 0.000000 0.000000 0.000000
# 4 0.000000 0.000000 0.000000 0.030642 0.000000 0.000000
# 5 0.000000 0.000000 0.000000 0.000000 -0.477033 0.000000
# 6 0.000000 0.000000 0.000000 0.000000 0.000000 0.033305
#
#
# Mechanical properties :
#
#
# Convention : Reuss Voigt Hill
#
# Bulk Modulus (GPa) = 69.26736 72.86087 71.06412
# Shear Modulus (GPa) = -13.92385 28.25420 7.16518
#
# Velocity S-wave (km/s) = -2.58413 3.68109 1.85374
# Velocity P-wave (km/s) = 4.93116 7.28084 6.21799
#
# Compressibility (1/GPa) = 0.01443681
#
# Stress axis : x y z
#
# Youngs Moduli (GPa) = 78.19103 117.86094 94.93555
#
# Poissons Ratio (x) = 0.56397 0.28328
# Poissons Ratio (y) = 0.37415 0.08699
# Poissons Ratio (z) = 0.23332 0.10799
#
# Static dielectric constant tensor:
#      x y z
#    x 1.759640 0.000000 0.000000 
#    y 0.000000 1.762710 0.000000 
#    z 0.000000 0.000000 1.745970 
# 
# From -- ./inp_files/31669.got.cif
#   From: 2010.05.17/outbox.cif.g08.bks.cpg/sg50_16_cif.got.tgz:31669.got - 2010.06.03 11:33:33.
