data_PCOD9397036
_publ_section_title
;
Structure prediction by ZEFSAII (Michael W. Deem and Ramdas Pophale) SiO2 
 PCOD9397036
Probable space group: P B A N
;
_chemical_formula_sum "Si O2"
_cell_formula_units_Z 40
_cell_length_a 14.734089
_cell_length_b 9.105887
_cell_length_c 13.116344
_cell_angle_alpha 90.000000
_cell_angle_beta 90.000000
_cell_angle_gamma 90.000000
_cell_volume 1759.779863
_symmetry_space_group_name_H-M "P B A N"
_symmetry_group_IT_number 50
_space_group.IT_coordinate_system_code '2'
_symmetry_cell_setting 'orthorhombic'
loop_
_space_group_symop_operation_xyz
x,y,z
1/2-x,1/2-y,z
x,1/2-y,-z
1/2-x,y,-z
-x,-y,-z
1/2+x,1/2+y,-z
-x,1/2+y,z
1/2+x,-y,z
loop_
_atom_site_type_symbol
_atom_site_label
_atom_site_fract_x
_atom_site_fract_y
_atom_site_fract_z
Si Si1 0.040852 0.093009 0.678024
Si Si2 0.605513 0.203514 0.607509
Si Si3 0.098129 0.924272 0.004496
Si Si4 0.804838 0.609009 0.829713
Si Si5 0.352705 0.561054 0.236630
O O1 0.094366 0.969160 0.617097
O O2 0.104596 0.152977 0.767718
O O3 0.994075 0.219413 0.612828
O O4 0.952419 0.010972 0.726474
O O5 0.646739 0.250000 0.500000
O O6 0.651487 0.281608 0.705927
O O7 0.159362 0.996729 0.916001
O O8 0.086072 0.750000 0.000000
O O9 0.142061 0.942833 0.115036
O O10 0.000000 0.000000 0.000000
O O11 0.750000 0.750000 0.870952
O O12 0.736259 0.535462 0.747423
#
# Coordination Sequence:
#
# PCOD9397036 Si02
#       5
#     8   8   8   8   8
#     4  10  22  42  70 101 140 184 242 297 365 433
#     4  10  21  42  73  98 142 189 238 300 376 428
#     4  12  26  44  74 105 147 191 239 297 364 443
#     4  12  26  45  73 103 149 193 242 301 366 437
#     4  10  25  40  68  99 139 180 245 284 362 422
#
# _framework density 22.730117
#
# number of rings (size 3 to 8) (size 9 to 14) (size 15 to 20)
#    1.200    0.000    2.000    3.600    2.800    4.800 
#    0.000    2.000    0.000    0.000    0.000    0.000 
#    0.000    0.000    0.000    0.000    0.000    0.000 
#
# Total GULP energy -223113.651687 kJ/mol
# GULP energy per Si atom -5577.841292 kJ/mol
# Density = 2.267838 g / cm^3
# Si number density = 22.730117 Si / 1000 Ang^3
#
#
#
# Elastic Constant Matrix: (Units=GPa)
#
#
# Indices 1 2 3 4 5 6 
#
# 1 136.8523 34.2737 30.5600 0.0000 0.0000 0.0000
# 2 34.2737 119.1904 17.8383 0.0000 0.0000 0.0000
# 3 30.5600 17.8383 87.1095 0.0000 0.0000 0.0000
# 4 0.0000 0.0000 0.0000 30.9645 0.0000 0.0000
# 5 0.0000 0.0000 0.0000 0.0000 6.3949 0.0000
# 6 0.0000 0.0000 0.0000 0.0000 0.0000 20.5549
#
#
#
# Elastic Compliance Matrix: (Units=1/GPa)
#
#
# Indices 1 2 3 4 5 6 
#
# 1 0.008380 -0.002032 -0.002524 0.000000 0.000000 0.000000
# 2 -0.002032 0.009148 -0.001160 0.000000 0.000000 0.000000
# 3 -0.002524 -0.001160 0.012603 0.000000 0.000000 0.000000
# 4 0.000000 0.000000 0.000000 0.032295 0.000000 0.000000
# 5 0.000000 0.000000 0.000000 0.000000 0.156374 0.000000
# 6 0.000000 0.000000 0.000000 0.000000 0.000000 0.048650
#
#
# Mechanical properties :
#
#
# Convention : Reuss Voigt Hill
#
# Bulk Modulus (GPa) = 53.48096 56.49956 54.99026
# Shear Modulus (GPa) = 17.53682 28.94821 23.24252
#
# Velocity S-wave (km/s) = 2.78064 3.57257 3.20119
# Velocity P-wave (km/s) = 5.82143 6.47521 6.15700
#
# Compressibility (1/GPa) = 0.01869824
#
# Stress axis : x y z
#
# Youngs Moduli (GPa) = 119.33790 109.31481 79.34740
#
# Poissons Ratio (x) = 0.22211 0.20025
# Poissons Ratio (y) = 0.24248 0.09208
# Poissons Ratio (z) = 0.30117 0.12686
#
# Static dielectric constant tensor:
#      x y z
#    x 1.915440 0.000000 0.000000 
#    y 0.000000 1.808870 0.000000 
#    z 0.000000 0.000000 1.909620 
# 
# From -- ./inp_files/26292.got.cif
#   From: 2010.05.17/outbox.cif.g08.bks.cpg/sg50_14_cif.got.tgz:26292.got - 2010.06.03 11:33:33.
