data_PCOD9397603
_publ_section_title
;
Structure prediction by ZEFSAII (Michael W. Deem and Ramdas Pophale) SiO2 
 PCOD9397603
Probable space group: P B A N
;
_chemical_formula_sum "Si O2"
_cell_formula_units_Z 38
_cell_length_a 9.320825
_cell_length_b 10.234466
_cell_length_c 19.867237
_cell_angle_alpha 90.000000
_cell_angle_beta 90.000000
_cell_angle_gamma 90.000000
_cell_volume 1895.208582
_symmetry_space_group_name_H-M "P B A N"
_symmetry_group_IT_number 50
_space_group.IT_coordinate_system_code '2'
_symmetry_cell_setting 'orthorhombic'
loop_
_space_group_symop_operation_xyz
x,y,z
1/2-x,1/2-y,z
x,1/2-y,-z
1/2-x,y,-z
-x,-y,-z
1/2+x,1/2+y,-z
-x,1/2+y,z
1/2+x,-y,z
loop_
_atom_site_type_symbol
_atom_site_label
_atom_site_fract_x
_atom_site_fract_y
_atom_site_fract_z
Si Si1 0.341123 0.623917 0.317671
Si Si2 0.506955 0.929081 0.092856
Si Si3 0.598360 0.193784 0.163277
Si Si4 0.664013 0.625258 0.367635
Si Si5 0.750000 0.982566 0.000000
Si Si6 0.750000 0.750000 0.500000
O O1 0.250000 0.750000 0.339328
O O2 0.368860 0.640926 0.237796
O O3 0.499381 0.619106 0.347857
O O4 0.249436 0.499892 0.341175
O O5 0.496815 0.823092 0.152353
O O6 0.366224 0.936506 0.044764
O O7 0.533040 0.074352 0.121718
O O8 0.646883 0.900678 0.048424
O O9 0.750000 0.250000 0.138203
O O10 0.750000 0.750000 0.337965
O O11 0.668989 0.654949 0.447810
#
# Coordination Sequence:
#
# PCOD9397603 Si02
#       6
#     8   8   8   8   4   2
#     4  11  25  44  71 104 143 187 233 289 357 399
#     4  11  24  44  68  95 134 174 232 284 350 418
#     4  11  26  44  66 102 135 175 231 288 344 415
#     4  10  23  46  71 104 145 187 229 286 338 411
#     4  10  24  42  68  98 126 184 222 288 356 416
#     4   8  24  44  72 108 148 180 248 262 348 404
#
# _framework density 20.050563
#
# number of rings (size 3 to 8) (size 9 to 14) (size 15 to 20)
#    0.632    0.842    2.105    1.263    8.842    6.737 
#    0.000    0.000    0.000    0.000    0.000    0.000 
#    0.000    0.000    0.000    0.000    0.000    0.000 
#
# Total GULP energy -211756.402819 kJ/mol
# GULP energy per Si atom -5572.536916 kJ/mol
# Density = 2.000493 g / cm^3
# Si number density = 20.050563 Si / 1000 Ang^3
#
#
#
# Elastic Constant Matrix: (Units=GPa)
#
#
# Indices 1 2 3 4 5 6 
#
# 1 179.7786 79.2920 61.8700 0.0000 0.0000 0.0000
# 2 79.2920 172.1104 61.3765 0.0000 0.0000 0.0000
# 3 61.8700 61.3765 89.4768 0.0000 0.0000 0.0000
# 4 0.0000 0.0000 0.0000 28.1322 0.0000 0.0000
# 5 0.0000 0.0000 0.0000 0.0000 -171.6853 0.0000
# 6 0.0000 0.0000 0.0000 0.0000 0.0000 33.5198
#
#
#
# Elastic Compliance Matrix: (Units=1/GPa)
#
#
# Indices 1 2 3 4 5 6 
#
# 1 0.007902 -0.002240 -0.003927 0.000000 0.000000 0.000000
# 2 -0.002240 0.008327 -0.004163 0.000000 0.000000 0.000000
# 3 -0.003927 -0.004163 0.016747 0.000000 0.000000 0.000000
# 4 0.000000 0.000000 0.000000 0.035546 0.000000 0.000000
# 5 0.000000 0.000000 0.000000 0.000000 -0.005825 0.000000
# 6 0.000000 0.000000 0.000000 0.000000 0.000000 0.029833
#
#
# Mechanical properties :
#
#
# Convention : Reuss Voigt Hill
#
# Bulk Modulus (GPa) = 81.19865 94.04920 87.62392
# Shear Modulus (GPa) = 42.62704 -6.08485 18.27109
#
# Velocity S-wave (km/s) = 4.61583 -1.74394 3.02197
# Velocity P-wave (km/s) = 8.30619 6.55383 7.48149
#
# Compressibility (1/GPa) = 0.01231548
#
# Stress axis : x y z
#
# Youngs Moduli (GPa) = 126.55155 120.09599 59.71111
#
# Poissons Ratio (x) = 0.26900 0.23451
# Poissons Ratio (y) = 0.28346 0.24857
# Poissons Ratio (z) = 0.49703 0.49995
#
# Static dielectric constant tensor:
#      x y z
#    x 1.730340 0.000000 0.000000 
#    y 0.000000 1.726680 0.000000 
#    z 0.000000 0.000000 1.788350 
# 
# From -- ./inp_files/31577.got.cif
#   From: 2010.05.17/outbox.cif.g08.bks.cpg/sg50_16_cif.got.tgz:31577.got - 2010.06.03 11:33:33.
