data_PCOD9397106
_publ_section_title
;
Structure prediction by ZEFSAII (Michael W. Deem and Ramdas Pophale) SiO2 
 PCOD9397106
Probable space group: P B A N
;
_chemical_formula_sum "Si O2"
_cell_formula_units_Z 34
_cell_length_a 8.022114
_cell_length_b 19.313266
_cell_length_c 8.446734
_cell_angle_alpha 90.000000
_cell_angle_beta 90.000000
_cell_angle_gamma 90.000000
_cell_volume 1308.679710
_symmetry_space_group_name_H-M "P B A N"
_symmetry_group_IT_number 50
_space_group.IT_coordinate_system_code '2'
_symmetry_cell_setting 'orthorhombic'
loop_
_space_group_symop_operation_xyz
x,y,z
1/2-x,1/2-y,z
x,1/2-y,-z
1/2-x,y,-z
-x,-y,-z
1/2+x,1/2+y,-z
-x,1/2+y,z
1/2+x,-y,z
loop_
_atom_site_type_symbol
_atom_site_label
_atom_site_fract_x
_atom_site_fract_y
_atom_site_fract_z
Si Si1 0.250000 0.750000 0.500000
Si Si2 0.021363 0.346736 0.388842
Si Si3 0.032633 0.390589 0.717332
Si Si4 0.575284 0.887233 0.945409
Si Si5 0.671644 0.463563 0.734307
O O1 0.363217 0.796714 0.611347
O O2 0.102826 0.342809 0.215041
O O3 0.080506 0.340912 0.570725
O O4 0.946635 0.424648 0.391584
O O5 0.852456 0.429415 0.720995
O O6 0.161065 0.455215 0.706217
O O7 0.029446 0.352424 0.887796
O O8 0.428560 0.939558 0.893002
O O9 0.750000 0.921169 0.000000
#
# Coordination Sequence:
#
# PCOD9397106 Si02
#       5
#     2   8   8   8   8
#     4  12  20  52  70 102 128 174 252 300 314 416
#     4  10  24  39  70  94 129 173 230 279 335 389
#     4  12  20  42  62 100 144 170 223 273 345 412
#     4  10  23  41  62 102 137 175 218 268 346 410
#     4  10  22  37  62 103 134 181 210 274 341 411
#
# _framework density 25.980384000000001
#
# number of rings (size 3 to 8) (size 9 to 14) (size 15 to 20)
#    1.412    0.000    2.353    3.529    0.000    0.941 
#    0.000    2.353    0.000    4.235    0.000    0.000 
#    0.000    0.000    0.000    0.000    0.000    0.000 
#
# Total GULP energy -189306.423036 kJ/mol
# GULP energy per Si atom -5567.835972 kJ/mol
# Density = 2.592125 g / cm^3
# Si number density = 25.980384 Si / 1000 Ang^3
#
#
#
# Elastic Constant Matrix: (Units=GPa)
#
#
# Indices 1 2 3 4 5 6 
#
# 1 122.5360 2.0064 55.0876 0.0000 0.0000 0.0000
# 2 2.0064 33.5974 24.0271 0.0000 0.0000 0.0000
# 3 55.0876 24.0271 257.8990 0.0000 0.0000 0.0000
# 4 0.0000 0.0000 0.0000 8.5224 0.0000 0.0000
# 5 0.0000 0.0000 0.0000 0.0000 47.9361 0.0000
# 6 0.0000 0.0000 0.0000 0.0000 0.0000 37.8388
#
#
#
# Elastic Compliance Matrix: (Units=1/GPa)
#
#
# Indices 1 2 3 4 5 6 
#
# 1 0.009053 0.000902 -0.002018 0.000000 0.000000 0.000000
# 2 0.000902 0.031979 -0.003172 0.000000 0.000000 0.000000
# 3 -0.002018 -0.003172 0.004604 0.000000 0.000000 0.000000
# 4 0.000000 0.000000 0.000000 0.117338 0.000000 0.000000
# 5 0.000000 0.000000 0.000000 0.000000 0.020861 0.000000
# 6 0.000000 0.000000 0.000000 0.000000 0.000000 0.026428
#
#
# Mechanical properties :
#
#
# Convention : Reuss Voigt Hill
#
# Bulk Modulus (GPa) = 26.98249 64.03052 45.50651
# Shear Modulus (GPa) = 21.62706 41.05354 31.34030
#
# Velocity S-wave (km/s) = 2.88833 3.97945 3.47696
# Velocity P-wave (km/s) = 4.64021 6.76860 5.80282
#
# Compressibility (1/GPa) = 0.03706107
#
# Stress axis : x y z
#
# Youngs Moduli (GPa) = 110.45764 31.27074 217.20105
#
# Poissons Ratio (x) = -0.02822 0.43828
# Poissons Ratio (y) = -0.09968 0.68897
# Poissons Ratio (z) = 0.22289 0.09919
#
# Static dielectric constant tensor:
#      x y z
#    x 2.182550 0.000000 0.000000 
#    y 0.000000 1.956260 0.000000 
#    z 0.000000 0.000000 2.241840 
# 
# From -- ./inp_files/9266.got.cif
#   From: 2010.05.17/outbox.cif.g08.bks.cpg/sg50_5_cif.got.tgz:9266.got - 2010.06.03 11:33:33.
