data_PCOD9397025
_publ_section_title
;
Structure prediction by ZEFSAII (Michael W. Deem and Ramdas Pophale) SiO2 
 PCOD9397025
Probable space group: P B A N
;
_chemical_formula_sum "Si O2"
_cell_formula_units_Z 56
_cell_length_a 16.722884
_cell_length_b 14.571782
_cell_length_c 10.183104
_cell_angle_alpha 90.000000
_cell_angle_beta 90.000000
_cell_angle_gamma 90.000000
_cell_volume 2481.441390
_symmetry_space_group_name_H-M "P B A N"
_symmetry_group_IT_number 50
_space_group.IT_coordinate_system_code '2'
_symmetry_cell_setting 'orthorhombic'
loop_
_space_group_symop_operation_xyz
x,y,z
1/2-x,1/2-y,z
x,1/2-y,-z
1/2-x,y,-z
-x,-y,-z
1/2+x,1/2+y,-z
-x,1/2+y,z
1/2+x,-y,z
loop_
_atom_site_type_symbol
_atom_site_label
_atom_site_fract_x
_atom_site_fract_y
_atom_site_fract_z
Si Si1 0.031094 0.268869 0.840819
Si Si2 0.212432 0.023071 0.642894
Si Si3 0.202855 0.340960 0.833651
Si Si4 0.713236 0.159023 0.353952
Si Si5 0.339199 0.525214 0.014741
Si Si6 0.439813 0.947578 0.247480
Si Si7 0.558705 0.398748 0.751145
O O1 0.116170 0.304737 0.790497
O O2 0.965293 0.343407 0.789282
O O3 0.011943 0.171195 0.778519
O O4 0.031405 0.250000 0.000000
O O5 0.250000 0.038399 0.500000
O O6 0.238547 0.108737 0.730425
O O7 0.257917 0.936047 0.706714
O O8 0.122555 0.982880 0.641632
O O9 0.250000 0.250000 0.873878
O O10 0.176111 0.421376 0.934279
O O11 0.750000 0.250000 0.289677
O O12 0.750000 0.157969 0.500000
O O13 0.618438 0.149533 0.350933
O O14 0.390772 0.585104 0.116013
O O15 0.250000 0.565177 0.000000
O O16 0.392310 0.519872 0.883412
O O17 0.520795 0.002913 0.277581
#
# Coordination Sequence:
#
# PCOD9397025 Si02
#       7
#     8   8   8   8   8   8   8
#     4  12  25  38  66 104 144 180 225 291 360 419
#     4  11  24  46  70  94 136 190 237 286 341 407
#     4  12  26  42  67 102 138 183 236 279 351 429
#     4  10  21  42  68  93 127 176 234 283 333 409
#     4  12  23  41  69  97 139 181 220 277 351 427
#     4  12  23  44  66 105 144 179 232 293 348 419
#     4  12  23  42  66  99 139 177 225 289 351 413
#
# _framework density 22.567530000000001
#
# number of rings (size 3 to 8) (size 9 to 14) (size 15 to 20)
#    0.000    0.429    5.714    3.000    2.000    0.286 
#    0.000   10.000    0.000    0.000    0.000    0.000 
#    0.000    0.000    0.000    0.000    0.000    0.000 
#
# Total GULP energy -312400.628194 kJ/mol
# GULP energy per Si atom -5578.582646 kJ/mol
# Density = 2.251617 g / cm^3
# Si number density = 22.567530 Si / 1000 Ang^3
#
#
#
# Elastic Constant Matrix: (Units=GPa)
#
#
# Indices 1 2 3 4 5 6 
#
# 1 97.3659 9.1405 8.7778 0.0000 0.0000 0.0000
# 2 9.1405 125.6042 17.4571 0.0000 0.0000 0.0000
# 3 8.7778 17.4571 62.4389 0.0000 0.0000 0.0000
# 4 0.0000 0.0000 0.0000 -7.5497 0.0000 0.0000
# 5 0.0000 0.0000 0.0000 0.0000 29.2373 0.0000
# 6 0.0000 0.0000 0.0000 0.0000 0.0000 49.8440
#
#
#
# Elastic Compliance Matrix: (Units=1/GPa)
#
#
# Indices 1 2 3 4 5 6 
#
# 1 0.010443 -0.000578 -0.001306 0.000000 0.000000 0.000000
# 2 -0.000578 0.008315 -0.002244 0.000000 0.000000 0.000000
# 3 -0.001306 -0.002244 0.016827 0.000000 0.000000 0.000000
# 4 0.000000 0.000000 0.000000 -0.132456 0.000000 0.000000
# 5 0.000000 0.000000 0.000000 0.000000 0.034203 0.000000
# 6 0.000000 0.000000 0.000000 0.000000 0.000000 0.020063
#
#
# Mechanical properties :
#
#
# Convention : Reuss Voigt Hill
#
# Bulk Modulus (GPa) = 36.59245 39.57331 38.08288
# Shear Modulus (GPa) = -198.10136 30.97521 -83.56307
#
# Velocity S-wave (km/s) = -9.37935 3.70882 -6.09167
# Velocity P-wave (km/s) = 10.05218 5.99283 5.70668
#
# Compressibility (1/GPa) = 0.02732804
#
# Stress axis : x y z
#
# Youngs Moduli (GPa) = 95.76152 120.25832 59.42974
#
# Poissons Ratio (x) = 0.06955 0.07764
# Poissons Ratio (y) = 0.05539 0.13334
# Poissons Ratio (z) = 0.12510 0.26981
#
# Static dielectric constant tensor:
#      x y z
#    x 1.971360 0.000000 0.000000 
#    y 0.000000 1.855520 0.000000 
#    z 0.000000 0.000000 1.948560 
# 
# From -- ./inp_files/21171.got.cif
#   From: 2010.05.17/outbox.cif.g08.bks.cpg/sg50_11_cif.got.tgz:21171.got - 2010.06.03 11:33:33.
