data_PCOD9397459
_publ_section_title
;
Structure prediction by ZEFSAII (Michael W. Deem and Ramdas Pophale) SiO2 
 PCOD9397459
Probable space group: P B A N
;
_chemical_formula_sum "Si O2"
_cell_formula_units_Z 36
_cell_length_a 12.076688
_cell_length_b 18.425378
_cell_length_c 7.739320
_cell_angle_alpha 90.000000
_cell_angle_beta 90.000000
_cell_angle_gamma 90.000000
_cell_volume 1722.134458
_symmetry_space_group_name_H-M "P B A N"
_symmetry_group_IT_number 50
_space_group.IT_coordinate_system_code '2'
_symmetry_cell_setting 'orthorhombic'
loop_
_space_group_symop_operation_xyz
x,y,z
1/2-x,1/2-y,z
x,1/2-y,-z
1/2-x,y,-z
-x,-y,-z
1/2+x,1/2+y,-z
-x,1/2+y,z
1/2+x,-y,z
loop_
_atom_site_type_symbol
_atom_site_label
_atom_site_fract_x
_atom_site_fract_y
_atom_site_fract_z
Si Si1 0.003335 0.470918 0.755781
Si Si2 0.124327 0.592393 0.559261
Si Si3 0.042251 0.750000 0.500000
Si Si4 0.628103 0.916099 0.929095
Si Si5 0.878375 0.766512 0.203521
O O1 0.089077 0.537352 0.714638
O O2 0.965078 0.430741 0.585569
O O3 0.894866 0.508546 0.835953
O O4 0.052068 0.418472 0.901135
O O5 0.250000 0.576767 0.500000
O O6 0.110851 0.679950 0.566826
O O7 0.960940 0.731014 0.339447
O O8 0.603932 0.853080 0.792716
O O9 0.750000 0.905176 0.000000
O O10 0.750000 0.750000 0.243292
O O11 0.896620 0.750000 0.000000
#
# Coordination Sequence:
#
# PCOD9397459 Si02
#       5
#     8   8   4   8   8
#     4  10  23  40  64  92 126 160 212 264 319 384
#     4  11  23  42  62  90 125 170 213 263 314 379
#     4  12  24  42  64  92 130 174 214 264 318 386
#     4  11  20  39  65  92 123 164 203 261 322 380
#     4  11  22  39  62  96 131 163 209 261 329 383
#
# _framework density 20.904292000000002
#
# number of rings (size 3 to 8) (size 9 to 14) (size 15 to 20)
#    0.000    1.111    4.444    3.333    0.000    0.000 
#    0.000    0.000    0.000    1.333    0.000    0.000 
#    0.000    0.000    0.000    0.000    0.000    0.000 
#
# Total GULP energy -200799.491998 kJ/mol
# GULP energy per Si atom -5577.763667 kJ/mol
# Density = 2.085671 g / cm^3
# Si number density = 20.904292 Si / 1000 Ang^3
#
#
#
# Elastic Constant Matrix: (Units=GPa)
#
#
# Indices 1 2 3 4 5 6 
#
# 1 53.3205 31.6870 1.1941 0.0000 0.0000 0.0000
# 2 31.6870 79.9674 6.2085 0.0000 0.0000 0.0000
# 3 1.1941 6.2085 52.7809 0.0000 0.0000 0.0000
# 4 0.0000 0.0000 0.0000 54.9433 0.0000 0.0000
# 5 0.0000 0.0000 0.0000 0.0000 21.2370 0.0000
# 6 0.0000 0.0000 0.0000 0.0000 0.0000 -23.8198
#
#
#
# Elastic Compliance Matrix: (Units=1/GPa)
#
#
# Indices 1 2 3 4 5 6 
#
# 1 0.024550 -0.009774 0.000594 0.000000 0.000000 0.000000
# 2 -0.009774 0.016512 -0.001721 0.000000 0.000000 0.000000
# 3 0.000594 -0.001721 0.019135 0.000000 0.000000 0.000000
# 4 0.000000 0.000000 0.000000 0.018201 0.000000 0.000000
# 5 0.000000 0.000000 0.000000 0.000000 0.047088 0.000000
# 6 0.000000 0.000000 0.000000 0.000000 0.000000 -0.041982
#
#
# Mechanical properties :
#
#
# Convention : Reuss Voigt Hill
#
# Bulk Modulus (GPa) = 26.04504 29.36088 27.70296
# Shear Modulus (GPa) = 42.33614 20.27071 31.30343
#
# Velocity S-wave (km/s) = 4.50515 3.11737 3.87391
# Velocity P-wave (km/s) = 6.28872 5.19934 5.76980
#
# Compressibility (1/GPa) = 0.03839503
#
# Stress axis : x y z
#
# Youngs Moduli (GPa) = 40.73394 60.56354 52.25955
#
# Poissons Ratio (x) = 0.59194 -0.03106
# Poissons Ratio (y) = 0.39813 0.08994
# Poissons Ratio (z) = -0.02421 0.10424
#
# Static dielectric constant tensor:
#      x y z
#    x 1.713720 0.000000 0.000000 
#    y 0.000000 1.854200 0.000000 
#    z 0.000000 0.000000 1.761960 
# 
# From -- ./inp_files/11237.got.cif
#   From: 2010.05.17/outbox.cif.g08.bks.cpg/sg50_6_cif.got.tgz:11237.got - 2010.06.03 11:33:33.
