data_PCOD9397648
_publ_section_title
;
Structure prediction by ZEFSAII (Michael W. Deem and Ramdas Pophale) SiO2 
 PCOD9397648
Probable space group: P B A N
;
_chemical_formula_sum "Si O2"
_cell_formula_units_Z 64
_cell_length_a 30.273623
_cell_length_b 9.073937
_cell_length_c 11.883777
_cell_angle_alpha 90.000000
_cell_angle_beta 90.000000
_cell_angle_gamma 90.000000
_cell_volume 3264.484806
_symmetry_space_group_name_H-M "P B A N"
_symmetry_group_IT_number 50
_space_group.IT_coordinate_system_code '2'
_symmetry_cell_setting 'orthorhombic'
loop_
_space_group_symop_operation_xyz
x,y,z
1/2-x,1/2-y,z
x,1/2-y,-z
1/2-x,y,-z
-x,-y,-z
1/2+x,1/2+y,-z
-x,1/2+y,z
1/2+x,-y,z
loop_
_atom_site_type_symbol
_atom_site_label
_atom_site_fract_x
_atom_site_fract_y
_atom_site_fract_z
Si Si1 0.341587 0.068158 0.724649
Si Si2 0.197506 0.926909 0.498693
Si Si3 0.587250 0.073918 0.129053
Si Si4 0.907213 0.080254 0.127609
Si Si5 0.783063 0.864979 0.916112
Si Si6 0.137114 0.097109 0.677608
Si Si7 0.962145 0.817519 0.379195
Si Si8 0.504116 0.951058 0.236638
O O1 0.309892 0.041523 0.830965
O O2 0.343073 0.242736 0.703735
O O3 0.324286 0.987647 0.615206
O O4 0.387892 0.011297 0.771399
O O5 0.193062 0.750000 0.500000
O O6 0.250000 0.962435 0.500000
O O7 0.170082 0.003996 0.599240
O O8 0.600776 0.244745 0.133818
O O9 0.536287 0.043037 0.156016
O O10 0.596613 0.025995 0.000909
O O11 0.874868 0.991497 0.209368
O O12 0.957393 0.066210 0.173462
O O13 0.750000 0.750000 0.853491
O O14 0.808493 0.750000 0.000000
O O15 0.750000 0.949844 0.000000
O O16 0.089045 0.130961 0.622184
O O17 0.972179 0.750000 0.500000
O O18 0.973070 0.698779 0.280561
O O19 0.992821 0.954788 0.347645
#
# Coordination Sequence:
#
# PCOD9397648 Si02
#       8
#     8   8   8   8   8   8   8   8
#     4  12  22  39  70  98 129 170 218 277 335 387
#     4  11  27  48  70  97 136 180 218 268 335 412
#     4  11  23  40  62  92 132 176 223 268 341 394
#     4  10  24  42  62  89 135 181 218 276 329 405
#     4   6  18  34  55  91 131 152 194 268 326 390
#     4  11  25  41  67 101 132 167 230 279 331 396
#     4  11  22  40  60  94 129 173 220 279 326 397
#     4  11  21  41  59  90 130 172 230 271 330 385
#
# _framework density 19.604931000000001
#
# number of rings (size 3 to 8) (size 9 to 14) (size 15 to 20)
#    0.750    0.875    2.500    2.625    3.500    0.500 
#    0.000    0.000    0.000    0.000    0.000    0.000 
#    0.000    0.000    0.000    0.000    0.000    0.000 
#
# Total GULP energy -356794.022175 kJ/mol
# GULP energy per Si atom -5574.906596 kJ/mol
# Density = 1.956031 g / cm^3
# Si number density = 19.604931 Si / 1000 Ang^3
#
#
#
# Elastic Constant Matrix: (Units=GPa)
#
#
# Indices 1 2 3 4 5 6 
#
# 1 94.3121 44.7079 58.5918 0.0000 0.0000 0.0000
# 2 44.7079 91.1647 49.8360 0.0000 0.0000 0.0000
# 3 58.5918 49.8360 137.8288 0.0000 0.0000 0.0000
# 4 0.0000 0.0000 0.0000 22.9844 0.0000 0.0000
# 5 0.0000 0.0000 0.0000 0.0000 -10.9218 0.0000
# 6 0.0000 0.0000 0.0000 0.0000 0.0000 9.4846
#
#
#
# Elastic Compliance Matrix: (Units=1/GPa)
#
#
# Indices 1 2 3 4 5 6 
#
# 1 0.016171 -0.005200 -0.004994 0.000000 0.000000 0.000000
# 2 -0.005200 0.015344 -0.003337 0.000000 0.000000 0.000000
# 3 -0.004994 -0.003337 0.010585 0.000000 0.000000 0.000000
# 4 0.000000 0.000000 0.000000 0.043508 0.000000 0.000000
# 5 0.000000 0.000000 0.000000 0.000000 -0.091560 0.000000
# 6 0.000000 0.000000 0.000000 0.000000 0.000000 0.105434
#
#
# Mechanical properties :
#
#
# Convention : Reuss Voigt Hill
#
# Bulk Modulus (GPa) = 66.50498 69.95299 68.22899
# Shear Modulus (GPa) = 38.00634 15.65410 26.83022
#
# Velocity S-wave (km/s) = 4.40774 2.82880 3.70340
# Velocity P-wave (km/s) = 7.73954 6.81383 7.29139
#
# Compressibility (1/GPa) = 0.01503647
#
# Stress axis : x y z
#
# Youngs Moduli (GPa) = 61.83995 65.17295 94.47283
#
# Poissons Ratio (x) = 0.33892 0.47180
# Poissons Ratio (y) = 0.32158 0.31529
# Poissons Ratio (z) = 0.30883 0.21750
#
# Static dielectric constant tensor:
#      x y z
#    x 1.767400 0.000000 0.000000 
#    y 0.000000 1.688910 0.000000 
#    z 0.000000 0.000000 1.691120 
# 
# From -- ./inp_files/23397.got.cif
#   From: 2010.05.17/outbox.cif.g08.bks.cpg/sg50_12_cif.got.tgz:23397.got - 2010.06.03 11:33:33.
