data_PCOD9397861
_publ_section_title
;
Structure prediction by ZEFSAII (Michael W. Deem and Ramdas Pophale) SiO2 
 PCOD9397861
Probable space group: P B A N
;
_chemical_formula_sum "Si O2"
_cell_formula_units_Z 48
_cell_length_a 22.374820
_cell_length_b 8.456822
_cell_length_c 10.972250
_cell_angle_alpha 90.000000
_cell_angle_beta 90.000000
_cell_angle_gamma 90.000000
_cell_volume 2076.167719
_symmetry_space_group_name_H-M "P B A N"
_symmetry_group_IT_number 50
_space_group.IT_coordinate_system_code '2'
_symmetry_cell_setting 'orthorhombic'
loop_
_space_group_symop_operation_xyz
x,y,z
1/2-x,1/2-y,z
x,1/2-y,-z
1/2-x,y,-z
-x,-y,-z
1/2+x,1/2+y,-z
-x,1/2+y,z
1/2+x,-y,z
loop_
_atom_site_type_symbol
_atom_site_label
_atom_site_fract_x
_atom_site_fract_y
_atom_site_fract_z
Si Si1 0.838359 0.967357 0.710291
Si Si2 0.507281 0.463803 0.168620
Si Si3 0.877446 0.833735 0.134334
Si Si4 0.445853 0.415133 0.430731
Si Si5 0.767983 0.436052 0.861234
Si Si6 0.090252 0.670762 0.889605
O O1 0.856539 0.800779 0.771706
O O2 0.876708 0.974631 0.584896
O O3 0.769211 0.987573 0.747395
O O4 0.866866 0.112447 0.786377
O O5 0.557378 0.600576 0.170743
O O6 0.472549 0.431681 0.294406
O O7 0.452631 0.521070 0.081731
O O8 0.543547 0.305723 0.143325
O O9 0.833603 0.985133 0.146458
O O10 0.874875 0.750000 0.000000
O O11 0.441321 0.250000 0.500000
O O12 0.500000 0.500000 0.500000
O O13 0.750000 0.250000 0.854911
O O14 0.750000 0.487367 0.000000
O O15 0.125384 0.750000 0.000000
#
# Coordination Sequence:
#
# PCOD9397861 Si02
#       6
#     8   8   8   8   8   8
#     4  11  23  38  62  95 127 175 235 273 338 416
#     4  11  22  37  59  91 125 171 224 274 344 414
#     4  12  22  38  63  95 139 186 218 266 336 418
#     4  11  23  43  66  91 125 170 232 297 352 389
#     4  11  24  40  62  94 138 184 224 264 332 416
#     4  11  21  35  55  89 132 169 209 271 340 420
#
# _framework density 23.119520000000001
#
# number of rings (size 3 to 8) (size 9 to 14) (size 15 to 20)
#    0.000    0.833    1.667    8.500    2.333    0.000 
#    0.000    0.000    0.000    7.000    0.000    5.833 
#    0.000    0.000    0.000    0.000    0.000    0.000 
#
# Total GULP energy -267521.664732 kJ/mol
# GULP energy per Si atom -5573.368015 kJ/mol
# Density = 2.306690 g / cm^3
# Si number density = 23.119520 Si / 1000 Ang^3
#
#
#
# Elastic Constant Matrix: (Units=GPa)
#
#
# Indices 1 2 3 4 5 6 
#
# 1 138.3767 46.2999 27.8732 0.0000 0.0000 0.0000
# 2 46.2999 102.5705 22.2502 0.0000 0.0000 0.0000
# 3 27.8732 22.2502 52.2512 0.0000 0.0000 0.0000
# 4 0.0000 0.0000 0.0000 34.4897 0.0000 0.0000
# 5 0.0000 0.0000 0.0000 0.0000 18.8261 0.0000
# 6 0.0000 0.0000 0.0000 0.0000 0.0000 41.0360
#
#
#
# Elastic Compliance Matrix: (Units=1/GPa)
#
#
# Indices 1 2 3 4 5 6 
#
# 1 0.009027 -0.003339 -0.003394 0.000000 0.000000 0.000000
# 2 -0.003339 0.011976 -0.003319 0.000000 0.000000 0.000000
# 3 -0.003394 -0.003319 0.022362 0.000000 0.000000 0.000000
# 4 0.000000 0.000000 0.000000 0.028994 0.000000 0.000000
# 5 0.000000 0.000000 0.000000 0.000000 0.053118 0.000000
# 6 0.000000 0.000000 0.000000 0.000000 0.000000 0.024369
#
#
# Mechanical properties :
#
#
# Convention : Reuss Voigt Hill
#
# Bulk Modulus (GPa) = 42.98697 54.00499 48.49598
# Shear Modulus (GPa) = 28.13670 31.98872 30.06271
#
# Velocity S-wave (km/s) = 3.49235 3.72374 3.60990
# Velocity P-wave (km/s) = 5.90726 6.47288 6.19653
#
# Compressibility (1/GPa) = 0.02326286
#
# Stress axis : x y z
#
# Youngs Moduli (GPa) = 110.77395 83.49736 44.71853
#
# Poissons Ratio (x) = 0.27877 0.15177
# Poissons Ratio (y) = 0.36984 0.14842
# Poissons Ratio (z) = 0.37596 0.27712
#
# Static dielectric constant tensor:
#      x y z
#    x 2.004460 0.000000 0.000000 
#    y 0.000000 1.916670 0.000000 
#    z 0.000000 0.000000 1.968100 
# 
# From -- ./inp_files/22776.got.cif
#   From: 2010.05.17/outbox.cif.g08.bks.cpg/sg50_12_cif.got.tgz:22776.got - 2010.06.03 11:33:33.
