data_PCOD9397241
_publ_section_title
;
Structure prediction by ZEFSAII (Michael W. Deem and Ramdas Pophale) SiO2 
 PCOD9397241
Probable space group: P B A N
;
_chemical_formula_sum "Si O2"
_cell_formula_units_Z 44
_cell_length_a 18.473979
_cell_length_b 8.155428
_cell_length_c 14.715855
_cell_angle_alpha 90.000000
_cell_angle_beta 90.000000
_cell_angle_gamma 90.000000
_cell_volume 2217.137888
_symmetry_space_group_name_H-M "P B A N"
_symmetry_group_IT_number 50
_space_group.IT_coordinate_system_code '2'
_symmetry_cell_setting 'orthorhombic'
loop_
_space_group_symop_operation_xyz
x,y,z
1/2-x,1/2-y,z
x,1/2-y,-z
1/2-x,y,-z
-x,-y,-z
1/2+x,1/2+y,-z
-x,1/2+y,z
1/2+x,-y,z
loop_
_atom_site_type_symbol
_atom_site_label
_atom_site_fract_x
_atom_site_fract_y
_atom_site_fract_z
Si Si1 0.445673 0.678095 0.406632
Si Si2 0.176668 0.415158 0.553008
Si Si3 0.563307 0.005601 0.711263
Si Si4 0.974054 0.250000 0.000000
Si Si5 0.443534 0.483919 0.132063
Si Si6 0.827120 0.718052 0.245418
O O1 0.474549 0.750000 0.500000
O O2 0.381659 0.558231 0.438895
O O3 0.511003 0.582129 0.360784
O O4 0.420512 0.817476 0.333995
O O5 0.152231 0.250000 0.500000
O O6 0.250000 0.465757 0.500000
O O7 0.189371 0.364500 0.657242
O O8 0.630246 0.887408 0.733907
O O9 0.511757 0.009045 0.799467
O O10 0.929881 0.346289 0.078387
O O11 0.028524 0.133194 0.053312
O O12 0.378463 0.402571 0.187887
O O13 0.750000 0.750000 0.199469
#
# Coordination Sequence:
#
# PCOD9397241 Si02
#       6
#     8   8   8   4   8   8
#     4  12  24  38  65  95 134 181 250 293 339 409
#     4  11  23  44  63  91 141 194 239 285 354 413
#     4  12  23  43  67 103 135 183 242 295 355 426
#     4  10  22  40  79 107 134 164 236 294 350 442
#     4  11  21  43  73 107 133 177 230 292 364 431
#     4  12  24  44  70 100 144 192 232 296 363 429
#
# _framework density 19.845406000000001
#
# number of rings (size 3 to 8) (size 9 to 14) (size 15 to 20)
#    0.000    0.545    7.273    1.636    0.000    1.818 
#    0.000    0.455    0.000    1.091    0.000    0.000 
#    0.000    0.000    0.000    0.000    0.000    0.000 
#
# Total GULP energy -245753.033788 kJ/mol
# GULP energy per Si atom -5585.296222 kJ/mol
# Density = 1.980024 g / cm^3
# Si number density = 19.845406 Si / 1000 Ang^3
#
#
#
# Elastic Constant Matrix: (Units=GPa)
#
#
# Indices 1 2 3 4 5 6 
#
# 1 139.0719 58.5642 33.2527 0.0000 0.0000 0.0000
# 2 58.5642 105.5801 34.1082 0.0000 0.0000 0.0000
# 3 33.2527 34.1082 104.3283 0.0000 0.0000 0.0000
# 4 0.0000 0.0000 0.0000 60.0254 0.0000 0.0000
# 5 0.0000 0.0000 0.0000 0.0000 6.7721 0.0000
# 6 0.0000 0.0000 0.0000 0.0000 0.0000 14.2901
#
#
#
# Elastic Compliance Matrix: (Units=1/GPa)
#
#
# Indices 1 2 3 4 5 6 
#
# 1 0.009580 -0.004838 -0.001472 0.000000 0.000000 0.000000
# 2 -0.004838 0.013034 -0.002719 0.000000 0.000000 0.000000
# 3 -0.001472 -0.002719 0.010943 0.000000 0.000000 0.000000
# 4 0.000000 0.000000 0.000000 0.016660 0.000000 0.000000
# 5 0.000000 0.000000 0.000000 0.000000 0.147665 0.000000
# 6 0.000000 0.000000 0.000000 0.000000 0.000000 0.069978
#
#
# Mechanical properties :
#
#
# Convention : Reuss Voigt Hill
#
# Bulk Modulus (GPa) = 64.52157 66.75893 65.64025
# Shear Modulus (GPa) = 17.17716 31.08787 24.13251
#
# Velocity S-wave (km/s) = 2.94521 3.96220 3.49094
# Velocity P-wave (km/s) = 6.64442 7.39220 7.02826
#
# Compressibility (1/GPa) = 0.01549869
#
# Stress axis : x y z
#
# Youngs Moduli (GPa) = 104.38526 76.72417 91.38197
#
# Poissons Ratio (x) = 0.37123 0.13447
# Poissons Ratio (y) = 0.50506 0.24846
# Poissons Ratio (z) = 0.15361 0.20861
#
# Static dielectric constant tensor:
#      x y z
#    x 1.709130 0.000000 0.000000 
#    y 0.000000 1.811980 0.000000 
#    z 0.000000 0.000000 1.920000 
# 
# From -- ./inp_files/26781.got.cif
#   From: 2010.05.17/outbox.cif.g08.bks.cpg/sg50_14_cif.got.tgz:26781.got - 2010.06.03 11:33:33.
