data_PCOD9397695
_publ_section_title
;
Structure prediction by ZEFSAII (Michael W. Deem and Ramdas Pophale) SiO2 
 PCOD9397695
Probable space group: P B A N
;
_chemical_formula_sum "Si O2"
_cell_formula_units_Z 40
_cell_length_a 17.400886
_cell_length_b 9.593561
_cell_length_c 11.892495
_cell_angle_alpha 90.000000
_cell_angle_beta 90.000000
_cell_angle_gamma 90.000000
_cell_volume 1985.291031
_symmetry_space_group_name_H-M "P B A N"
_symmetry_group_IT_number 50
_space_group.IT_coordinate_system_code '2'
_symmetry_cell_setting 'orthorhombic'
loop_
_space_group_symop_operation_xyz
x,y,z
1/2-x,1/2-y,z
x,1/2-y,-z
1/2-x,y,-z
-x,-y,-z
1/2+x,1/2+y,-z
-x,1/2+y,z
1/2+x,-y,z
loop_
_atom_site_type_symbol
_atom_site_label
_atom_site_fract_x
_atom_site_fract_y
_atom_site_fract_z
Si Si1 0.659164 0.978259 0.988173
Si Si2 0.936947 0.003982 0.357279
Si Si3 0.512351 0.250000 0.500000
Si Si4 0.060926 0.750000 0.000000
Si Si5 0.953326 0.864039 0.818632
Si Si6 0.331269 0.323125 0.755592
O O1 0.656978 0.871429 0.884470
O O2 0.750000 0.001374 0.000000
O O3 0.609566 0.925510 0.094592
O O4 0.615713 0.122295 0.969910
O O5 0.852521 0.957581 0.317191
O O6 0.967335 0.877518 0.436937
O O7 0.938391 0.155872 0.414259
O O8 0.993066 0.027528 0.248624
O O9 0.004748 0.756479 0.891751
O O10 0.899310 0.785562 0.730527
O O11 0.250000 0.250000 0.740236
#
# Coordination Sequence:
#
# PCOD9397695 Si02
#       6
#     8   8   4   4   8   8
#     4  12  24  38  58  94 146 176 207 258 318 403
#     4  11  23  44  71 103 126 174 230 286 344 399
#     4  10  24  44  73  99 128 160 234 300 340 388
#     4  12  23  36  57  98 128 176 222 256 317 400
#     4  12  22  37  67  97 133 175 221 266 320 406
#     4  12  23  40  65  98 135 179 218 263 332 406
#
# _framework density 20.14818
#
# number of rings (size 3 to 8) (size 9 to 14) (size 15 to 20)
#    0.000    0.400    8.000    2.100    0.000    0.000 
#    0.000    0.500    0.000    1.200    0.000    0.000 
#    0.000    0.000    0.000    0.000    0.000    0.000 
#
# Total GULP energy -222736.159177 kJ/mol
# GULP energy per Si atom -5568.403979 kJ/mol
# Density = 2.010232 g / cm^3
# Si number density = 20.148180 Si / 1000 Ang^3
#
#
#
# Elastic Constant Matrix: (Units=GPa)
#
#
# Indices 1 2 3 4 5 6 
#
# 1 139.1313 64.3753 35.4962 0.0000 0.0000 0.0000
# 2 64.3753 99.1482 30.9609 0.0000 0.0000 0.0000
# 3 35.4962 30.9609 63.9526 0.0000 0.0000 0.0000
# 4 0.0000 0.0000 0.0000 49.1016 0.0000 0.0000
# 5 0.0000 0.0000 0.0000 0.0000 -417.6683 0.0000
# 6 0.0000 0.0000 0.0000 0.0000 0.0000 59.1131
#
#
#
# Elastic Compliance Matrix: (Units=1/GPa)
#
#
# Indices 1 2 3 4 5 6 
#
# 1 0.010756 -0.006031 -0.003050 0.000000 0.000000 0.000000
# 2 -0.006031 0.015264 -0.004042 0.000000 0.000000 0.000000
# 3 -0.003050 -0.004042 0.019286 0.000000 0.000000 0.000000
# 4 0.000000 0.000000 0.000000 0.020366 0.000000 0.000000
# 5 0.000000 0.000000 0.000000 0.000000 -0.002394 0.000000
# 6 0.000000 0.000000 0.000000 0.000000 0.000000 0.016917
#
#
# Mechanical properties :
#
#
# Convention : Reuss Voigt Hill
#
# Bulk Modulus (GPa) = 52.46720 62.65521 57.56120
# Shear Modulus (GPa) = 44.32774 -50.46408 -3.06817
#
# Velocity S-wave (km/s) = 4.69560 -5.01007 -1.23536
# Velocity P-wave (km/s) = 7.44952 1.51759 5.15714
#
# Compressibility (1/GPa) = 0.01905953
#
# Stress axis : x y z
#
# Youngs Moduli (GPa) = 92.96820 65.51260 51.84985
#
# Poissons Ratio (x) = 0.39513 0.15816
# Poissons Ratio (y) = 0.56073 0.20958
# Poissons Ratio (z) = 0.28358 0.26481
#
# Static dielectric constant tensor:
#      x y z
#    x 1.696860 0.000000 0.000000 
#    y 0.000000 1.751960 0.000000 
#    z 0.000000 0.000000 1.862200 
# 
# From -- ./inp_files/26311.got.cif
#   From: 2010.05.17/outbox.cif.g08.bks.cpg/sg50_14_cif.got.tgz:26311.got - 2010.06.03 11:33:33.
