data_PCOD9397088
_publ_section_title
;
Structure prediction by ZEFSAII (Michael W. Deem and Ramdas Pophale) SiO2 
 PCOD9397088
Probable space group: P B A N
;
_chemical_formula_sum "Si O2"
_cell_formula_units_Z 44
_cell_length_a 13.688768
_cell_length_b 15.627892
_cell_length_c 9.928761
_cell_angle_alpha 90.000000
_cell_angle_beta 90.000000
_cell_angle_gamma 90.000000
_cell_volume 2124.025963
_symmetry_space_group_name_H-M "P B A N"
_symmetry_group_IT_number 50
_space_group.IT_coordinate_system_code '2'
_symmetry_cell_setting 'orthorhombic'
loop_
_space_group_symop_operation_xyz
x,y,z
1/2-x,1/2-y,z
x,1/2-y,-z
1/2-x,y,-z
-x,-y,-z
1/2+x,1/2+y,-z
-x,1/2+y,z
1/2+x,-y,z
loop_
_atom_site_type_symbol
_atom_site_label
_atom_site_fract_x
_atom_site_fract_y
_atom_site_fract_z
Si Si1 0.026226 0.028471 0.311091
Si Si2 0.434455 0.361563 0.563318
Si Si3 0.250000 0.750000 0.500000
Si Si4 0.898530 0.247503 0.303431
Si Si5 0.750000 0.750000 0.500000
Si Si6 0.682325 0.081876 0.196966
Si Si7 0.395554 0.600689 0.900990
O O1 0.034483 0.110041 0.410445
O O2 0.985491 0.052275 0.165105
O O3 0.132723 0.988373 0.290901
O O4 0.954827 0.953450 0.365894
O O5 0.506255 0.293174 0.634872
O O6 0.328115 0.316557 0.568130
O O7 0.167895 0.802061 0.586180
O O8 0.830268 0.327776 0.268268
O O9 0.908475 0.194085 0.166808
O O10 0.793476 0.065234 0.158779
O O11 0.619798 0.094442 0.059355
#
# Coordination Sequence:
#
# PCOD9397088 Si02
#       7
#     8   8   2   8   2   8   8
#     4  10  22  41  57  88 125 157 204 251 305 367
#     4  10  24  39  60  88 120 156 207 249 312 365
#     4  12  18  28  56  78 112 144 170 232 308 346
#     4  11  21  37  56  90 117 153 195 250 307 364
#     4  12  22  40  62  82 118 162 202 244 300 368
#     4  10  22  36  59  89 117 159 199 251 298 359
#     4  11  20  37  61  86 119 157 203 246 302 359
#
# _framework density 20.715377
#
# number of rings (size 3 to 8) (size 9 to 14) (size 15 to 20)
#    0.000    1.455    1.818    3.818    2.545    1.455 
#    0.000    0.000    0.000    0.000    0.000    2.545 
#    0.000    0.000    0.000    0.000    0.000    0.000 
#
# Total GULP energy -244962.256986 kJ/mol
# GULP energy per Si atom -5567.324022 kJ/mol
# Density = 2.066823 g / cm^3
# Si number density = 20.715377 Si / 1000 Ang^3
#
#
#
# Elastic Constant Matrix: (Units=GPa)
#
#
# Indices 1 2 3 4 5 6 
#
# 1 99.6445 30.4547 12.8680 0.0000 0.0000 0.0000
# 2 30.4547 92.6819 9.6084 0.0000 0.0000 0.0000
# 3 12.8680 9.6084 57.5125 0.0000 0.0000 0.0000
# 4 0.0000 0.0000 0.0000 31.9925 0.0000 0.0000
# 5 0.0000 0.0000 0.0000 0.0000 30.2950 0.0000
# 6 0.0000 0.0000 0.0000 0.0000 0.0000 29.0302
#
#
#
# Elastic Compliance Matrix: (Units=1/GPa)
#
#
# Indices 1 2 3 4 5 6 
#
# 1 0.011368 -0.003533 -0.001953 0.000000 0.000000 0.000000
# 2 -0.003533 0.012078 -0.001227 0.000000 0.000000 0.000000
# 3 -0.001953 -0.001227 0.018030 0.000000 0.000000 0.000000
# 4 0.000000 0.000000 0.000000 0.031257 0.000000 0.000000
# 5 0.000000 0.000000 0.000000 0.000000 0.033009 0.000000
# 6 0.000000 0.000000 0.000000 0.000000 0.000000 0.034447
#
#
# Mechanical properties :
#
#
# Convention : Reuss Voigt Hill
#
# Bulk Modulus (GPa) = 35.65295 39.52234 37.58764
# Shear Modulus (GPa) = 30.68159 31.39072 31.03615
#
# Velocity S-wave (km/s) = 3.85268 3.89695 3.87488
# Velocity P-wave (km/s) = 6.08598 6.27443 6.18092
#
# Compressibility (1/GPa) = 0.02804817
#
# Stress axis : x y z
#
# Youngs Moduli (GPa) = 87.96874 82.79724 55.46439
#
# Poissons Ratio (x) = 0.29251 0.10833
# Poissons Ratio (y) = 0.31078 0.06807
# Poissons Ratio (z) = 0.17182 0.10162
#
# Static dielectric constant tensor:
#      x y z
#    x 1.749410 0.000000 0.000000 
#    y 0.000000 1.770710 0.000000 
#    z 0.000000 0.000000 1.835550 
# 
# From -- ./inp_files/12919.got.cif
#   From: 2010.05.17/outbox.cif.g08.bks.cpg/sg50_7_cif.got.tgz:12919.got - 2010.06.03 11:33:33.
