data_PCOD9397479
_publ_section_title
;
Structure prediction by ZEFSAII (Michael W. Deem and Ramdas Pophale) SiO2 
 PCOD9397479
Probable space group: P B A N
;
_chemical_formula_sum "Si O2"
_cell_formula_units_Z 32
_cell_length_a 9.021162
_cell_length_b 28.142998
_cell_length_c 5.723113
_cell_angle_alpha 90.000000
_cell_angle_beta 90.000000
_cell_angle_gamma 90.000000
_cell_volume 1452.998489
_symmetry_space_group_name_H-M "P B A N"
_symmetry_group_IT_number 50
_space_group.IT_coordinate_system_code '2'
_symmetry_cell_setting 'orthorhombic'
loop_
_space_group_symop_operation_xyz
x,y,z
1/2-x,1/2-y,z
x,1/2-y,-z
1/2-x,y,-z
-x,-y,-z
1/2+x,1/2+y,-z
-x,1/2+y,z
1/2+x,-y,z
loop_
_atom_site_type_symbol
_atom_site_label
_atom_site_fract_x
_atom_site_fract_y
_atom_site_fract_z
Si Si1 0.750000 0.438994 0.000000
Si Si2 0.421906 0.768079 0.253063
Si Si3 0.011951 0.456147 0.326823
Si Si4 0.521599 0.379733 0.289221
Si Si5 0.750000 0.921640 0.000000
O O1 0.619939 0.463302 0.855943
O O2 0.838826 0.406792 0.818374
O O3 0.250000 0.750000 0.253213
O O4 0.488764 0.750000 0.500000
O O5 0.439766 0.824559 0.275204
O O6 0.482071 0.750000 0.000000
O O7 0.165752 0.453031 0.191089
O O8 0.000000 0.500000 0.500000
O O9 0.000047 0.405570 0.461473
O O10 0.376569 0.391359 0.132322
#
# Coordination Sequence:
#
# PCOD9397479 Si02
#       5
#     4   8   8   8   4
#     4  10  24  41  73 104 146 184 251 300 369 442
#     4  10  23  40  71 108 146 186 253 318 383 446
#     4  11  26  46  72 108 146 200 251 307 383 461
#     4  11  24  43  74 104 147 194 243 312 380 454
#     4  10  26  47  71  98 154 190 243 306 383 454
#
# _framework density 22.023423999999999
#
# number of rings (size 3 to 8) (size 9 to 14) (size 15 to 20)
#    0.000    1.500    0.000    3.000   14.000   10.000 
#    0.000    4.375    0.000    0.000    0.000    0.000 
#    0.000    0.000    0.000    0.000    0.000    0.000 
#
# Total GULP energy -178943.652084 kJ/mol
# GULP energy per Si atom -5591.989128 kJ/mol
# Density = 2.197330 g / cm^3
# Si number density = 22.023424 Si / 1000 Ang^3
#
#
#
# Elastic Constant Matrix: (Units=GPa)
#
#
# Indices 1 2 3 4 5 6 
#
# 1 97.5919 34.0219 10.0385 0.0000 0.0000 0.0000
# 2 34.0219 149.5294 51.0441 0.0000 0.0000 0.0000
# 3 10.0385 51.0441 130.5744 0.0000 0.0000 0.0000
# 4 0.0000 0.0000 0.0000 35.2235 0.0000 0.0000
# 5 0.0000 0.0000 0.0000 0.0000 29.7121 0.0000
# 6 0.0000 0.0000 0.0000 0.0000 0.0000 53.7764
#
#
#
# Elastic Compliance Matrix: (Units=1/GPa)
#
#
# Indices 1 2 3 4 5 6 
#
# 1 0.011132 -0.002586 0.000155 0.000000 0.000000 0.000000
# 2 -0.002586 0.008318 -0.003053 0.000000 0.000000 0.000000
# 3 0.000155 -0.003053 0.008840 0.000000 0.000000 0.000000
# 4 0.000000 0.000000 0.000000 0.028390 0.000000 0.000000
# 5 0.000000 0.000000 0.000000 0.000000 0.033656 0.000000
# 6 0.000000 0.000000 0.000000 0.000000 0.000000 0.018596
#
#
# Mechanical properties :
#
#
# Convention : Reuss Voigt Hill
#
# Bulk Modulus (GPa) = 57.72691 63.10054 60.41372
# Shear Modulus (GPa) = 39.78543 42.58181 41.18362
#
# Velocity S-wave (km/s) = 4.25491 4.40190 4.32903
# Velocity P-wave (km/s) = 7.09983 7.38576 7.24420
#
# Compressibility (1/GPa) = 0.01732294
#
# Stress axis : x y z
#
# Youngs Moduli (GPa) = 89.82902 120.21904 113.12207
#
# Poissons Ratio (x) = 0.31086 -0.01753
# Poissons Ratio (y) = 0.23228 0.34535
# Poissons Ratio (z) = -0.01392 0.36702
#
# Static dielectric constant tensor:
#      x y z
#    x 1.712190 0.000000 0.000000 
#    y 0.000000 1.790320 0.000000 
#    z 0.000000 0.000000 1.869920 
# 
# From -- ./inp_files/1140.got.cif
#   From: 2010.05.17/outbox.cif.g08.bks.cpg/sg50_1_cif.got.tgz:1140.got - 2010.06.03 11:33:33.
