data_PCOD9397246
_publ_section_title
;
Structure prediction by ZEFSAII (Michael W. Deem and Ramdas Pophale) SiO2 
 PCOD9397246
Probable space group: P B A N
;
_chemical_formula_sum "Si O2"
_cell_formula_units_Z 28
_cell_length_a 15.827570
_cell_length_b 9.696304
_cell_length_c 7.751969
_cell_angle_alpha 90.000000
_cell_angle_beta 90.000000
_cell_angle_gamma 90.000000
_cell_volume 1189.686390
_symmetry_space_group_name_H-M "P B A N"
_symmetry_group_IT_number 50
_space_group.IT_coordinate_system_code '2'
_symmetry_cell_setting 'orthorhombic'
loop_
_space_group_symop_operation_xyz
x,y,z
1/2-x,1/2-y,z
x,1/2-y,-z
1/2-x,y,-z
-x,-y,-z
1/2+x,1/2+y,-z
-x,1/2+y,z
1/2+x,-y,z
loop_
_atom_site_type_symbol
_atom_site_label
_atom_site_fract_x
_atom_site_fract_y
_atom_site_fract_z
Si Si1 0.000421 0.138335 0.758218
Si Si2 0.750000 0.750000 0.000000
Si Si3 0.890722 0.402830 0.711488
Si Si4 0.116826 0.039046 0.058040
Si Si5 0.250000 0.750000 0.500000
O O1 0.965897 0.287669 0.709882
O O2 0.917637 0.043621 0.780710
O O3 0.068833 0.049427 0.651521
O O4 0.043671 0.119372 0.948396
O O5 0.811245 0.647967 0.102975
O O6 0.812532 0.345925 0.608578
O O7 0.859244 0.430312 0.907984
#
# Coordination Sequence:
#
# PCOD9397246 Si02
#       5
#     8   2   8   8   2
#     4   9  19  40  66  88 118 162 211 261 319 376
#     4  12  20  32  58 106 136 146 186 268 362 376
#     4  10  22  41  62  86 128 164 216 256 304 389
#     4   9  21  34  64  98 122 153 200 266 332 370
#     4  12  28  40  54  94 132 182 208 252 320 356
#
# _framework density 23.535612
#
# number of rings (size 3 to 8) (size 9 to 14) (size 15 to 20)
#    1.714    0.571    0.000    2.571    4.000    1.143 
#    0.000    0.000    0.000    2.571    0.000    0.000 
#    0.000    0.000    0.000    0.000    0.000    0.000 
#
# Total GULP energy -155882.546083 kJ/mol
# GULP energy per Si atom -5567.233789 kJ/mol
# Density = 2.348204 g / cm^3
# Si number density = 23.535612 Si / 1000 Ang^3
#
#
#
# Elastic Constant Matrix: (Units=GPa)
#
#
# Indices 1 2 3 4 5 6 
#
# 1 86.2540 48.4718 22.8988 0.0000 0.0000 0.0000
# 2 48.4718 139.4724 17.4621 0.0000 0.0000 0.0000
# 3 22.8988 17.4621 51.2211 0.0000 0.0000 0.0000
# 4 0.0000 0.0000 0.0000 7.8107 0.0000 0.0000
# 5 0.0000 0.0000 0.0000 0.0000 14.4837 0.0000
# 6 0.0000 0.0000 0.0000 0.0000 0.0000 35.7515
#
#
#
# Elastic Compliance Matrix: (Units=1/GPa)
#
#
# Indices 1 2 3 4 5 6 
#
# 1 0.015715 -0.004786 -0.005394 0.000000 0.000000 0.000000
# 2 -0.004786 0.008947 -0.000910 0.000000 0.000000 0.000000
# 3 -0.005394 -0.000910 0.022245 0.000000 0.000000 0.000000
# 4 0.000000 0.000000 0.000000 0.128029 0.000000 0.000000
# 5 0.000000 0.000000 0.000000 0.000000 0.069043 0.000000
# 6 0.000000 0.000000 0.000000 0.000000 0.000000 0.027971
#
#
# Mechanical properties :
#
#
# Convention : Reuss Voigt Hill
#
# Bulk Modulus (GPa) = 40.44305 50.51254 45.47780
# Shear Modulus (GPa) = 16.53577 24.15016 20.34297
#
# Velocity S-wave (km/s) = 2.65351 3.20677 2.94317
# Velocity P-wave (km/s) = 5.15841 5.93464 5.56009
#
# Compressibility (1/GPa) = 0.02472613
#
# Stress axis : x y z
#
# Youngs Moduli (GPa) = 63.63166 111.76542 44.95385
#
# Poissons Ratio (x) = 0.53495 0.24248
# Poissons Ratio (y) = 0.30456 0.04093
# Poissons Ratio (z) = 0.34323 0.10176
#
# Static dielectric constant tensor:
#      x y z
#    x 1.969830 0.000000 0.000000 
#    y 0.000000 1.970600 0.000000 
#    z 0.000000 0.000000 1.964640 
# 
# From -- ./inp_files/14769.got.cif
#   From: 2010.05.17/outbox.cif.g08.bks.cpg/sg50_8_cif.got.tgz:14769.got - 2010.06.03 11:33:33.
