data_PCOD9397686
_publ_section_title
;
Structure prediction by ZEFSAII (Michael W. Deem and Ramdas Pophale) SiO2 
 PCOD9397686
Probable space group: P B A N
;
_chemical_formula_sum "Si O2"
_cell_formula_units_Z 48
_cell_length_a 9.038077
_cell_length_b 17.766864
_cell_length_c 13.705337
_cell_angle_alpha 90.000000
_cell_angle_beta 90.000000
_cell_angle_gamma 90.000000
_cell_volume 2200.779509
_symmetry_space_group_name_H-M "P B A N"
_symmetry_group_IT_number 50
_space_group.IT_coordinate_system_code '2'
_symmetry_cell_setting 'orthorhombic'
loop_
_space_group_symop_operation_xyz
x,y,z
1/2-x,1/2-y,z
x,1/2-y,-z
1/2-x,y,-z
-x,-y,-z
1/2+x,1/2+y,-z
-x,1/2+y,z
1/2+x,-y,z
loop_
_atom_site_type_symbol
_atom_site_label
_atom_site_fract_x
_atom_site_fract_y
_atom_site_fract_z
Si Si1 0.083380 0.754286 0.820275
Si Si2 0.490720 0.250369 0.609292
Si Si3 0.103407 0.127651 0.056043
Si Si4 0.235813 0.482859 0.205898
Si Si5 0.757827 0.619338 0.608714
Si Si6 0.451268 0.587866 0.135043
O O1 0.250000 0.750000 0.860183
O O2 0.086283 0.767379 0.704288
O O3 0.983132 0.812183 0.879451
O O4 0.012079 0.672421 0.834174
O O5 0.556873 0.250000 0.500000
O O6 0.367255 0.184266 0.611612
O O7 0.407603 0.331138 0.621339
O O8 0.207439 0.934088 0.179693
O O9 0.987435 0.090575 0.979850
O O10 0.935620 0.969966 0.184551
O O11 0.263669 0.444612 0.310378
O O12 0.323103 0.433946 0.125665
O O13 0.250000 0.341539 0.000000
O O14 0.750000 0.586385 0.500000
#
# Coordination Sequence:
#
# PCOD9397686 Si02
#       6
#     8   8   8   8   8   8
#     4  12  25  42  67  99 135 167 220 289 340 388
#     4   9  18  36  66  99 126 164 219 279 337 397
#     4  10  24  44  68  93 122 177 225 275 333 404
#     4  11  22  42  65  92 131 175 222 268 336 405
#     4   9  17  34  67  97 122 165 223 277 327 400
#     4  11  26  41  64  93 131 176 220 269 332 409
#
# _framework density 21.810454
#
# number of rings (size 3 to 8) (size 9 to 14) (size 15 to 20)
#    0.000    1.667    3.333    2.000    2.333    6.333 
#    0.000    0.833    3.667    0.000    0.000    0.000 
#    0.000    0.000    0.000    0.000    0.000    0.000 
#
# Total GULP energy -267991.672726 kJ/mol
# GULP energy per Si atom -5583.159848 kJ/mol
# Density = 2.176081 g / cm^3
# Si number density = 21.810454 Si / 1000 Ang^3
#
#
#
# Elastic Constant Matrix: (Units=GPa)
#
#
# Indices 1 2 3 4 5 6 
#
# 1 53.4373 -3.3365 14.6416 0.0000 0.0000 0.0000
# 2 -3.3365 44.7095 20.4291 0.0000 0.0000 0.0000
# 3 14.6416 20.4291 147.6518 0.0000 0.0000 0.0000
# 4 0.0000 0.0000 0.0000 23.6860 0.0000 0.0000
# 5 0.0000 0.0000 0.0000 0.0000 18.3365 0.0000
# 6 0.0000 0.0000 0.0000 0.0000 0.0000 16.0548
#
#
#
# Elastic Compliance Matrix: (Units=1/GPa)
#
#
# Indices 1 2 3 4 5 6 
#
# 1 0.019494 0.002496 -0.002278 0.000000 0.000000 0.000000
# 2 0.002496 0.024196 -0.003595 0.000000 0.000000 0.000000
# 3 -0.002278 -0.003595 0.007496 0.000000 0.000000 0.000000
# 4 0.000000 0.000000 0.000000 0.042219 0.000000 0.000000
# 5 0.000000 0.000000 0.000000 0.000000 0.054536 0.000000
# 6 0.000000 0.000000 0.000000 0.000000 0.000000 0.062287
#
#
# Mechanical properties :
#
#
# Convention : Reuss Voigt Hill
#
# Bulk Modulus (GPa) = 22.50746 34.36300 28.43523
# Shear Modulus (GPa) = 21.57101 25.88641 23.72871
#
# Velocity S-wave (km/s) = 3.14828 3.44885 3.30199
# Velocity P-wave (km/s) = 4.85361 5.62574 5.25388
#
# Compressibility (1/GPa) = 0.04442972
#
# Stress axis : x y z
#
# Youngs Moduli (GPa) = 51.29885 41.32979 133.40354
#
# Poissons Ratio (x) = -0.10315 0.30394
# Poissons Ratio (y) = -0.12803 0.47961
# Poissons Ratio (z) = 0.11688 0.14859
#
# Static dielectric constant tensor:
#      x y z
#    x 1.849420 0.000000 0.000000 
#    y 0.000000 1.818840 0.000000 
#    z 0.000000 0.000000 1.821030 
# 
# From -- ./inp_files/20219.got.cif
#   From: 2010.05.17/outbox.cif.g08.bks.cpg/sg50_11_cif.got.tgz:20219.got - 2010.06.03 11:33:33.
