data_PCOD9397814
_publ_section_title
;
Structure prediction by ZEFSAII (Michael W. Deem and Ramdas Pophale) SiO2 
 PCOD9397814
Probable space group: P B A N
;
_chemical_formula_sum "Si O2"
_cell_formula_units_Z 56
_cell_length_a 14.459204
_cell_length_b 8.187107
_cell_length_c 20.678008
_cell_angle_alpha 90.000000
_cell_angle_beta 90.000000
_cell_angle_gamma 90.000000
_cell_volume 2447.842949
_symmetry_space_group_name_H-M "P B A N"
_symmetry_group_IT_number 50
_space_group.IT_coordinate_system_code '2'
_symmetry_cell_setting 'orthorhombic'
loop_
_space_group_symop_operation_xyz
x,y,z
1/2-x,1/2-y,z
x,1/2-y,-z
1/2-x,y,-z
-x,-y,-z
1/2+x,1/2+y,-z
-x,1/2+y,z
1/2+x,-y,z
loop_
_atom_site_type_symbol
_atom_site_label
_atom_site_fract_x
_atom_site_fract_y
_atom_site_fract_z
Si Si1 0.078536 0.598205 0.851935
Si Si2 0.243273 0.052047 0.880689
Si Si3 0.428464 0.098390 0.043343
Si Si4 0.984004 0.800668 0.763494
Si Si5 0.807873 0.914131 0.265214
Si Si6 0.591992 0.114431 0.640522
Si Si7 0.018533 0.142977 0.551206
O O1 0.165651 0.552202 0.895439
O O2 0.077767 0.737310 0.797708
O O3 0.991563 0.649219 0.895819
O O4 0.058383 0.436154 0.810135
O O5 0.250000 0.250000 0.888494
O O6 0.157394 0.004056 0.925443
O O7 0.231020 0.027453 0.803805
O O8 0.396008 0.250000 0.000000
O O9 0.500000 0.000000 0.000000
O O10 0.011263 0.860407 0.692925
O O11 0.909099 0.657688 0.753749
O O12 0.750000 0.750000 0.285784
O O13 0.817949 0.063732 0.316319
O O14 0.567082 0.257352 0.586625
O O15 0.575676 0.942362 0.606037
O O16 0.074912 0.250000 0.500000
O O17 0.000000 0.000000 0.500000
#
# Coordination Sequence:
#
# PCOD9397814 Si02
#       7
#     8   8   8   8   8   8   8
#     4  12  23  41  68  95 129 173 217 279 356 424
#     4  11  22  43  67  91 127 172 218 272 347 429
#     4  12  26  44  65  90 122 172 227 274 332 409
#     4  12  20  38  68  98 134 166 214 281 357 411
#     4  11  21  36  64  95 131 172 221 272 364 430
#     4  11  19  36  62  99 134 171 226 290 332 406
#     4   9  19  34  60  98 132 177 234 282 327 388
#
# _framework density 22.877286000000002
#
# number of rings (size 3 to 8) (size 9 to 14) (size 15 to 20)
#    0.000    0.857    7.143    1.714    0.000    2.000 
#    0.000    7.143    0.000    0.429    0.000    1.000 
#    0.000    0.000    0.000    0.000    0.000    0.000 
#
# Total GULP energy -311874.218375 kJ/mol
# GULP energy per Si atom -5569.182471 kJ/mol
# Density = 2.282522 g / cm^3
# Si number density = 22.877286 Si / 1000 Ang^3
#
#
#
# Elastic Constant Matrix: (Units=GPa)
#
#
# Indices 1 2 3 4 5 6 
#
# 1 100.2565 21.0583 30.7739 0.0000 0.0000 0.0000
# 2 21.0583 54.2010 34.3502 0.0000 0.0000 0.0000
# 3 30.7739 34.3502 118.7741 0.0000 0.0000 0.0000
# 4 0.0000 0.0000 0.0000 50.7844 0.0000 0.0000
# 5 0.0000 0.0000 0.0000 0.0000 21.4237 0.0000
# 6 0.0000 0.0000 0.0000 0.0000 0.0000 29.5120
#
#
#
# Elastic Compliance Matrix: (Units=1/GPa)
#
#
# Indices 1 2 3 4 5 6 
#
# 1 0.011243 -0.003088 -0.002020 0.000000 0.000000 0.000000
# 2 -0.003088 0.023439 -0.005978 0.000000 0.000000 0.000000
# 3 -0.002020 -0.005978 0.010672 0.000000 0.000000 0.000000
# 4 0.000000 0.000000 0.000000 0.019691 0.000000 0.000000
# 5 0.000000 0.000000 0.000000 0.000000 0.046677 0.000000
# 6 0.000000 0.000000 0.000000 0.000000 0.000000 0.033885
#
#
# Mechanical properties :
#
#
# Convention : Reuss Voigt Hill
#
# Bulk Modulus (GPa) = 43.13990 49.51071 46.32531
# Shear Modulus (GPa) = 28.48905 32.81394 30.65150
#
# Velocity S-wave (km/s) = 3.53271 3.79138 3.66433
# Velocity P-wave (km/s) = 5.96138 6.39179 6.18033
#
# Compressibility (1/GPa) = 0.02318040
#
# Stress axis : x y z
#
# Youngs Moduli (GPa) = 88.94371 42.66482 93.70559
#
# Poissons Ratio (x) = 0.13175 0.18928
# Poissons Ratio (y) = 0.27466 0.56022
# Poissons Ratio (z) = 0.17966 0.25507
#
# Static dielectric constant tensor:
#      x y z
#    x 1.951920 0.000000 0.000000 
#    y 0.000000 1.846810 0.000000 
#    z 0.000000 0.000000 1.907590 
# 
# From -- ./inp_files/30994.got.cif
#   From: 2010.05.17/outbox.cif.g08.bks.cpg/sg50_16_cif.got.tgz:30994.got - 2010.06.03 11:33:33.
