data_PCOD9397731
_publ_section_title
;
Structure prediction by ZEFSAII (Michael W. Deem and Ramdas Pophale) SiO2 
 PCOD9397731
Probable space group: P B A N
;
_chemical_formula_sum "Si O2"
_cell_formula_units_Z 32
_cell_length_a 9.204119
_cell_length_b 18.634136
_cell_length_c 7.998399
_cell_angle_alpha 90.000000
_cell_angle_beta 90.000000
_cell_angle_gamma 90.000000
_cell_volume 1371.811853
_symmetry_space_group_name_H-M "P B A N"
_symmetry_group_IT_number 50
_space_group.IT_coordinate_system_code '2'
_symmetry_cell_setting 'orthorhombic'
loop_
_space_group_symop_operation_xyz
x,y,z
1/2-x,1/2-y,z
x,1/2-y,-z
1/2-x,y,-z
-x,-y,-z
1/2+x,1/2+y,-z
-x,1/2+y,z
1/2+x,-y,z
loop_
_atom_site_type_symbol
_atom_site_label
_atom_site_fract_x
_atom_site_fract_y
_atom_site_fract_z
Si Si1 0.580190 0.239455 0.698747
Si Si2 0.949302 0.080363 0.168909
Si Si3 0.380417 0.358297 0.872888
Si Si4 0.774296 0.984027 0.690452
O O1 0.750000 0.250000 0.744291
O O2 0.564871 0.250000 0.500000
O O3 0.545573 0.158434 0.748130
O O4 0.473422 0.293962 0.795100
O O5 0.058869 0.029727 0.270519
O O6 0.793789 0.044501 0.190894
O O7 0.013673 0.092507 0.985566
O O8 0.306425 0.409043 0.734371
O O9 0.250000 0.336287 0.000000
O O10 0.750000 0.005255 0.500000
#
# Coordination Sequence:
#
# PCOD9397731 Si02
#       4
#     8   8   8   8
#     4  11  26  46  74 105 141 184 240 298 359 421
#     4  11  25  43  69 104 139 189 229 293 356 420
#     4  10  24  47  70 103 141 185 239 293 355 424
#     4  11  24  42  71 101 144 185 237 290 351 424
#
# _framework density 23.326815
#
# number of rings (size 3 to 8) (size 9 to 14) (size 15 to 20)
#    0.000    1.250    0.000    3.750    7.000    9.000 
#    0.000    6.250    0.000    0.000    0.000    0.000 
#    0.000    0.000    0.000    0.000    0.000    0.000 
#
# Total GULP energy -179374.222194 kJ/mol
# GULP energy per Si atom -5605.444444 kJ/mol
# Density = 2.327372 g / cm^3
# Si number density = 23.326815 Si / 1000 Ang^3
#
#
#
# Elastic Constant Matrix: (Units=GPa)
#
#
# Indices 1 2 3 4 5 6 
#
# 1 116.2750 29.1763 51.7225 0.0000 0.0000 0.0000
# 2 29.1763 65.7699 19.5047 0.0000 0.0000 0.0000
# 3 51.7225 19.5047 94.0725 0.0000 0.0000 0.0000
# 4 0.0000 0.0000 0.0000 23.6847 0.0000 0.0000
# 5 0.0000 0.0000 0.0000 0.0000 30.0450 0.0000
# 6 0.0000 0.0000 0.0000 0.0000 0.0000 37.6936
#
#
#
# Elastic Compliance Matrix: (Units=1/GPa)
#
#
# Indices 1 2 3 4 5 6 
#
# 1 0.012148 -0.003631 -0.005926 0.000000 0.000000 0.000000
# 2 -0.003631 0.017286 -0.001587 0.000000 0.000000 0.000000
# 3 -0.005926 -0.001587 0.014217 0.000000 0.000000 0.000000
# 4 0.000000 0.000000 0.000000 0.042221 0.000000 0.000000
# 5 0.000000 0.000000 0.000000 0.000000 0.033283 0.000000
# 6 0.000000 0.000000 0.000000 0.000000 0.000000 0.026530
#
#
# Mechanical properties :
#
#
# Convention : Reuss Voigt Hill
#
# Bulk Modulus (GPa) = 46.81316 52.99159 49.90237
# Shear Modulus (GPa) = 28.55577 29.99891 29.27734
#
# Velocity S-wave (km/s) = 3.50260 3.59001 3.54657
# Velocity P-wave (km/s) = 6.03900 6.32065 6.18143
#
# Compressibility (1/GPa) = 0.02136152
#
# Stress axis : x y z
#
# Youngs Moduli (GPa) = 82.32110 57.84945 70.33614
#
# Poissons Ratio (x) = 0.21007 0.41681
# Poissons Ratio (y) = 0.29894 0.11166
# Poissons Ratio (z) = 0.48783 0.09184
#
# Static dielectric constant tensor:
#      x y z
#    x 1.873630 0.000000 0.000000 
#    y 0.000000 1.848620 0.000000 
#    z 0.000000 0.000000 1.836430 
# 
# From -- ./inp_files/9038.got.cif
#   From: 2010.05.17/outbox.cif.g08.bks.cpg/sg50_5_cif.got.tgz:9038.got - 2010.06.03 11:33:33.
