data_PCOD9397455
_publ_section_title
;
Structure prediction by ZEFSAII (Michael W. Deem and Ramdas Pophale) SiO2 
 PCOD9397455
Probable space group: P B A N
;
_chemical_formula_sum "Si O2"
_cell_formula_units_Z 58
_cell_length_a 27.674867
_cell_length_b 8.986241
_cell_length_c 11.970607
_cell_angle_alpha 90.000000
_cell_angle_beta 90.000000
_cell_angle_gamma 90.000000
_cell_volume 2977.006460
_symmetry_space_group_name_H-M "P B A N"
_symmetry_group_IT_number 50
_space_group.IT_coordinate_system_code '2'
_symmetry_cell_setting 'orthorhombic'
loop_
_space_group_symop_operation_xyz
x,y,z
1/2-x,1/2-y,z
x,1/2-y,-z
1/2-x,y,-z
-x,-y,-z
1/2+x,1/2+y,-z
-x,1/2+y,z
1/2+x,-y,z
loop_
_atom_site_type_symbol
_atom_site_label
_atom_site_fract_x
_atom_site_fract_y
_atom_site_fract_z
Si Si1 0.899934 0.916758 0.359602
Si Si2 0.761855 0.575175 0.129039
Si Si3 0.250000 0.750000 0.500000
Si Si4 0.353251 0.903440 0.798178
Si Si5 0.306609 0.894289 0.296783
Si Si6 0.545610 0.165138 0.112857
Si Si7 0.086238 0.427866 0.617107
Si Si8 0.010205 0.560938 0.243928
O O1 0.894657 0.739107 0.361238
O O2 0.911538 0.962364 0.486787
O O3 0.852537 0.001620 0.319369
O O4 0.945008 0.962645 0.283636
O O5 0.750000 0.750000 0.144181
O O6 0.816861 0.527252 0.154564
O O7 0.729937 0.481149 0.216043
O O8 0.750000 0.537643 0.000000
O O9 0.282020 0.848618 0.414653
O O10 0.324046 0.755713 0.765171
O O11 0.397380 0.868120 0.881326
O O12 0.380313 0.962306 0.687654
O O13 0.530876 0.278297 0.212122
O O14 0.515865 0.016330 0.138353
O O15 0.533704 0.250000 0.000000
O O16 0.031599 0.432319 0.663063
#
# Coordination Sequence:
#
# PCOD9397455 Si02
#       8
#     8   8   2   8   8   8   8   8
#     4  11  22  39  65  93 130 169 219 262 330 389
#     4  11  26  47  70  97 134 177 229 277 335 398
#     4  12  24  44  64 104 132 172 218 282 340 404
#     4  11  23  43  66  98 133 167 222 276 328 401
#     4  12  24  42  70  96 134 171 221 276 339 398
#     4  11  24  40  65  93 128 171 220 272 329 385
#     4  10  23  40  62  95 130 172 212 266 327 394
#     4  11  21  42  61  91 130 167 217 265 321 400
#
# _framework density 19.482659000000002
#
# number of rings (size 3 to 8) (size 9 to 14) (size 15 to 20)
#    0.000    0.966    4.138    2.483    1.931    0.552 
#    0.000    0.000    0.000    0.000    0.000    0.000 
#    0.000    0.000    0.000    0.000    0.000    0.000 
#
# Total GULP energy -324189.810758 kJ/mol
# GULP energy per Si atom -5589.479496 kJ/mol
# Density = 1.943832 g / cm^3
# Si number density = 19.482659 Si / 1000 Ang^3
#
#
#
# Elastic Constant Matrix: (Units=GPa)
#
#
# Indices 1 2 3 4 5 6 
#
# 1 128.5403 42.2501 37.9366 0.0000 0.0000 0.0000
# 2 42.2501 64.4819 15.9846 0.0000 0.0000 0.0000
# 3 37.9366 15.9846 73.3528 0.0000 0.0000 0.0000
# 4 0.0000 0.0000 0.0000 27.8737 0.0000 0.0000
# 5 0.0000 0.0000 0.0000 0.0000 4.2378 0.0000
# 6 0.0000 0.0000 0.0000 0.0000 0.0000 28.8396
#
#
#
# Elastic Compliance Matrix: (Units=1/GPa)
#
#
# Indices 1 2 3 4 5 6 
#
# 1 0.011113 -0.006191 -0.004398 0.000000 0.000000 0.000000
# 2 -0.006191 0.019843 -0.001122 0.000000 0.000000 0.000000
# 3 -0.004398 -0.001122 0.016152 0.000000 0.000000 0.000000
# 4 0.000000 0.000000 0.000000 0.035876 0.000000 0.000000
# 5 0.000000 0.000000 0.000000 0.000000 0.235974 0.000000
# 6 0.000000 0.000000 0.000000 0.000000 0.000000 0.034674
#
#
# Mechanical properties :
#
#
# Convention : Reuss Voigt Hill
#
# Bulk Modulus (GPa) = 42.22113 50.96861 46.59487
# Shear Modulus (GPa) = 12.98872 23.53714 18.26293
#
# Velocity S-wave (km/s) = 2.58482 3.47955 3.06501
# Velocity P-wave (km/s) = 5.53413 6.50852 6.04100
#
# Compressibility (1/GPa) = 0.02368482
#
# Stress axis : x y z
#
# Youngs Moduli (GPa) = 89.98777 50.39582 61.91219
#
# Poissons Ratio (x) = 0.31200 0.27230
# Poissons Ratio (y) = 0.55711 0.06948
# Poissons Ratio (z) = 0.39578 0.05655
#
# Static dielectric constant tensor:
#      x y z
#    x 1.661610 0.000000 0.000000 
#    y 0.000000 1.683400 0.000000 
#    z 0.000000 0.000000 1.666560 
# 
# From -- ./inp_files/19393.got.cif
#   From: 2010.05.17/outbox.cif.g08.bks.cpg/sg50_10_cif.got.tgz:19393.got - 2010.06.03 11:33:33.
