data_PCOD9397067
_publ_section_title
;
Structure prediction by ZEFSAII (Michael W. Deem and Ramdas Pophale) SiO2 
 PCOD9397067
Probable space group: P B A N
;
_chemical_formula_sum "Si O2"
_cell_formula_units_Z 26
_cell_length_a 14.197016
_cell_length_b 14.783816
_cell_length_c 4.752399
_cell_angle_alpha 90.000000
_cell_angle_beta 90.000000
_cell_angle_gamma 90.000000
_cell_volume 997.462360
_symmetry_space_group_name_H-M "P B A N"
_symmetry_group_IT_number 50
_space_group.IT_coordinate_system_code '2'
_symmetry_cell_setting 'orthorhombic'
loop_
_space_group_symop_operation_xyz
x,y,z
1/2-x,1/2-y,z
x,1/2-y,-z
1/2-x,y,-z
-x,-y,-z
1/2+x,1/2+y,-z
-x,1/2+y,z
1/2+x,-y,z
loop_
_atom_site_type_symbol
_atom_site_label
_atom_site_fract_x
_atom_site_fract_y
_atom_site_fract_z
Si Si1 0.031909 0.854758 0.423977
Si Si2 0.354267 0.916803 0.073093
Si Si3 0.158441 0.079198 0.330180
Si Si4 0.750000 0.750000 0.500000
O O1 0.020944 0.750000 0.500000
O O2 0.064892 0.866304 0.105465
O O3 0.938290 0.909913 0.500620
O O4 0.116132 0.897901 0.609451
O O5 0.355860 0.018694 0.944861
O O6 0.250000 0.881495 0.000000
O O7 0.250000 0.041986 0.500000
O O8 0.189949 0.183619 0.302032
#
# Coordination Sequence:
#
# PCOD9397067 Si02
#       4
#     8   8   8   2
#     4  12  25  47  73 106 143 195 246 299 365 438
#     4  12  27  45  72 103 148 193 244 302 361 435
#     4  10  21  46  75 108 145 187 245 309 380 433
#     4   8  20  44  82 100 154 180 250 312 382 432
#
# _framework density 26.066147000000001
#
# number of rings (size 3 to 8) (size 9 to 14) (size 15 to 20)
#    0.923    0.000    1.538    5.538    0.000    6.154 
#    0.000    0.769    0.000    0.000    0.000    0.000 
#    0.000    0.000    0.000    0.000    0.000    0.000 
#
# Total GULP energy -145639.146181 kJ/mol
# GULP energy per Si atom -5601.505622 kJ/mol
# Density = 2.600682 g / cm^3
# Si number density = 26.066147 Si / 1000 Ang^3
#
#
#
# Elastic Constant Matrix: (Units=GPa)
#
#
# Indices 1 2 3 4 5 6 
#
# 1 165.6228 19.0647 5.2576 0.0000 0.0000 0.0000
# 2 19.0647 142.7906 12.1009 0.0000 0.0000 0.0000
# 3 5.2576 12.1009 72.2992 0.0000 0.0000 0.0000
# 4 0.0000 0.0000 0.0000 19.9560 0.0000 0.0000
# 5 0.0000 0.0000 0.0000 0.0000 43.7058 0.0000
# 6 0.0000 0.0000 0.0000 0.0000 0.0000 36.0539
#
#
#
# Elastic Compliance Matrix: (Units=1/GPa)
#
#
# Indices 1 2 3 4 5 6 
#
# 1 0.006139 -0.000793 -0.000314 0.000000 0.000000 0.000000
# 2 -0.000793 0.007206 -0.001148 0.000000 0.000000 0.000000
# 3 -0.000314 -0.001148 0.014046 0.000000 0.000000 0.000000
# 4 0.000000 0.000000 0.000000 0.050110 0.000000 0.000000
# 5 0.000000 0.000000 0.000000 0.000000 0.022880 0.000000
# 6 0.000000 0.000000 0.000000 0.000000 0.000000 0.027736
#
#
# Mechanical properties :
#
#
# Convention : Reuss Voigt Hill
#
# Bulk Modulus (GPa) = 43.70350 50.39545 47.04947
# Shear Modulus (GPa) = 35.64897 42.89576 39.27236
#
# Velocity S-wave (km/s) = 3.70217 4.06106 3.88576
# Velocity P-wave (km/s) = 5.92263 6.43158 6.18235
#
# Compressibility (1/GPa) = 0.02288146
#
# Stress axis : x y z
#
# Youngs Moduli (GPa) = 162.89125 138.76396 71.19240
#
# Poissons Ratio (x) = 0.11005 0.02233
# Poissons Ratio (y) = 0.12918 0.08176
# Poissons Ratio (z) = 0.05110 0.15937
#
# Static dielectric constant tensor:
#      x y z
#    x 2.023570 0.000000 0.000000 
#    y 0.000000 2.080870 0.000000 
#    z 0.000000 0.000000 2.004100 
# 
# From -- ./inp_files/2787.got.cif
#   From: 2010.05.17/outbox.cif.g08.bks.cpg/sg50_2_cif.got.tgz:2787.got - 2010.06.03 11:33:33.
