data_PCOD9397752
_publ_section_title
;
Structure prediction by ZEFSAII (Michael W. Deem and Ramdas Pophale) SiO2 
 PCOD9397752
Probable space group: P B A N
;
_chemical_formula_sum "Si O2"
_cell_formula_units_Z 36
_cell_length_a 22.135256
_cell_length_b 4.961125
_cell_length_c 15.053253
_cell_angle_alpha 90.000000
_cell_angle_beta 90.000000
_cell_angle_gamma 90.000000
_cell_volume 1653.084598
_symmetry_space_group_name_H-M "P B A N"
_symmetry_group_IT_number 50
_space_group.IT_coordinate_system_code '2'
_symmetry_cell_setting 'orthorhombic'
loop_
_space_group_symop_operation_xyz
x,y,z
1/2-x,1/2-y,z
x,1/2-y,-z
1/2-x,y,-z
-x,-y,-z
1/2+x,1/2+y,-z
-x,1/2+y,z
1/2+x,-y,z
loop_
_atom_site_type_symbol
_atom_site_label
_atom_site_fract_x
_atom_site_fract_y
_atom_site_fract_z
Si Si1 0.140065 0.834110 0.705060
Si Si2 0.293218 0.992978 0.114723
Si Si3 0.680602 0.685289 0.604226
Si Si4 0.392086 0.750000 0.000000
Si Si5 0.961493 0.071546 0.825288
O O1 0.168551 0.617095 0.637332
O O2 0.083701 0.684157 0.750641
O O3 0.181636 0.924052 0.787786
O O4 0.133876 0.112150 0.651989
O O5 0.250000 0.250000 0.113173
O O6 0.250000 0.750000 0.091638
O O7 0.349403 0.971725 0.047692
O O8 0.750000 0.750000 0.630348
O O9 0.676142 0.750000 0.500000
O O10 0.431672 0.875077 0.921249
O O11 0.020832 0.259842 0.818274
#
# Coordination Sequence:
#
# PCOD9397752 Si02
#       5
#     8   8   8   4   8
#     4  11  22  39  63  91 124 165 206 251 310 370
#     4  11  23  38  58  88 129 166 202 247 306 381
#     4  11  22  38  64  97 130 161 195 241 304 382
#     4  10  25  40  62  92 122 166 213 264 320 366
#     4  11  24  43  65  87 117 160 216 272 314 358
#
# _framework density 21.777469
#
# number of rings (size 3 to 8) (size 9 to 14) (size 15 to 20)
#    0.000    1.111    0.000    7.000    0.000   10.667 
#    0.000    3.333    0.000   13.333    0.000    0.000 
#    0.000    0.000    0.000    0.000    0.000    0.000 
#
# Total GULP energy -201400.361745 kJ/mol
# GULP energy per Si atom -5594.454493 kJ/mol
# Density = 2.172790 g / cm^3
# Si number density = 21.777469 Si / 1000 Ang^3
#
#
#
# Elastic Constant Matrix: (Units=GPa)
#
#
# Indices 1 2 3 4 5 6 
#
# 1 55.0454 8.9556 28.0197 0.0000 0.0000 0.0000
# 2 8.9556 124.9435 21.7407 0.0000 0.0000 0.0000
# 3 28.0197 21.7407 109.5889 0.0000 0.0000 0.0000
# 4 0.0000 0.0000 0.0000 28.6908 0.0000 0.0000
# 5 0.0000 0.0000 0.0000 0.0000 13.6170 0.0000
# 6 0.0000 0.0000 0.0000 0.0000 0.0000 39.4890
#
#
#
# Elastic Compliance Matrix: (Units=1/GPa)
#
#
# Indices 1 2 3 4 5 6 
#
# 1 0.020927 -0.000589 -0.005234 0.000000 0.000000 0.000000
# 2 -0.000589 0.008306 -0.001497 0.000000 0.000000 0.000000
# 3 -0.005234 -0.001497 0.010760 0.000000 0.000000 0.000000
# 4 0.000000 0.000000 0.000000 0.034854 0.000000 0.000000
# 5 0.000000 0.000000 0.000000 0.000000 0.073437 0.000000
# 6 0.000000 0.000000 0.000000 0.000000 0.000000 0.025323
#
#
# Mechanical properties :
#
#
# Convention : Reuss Voigt Hill
#
# Bulk Modulus (GPa) = 39.44300 45.22334 42.33317
# Shear Modulus (GPa) = 25.41943 31.75016 28.58479
#
# Velocity S-wave (km/s) = 3.42019 3.82244 3.62689
# Velocity P-wave (km/s) = 5.80931 6.34764 6.08443
#
# Compressibility (1/GPa) = 0.02535304
#
# Stress axis : x y z
#
# Youngs Moduli (GPa) = 47.78566 120.38946 92.93534
#
# Poissons Ratio (x) = 0.07095 0.48639
# Poissons Ratio (y) = 0.02816 0.13914
# Poissons Ratio (z) = 0.25009 0.18024
#
# Static dielectric constant tensor:
#      x y z
#    x 1.796940 0.000000 0.000000 
#    y 0.000000 1.771300 0.000000 
#    z 0.000000 0.000000 2.244030 
# 
# From -- ./inp_files/29775.got.cif
#   From: 2010.05.17/outbox.cif.g08.bks.cpg/sg50_15_cif.got.tgz:29775.got - 2010.06.03 11:33:33.
