data_PCOD9397017
_publ_section_title
;
Structure prediction by ZEFSAII (Michael W. Deem and Ramdas Pophale) SiO2 
 PCOD9397017
Probable space group: P B A N
;
_chemical_formula_sum "Si O2"
_cell_formula_units_Z 36
_cell_length_a 5.045317
_cell_length_b 12.233804
_cell_length_c 24.145439
_cell_angle_alpha 90.000000
_cell_angle_beta 90.000000
_cell_angle_gamma 90.000000
_cell_volume 1490.339055
_symmetry_space_group_name_H-M "P B A N"
_symmetry_group_IT_number 50
_space_group.IT_coordinate_system_code '2'
_symmetry_cell_setting 'orthorhombic'
loop_
_space_group_symop_operation_xyz
x,y,z
1/2-x,1/2-y,z
x,1/2-y,-z
1/2-x,y,-z
-x,-y,-z
1/2+x,1/2+y,-z
-x,1/2+y,z
1/2+x,-y,z
loop_
_atom_site_type_symbol
_atom_site_label
_atom_site_fract_x
_atom_site_fract_y
_atom_site_fract_z
Si Si1 0.623550 0.570444 0.797977
Si Si2 0.993062 0.823823 0.680958
Si Si3 0.535335 0.565619 0.569931
Si Si4 0.999097 0.922793 0.919356
Si Si5 0.250000 0.250000 0.000000
Si Si6 0.750000 0.250000 0.500000
O O1 0.430556 0.464156 0.796811
O O2 0.557120 0.636074 0.743092
O O3 0.547810 0.622067 0.856985
O O4 0.250000 0.750000 0.679548
O O5 0.006348 0.918067 0.635676
O O6 0.750000 0.750000 0.662355
O O7 0.835790 0.533946 0.556562
O O8 0.427810 0.672582 0.539156
O O9 0.786241 0.022142 0.925503
O O10 0.929309 0.828923 0.962305
#
# Coordination Sequence:
#
# PCOD9397017 Si02
#       6
#     8   8   8   8   2   2
#     4  10  21  42  65  94 135 178 221 282 345 407
#     4  12  24  42  70 104 141 178 231 288 338 414
#     4  12  27  48  74 105 141 188 230 285 353 408
#     4  10  24  43  65  98 135 173 229 281 335 405
#     4  12  24  42  72  96 132 190 220 284 336 404
#     4  12  28  50  76 108 144 182 244 292 328 416
#
# _framework density 24.155577999999998
#
# number of rings (size 3 to 8) (size 9 to 14) (size 15 to 20)
#    0.000    0.889    1.111    5.333    1.556    2.667 
#    0.000    0.000    0.000    0.000    0.000    0.000 
#    0.000    0.000    0.000    0.000    0.000    0.000 
#
# Total GULP energy -201912.817048 kJ/mol
# GULP energy per Si atom -5608.689362 kJ/mol
# Density = 2.410060 g / cm^3
# Si number density = 24.155578 Si / 1000 Ang^3
#
#
#
# Elastic Constant Matrix: (Units=GPa)
#
#
# Indices 1 2 3 4 5 6 
#
# 1 97.4389 17.0630 10.9541 0.0000 0.0000 0.0000
# 2 17.0630 59.7700 35.1062 0.0000 0.0000 0.0000
# 3 10.9541 35.1062 139.5651 0.0000 0.0000 0.0000
# 4 0.0000 0.0000 0.0000 44.1696 0.0000 0.0000
# 5 0.0000 0.0000 0.0000 0.0000 33.4201 0.0000
# 6 0.0000 0.0000 0.0000 0.0000 0.0000 24.5190
#
#
#
# Elastic Compliance Matrix: (Units=1/GPa)
#
#
# Indices 1 2 3 4 5 6 
#
# 1 0.010804 -0.003034 -0.000085 0.000000 0.000000 0.000000
# 2 -0.003034 0.020483 -0.004914 0.000000 0.000000 0.000000
# 3 -0.000085 -0.004914 0.008408 0.000000 0.000000 0.000000
# 4 0.000000 0.000000 0.000000 0.022640 0.000000 0.000000
# 5 0.000000 0.000000 0.000000 0.000000 0.029922 0.000000
# 6 0.000000 0.000000 0.000000 0.000000 0.000000 0.040785
#
#
# Mechanical properties :
#
#
# Convention : Reuss Voigt Hill
#
# Bulk Modulus (GPa) = 42.32211 47.00229 44.66220
# Shear Modulus (GPa) = 31.85020 35.99844 33.92432
#
# Velocity S-wave (km/s) = 3.63512 3.86460 3.75161
# Velocity P-wave (km/s) = 5.93106 6.27805 6.10702
#
# Compressibility (1/GPa) = 0.02362831
#
# Stress axis : x y z
#
# Youngs Moduli (GPa) = 92.56051 48.81981 118.93590
#
# Poissons Ratio (x) = 0.14814 0.01007
# Poissons Ratio (y) = 0.28087 0.58448
# Poissons Ratio (z) = 0.00784 0.23991
#
# Static dielectric constant tensor:
#      x y z
#    x 1.867400 0.000000 0.000000 
#    y 0.000000 1.888060 0.000000 
#    z 0.000000 0.000000 1.941830 
# 
# From -- ./inp_files/31362.got.cif
#   From: 2010.05.17/outbox.cif.g08.bks.cpg/sg50_16_cif.got.tgz:31362.got - 2010.06.03 11:33:33.
