data_PCOD9397239
_publ_section_title
;
Structure prediction by ZEFSAII (Michael W. Deem and Ramdas Pophale) SiO2 
 PCOD9397239
Probable space group: P B A N
;
_chemical_formula_sum "Si O2"
_cell_formula_units_Z 32
_cell_length_a 31.126129
_cell_length_b 9.225460
_cell_length_c 5.308152
_cell_angle_alpha 90.000000
_cell_angle_beta 90.000000
_cell_angle_gamma 90.000000
_cell_volume 1524.251018
_symmetry_space_group_name_H-M "P B A N"
_symmetry_group_IT_number 50
_space_group.IT_coordinate_system_code '2'
_symmetry_cell_setting 'orthorhombic'
loop_
_space_group_symop_operation_xyz
x,y,z
1/2-x,1/2-y,z
x,1/2-y,-z
1/2-x,y,-z
-x,-y,-z
1/2+x,1/2+y,-z
-x,1/2+y,z
1/2+x,-y,z
loop_
_atom_site_type_symbol
_atom_site_label
_atom_site_fract_x
_atom_site_fract_y
_atom_site_fract_z
Si Si1 0.250000 0.750000 0.000000
Si Si2 0.385801 0.917646 0.597545
Si Si3 0.250000 0.250000 0.000000
Si Si4 0.438095 0.522289 0.875815
Si Si5 0.289783 0.999642 0.690738
Si Si6 0.503239 0.750000 0.000000
O O1 0.280952 0.644482 0.150635
O O2 0.383324 0.750000 0.500000
O O3 0.410197 0.996019 0.371681
O O4 0.338045 0.983741 0.601211
O O5 0.410227 0.942056 0.868199
O O6 0.218912 0.354978 0.844909
O O7 0.470341 0.657917 0.827520
O O8 0.466408 0.377572 0.901204
O O9 0.250000 0.998885 0.500000
#
# Coordination Sequence:
#
# PCOD9397239 Si02
#       6
#     2   8   2   8   8   4
#     4  10  22  40  72 104 124 200 234 278 356 426
#     4  12  25  44  72 110 142 181 246 294 354 415
#     4  10  26  48  68 100 136 204 230 290 360 430
#     4  11  26  45  74 105 143 187 235 303 351 440
#     4  11  25  45  71  99 145 189 234 292 358 425
#     4  10  24  50  72 102 144 190 238 286 384 424
#
# _framework density 20.993918000000001
#
# number of rings (size 3 to 8) (size 9 to 14) (size 15 to 20)
#    0.000    1.000    2.500    2.250   10.500    8.000 
#    4.500    0.000    0.000    0.000    0.000    0.000 
#    0.000    0.000    0.000    0.000    0.000    0.000 
#
# Total GULP energy -178584.069940 kJ/mol
# GULP energy per Si atom -5580.752186 kJ/mol
# Density = 2.094613 g / cm^3
# Si number density = 20.993918 Si / 1000 Ang^3
#
#
#
# Elastic Constant Matrix: (Units=GPa)
#
#
# Indices 1 2 3 4 5 6 
#
# 1 183.0836 59.0486 69.6476 0.0000 0.0000 0.0000
# 2 59.0486 137.5899 33.6190 0.0000 0.0000 0.0000
# 3 69.6476 33.6190 112.5323 0.0000 0.0000 0.0000
# 4 0.0000 0.0000 0.0000 39.1422 0.0000 0.0000
# 5 0.0000 0.0000 0.0000 0.0000 30.3804 0.0000
# 6 0.0000 0.0000 0.0000 0.0000 0.0000 819.4203
#
#
#
# Elastic Compliance Matrix: (Units=1/GPa)
#
#
# Indices 1 2 3 4 5 6 
#
# 1 0.007781 -0.002333 -0.004119 0.000000 0.000000 0.000000
# 2 -0.002333 0.008540 -0.001107 0.000000 0.000000 0.000000
# 3 -0.004119 -0.001107 0.011766 0.000000 0.000000 0.000000
# 4 0.000000 0.000000 0.000000 0.025548 0.000000 0.000000
# 5 0.000000 0.000000 0.000000 0.000000 0.032916 0.000000
# 6 0.000000 0.000000 0.000000 0.000000 0.000000 0.001220
#
#
# Mechanical properties :
#
#
# Convention : Reuss Voigt Hill
#
# Bulk Modulus (GPa) = 77.10745 84.20402 80.65573
# Shear Modulus (GPa) = 46.63598 195.84798 121.24198
#
# Velocity S-wave (km/s) = 4.71829 9.66905 7.60765
# Velocity P-wave (km/s) = 8.15422 12.83939 10.75502
#
# Compressibility (1/GPa) = 0.01296892
#
# Stress axis : x y z
#
# Youngs Moduli (GPa) = 128.51225 117.09884 84.98753
#
# Poissons Ratio (x) = 0.27320 0.35006
# Poissons Ratio (y) = 0.29982 0.09411
# Poissons Ratio (z) = 0.52934 0.12967
#
# Static dielectric constant tensor:
#      x y z
#    x 1.955210 0.000000 0.000000 
#    y 0.000000 1.728430 0.000000 
#    z 0.000000 0.000000 0.709320 
# 
# From -- ./inp_files/1293.got.cif
#   From: 2010.05.17/outbox.cif.g08.bks.cpg/sg50_1_cif.got.tgz:1293.got - 2010.06.03 11:33:33.
