data_PCOD9397562
_publ_section_title
;
Structure prediction by ZEFSAII (Michael W. Deem and Ramdas Pophale) SiO2 
 PCOD9397562
Probable space group: P B A N
;
_chemical_formula_sum "Si O2"
_cell_formula_units_Z 36
_cell_length_a 9.754299
_cell_length_b 9.360480
_cell_length_c 18.781558
_cell_angle_alpha 90.000000
_cell_angle_beta 90.000000
_cell_angle_gamma 90.000000
_cell_volume 1714.848664
_symmetry_space_group_name_H-M "P B A N"
_symmetry_group_IT_number 50
_space_group.IT_coordinate_system_code '2'
_symmetry_cell_setting 'orthorhombic'
loop_
_space_group_symop_operation_xyz
x,y,z
1/2-x,1/2-y,z
x,1/2-y,-z
1/2-x,y,-z
-x,-y,-z
1/2+x,1/2+y,-z
-x,1/2+y,z
1/2+x,-y,z
loop_
_atom_site_type_symbol
_atom_site_label
_atom_site_fract_x
_atom_site_fract_y
_atom_site_fract_z
Si Si1 0.660899 0.067321 0.630629
Si Si2 0.901468 0.724232 0.829292
Si Si3 0.946390 0.043768 0.077554
Si Si4 0.457516 0.650191 0.313005
Si Si5 0.750000 0.250000 0.000000
Si Si6 0.750000 0.250000 0.500000
O O1 0.569134 0.183882 0.671157
O O2 0.813833 0.073209 0.665041
O O3 0.671953 0.140315 0.552649
O O4 0.580071 0.920304 0.641039
O O5 0.750000 0.750000 0.798294
O O6 0.891957 0.600168 0.887592
O O7 0.956687 0.866967 0.868402
O O8 0.999500 0.656436 0.769107
O O9 0.831049 0.153070 0.054878
O O10 0.000000 0.000000 0.000000
#
# Coordination Sequence:
#
# PCOD9397562 Si02
#       6
#     8   8   8   8   2   2
#     4  10  23  43  70 100 145 174 232 275 337 404
#     4  12  27  43  70  95 133 180 231 282 362 417
#     4  12  25  46  66  96 126 176 226 294 345 426
#     4  10  24  42  66 102 136 177 223 287 329 411
#     4  12  24  44  70  88 136 164 230 292 356 396
#     4   8  20  44  70 104 136 192 222 288 332 412
#
# _framework density 20.993106999999998
#
# number of rings (size 3 to 8) (size 9 to 14) (size 15 to 20)
#    0.000    1.333    2.222    2.667    6.222    6.222 
#    0.000    0.000    0.000   10.667    0.000    0.000 
#    0.000    0.000    0.000    0.000    0.000    0.000 
#
# Total GULP energy -200752.993890 kJ/mol
# GULP energy per Si atom -5576.472053 kJ/mol
# Density = 2.094533 g / cm^3
# Si number density = 20.993107 Si / 1000 Ang^3
#
#
#
# Elastic Constant Matrix: (Units=GPa)
#
#
# Indices 1 2 3 4 5 6 
#
# 1 83.4065 33.1042 30.0702 0.0000 0.0000 0.0000
# 2 33.1042 64.1198 12.9759 0.0000 0.0000 0.0000
# 3 30.0702 12.9759 107.1548 0.0000 0.0000 0.0000
# 4 0.0000 0.0000 0.0000 27.9526 0.0000 0.0000
# 5 0.0000 0.0000 0.0000 0.0000 -31.8855 0.0000
# 6 0.0000 0.0000 0.0000 0.0000 0.0000 54.0315
#
#
#
# Elastic Compliance Matrix: (Units=1/GPa)
#
#
# Indices 1 2 3 4 5 6 
#
# 1 0.016369 -0.007711 -0.003660 0.000000 0.000000 0.000000
# 2 -0.007711 0.019620 -0.000212 0.000000 0.000000 0.000000
# 3 -0.003660 -0.000212 0.010385 0.000000 0.000000 0.000000
# 4 0.000000 0.000000 0.000000 0.035775 0.000000 0.000000
# 5 0.000000 0.000000 0.000000 0.000000 -0.031362 0.000000
# 6 0.000000 0.000000 0.000000 0.000000 0.000000 0.018508
#
#
# Mechanical properties :
#
#
# Convention : Reuss Voigt Hill
#
# Bulk Modulus (GPa) = 43.08707 45.22018 44.15363
# Shear Modulus (GPa) = 49.90236 21.92179 35.91207
#
# Velocity S-wave (km/s) = 4.88082 3.23497 4.14050
# Velocity P-wave (km/s) = 7.23410 5.96160 6.62846
#
# Compressibility (1/GPa) = 0.02320882
#
# Stress axis : x y z
#
# Youngs Moduli (GPa) = 61.08994 50.96945 96.29245
#
# Poissons Ratio (x) = 0.39301 0.35242
# Poissons Ratio (y) = 0.47104 0.02042
# Poissons Ratio (z) = 0.22358 0.01081
#
# Static dielectric constant tensor:
#      x y z
#    x 1.787440 0.000000 0.000000 
#    y 0.000000 1.752850 0.000000 
#    z 0.000000 0.000000 2.053380 
# 
# From -- ./inp_files/30548.got.cif
#   From: 2010.05.17/outbox.cif.g08.bks.cpg/sg50_16_cif.got.tgz:30548.got - 2010.06.03 11:33:33.
