data_PCOD9397748
_publ_section_title
;
Structure prediction by ZEFSAII (Michael W. Deem and Ramdas Pophale) SiO2 
 PCOD9397748
Probable space group: P B A N
;
_chemical_formula_sum "Si O2"
_cell_formula_units_Z 32
_cell_length_a 8.012929
_cell_length_b 21.883944
_cell_length_c 8.248114
_cell_angle_alpha 90.000000
_cell_angle_beta 90.000000
_cell_angle_gamma 90.000000
_cell_volume 1446.343820
_symmetry_space_group_name_H-M "P B A N"
_symmetry_group_IT_number 50
_space_group.IT_coordinate_system_code '2'
_symmetry_cell_setting 'orthorhombic'
loop_
_space_group_symop_operation_xyz
x,y,z
1/2-x,1/2-y,z
x,1/2-y,-z
1/2-x,y,-z
-x,-y,-z
1/2+x,1/2+y,-z
-x,1/2+y,z
1/2+x,-y,z
loop_
_atom_site_type_symbol
_atom_site_label
_atom_site_fract_x
_atom_site_fract_y
_atom_site_fract_z
Si Si1 0.679756 0.558068 0.179170
Si Si2 0.250000 0.750000 0.000000
Si Si3 0.750000 0.150918 0.500000
Si Si4 0.750000 0.750000 0.000000
Si Si5 0.520322 0.451773 0.350956
Si Si6 0.511764 0.177479 0.224821
O O1 0.604778 0.491313 0.209000
O O2 0.536558 0.606732 0.218323
O O3 0.835842 0.568270 0.299338
O O4 0.750000 0.565691 0.000000
O O5 0.349490 0.703870 0.109799
O O6 0.859471 0.104765 0.389031
O O7 0.604902 0.186201 0.399188
O O8 0.645603 0.790391 0.868640
O O9 0.500000 0.500000 0.500000
#
# Coordination Sequence:
#
# PCOD9397748 Si02
#       6
#     8   2   4   2   8   8
#     4  12  24  42  71 107 144 195 237 287 361 435
#     4  10  28  52  72 100 144 180 252 318 352 406
#     4  12  26  43  74 106 148 189 228 288 372 436
#     4  10  24  54  76 106 140 188 260 326 352 422
#     4  12  23  43  66 109 155 184 228 289 353 452
#     4  11  25  47  76 102 139 190 244 306 368 416
#
# _framework density 22.124753999999999
#
# number of rings (size 3 to 8) (size 9 to 14) (size 15 to 20)
#    0.000    0.500    6.250    0.750    3.500    0.500 
#    2.250    2.500    0.000    0.000    0.000    0.000 
#    0.000    0.000    0.000    0.000    0.000    0.000 
#
# Total GULP energy -178425.442690 kJ/mol
# GULP energy per Si atom -5575.795084 kJ/mol
# Density = 2.207440 g / cm^3
# Si number density = 22.124754 Si / 1000 Ang^3
#
#
#
# Elastic Constant Matrix: (Units=GPa)
#
#
# Indices 1 2 3 4 5 6 
#
# 1 107.7353 50.6923 45.9315 0.0000 0.0000 0.0000
# 2 50.6923 73.3177 43.4912 0.0000 0.0000 0.0000
# 3 45.9315 43.4912 108.2365 0.0000 0.0000 0.0000
# 4 0.0000 0.0000 0.0000 36.8929 0.0000 0.0000
# 5 0.0000 0.0000 0.0000 0.0000 -96.5719 0.0000
# 6 0.0000 0.0000 0.0000 0.0000 0.0000 -32.9331
#
#
#
# Elastic Compliance Matrix: (Units=1/GPa)
#
#
# Indices 1 2 3 4 5 6 
#
# 1 0.014361 -0.008290 -0.002763 0.000000 0.000000 0.000000
# 2 -0.008290 0.022693 -0.005601 0.000000 0.000000 0.000000
# 3 -0.002763 -0.005601 0.012662 0.000000 0.000000 0.000000
# 4 0.000000 0.000000 0.000000 0.027106 0.000000 0.000000
# 5 0.000000 0.000000 0.000000 0.000000 -0.010355 0.000000
# 6 0.000000 0.000000 0.000000 0.000000 0.000000 -0.030365
#
#
# Mechanical properties :
#
#
# Convention : Reuss Voigt Hill
#
# Bulk Modulus (GPa) = 60.94368 63.27996 62.11182
# Shear Modulus (GPa) = 66.77471 -8.57747 29.09862
#
# Velocity S-wave (km/s) = 5.49968 -1.97111 3.63051
# Velocity P-wave (km/s) = 8.24221 4.84594 6.76081
#
# Compressibility (1/GPa) = 0.01640859
#
# Stress axis : x y z
#
# Youngs Moduli (GPa) = 69.63455 44.06599 78.97675
#
# Poissons Ratio (x) = 0.36531 0.21822
# Poissons Ratio (y) = 0.57727 0.44231
# Poissons Ratio (z) = 0.19240 0.24679
#
# Static dielectric constant tensor:
#      x y z
#    x 1.841670 0.000000 0.000000 
#    y 0.000000 2.245620 0.000000 
#    z 0.000000 0.000000 1.676930 
# 
# From -- ./inp_files/9440.got.cif
#   From: 2010.05.17/outbox.cif.g08.bks.cpg/sg50_5_cif.got.tgz:9440.got - 2010.06.03 11:33:33.
