data_PCOD9397651
_publ_section_title
;
Structure prediction by ZEFSAII (Michael W. Deem and Ramdas Pophale) SiO2 
 PCOD9397651
Probable space group: P B A N
;
_chemical_formula_sum "Si O2"
_cell_formula_units_Z 60
_cell_length_a 22.291620
_cell_length_b 21.281282
_cell_length_c 6.418204
_cell_angle_alpha 90.000000
_cell_angle_beta 90.000000
_cell_angle_gamma 90.000000
_cell_volume 3044.759082
_symmetry_space_group_name_H-M "P B A N"
_symmetry_group_IT_number 50
_space_group.IT_coordinate_system_code '2'
_symmetry_cell_setting 'orthorhombic'
loop_
_space_group_symop_operation_xyz
x,y,z
1/2-x,1/2-y,z
x,1/2-y,-z
1/2-x,y,-z
-x,-y,-z
1/2+x,1/2+y,-z
-x,1/2+y,z
1/2+x,-y,z
loop_
_atom_site_type_symbol
_atom_site_label
_atom_site_fract_x
_atom_site_fract_y
_atom_site_fract_z
Si Si1 0.903429 0.640623 0.296006
Si Si2 0.189152 0.914761 0.128106
Si Si3 0.364438 0.681144 0.439091
Si Si4 0.500631 0.072253 0.955756
Si Si5 0.997614 0.834089 0.325008
Si Si6 0.317991 0.468619 0.443561
Si Si7 0.883000 0.432639 0.730010
Si Si8 0.923817 0.750000 0.000000
O O1 0.850928 0.595382 0.376887
O O2 0.938783 0.597661 0.131720
O O3 0.949607 0.656947 0.486783
O O4 0.888561 0.702133 0.154403
O O5 0.169034 0.851586 0.245662
O O6 0.192142 0.974602 0.279370
O O7 0.250000 0.906431 0.000000
O O8 0.139043 0.933771 0.964222
O O9 0.342047 0.750000 0.500000
O O10 0.436140 0.686216 0.398121
O O11 0.356254 0.628651 0.617695
O O12 0.546887 0.080093 0.762928
O O13 0.511240 0.106032 0.176971
O O14 0.500000 0.000000 0.000000
O O15 0.967148 0.786399 0.161224
O O16 0.250000 0.451803 0.500000
O O17 0.360070 0.504853 0.613860
#
# Coordination Sequence:
#
# PCOD9397651 Si02
#       8
#     8   8   8   8   8   8   8   4
#     4  11  23  40  65  98 133 169 208 264 328 394
#     4  11  23  44  65  87 131 171 216 277 320 374
#     4  11  24  38  64  93 125 175 223 259 317 380
#     4  11  22  35  60  99 132 162 205 261 330 390
#     4  11  22  39  63  95 135 170 206 263 326 386
#     4  11  24  42  69  95 123 170 220 265 332 395
#     4  11  22  40  61  93 130 163 211 271 321 377
#     4  10  24  42  64  93 135 172 210 252 328 396
#
# _framework density 19.705991999999998
#
# number of rings (size 3 to 8) (size 9 to 14) (size 15 to 20)
#    0.000    1.067    4.000    2.800    3.733    2.667 
#    0.000    2.000    0.000    2.400    0.000    0.000 
#    0.000    0.000    0.000    0.000    0.000    0.000 
#
# Total GULP energy -334526.435329 kJ/mol
# GULP energy per Si atom -5575.440589 kJ/mol
# Density = 1.966114 g / cm^3
# Si number density = 19.705992 Si / 1000 Ang^3
#
#
#
# Elastic Constant Matrix: (Units=GPa)
#
#
# Indices 1 2 3 4 5 6 
#
# 1 77.6373 40.5503 33.3396 0.0000 0.0000 0.0000
# 2 40.5503 143.2225 53.4994 0.0000 0.0000 0.0000
# 3 33.3396 53.4994 94.1190 0.0000 0.0000 0.0000
# 4 0.0000 0.0000 0.0000 12.7383 0.0000 0.0000
# 5 0.0000 0.0000 0.0000 0.0000 28.2489 0.0000
# 6 0.0000 0.0000 0.0000 0.0000 0.0000 -23.4900
#
#
#
# Elastic Compliance Matrix: (Units=1/GPa)
#
#
# Indices 1 2 3 4 5 6 
#
# 1 0.016210 -0.003104 -0.003978 0.000000 0.000000 0.000000
# 2 -0.003104 0.009458 -0.004277 0.000000 0.000000 0.000000
# 3 -0.003978 -0.004277 0.014465 0.000000 0.000000 0.000000
# 4 0.000000 0.000000 0.000000 0.078503 0.000000 0.000000
# 5 0.000000 0.000000 0.000000 0.000000 0.035400 0.000000
# 6 0.000000 0.000000 0.000000 0.000000 0.000000 -0.042571
#
#
# Mechanical properties :
#
#
# Convention : Reuss Voigt Hill
#
# Bulk Modulus (GPa) = 57.41715 63.30637 60.36176
# Shear Modulus (GPa) = 35.71764 16.00541 25.86153
#
# Velocity S-wave (km/s) = 4.26200 2.85302 3.62659
# Velocity P-wave (km/s) = 7.30887 6.56111 6.94506
#
# Compressibility (1/GPa) = 0.01741640
#
# Stress axis : x y z
#
# Youngs Moduli (GPa) = 61.69199 105.72515 69.13204
#
# Poissons Ratio (x) = 0.32812 0.27499
# Poissons Ratio (y) = 0.19146 0.29568
# Poissons Ratio (z) = 0.24540 0.45219
#
# Static dielectric constant tensor:
#      x y z
#    x 1.934000 0.000000 0.000000 
#    y 0.000000 1.707000 0.000000 
#    z 0.000000 0.000000 1.645790 
# 
# From -- ./inp_files/6115.got.cif
#   From: 2010.05.17/outbox.cif.g08.bks.cpg/sg50_4_cif.got.tgz:6115.got - 2010.06.03 11:33:33.
