data_PCOD9397848
_publ_section_title
;
Structure prediction by ZEFSAII (Michael W. Deem and Ramdas Pophale) SiO2 
 PCOD9397848
Probable space group: P B A N
;
_chemical_formula_sum "Si O2"
_cell_formula_units_Z 40
_cell_length_a 7.544375
_cell_length_b 24.059304
_cell_length_c 8.505908
_cell_angle_alpha 90.000000
_cell_angle_beta 90.000000
_cell_angle_gamma 90.000000
_cell_volume 1543.927874
_symmetry_space_group_name_H-M "P B A N"
_symmetry_group_IT_number 50
_space_group.IT_coordinate_system_code '2'
_symmetry_cell_setting 'orthorhombic'
loop_
_space_group_symop_operation_xyz
x,y,z
1/2-x,1/2-y,z
x,1/2-y,-z
1/2-x,y,-z
-x,-y,-z
1/2+x,1/2+y,-z
-x,1/2+y,z
1/2+x,-y,z
loop_
_atom_site_type_symbol
_atom_site_label
_atom_site_fract_x
_atom_site_fract_y
_atom_site_fract_z
Si Si1 0.066986 0.175441 0.604739
Si Si2 0.637739 0.432584 0.642436
Si Si3 0.679167 0.882540 0.171043
Si Si4 0.051694 0.981104 0.820656
Si Si5 0.040267 0.233470 0.169315
O O1 0.250000 0.183146 0.500000
O O2 0.152018 0.145383 0.753854
O O3 0.984076 0.232424 0.675151
O O4 0.924994 0.127266 0.569851
O O5 0.750000 0.457956 0.500000
O O6 0.469100 0.466657 0.705136
O O7 0.771090 0.444311 0.791468
O O8 0.597634 0.937876 0.236959
O O9 0.534414 0.832824 0.180986
O O10 0.750000 0.895760 0.000000
O O11 0.000000 0.000000 0.000000
O O12 0.250000 0.250000 0.161045
O O13 0.962551 0.250000 0.000000
#
# Coordination Sequence:
#
# PCOD9397848 Si02
#       5
#     8   8   8   8   8
#     4  11  23  41  69 103 134 179 232 290 350 430
#     4  12  26  46  67 100 144 191 234 295 369 428
#     4  11  20  39  68  99 135 179 232 294 350 409
#     4  12  26  43  69 103 140 189 247 299 350 428
#     4   9  17  36  66 100 131 172 226 287 341 413
#
# _framework density 25.907948000000001
#
# number of rings (size 3 to 8) (size 9 to 14) (size 15 to 20)
#    0.000    1.000    4.000    6.000    0.000    5.200 
#    0.000    1.000    0.000    2.400    0.000    0.000 
#    0.000    0.000    0.000    0.000    0.000    0.000 
#
# Total GULP energy -222698.218379 kJ/mol
# GULP energy per Si atom -5567.455459 kJ/mol
# Density = 2.584898 g / cm^3
# Si number density = 25.907948 Si / 1000 Ang^3
#
#
#
# Elastic Constant Matrix: (Units=GPa)
#
#
# Indices 1 2 3 4 5 6 
#
# 1 99.9113 31.4477 17.0717 0.0000 0.0000 0.0000
# 2 31.4477 168.3501 13.9972 0.0000 0.0000 0.0000
# 3 17.0717 13.9972 90.0422 0.0000 0.0000 0.0000
# 4 0.0000 0.0000 0.0000 -17.1282 0.0000 0.0000
# 5 0.0000 0.0000 0.0000 0.0000 10.6198 0.0000
# 6 0.0000 0.0000 0.0000 0.0000 0.0000 26.8399
#
#
#
# Elastic Compliance Matrix: (Units=1/GPa)
#
#
# Indices 1 2 3 4 5 6 
#
# 1 0.010907 -0.001890 -0.001774 0.000000 0.000000 0.000000
# 2 -0.001890 0.006345 -0.000628 0.000000 0.000000 0.000000
# 3 -0.001774 -0.000628 0.011540 0.000000 0.000000 0.000000
# 4 0.000000 0.000000 0.000000 -0.058383 0.000000 0.000000
# 5 0.000000 0.000000 0.000000 0.000000 0.094164 0.000000
# 6 0.000000 0.000000 0.000000 0.000000 0.000000 0.037258
#
#
# Mechanical properties :
#
#
# Convention : Reuss Voigt Hill
#
# Bulk Modulus (GPa) = 49.48564 53.70409 51.59486
# Shear Modulus (GPa) = 42.67999 23.78542 33.23270
#
# Velocity S-wave (km/s) = 4.06318 3.03326 3.58540
# Velocity P-wave (km/s) = 6.41519 5.74816 6.09081
#
# Compressibility (1/GPa) = 0.02020788
#
# Stress axis : x y z
#
# Youngs Moduli (GPa) = 91.68526 157.59811 86.65584
#
# Poissons Ratio (x) = 0.29784 0.15374
# Poissons Ratio (y) = 0.17328 0.05443
# Poissons Ratio (z) = 0.16266 0.09898
#
# Static dielectric constant tensor:
#      x y z
#    x 2.201130 0.000000 0.000000 
#    y 0.000000 2.259520 0.000000 
#    z 0.000000 0.000000 2.129980 
# 
# From -- ./inp_files/9539.got.cif
#   From: 2010.05.17/outbox.cif.g08.bks.cpg/sg50_5_cif.got.tgz:9539.got - 2010.06.03 11:33:33.
