data_PCOD9397826
_publ_section_title
;
Structure prediction by ZEFSAII (Michael W. Deem and Ramdas Pophale) SiO2 
 PCOD9397826
Probable space group: P B A N
;
_chemical_formula_sum "Si O2"
_cell_formula_units_Z 48
_cell_length_a 13.673350
_cell_length_b 7.229451
_cell_length_c 20.733683
_cell_angle_alpha 90.000000
_cell_angle_beta 90.000000
_cell_angle_gamma 90.000000
_cell_volume 2049.541438
_symmetry_space_group_name_H-M "P B A N"
_symmetry_group_IT_number 50
_space_group.IT_coordinate_system_code '2'
_symmetry_cell_setting 'orthorhombic'
loop_
_space_group_symop_operation_xyz
x,y,z
1/2-x,1/2-y,z
x,1/2-y,-z
1/2-x,y,-z
-x,-y,-z
1/2+x,1/2+y,-z
-x,1/2+y,z
1/2+x,-y,z
loop_
_atom_site_type_symbol
_atom_site_label
_atom_site_fract_x
_atom_site_fract_y
_atom_site_fract_z
Si Si1 0.374782 0.479982 0.563361
Si Si2 0.925672 0.542460 0.765396
Si Si3 0.073273 0.889202 0.047693
Si Si4 0.431035 0.751496 0.673504
Si Si5 0.923973 0.670421 0.141997
Si Si6 0.143496 0.043096 0.420424
O O1 0.431237 0.612144 0.612364
O O2 0.397629 0.526590 0.489102
O O3 0.258634 0.500038 0.573246
O O4 0.382157 0.260673 0.577905
O O5 0.876513 0.372011 0.728062
O O6 0.972886 0.674577 0.710557
O O7 0.129574 0.172603 0.816184
O O8 0.004554 0.773474 0.096952
O O9 0.130432 0.034056 0.092669
O O10 0.128301 0.750000 0.000000
O O11 0.000000 0.000000 0.000000
O O12 0.485200 0.047224 0.806688
O O13 0.385446 0.934929 0.643489
#
# Coordination Sequence:
#
# PCOD9397826 Si02
#       6
#     8   8   8   8   8   8
#     4   9  19  36  56  73  86 106 147 211 271 299
#     4   9  20  29  41  61  93 138 165 175 206 280
#     4   8  12  19  38  60  77 109 161 205 225 244
#     4  11  20  32  50  66  92 125 165 190 221 292
#     4   8  14  27  36  53  90 123 160 191 210 260
#     4   9  19  36  56  73  86 106 147 211 271 300
#
# _framework density 23.419872000000002
#
# number of rings (size 3 to 8) (size 9 to 14) (size 15 to 20)
#    0.000    3.000    0.000    2.000    4.667    1.333 
#    0.000    3.333    0.000    0.000    0.000    0.000 
#    0.000    0.000    0.000    0.000    0.000 5063.333 
#
# Total GULP energy -267323.470458 kJ/mol
# GULP energy per Si atom -5569.238968 kJ/mol
# Density = 2.336657 g / cm^3
# Si number density = 23.419872 Si / 1000 Ang^3
#
#
#
# Elastic Constant Matrix: (Units=GPa)
#
#
# Indices 1 2 3 4 5 6 
#
# 1 52.1834 4.6437 10.4110 0.0000 0.0000 0.0000
# 2 4.6437 116.2615 68.1041 0.0000 0.0000 0.0000
# 3 10.4110 68.1041 149.6674 0.0000 0.0000 0.0000
# 4 0.0000 0.0000 0.0000 100.0460 0.0000 0.0000
# 5 0.0000 0.0000 0.0000 0.0000 -5.0131 0.0000
# 6 0.0000 0.0000 0.0000 0.0000 0.0000 9.6201
#
#
#
# Elastic Compliance Matrix: (Units=1/GPa)
#
#
# Indices 1 2 3 4 5 6 
#
# 1 0.019433 0.000021 -0.001361 0.000000 0.000000 0.000000
# 2 0.000021 0.011727 -0.005338 0.000000 0.000000 0.000000
# 3 -0.001361 -0.005338 0.009205 0.000000 0.000000 0.000000
# 4 0.000000 0.000000 0.000000 0.009995 0.000000 0.000000
# 5 0.000000 0.000000 0.000000 0.000000 -0.199478 0.000000
# 6 0.000000 0.000000 0.000000 0.000000 0.000000 0.103949
#
#
# Mechanical properties :
#
#
# Convention : Reuss Voigt Hill
#
# Bulk Modulus (GPa) = 37.02423 53.82555 45.42489
# Shear Modulus (GPa) = -219.20654 36.59418 -91.30618
#
# Velocity S-wave (km/s) = -9.68513 3.95717 -6.25070
# Velocity P-wave (km/s) = 10.45111 6.62659 5.71463
#
# Compressibility (1/GPa) = 0.02700934
#
# Stress axis : x y z
#
# Youngs Moduli (GPa) = 51.45914 85.27144 108.63556
#
# Poissons Ratio (x) = -0.00182 0.14791
# Poissons Ratio (y) = -0.00110 0.57988
# Poissons Ratio (z) = 0.07006 0.45516
#
# Static dielectric constant tensor:
#      x y z
#    x 1.893740 0.000000 0.000000 
#    y 0.000000 1.988870 0.000000 
#    z 0.000000 0.000000 1.920940 
# 
# From -- ./inp_files/29819.got.cif
#   From: 2010.05.17/outbox.cif.g08.bks.cpg/sg50_15_cif.got.tgz:29819.got - 2010.06.03 11:33:33.
