data_PCOD9397232
_publ_section_title
;
Structure prediction by ZEFSAII (Michael W. Deem and Ramdas Pophale) SiO2 
 PCOD9397232
Probable space group: P B A N
;
_chemical_formula_sum "Si O2"
_cell_formula_units_Z 40
_cell_length_a 8.045801
_cell_length_b 15.395668
_cell_length_c 12.376222
_cell_angle_alpha 90.000000
_cell_angle_beta 90.000000
_cell_angle_gamma 90.000000
_cell_volume 1533.048572
_symmetry_space_group_name_H-M "P B A N"
_symmetry_group_IT_number 50
_space_group.IT_coordinate_system_code '2'
_symmetry_cell_setting 'orthorhombic'
loop_
_space_group_symop_operation_xyz
x,y,z
1/2-x,1/2-y,z
x,1/2-y,-z
1/2-x,y,-z
-x,-y,-z
1/2+x,1/2+y,-z
-x,1/2+y,z
1/2+x,-y,z
loop_
_atom_site_type_symbol
_atom_site_label
_atom_site_fract_x
_atom_site_fract_y
_atom_site_fract_z
Si Si1 0.010121 0.654205 0.452030
Si Si2 0.082758 0.311304 0.170351
Si Si3 0.842417 0.568128 0.254888
Si Si4 0.555176 0.595823 0.971065
Si Si5 0.640670 0.123227 0.333828
O O1 0.975601 0.750000 0.500000
O O2 0.882012 0.615896 0.366546
O O3 0.026264 0.599990 0.562504
O O4 0.186199 0.649761 0.389382
O O5 0.250000 0.250000 0.163770
O O6 0.164039 0.400287 0.214755
O O7 0.993936 0.332561 0.056524
O O8 0.943303 0.300683 0.261810
O O9 0.963766 0.602278 0.157895
O O10 0.837968 0.465177 0.266845
O O11 0.750000 0.601530 0.000000
O O12 0.500000 0.500000 0.000000
#
# Coordination Sequence:
#
# PCOD9397232 Si02
#       5
#     8   8   8   8   8
#     4  11  25  44  65  97 140 182 228 287 343 410
#     4  11  24  42  68 103 139 176 226 287 344 408
#     4  11  23  41  69 102 138 177 230 282 347 413
#     4  10  22  40  68 102 139 175 226 281 348 416
#     4  11  22  41  68  97 137 178 230 280 343 408
#
# _framework density 26.091802999999999
#
# number of rings (size 3 to 8) (size 9 to 14) (size 15 to 20)
#    0.000    1.200    2.000    4.200    2.800    6.000 
#    0.000    3.000    0.000    0.000    0.000   19.600 
#    0.000    0.000    0.000    0.000    0.000    0.000 
#
# Total GULP energy -223470.912736 kJ/mol
# GULP energy per Si atom -5586.772818 kJ/mol
# Density = 2.603242 g / cm^3
# Si number density = 26.091803 Si / 1000 Ang^3
#
#
#
# Elastic Constant Matrix: (Units=GPa)
#
#
# Indices 1 2 3 4 5 6 
#
# 1 40.8947 26.1993 23.5857 0.0000 0.0000 0.0000
# 2 26.1993 121.6845 56.4811 0.0000 0.0000 0.0000
# 3 23.5857 56.4811 153.9661 0.0000 0.0000 0.0000
# 4 0.0000 0.0000 0.0000 50.3454 0.0000 0.0000
# 5 0.0000 0.0000 0.0000 0.0000 41.1334 0.0000
# 6 0.0000 0.0000 0.0000 0.0000 0.0000 37.1119
#
#
#
# Elastic Compliance Matrix: (Units=1/GPa)
#
#
# Indices 1 2 3 4 5 6 
#
# 1 0.029212 -0.005077 -0.002613 0.000000 0.000000 0.000000
# 2 -0.005077 0.010787 -0.003179 0.000000 0.000000 0.000000
# 3 -0.002613 -0.003179 0.008061 0.000000 0.000000 0.000000
# 4 0.000000 0.000000 0.000000 0.019863 0.000000 0.000000
# 5 0.000000 0.000000 0.000000 0.000000 0.024311 0.000000
# 6 0.000000 0.000000 0.000000 0.000000 0.000000 0.026946
#
#
# Mechanical properties :
#
#
# Convention : Reuss Voigt Hill
#
# Bulk Modulus (GPa) = 37.98956 58.78638 48.38797
# Shear Modulus (GPa) = 33.40191 39.73674 36.56933
#
# Velocity S-wave (km/s) = 3.58183 3.90674 3.74781
# Velocity P-wave (km/s) = 5.63006 6.55208 6.10849
#
# Compressibility (1/GPa) = 0.02632302
#
# Stress axis : x y z
#
# Youngs Moduli (GPa) = 34.23205 92.70617 124.04725
#
# Poissons Ratio (x) = 0.47066 0.32408
# Poissons Ratio (y) = 0.17379 0.39438
# Poissons Ratio (z) = 0.08943 0.29474
#
# Static dielectric constant tensor:
#      x y z
#    x 2.164020 0.000000 0.000000 
#    y 0.000000 2.002300 0.000000 
#    z 0.000000 0.000000 2.234550 
# 
# From -- ./inp_files/25822.got.cif
#   From: 2010.05.17/outbox.cif.g08.bks.cpg/sg50_13_cif.got.tgz:25822.got - 2010.06.03 11:33:33.
