data_PCOD9397421
_publ_section_title
;
Structure prediction by ZEFSAII (Michael W. Deem and Ramdas Pophale) SiO2 
 PCOD9397421
Probable space group: P B A N
;
_chemical_formula_sum "Si O2"
_cell_formula_units_Z 58
_cell_length_a 8.887200
_cell_length_b 24.469647
_cell_length_c 12.474961
_cell_angle_alpha 90.000000
_cell_angle_beta 90.000000
_cell_angle_gamma 90.000000
_cell_volume 2712.887938
_symmetry_space_group_name_H-M "P B A N"
_symmetry_group_IT_number 50
_space_group.IT_coordinate_system_code '2'
_symmetry_cell_setting 'orthorhombic'
loop_
_space_group_symop_operation_xyz
x,y,z
1/2-x,1/2-y,z
x,1/2-y,-z
1/2-x,y,-z
-x,-y,-z
1/2+x,1/2+y,-z
-x,1/2+y,z
1/2+x,-y,z
loop_
_atom_site_type_symbol
_atom_site_label
_atom_site_fract_x
_atom_site_fract_y
_atom_site_fract_z
Si Si1 0.250000 0.750000 0.500000
Si Si2 0.116175 0.289483 0.781481
Si Si3 0.579568 0.196635 0.314175
Si Si4 0.412243 0.950803 0.183216
Si Si5 0.188785 0.831231 0.878621
Si Si6 0.361733 0.998551 0.419055
Si Si7 0.178377 0.385581 0.310757
Si Si8 0.756958 0.555276 0.885558
O O1 0.332275 0.790161 0.580192
O O2 0.250000 0.250000 0.826835
O O3 0.188679 0.341142 0.715767
O O4 0.028254 0.248639 0.703729
O O5 0.981684 0.307648 0.861613
O O6 0.690228 0.189816 0.210873
O O7 0.470856 0.146422 0.339703
O O8 0.335427 0.894569 0.150820
O O9 0.590377 0.949502 0.162234
O O10 0.387243 0.967620 0.307200
O O11 0.336797 0.997177 0.110350
O O12 0.250000 0.823049 0.000000
O O13 0.250000 0.968882 0.500000
O O14 0.302808 0.059887 0.383764
O O15 0.500000 0.000000 0.500000
O O16 0.144892 0.409298 0.193502
O O17 0.750000 0.582268 0.000000
#
# Coordination Sequence:
#
# PCOD9397421 Si02
#       8
#     2   8   8   8   8   8   8   8
#     4  12  24  48  64 100 136 184 230 302 360 436
#     4  10  22  49  72 103 142 186 240 305 358 437
#     4  11  26  44  73 101 142 187 243 300 371 432
#     4  11  25  43  66 103 149 184 241 293 353 448
#     4  12  26  45  75 109 146 189 240 304 375 439
#     4  11  25  43  69 105 143 194 240 301 361 425
#     4  10  24  43  71 102 143 181 243 292 358 437
#     4  11  23  41  69 101 144 185 232 289 357 433
#
# _framework density 21.379431
#
# number of rings (size 3 to 8) (size 9 to 14) (size 15 to 20)
#    0.000    1.103    2.759    2.483    7.724    3.310 
#    0.000    7.931    0.000    0.000    0.000    0.000 
#    0.000    0.000    0.000    0.000    0.000    0.000 
#
# Total GULP energy -323365.661307 kJ/mol
# GULP energy per Si atom -5575.270023 kJ/mol
# Density = 2.133077 g / cm^3
# Si number density = 21.379431 Si / 1000 Ang^3
#
#
#
# Elastic Constant Matrix: (Units=GPa)
#
#
# Indices 1 2 3 4 5 6 
#
# 1 94.8740 14.1083 33.3498 0.0000 0.0000 0.0000
# 2 14.1083 92.2712 11.4034 0.0000 0.0000 0.0000
# 3 33.3498 11.4034 133.0497 0.0000 0.0000 0.0000
# 4 0.0000 0.0000 0.0000 -0.2337 0.0000 0.0000
# 5 0.0000 0.0000 0.0000 0.0000 11.4579 0.0000
# 6 0.0000 0.0000 0.0000 0.0000 0.0000 36.4034
#
#
#
# Elastic Compliance Matrix: (Units=1/GPa)
#
#
# Indices 1 2 3 4 5 6 
#
# 1 0.011747 -0.001448 -0.002820 0.000000 0.000000 0.000000
# 2 -0.001448 0.011132 -0.000591 0.000000 0.000000 0.000000
# 3 -0.002820 -0.000591 0.008274 0.000000 0.000000 0.000000
# 4 0.000000 0.000000 0.000000 -4.278349 0.000000 0.000000
# 5 0.000000 0.000000 0.000000 0.000000 0.087276 0.000000
# 6 0.000000 0.000000 0.000000 0.000000 0.000000 0.027470
#
#
# Mechanical properties :
#
#
# Convention : Reuss Voigt Hill
#
# Bulk Modulus (GPa) = 46.65446 48.65757 47.65601
# Shear Modulus (GPa) = -1.21489 26.94773 12.86642
#
# Velocity S-wave (km/s) = -0.75464 3.55413 2.45585
# Velocity P-wave (km/s) = 4.59458 6.29690 5.51186
#
# Compressibility (1/GPa) = 0.02143418
#
# Stress axis : x y z
#
# Youngs Moduli (GPa) = 85.12832 89.83094 120.86616
#
# Poissons Ratio (x) = 0.13004 0.34089
# Poissons Ratio (y) = 0.12323 0.07146
# Poissons Ratio (z) = 0.24010 0.05311
#
# Static dielectric constant tensor:
#      x y z
#    x 1.758120 0.000000 0.000000 
#    y 0.000000 1.390920 0.000000 
#    z 0.000000 0.000000 1.707380 
# 
# From -- ./inp_files/19403.got.cif
#   From: 2010.05.17/outbox.cif.g08.bks.cpg/sg50_10_cif.got.tgz:19403.got - 2010.06.03 11:33:33.
