data_PCOD9397551
_publ_section_title
;
Structure prediction by ZEFSAII (Michael W. Deem and Ramdas Pophale) SiO2 
 PCOD9397551
Probable space group: P B A N
;
_chemical_formula_sum "Si O2"
_cell_formula_units_Z 56
_cell_length_a 15.186766
_cell_length_b 18.190851
_cell_length_c 9.479224
_cell_angle_alpha 90.000000
_cell_angle_beta 90.000000
_cell_angle_gamma 90.000000
_cell_volume 2618.732294
_symmetry_space_group_name_H-M "P B A N"
_symmetry_group_IT_number 50
_space_group.IT_coordinate_system_code '2'
_symmetry_cell_setting 'orthorhombic'
loop_
_space_group_symop_operation_xyz
x,y,z
1/2-x,1/2-y,z
x,1/2-y,-z
1/2-x,y,-z
-x,-y,-z
1/2+x,1/2+y,-z
-x,1/2+y,z
1/2+x,-y,z
loop_
_atom_site_type_symbol
_atom_site_label
_atom_site_fract_x
_atom_site_fract_y
_atom_site_fract_z
Si Si1 0.415814 0.202344 0.296814
Si Si2 0.719531 0.893173 0.856845
Si Si3 0.481132 0.404840 0.498777
Si Si4 0.153625 0.534444 0.428817
Si Si5 0.972215 0.166699 0.970607
Si Si6 0.097273 0.130914 0.221127
Si Si7 0.166221 0.553903 0.098674
O O1 0.330131 0.158605 0.248391
O O2 0.450365 0.172870 0.443706
O O3 0.392346 0.286958 0.280620
O O4 0.490959 0.174319 0.186682
O O5 0.812472 0.914102 0.786269
O O6 0.663752 0.964657 0.900588
O O7 0.750000 0.853348 0.000000
O O8 0.411461 0.462151 0.570159
O O9 0.585722 0.415033 0.518852
O O10 0.465952 0.410072 0.330630
O O11 0.250000 0.523355 0.500000
O O12 0.168266 0.566023 0.269309
O O13 0.907607 0.101991 0.020231
O O14 0.055297 0.148613 0.070460
O O15 0.937632 0.250000 0.000000
O O16 0.250000 0.570865 0.000000
#
# Coordination Sequence:
#
# PCOD9397551 Si02
#       7
#     8   8   8   8   8   8   8
#     4  11  23  39  64  99 130 177 226 272 344 415
#     4  11  22  39  61  99 133 170 221 278 339 405
#     4  11  24  42  65  95 133 179 221 277 340 415
#     4  11  24  44  65  94 136 174 222 284 345 402
#     4  10  23  43  67  95 130 171 220 280 339 401
#     4  11  22  41  67  91 136 178 219 280 339 409
#     4  11  24  43  67  98 128 172 225 278 337 408
#
# _framework density 21.384391999999998
#
# number of rings (size 3 to 8) (size 9 to 14) (size 15 to 20)
#    0.000    1.143    4.286    1.714    2.000    1.429 
#    2.571    1.429    0.000    1.714    0.000    0.000 
#    0.000    0.000    0.000    0.000    0.000    0.000 
#
# Total GULP energy -311833.074884 kJ/mol
# GULP energy per Si atom -5568.447766 kJ/mol
# Density = 2.133572 g / cm^3
# Si number density = 21.384392 Si / 1000 Ang^3
#
#
#
# Elastic Constant Matrix: (Units=GPa)
#
#
# Indices 1 2 3 4 5 6 
#
# 1 111.3796 39.7287 25.8436 0.0000 0.0000 0.0000
# 2 39.7287 81.9226 6.2649 0.0000 0.0000 0.0000
# 3 25.8436 6.2649 90.8136 0.0000 0.0000 0.0000
# 4 0.0000 0.0000 0.0000 22.5384 0.0000 0.0000
# 5 0.0000 0.0000 0.0000 0.0000 26.2259 0.0000
# 6 0.0000 0.0000 0.0000 0.0000 0.0000 16.6357
#
#
#
# Elastic Compliance Matrix: (Units=1/GPa)
#
#
# Indices 1 2 3 4 5 6 
#
# 1 0.011580 -0.005392 -0.002923 0.000000 0.000000 0.000000
# 2 -0.005392 0.014782 0.000515 0.000000 0.000000 0.000000
# 3 -0.002923 0.000515 0.011808 0.000000 0.000000 0.000000
# 4 0.000000 0.000000 0.000000 0.044369 0.000000 0.000000
# 5 0.000000 0.000000 0.000000 0.000000 0.038130 0.000000
# 6 0.000000 0.000000 0.000000 0.000000 0.000000 0.060112
#
#
# Mechanical properties :
#
#
# Convention : Reuss Voigt Hill
#
# Bulk Modulus (GPa) = 44.30963 47.53225 45.92094
# Shear Modulus (GPa) = 24.52113 27.23189 25.87651
#
# Velocity S-wave (km/s) = 3.38995 3.57241 3.48237
# Velocity P-wave (km/s) = 6.00732 6.26833 6.13921
#
# Compressibility (1/GPa) = 0.02256846
#
# Stress axis : x y z
#
# Youngs Moduli (GPa) = 86.35555 67.64860 84.68825
#
# Poissons Ratio (x) = 0.36478 0.24758
# Poissons Ratio (y) = 0.46565 -0.04359
# Poissons Ratio (z) = 0.25246 -0.03482
#
# Static dielectric constant tensor:
#      x y z
#    x 1.817700 0.000000 0.000000 
#    y 0.000000 1.818520 0.000000 
#    z 0.000000 0.000000 1.820910 
# 
# From -- ./inp_files/13307.got.cif
#   From: 2010.05.17/outbox.cif.g08.bks.cpg/sg50_7_cif.got.tgz:13307.got - 2010.06.03 11:33:33.
