data_PCOD9397810
_publ_section_title
;
Structure prediction by ZEFSAII (Michael W. Deem and Ramdas Pophale) SiO2 
 PCOD9397810
Probable space group: P B A N
;
_chemical_formula_sum "Si O2"
_cell_formula_units_Z 34
_cell_length_a 20.415930
_cell_length_b 14.093820
_cell_length_c 4.984083
_cell_angle_alpha 90.000000
_cell_angle_beta 90.000000
_cell_angle_gamma 90.000000
_cell_volume 1434.112280
_symmetry_space_group_name_H-M "P B A N"
_symmetry_group_IT_number 50
_space_group.IT_coordinate_system_code '2'
_symmetry_cell_setting 'orthorhombic'
loop_
_space_group_symop_operation_xyz
x,y,z
1/2-x,1/2-y,z
x,1/2-y,-z
1/2-x,y,-z
-x,-y,-z
1/2+x,1/2+y,-z
-x,1/2+y,z
1/2+x,-y,z
loop_
_atom_site_type_symbol
_atom_site_label
_atom_site_fract_x
_atom_site_fract_y
_atom_site_fract_z
Si Si1 0.750000 0.250000 0.000000
Si Si2 0.451914 0.111133 0.735969
Si Si3 0.345240 0.904551 0.076139
Si Si4 0.176685 0.462887 0.573001
Si Si5 0.026043 0.616959 0.769729
O O1 0.703242 0.320627 0.161554
O O2 0.377278 0.116817 0.639721
O O3 0.465358 0.997300 0.749629
O O4 0.505406 0.148584 0.525448
O O5 0.466277 0.143171 0.035489
O O6 0.353572 0.973303 0.330507
O O7 0.408824 0.858492 0.934965
O O8 0.317280 0.969843 0.834932
O O9 0.250000 0.431603 0.500000
#
# Coordination Sequence:
#
# PCOD9397810 Si02
#       5
#     2   8   8   8   8
#     4  12  24  38  44  66  88 142 158 206 208 256
#     4   9  16  27  48  62  86 102 145 182 240 266
#     4  11  22  32  47  57  90 119 167 187 224 246
#     4  11  19  32  44  68  88 120 143 192 225 285
#     4   9  16  29  43  66  76 112 146 193 217 274
#
# _framework density 23.708044000000001
#
# number of rings (size 3 to 8) (size 9 to 14) (size 15 to 20)
#    0.000    1.882    2.353    7.059    0.000    1.882 
#    0.000    0.000    0.000    0.000    0.000    0.000 
#    0.000    0.000    0.000    6.353    0.000    0.000 
#
# Total GULP energy -189752.193814 kJ/mol
# GULP energy per Si atom -5580.946877 kJ/mol
# Density = 2.365408 g / cm^3
# Si number density = 23.708044 Si / 1000 Ang^3
#
#
#
# Elastic Constant Matrix: (Units=GPa)
#
#
# Indices 1 2 3 4 5 6 
#
# 1 145.2197 -8.2087 18.8060 0.0000 0.0000 0.0000
# 2 -8.2087 45.6263 -18.5543 0.0000 0.0000 0.0000
# 3 18.8060 -18.5543 114.8042 0.0000 0.0000 0.0000
# 4 0.0000 0.0000 0.0000 -12.2833 0.0000 0.0000
# 5 0.0000 0.0000 0.0000 0.0000 33.4561 0.0000
# 6 0.0000 0.0000 0.0000 0.0000 0.0000 7.7850
#
#
#
# Elastic Compliance Matrix: (Units=1/GPa)
#
#
# Indices 1 2 3 4 5 6 
#
# 1 0.007067 0.000857 -0.001019 0.000000 0.000000 0.000000
# 2 0.000857 0.023563 0.003668 0.000000 0.000000 0.000000
# 3 -0.001019 0.003668 0.009470 0.000000 0.000000 0.000000
# 4 0.000000 0.000000 0.000000 -0.081411 0.000000 0.000000
# 5 0.000000 0.000000 0.000000 0.000000 0.029890 0.000000
# 6 0.000000 0.000000 0.000000 0.000000 0.000000 0.128451
#
#
# Mechanical properties :
#
#
# Convention : Reuss Voigt Hill
#
# Bulk Modulus (GPa) = 21.22652 32.19293 26.70972
# Shear Modulus (GPa) = 39.77031 26.69871 33.23451
#
# Velocity S-wave (km/s) = 4.10018 3.35945 3.74816
# Velocity P-wave (km/s) = 5.60250 5.35315 5.47924
#
# Compressibility (1/GPa) = 0.04711089
#
# Stress axis : x y z
#
# Youngs Moduli (GPa) = 141.51222 42.43964 105.59451
#
# Poissons Ratio (x) = -0.03637 0.10761
# Poissons Ratio (y) = -0.12127 -0.38730
# Poissons Ratio (z) = 0.14421 -0.15566
#
# Static dielectric constant tensor:
#      x y z
#    x 2.021320 0.000000 0.000000 
#    y 0.000000 1.931430 0.000000 
#    z 0.000000 0.000000 1.634810 
# 
# From -- ./inp_files/5948.got.cif
#   From: 2010.05.17/outbox.cif.g08.bks.cpg/sg50_3_cif.got.tgz:5948.got - 2010.06.03 11:33:33.
