data_PCOD9397215
_publ_section_title
;
Structure prediction by ZEFSAII (Michael W. Deem and Ramdas Pophale) SiO2 
 PCOD9397215
Probable space group: P B A N
;
_chemical_formula_sum "Si O2"
_cell_formula_units_Z 26
_cell_length_a 11.754179
_cell_length_b 4.842907
_cell_length_c 19.630008
_cell_angle_alpha 90.000000
_cell_angle_beta 90.000000
_cell_angle_gamma 90.000000
_cell_volume 1117.426344
_symmetry_space_group_name_H-M "P B A N"
_symmetry_group_IT_number 50
_space_group.IT_coordinate_system_code '2'
_symmetry_cell_setting 'orthorhombic'
loop_
_space_group_symop_operation_xyz
x,y,z
1/2-x,1/2-y,z
x,1/2-y,-z
1/2-x,y,-z
-x,-y,-z
1/2+x,1/2+y,-z
-x,1/2+y,z
1/2+x,-y,z
loop_
_atom_site_type_symbol
_atom_site_label
_atom_site_fract_x
_atom_site_fract_y
_atom_site_fract_z
Si Si1 0.750000 0.750000 0.000000
Si Si2 0.927544 0.706531 0.423622
Si Si3 0.250000 0.250000 0.689429
Si Si4 0.750000 0.250000 0.785118
Si Si5 0.917938 0.408556 0.903364
O O1 0.672722 0.546044 0.045667
O O2 0.881630 0.750000 0.500000
O O3 0.851192 0.813750 0.362537
O O4 0.957006 0.384894 0.418938
O O5 0.211715 0.501253 0.737011
O O6 0.849087 0.378877 0.832597
O O7 0.028155 0.605441 0.911036
#
# Coordination Sequence:
#
# PCOD9397215 Si02
#       5
#     2   8   4   4   8
#     4  12  26  50  80 114 136 174 242 286 344 438
#     4  10  22  40  64  96 131 172 229 290 347 408
#     4  12  24  42  68  94 134 184 228 284 342 404
#     4  12  28  45  65 102 140 180 236 276 332 432
#     4  12  27  48  74 103 142 182 222 285 350 408
#
# _framework density 23.267751000000001
#
# number of rings (size 3 to 8) (size 9 to 14) (size 15 to 20)
#    0.000    0.615    0.000    7.846    0.000   11.692 
#    0.000    6.154    0.000    0.000    0.000    0.000 
#    0.000    0.000    0.000    0.000    0.000    0.000 
#
# Total GULP energy -145371.192785 kJ/mol
# GULP energy per Si atom -5591.199722 kJ/mol
# Density = 2.321479 g / cm^3
# Si number density = 23.267751 Si / 1000 Ang^3
#
#
#
# Elastic Constant Matrix: (Units=GPa)
#
#
# Indices 1 2 3 4 5 6 
#
# 1 75.1089 10.9273 59.2074 0.0000 0.0000 0.0000
# 2 10.9273 121.7523 53.0858 0.0000 0.0000 0.0000
# 3 59.2074 53.0858 168.5836 0.0000 0.0000 0.0000
# 4 0.0000 0.0000 0.0000 33.9848 0.0000 0.0000
# 5 0.0000 0.0000 0.0000 0.0000 -5.6328 0.0000
# 6 0.0000 0.0000 0.0000 0.0000 0.0000 28.5952
#
#
#
# Elastic Compliance Matrix: (Units=1/GPa)
#
#
# Indices 1 2 3 4 5 6 
#
# 1 0.018605 0.001367 -0.006965 0.000000 0.000000 0.000000
# 2 0.001367 0.009621 -0.003510 0.000000 0.000000 0.000000
# 3 -0.006965 -0.003510 0.009483 0.000000 0.000000 0.000000
# 4 0.000000 0.000000 0.000000 0.029425 0.000000 0.000000
# 5 0.000000 0.000000 0.000000 0.000000 -0.177531 0.000000
# 6 0.000000 0.000000 0.000000 0.000000 0.000000 0.034971
#
#
# Mechanical properties :
#
#
# Convention : Reuss Voigt Hill
#
# Bulk Modulus (GPa) = 51.29689 67.98732 59.64210
# Shear Modulus (GPa) = -98.59435 27.53773 -35.52831
#
# Velocity S-wave (km/s) = -6.51658 3.44396 -3.91184
# Velocity P-wave (km/s) = 5.87596 6.71546 2.29897
#
# Compressibility (1/GPa) = 0.01949436
#
# Stress axis : x y z
#
# Youngs Moduli (GPa) = 53.74801 103.93968 105.45216
#
# Poissons Ratio (x) = -0.14207 0.73444
# Poissons Ratio (y) = -0.07347 0.37010
# Poissons Ratio (z) = 0.37434 0.36479
#
# Static dielectric constant tensor:
#      x y z
#    x 1.881040 0.000000 0.000000 
#    y 0.000000 1.826430 0.000000 
#    z 0.000000 0.000000 1.865190 
# 
# From -- ./inp_files/29031.got.cif
#   From: 2010.05.17/outbox.cif.g08.bks.cpg/sg50_15_cif.got.tgz:29031.got - 2010.06.03 11:33:33.
