data_PCOD9397933
_publ_section_title
;
Structure prediction by ZEFSAII (Michael W. Deem and Ramdas Pophale) SiO2 
 PCOD9397933
Probable space group: P B A N
;
_chemical_formula_sum "Si O2"
_cell_formula_units_Z 40
_cell_length_a 11.863891
_cell_length_b 12.387970
_cell_length_c 12.227918
_cell_angle_alpha 90.000000
_cell_angle_beta 90.000000
_cell_angle_gamma 90.000000
_cell_volume 1797.131310
_symmetry_space_group_name_H-M "P B A N"
_symmetry_group_IT_number 50
_space_group.IT_coordinate_system_code '2'
_symmetry_cell_setting 'orthorhombic'
loop_
_space_group_symop_operation_xyz
x,y,z
1/2-x,1/2-y,z
x,1/2-y,-z
1/2-x,y,-z
-x,-y,-z
1/2+x,1/2+y,-z
-x,1/2+y,z
1/2+x,-y,z
loop_
_atom_site_type_symbol
_atom_site_label
_atom_site_fract_x
_atom_site_fract_y
_atom_site_fract_z
Si Si1 0.655082 0.959742 0.426148
Si Si2 0.006750 0.833453 0.417865
Si Si3 0.214872 0.410261 0.809953
Si Si4 0.060660 0.282732 0.172031
Si Si5 0.184400 0.652584 0.885194
O O1 0.750000 0.013392 0.500000
O O2 0.594664 0.874103 0.504623
O O3 0.706489 0.902411 0.321010
O O4 0.571646 0.055347 0.391790
O O5 0.068751 0.750000 0.500000
O O6 0.972101 0.784305 0.301376
O O7 0.116385 0.332801 0.855892
O O8 0.336967 0.366858 0.845539
O O9 0.196740 0.534706 0.835574
O O10 0.946486 0.314722 0.110564
O O11 0.250000 0.750000 0.823379
O O12 0.250000 0.644490 0.000000
#
# Coordination Sequence:
#
# PCOD9397933 Si02
#       5
#     8   8   8   8   8
#     4  11  22  36  61 100 147 197 239 279 351 417
#     4  11  22  36  61  98 147 196 236 286 341 438
#     4  11  24  44  75 110 145 193 243 312 357 450
#     4  11  24  44  74 108 147 193 250 298 374 444
#     4  11  28  52  75 104 141 191 242 321 391 439
#
# _framework density 22.257694000000001
#
# number of rings (size 3 to 8) (size 9 to 14) (size 15 to 20)
#    0.000    1.000    6.000    0.000    2.800    3.200 
#    3.600    1.000    0.000    0.000    0.000    0.000 
#    0.000    0.000    0.000    0.000    0.000    0.000 
#
# Total GULP energy -223454.392195 kJ/mol
# GULP energy per Si atom -5586.359805 kJ/mol
# Density = 2.220703 g / cm^3
# Si number density = 22.257694 Si / 1000 Ang^3
#
#
#
# Elastic Constant Matrix: (Units=GPa)
#
#
# Indices 1 2 3 4 5 6 
#
# 1 153.2377 61.2774 41.6078 0.0000 0.0000 0.0000
# 2 61.2774 144.4557 18.9101 0.0000 0.0000 0.0000
# 3 41.6078 18.9101 75.6695 0.0000 0.0000 0.0000
# 4 0.0000 0.0000 0.0000 22.3375 0.0000 0.0000
# 5 0.0000 0.0000 0.0000 0.0000 36.7535 0.0000
# 6 0.0000 0.0000 0.0000 0.0000 0.0000 10.3760
#
#
#
# Elastic Compliance Matrix: (Units=1/GPa)
#
#
# Indices 1 2 3 4 5 6 
#
# 1 0.008942 -0.003256 -0.004103 0.000000 0.000000 0.000000
# 2 -0.003256 0.008342 -0.000294 0.000000 0.000000 0.000000
# 3 -0.004103 -0.000294 0.015545 0.000000 0.000000 0.000000
# 4 0.000000 0.000000 0.000000 0.044768 0.000000 0.000000
# 5 0.000000 0.000000 0.000000 0.000000 0.027208 0.000000
# 6 0.000000 0.000000 0.000000 0.000000 0.000000 0.096377
#
#
# Mechanical properties :
#
#
# Convention : Reuss Voigt Hill
#
# Bulk Modulus (GPa) = 57.07051 68.55038 62.81045
# Shear Modulus (GPa) = 22.48912 30.66456 26.57684
#
# Velocity S-wave (km/s) = 3.18212 3.71577 3.45925
# Velocity P-wave (km/s) = 6.26080 7.01959 6.65103
#
# Compressibility (1/GPa) = 0.01752218
#
# Stress axis : x y z
#
# Youngs Moduli (GPa) = 111.83260 119.87163 64.32893
#
# Poissons Ratio (x) = 0.39030 0.26395
# Poissons Ratio (y) = 0.36413 0.01894
# Poissons Ratio (z) = 0.45887 0.03529
#
# Static dielectric constant tensor:
#      x y z
#    x 1.832770 0.000000 0.000000 
#    y 0.000000 1.871630 0.000000 
#    z 0.000000 0.000000 1.869550 
# 
# From -- ./inp_files/25785.got.cif
#   From: 2010.05.17/outbox.cif.g08.bks.cpg/sg50_13_cif.got.tgz:25785.got - 2010.06.03 11:33:33.
