data_PCOD9397725
_publ_section_title
;
Structure prediction by ZEFSAII (Michael W. Deem and Ramdas Pophale) SiO2 
 PCOD9397725
Probable space group: P B A N
;
_chemical_formula_sum "Si O2"
_cell_formula_units_Z 20
_cell_length_a 5.532345
_cell_length_b 21.743306
_cell_length_c 7.131214
_cell_angle_alpha 90.000000
_cell_angle_beta 90.000000
_cell_angle_gamma 90.000000
_cell_volume 857.824217
_symmetry_space_group_name_H-M "P B A N"
_symmetry_group_IT_number 50
_space_group.IT_coordinate_system_code '2'
_symmetry_cell_setting 'orthorhombic'
loop_
_space_group_symop_operation_xyz
x,y,z
1/2-x,1/2-y,z
x,1/2-y,-z
1/2-x,y,-z
-x,-y,-z
1/2+x,1/2+y,-z
-x,1/2+y,z
1/2+x,-y,z
loop_
_atom_site_type_symbol
_atom_site_label
_atom_site_fract_x
_atom_site_fract_y
_atom_site_fract_z
Si Si1 0.501374 0.974833 0.212199
Si Si2 0.250000 0.750000 0.000000
Si Si3 0.250000 0.250000 0.500000
Si Si4 0.123617 0.660415 0.304613
O O1 0.478683 0.901517 0.215852
O O2 0.255494 0.003123 0.295767
O O3 0.500000 0.000000 0.000000
O O4 0.298474 0.696921 0.161315
O O5 0.412083 0.206910 0.633065
O O6 0.250000 0.644122 0.500000
#
# Coordination Sequence:
#
# PCOD9397725 Si02
#       4
#     8   2   2   8
#     4  10  24  46  73 110 147 199 256 310 383 456
#     4  12  22  50  72 106 150 204 254 316 396 464
#     4  12  26  50  72 118 150 200 258 324 394 444
#     4  12  27  48  75 109 155 195 259 323 384 465
#
# _framework density 23.314800000000002
#
# number of rings (size 3 to 8) (size 9 to 14) (size 15 to 20)
#    0.000    0.800    4.000    2.400    5.600    8.800 
#    0.000    0.000    0.000    0.000    0.000    0.000 
#    0.000    0.000    0.000    0.000    0.000    0.000 
#
# Total GULP energy -111344.455714 kJ/mol
# GULP energy per Si atom -5567.222786 kJ/mol
# Density = 2.326173 g / cm^3
# Si number density = 23.314800 Si / 1000 Ang^3
#
#
#
# Elastic Constant Matrix: (Units=GPa)
#
#
# Indices 1 2 3 4 5 6 
#
# 1 133.5495 39.6225 0.9471 0.0000 0.0000 0.0000
# 2 39.6225 210.4191 45.4388 0.0000 0.0000 0.0000
# 3 0.9471 45.4388 154.8393 0.0000 0.0000 0.0000
# 4 0.0000 0.0000 0.0000 149.5905 0.0000 0.0000
# 5 0.0000 0.0000 0.0000 0.0000 -13.9765 0.0000
# 6 0.0000 0.0000 0.0000 0.0000 0.0000 117.9067
#
#
#
# Elastic Compliance Matrix: (Units=1/GPa)
#
#
# Indices 1 2 3 4 5 6 
#
# 1 0.007956 -0.001588 0.000417 0.000000 0.000000 0.000000
# 2 -0.001588 0.005391 -0.001572 0.000000 0.000000 0.000000
# 3 0.000417 -0.001572 0.006917 0.000000 0.000000 0.000000
# 4 0.000000 0.000000 0.000000 0.006685 0.000000 0.000000
# 5 0.000000 0.000000 0.000000 0.000000 -0.071549 0.000000
# 6 0.000000 0.000000 0.000000 0.000000 0.000000 0.008481
#
#
# Mechanical properties :
#
#
# Convention : Reuss Voigt Hill
#
# Bulk Modulus (GPa) = 67.66842 74.53609 71.10225
# Shear Modulus (GPa) = -194.50712 78.22410 -58.14151
#
# Velocity S-wave (km/s) = -9.14372 5.79863 -4.99917
# Velocity P-wave (km/s) = 9.07689 8.76761 1.66117
#
# Compressibility (1/GPa) = 0.01477794
#
# Stress axis : x y z
#
# Youngs Moduli (GPa) = 125.68928 185.49307 144.56781
#
# Poissons Ratio (x) = 0.29462 -0.06035
# Poissons Ratio (y) = 0.19963 0.22731
# Poissons Ratio (z) = -0.05247 0.29166
#
# Static dielectric constant tensor:
#      x y z
#    x 1.913970 0.000000 0.000000 
#    y 0.000000 1.825820 0.000000 
#    z 0.000000 0.000000 1.825460 
# 
# From -- ./inp_files/7529.got.cif
#   From: 2010.05.17/outbox.cif.g08.bks.cpg/sg50_4_cif.got.tgz:7529.got - 2010.06.03 11:33:33.
