data_PCOD9397685
_publ_section_title
;
Structure prediction by ZEFSAII (Michael W. Deem and Ramdas Pophale) SiO2 
 PCOD9397685
Probable space group: P B A N
;
_chemical_formula_sum "Si O2"
_cell_formula_units_Z 38
_cell_length_a 18.772700
_cell_length_b 15.561052
_cell_length_c 5.953340
_cell_angle_alpha 90.000000
_cell_angle_beta 90.000000
_cell_angle_gamma 90.000000
_cell_volume 1739.107308
_symmetry_space_group_name_H-M "P B A N"
_symmetry_group_IT_number 50
_space_group.IT_coordinate_system_code '2'
_symmetry_cell_setting 'orthorhombic'
loop_
_space_group_symop_operation_xyz
x,y,z
1/2-x,1/2-y,z
x,1/2-y,-z
1/2-x,y,-z
-x,-y,-z
1/2+x,1/2+y,-z
-x,1/2+y,z
1/2+x,-y,z
loop_
_atom_site_type_symbol
_atom_site_label
_atom_site_fract_x
_atom_site_fract_y
_atom_site_fract_z
Si Si1 0.999350 0.082719 0.157826
Si Si2 0.750000 0.250000 0.500000
Si Si3 0.841116 0.092755 0.332979
Si Si4 0.349589 0.070144 0.630854
Si Si5 0.636771 0.750000 0.500000
Si Si6 0.562650 0.750000 0.000000
Si Si7 0.250000 0.480207 0.000000
O O1 0.065718 0.072122 0.327224
O O2 0.016080 0.164260 0.002579
O O3 0.924699 0.098404 0.279982
O O4 0.000000 0.000000 0.000000
O O5 0.802404 0.183555 0.371467
O O6 0.832380 0.024196 0.535259
O O7 0.802409 0.042645 0.134020
O O8 0.330447 0.154159 0.487049
O O9 0.302899 0.077069 0.853712
O O10 0.600921 0.746738 0.753163
#
# Coordination Sequence:
#
# PCOD9397685 Si02
#       7
#     8   2   8   8   4   4   4
#     4  11  23  43  79 106 145 200 257 324 382 458
#     4  12  28  48  72 106 164 212 250 330 404 482
#     4  12  26  47  70 109 149 204 259 311 395 476
#     4  11  24  47  76 107 149 194 261 324 393 470
#     4  10  24  45  77 106 151 189 250 326 396 462
#     4  10  24  44  68 116 150 186 254 324 388 456
#     4  12  24  47  73 100 154 194 252 322 394 476
#
# _framework density 21.850290999999999
#
# number of rings (size 3 to 8) (size 9 to 14) (size 15 to 20)
#    0.000    0.842    4.211    1.895    2.947    8.842 
#    0.000    3.158    0.000    0.000    0.000    0.000 
#    0.000    0.000    0.000    0.000    0.000    0.000 
#
# Total GULP energy -211918.851583 kJ/mol
# GULP energy per Si atom -5576.811884 kJ/mol
# Density = 2.180056 g / cm^3
# Si number density = 21.850291 Si / 1000 Ang^3
#
#
#
# Elastic Constant Matrix: (Units=GPa)
#
#
# Indices 1 2 3 4 5 6 
#
# 1 166.5942 35.6148 43.3174 0.0000 0.0000 0.0000
# 2 35.6148 172.4671 28.0423 0.0000 0.0000 0.0000
# 3 43.3174 28.0423 80.2306 0.0000 0.0000 0.0000
# 4 0.0000 0.0000 0.0000 37.0379 0.0000 0.0000
# 5 0.0000 0.0000 0.0000 0.0000 31.6004 0.0000
# 6 0.0000 0.0000 0.0000 0.0000 0.0000 8.9408
#
#
#
# Elastic Compliance Matrix: (Units=1/GPa)
#
#
# Indices 1 2 3 4 5 6 
#
# 1 0.007111 -0.000895 -0.003526 0.000000 0.000000 0.000000
# 2 -0.000895 0.006260 -0.001705 0.000000 0.000000 0.000000
# 3 -0.003526 -0.001705 0.014964 0.000000 0.000000 0.000000
# 4 0.000000 0.000000 0.000000 0.026999 0.000000 0.000000
# 5 0.000000 0.000000 0.000000 0.000000 0.031645 0.000000
# 6 0.000000 0.000000 0.000000 0.000000 0.000000 0.111847
#
#
# Mechanical properties :
#
#
# Convention : Reuss Voigt Hill
#
# Bulk Modulus (GPa) = 62.17965 70.36011 66.26988
# Shear Modulus (GPa) = 23.10109 36.33698 29.71904
#
# Velocity S-wave (km/s) = 3.25506 4.08241 3.69198
# Velocity P-wave (km/s) = 6.53040 7.38189 6.96916
#
# Compressibility (1/GPa) = 0.01608243
#
# Stress axis : x y z
#
# Youngs Moduli (GPa) = 140.62960 159.73849 66.82753
#
# Poissons Ratio (x) = 0.14297 0.23566
# Poissons Ratio (y) = 0.12587 0.11393
# Poissons Ratio (z) = 0.49592 0.27233
#
# Static dielectric constant tensor:
#      x y z
#    x 1.841060 0.000000 0.000000 
#    y 0.000000 1.793770 0.000000 
#    z 0.000000 0.000000 1.903510 
# 
# From -- ./inp_files/4273.got.cif
#   From: 2010.05.17/outbox.cif.g08.bks.cpg/sg50_3_cif.got.tgz:4273.got - 2010.06.03 11:33:33.
