data_PCOD9397374
_publ_section_title
;
Structure prediction by ZEFSAII (Michael W. Deem and Ramdas Pophale) SiO2 
 PCOD9397374
Probable space group: P B A N
;
_chemical_formula_sum "Si O2"
_cell_formula_units_Z 34
_cell_length_a 17.958517
_cell_length_b 14.717455
_cell_length_c 5.124516
_cell_angle_alpha 90.000000
_cell_angle_beta 90.000000
_cell_angle_gamma 90.000000
_cell_volume 1354.428364
_symmetry_space_group_name_H-M "P B A N"
_symmetry_group_IT_number 50
_space_group.IT_coordinate_system_code '2'
_symmetry_cell_setting 'orthorhombic'
loop_
_space_group_symop_operation_xyz
x,y,z
1/2-x,1/2-y,z
x,1/2-y,-z
1/2-x,y,-z
-x,-y,-z
1/2+x,1/2+y,-z
-x,1/2+y,z
1/2+x,-y,z
loop_
_atom_site_type_symbol
_atom_site_label
_atom_site_fract_x
_atom_site_fract_y
_atom_site_fract_z
Si Si1 0.953199 0.597076 0.304456
Si Si2 0.125438 0.250000 0.000000
Si Si3 0.102548 0.936827 0.921828
Si Si4 0.319862 0.084437 0.310373
Si Si5 0.651861 0.250000 0.000000
Si Si6 0.250000 0.750000 0.500000
O O1 0.928101 0.694172 0.191662
O O2 0.901136 0.587474 0.553774
O O3 0.041724 0.587278 0.301557
O O4 0.927508 0.516339 0.110838
O O5 0.175744 0.172363 0.870658
O O6 0.111598 0.842972 0.076451
O O7 0.177600 0.985496 0.820653
O O8 0.250000 0.091918 0.500000
O O9 0.693176 0.283923 0.268621
#
# Coordination Sequence:
#
# PCOD9397374 Si02
#       6
#     8   4   8   8   4   2
#     4  10  22  44  68 103 143 187 244 306 367 449
#     4  10  23  43  64 102 141 189 242 306 371 449
#     4  10  24  43  71 103 144 189 250 298 374 443
#     4  11  25  42  72 104 144 193 243 308 378 449
#     4  11  25  48  74 110 147 203 248 310 378 450
#     4  10  28  46  72 102 148 184 258 306 360 454
#
# _framework density 25.102841999999999
#
# number of rings (size 3 to 8) (size 9 to 14) (size 15 to 20)
#    0.000    1.647    0.000    2.118    4.941    8.471 
#    4.235    0.000    2.588    0.000    0.000    0.000 
#    0.000    0.000    0.000    0.000    0.000    0.000 
#
# Total GULP energy -189540.697448 kJ/mol
# GULP energy per Si atom -5574.726396 kJ/mol
# Density = 2.504571 g / cm^3
# Si number density = 25.102842 Si / 1000 Ang^3
#
#
#
# Elastic Constant Matrix: (Units=GPa)
#
#
# Indices 1 2 3 4 5 6 
#
# 1 101.1359 59.0312 34.1973 0.0000 0.0000 0.0000
# 2 59.0312 201.3957 30.9678 0.0000 0.0000 0.0000
# 3 34.1973 30.9678 92.4439 0.0000 0.0000 0.0000
# 4 0.0000 0.0000 0.0000 33.4662 0.0000 0.0000
# 5 0.0000 0.0000 0.0000 0.0000 43.0100 0.0000
# 6 0.0000 0.0000 0.0000 0.0000 0.0000 -21.3540
#
#
#
# Elastic Compliance Matrix: (Units=1/GPa)
#
#
# Indices 1 2 3 4 5 6 
#
# 1 0.013049 -0.003250 -0.003738 0.000000 0.000000 0.000000
# 2 -0.003250 0.006044 -0.000823 0.000000 0.000000 0.000000
# 3 -0.003738 -0.000823 0.012476 0.000000 0.000000 0.000000
# 4 0.000000 0.000000 0.000000 0.029881 0.000000 0.000000
# 5 0.000000 0.000000 0.000000 0.000000 0.023250 0.000000
# 6 0.000000 0.000000 0.000000 0.000000 0.000000 -0.046830
#
#
# Mechanical properties :
#
#
# Convention : Reuss Voigt Hill
#
# Bulk Modulus (GPa) = 62.70672 71.48534 67.09603
# Shear Modulus (GPa) = 85.02277 29.07640 57.04959
#
# Velocity S-wave (km/s) = 5.82609 3.40706 4.77239
# Velocity P-wave (km/s) = 8.38403 6.63447 7.56003
#
# Compressibility (1/GPa) = 0.01594725
#
# Stress axis : x y z
#
# Youngs Moduli (GPa) = 76.63646 165.44222 80.15492
#
# Poissons Ratio (x) = 0.53766 0.29965
# Poissons Ratio (y) = 0.24906 0.06594
# Poissons Ratio (z) = 0.28649 0.13610
#
# Static dielectric constant tensor:
#      x y z
#    x 2.135680 0.000000 0.000000 
#    y 0.000000 1.970610 0.000000 
#    z 0.000000 0.000000 2.106740 
# 
# From -- ./inp_files/4094.got.cif
#   From: 2010.05.17/outbox.cif.g08.bks.cpg/sg50_3_cif.got.tgz:4094.got - 2010.06.03 11:33:33.
