data_PCOD9397734
_publ_section_title
;
Structure prediction by ZEFSAII (Michael W. Deem and Ramdas Pophale) SiO2 
 PCOD9397734
Probable space group: P B A N
;
_chemical_formula_sum "Si O2"
_cell_formula_units_Z 32
_cell_length_a 9.116344
_cell_length_b 12.549507
_cell_length_c 11.161510
_cell_angle_alpha 90.000000
_cell_angle_beta 90.000000
_cell_angle_gamma 90.000000
_cell_volume 1276.939503
_symmetry_space_group_name_H-M "P B A N"
_symmetry_group_IT_number 50
_space_group.IT_coordinate_system_code '2'
_symmetry_cell_setting 'orthorhombic'
loop_
_space_group_symop_operation_xyz
x,y,z
1/2-x,1/2-y,z
x,1/2-y,-z
1/2-x,y,-z
-x,-y,-z
1/2+x,1/2+y,-z
-x,1/2+y,z
1/2+x,-y,z
loop_
_atom_site_type_symbol
_atom_site_label
_atom_site_fract_x
_atom_site_fract_y
_atom_site_fract_z
Si Si1 0.610339 0.431748 0.079846
Si Si2 0.401120 0.208203 0.793955
Si Si3 0.765485 0.518814 0.667220
Si Si4 0.529312 0.350477 0.591927
O O1 0.517499 0.329829 0.112793
O O2 0.658158 0.483999 0.206982
O O3 0.750000 0.411275 0.000000
O O4 0.500000 0.500000 0.000000
O O5 0.250000 0.250000 0.847832
O O6 0.479387 0.295632 0.714609
O O7 0.348596 0.111593 0.706199
O O8 0.676202 0.417507 0.617002
O O9 0.890150 0.567772 0.578557
O O10 0.540743 0.250000 0.500000
#
# Coordination Sequence:
#
# PCOD9397734 Si02
#       4
#     8   8   8   8
#     4  12  23  47  83 117 161 220 261 338 425 466
#     4  10  24  47  79 118 165 207 277 334 401 503
#     4  11  23  51  78 117 172 196 280 348 383 505
#     4  11  26  52  83 117 160 222 267 335 424 480
#
# _framework density 25.059920000000002
#
# number of rings (size 3 to 8) (size 9 to 14) (size 15 to 20)
#    0.000    1.000    5.000    0.000    0.000    6.500 
#    4.500   26.250    0.000    0.000    0.000    0.000 
#    0.000    0.000    0.000    0.000    0.000    0.000 
#
# Total GULP energy -179326.652723 kJ/mol
# GULP energy per Si atom -5603.957898 kJ/mol
# Density = 2.500288 g / cm^3
# Si number density = 25.059920 Si / 1000 Ang^3
#
#
#
# Elastic Constant Matrix: (Units=GPa)
#
#
# Indices 1 2 3 4 5 6 
#
# 1 203.9283 110.7646 101.1502 0.0000 0.0000 0.0000
# 2 110.7646 143.6133 79.6642 0.0000 0.0000 0.0000
# 3 101.1502 79.6642 120.0504 0.0000 0.0000 0.0000
# 4 0.0000 0.0000 0.0000 38.7718 0.0000 0.0000
# 5 0.0000 0.0000 0.0000 0.0000 39.2775 0.0000
# 6 0.0000 0.0000 0.0000 0.0000 0.0000 69.2199
#
#
#
# Elastic Compliance Matrix: (Units=1/GPa)
#
#
# Indices 1 2 3 4 5 6 
#
# 1 0.010234 -0.004922 -0.005357 0.000000 0.000000 0.000000
# 2 -0.004922 0.013386 -0.004736 0.000000 0.000000 0.000000
# 3 -0.005357 -0.004736 0.015986 0.000000 0.000000 0.000000
# 4 0.000000 0.000000 0.000000 0.025792 0.000000 0.000000
# 5 0.000000 0.000000 0.000000 0.000000 0.025460 0.000000
# 6 0.000000 0.000000 0.000000 0.000000 0.000000 0.014447
#
#
# Mechanical properties :
#
#
# Convention : Reuss Voigt Hill
#
# Bulk Modulus (GPa) = 104.41559 116.75002 110.58281
# Shear Modulus (GPa) = 36.09418 41.18804 38.64111
#
# Velocity S-wave (km/s) = 3.79927 4.05851 3.93103
# Velocity P-wave (km/s) = 7.81042 8.28562 8.05153
#
# Compressibility (1/GPa) = 0.00957711
#
# Stress axis : x y z
#
# Youngs Moduli (GPa) = 97.71456 74.70328 62.55404
#
# Poissons Ratio (x) = 0.36766 0.33509
# Poissons Ratio (y) = 0.48091 0.29627
# Poissons Ratio (z) = 0.52343 0.35381
#
# Static dielectric constant tensor:
#      x y z
#    x 1.965930 0.000000 0.000000 
#    y 0.000000 2.028100 0.000000 
#    z 0.000000 0.000000 1.978680 
# 
# From -- ./inp_files/18475.got.cif
#   From: 2010.05.17/outbox.cif.g08.bks.cpg/sg50_10_cif.got.tgz:18475.got - 2010.06.03 11:33:33.
