data_PCOD9397165
_publ_section_title
;
Structure prediction by ZEFSAII (Michael W. Deem and Ramdas Pophale) SiO2 
 PCOD9397165
Probable space group: P B A N
;
_chemical_formula_sum "Si O2"
_cell_formula_units_Z 30
_cell_length_a 4.879158
_cell_length_b 11.478054
_cell_length_c 21.694399
_cell_angle_alpha 90.000000
_cell_angle_beta 90.000000
_cell_angle_gamma 90.000000
_cell_volume 1214.956612
_symmetry_space_group_name_H-M "P B A N"
_symmetry_group_IT_number 50
_space_group.IT_coordinate_system_code '2'
_symmetry_cell_setting 'orthorhombic'
loop_
_space_group_symop_operation_xyz
x,y,z
1/2-x,1/2-y,z
x,1/2-y,-z
1/2-x,y,-z
-x,-y,-z
1/2+x,1/2+y,-z
-x,1/2+y,z
1/2+x,-y,z
loop_
_atom_site_type_symbol
_atom_site_label
_atom_site_fract_x
_atom_site_fract_y
_atom_site_fract_z
Si Si1 0.750000 0.750000 0.500000
Si Si2 0.442895 0.086031 0.395690
Si Si3 0.631849 0.421821 0.063018
Si Si4 0.750000 0.250000 0.698033
Si Si5 0.699745 0.077861 0.800600
O O1 0.568719 0.835210 0.542798
O O2 0.541176 0.176135 0.343528
O O3 0.649242 0.976536 0.392505
O O4 0.315499 0.459215 0.062949
O O5 0.669934 0.370723 0.130759
O O6 0.750000 0.367432 0.000000
O O7 0.611851 0.160344 0.745381
O O8 0.512290 0.963171 0.795792
#
# Coordination Sequence:
#
# PCOD9397165 Si02
#       5
#     2   8   8   4   8
#     4  12  28  54  84 112 140 182 226 282 348 420
#     4  12  28  49  75 108 143 179 225 278 339 412
#     4   8  14  28  52  81 117 164 217 278 343 396
#     4  12  26  45  69 100 138 186 226 276 340 408
#     4  10  22  39  61  92 130 175 229 283 339 406
#
# _framework density 24.692243000000001
#
# number of rings (size 3 to 8) (size 9 to 14) (size 15 to 20)
#    0.000    1.600    0.000    4.000    0.000    9.067 
#    0.000    0.667    0.000    0.000    0.000   18.667 
#    0.000    0.000    0.000    0.000    0.000    0.000 
#
# Total GULP energy -167570.035720 kJ/mol
# GULP energy per Si atom -5585.667857 kJ/mol
# Density = 2.463604 g / cm^3
# Si number density = 24.692243 Si / 1000 Ang^3
#
#
#
# Elastic Constant Matrix: (Units=GPa)
#
#
# Indices 1 2 3 4 5 6 
#
# 1 60.9575 -6.6424 14.3693 0.0000 0.0000 0.0000
# 2 -6.6424 93.4129 69.4225 0.0000 0.0000 0.0000
# 3 14.3693 69.4225 231.6928 0.0000 0.0000 0.0000
# 4 0.0000 0.0000 0.0000 129.8615 0.0000 0.0000
# 5 0.0000 0.0000 0.0000 0.0000 35.2086 0.0000
# 6 0.0000 0.0000 0.0000 0.0000 0.0000 15.1071
#
#
#
# Elastic Compliance Matrix: (Units=1/GPa)
#
#
# Indices 1 2 3 4 5 6 
#
# 1 0.017119 0.002581 -0.001835 0.000000 0.000000 0.000000
# 2 0.002581 0.014161 -0.004403 0.000000 0.000000 0.000000
# 3 -0.001835 -0.004403 0.005749 0.000000 0.000000 0.000000
# 4 0.000000 0.000000 0.000000 0.007701 0.000000 0.000000
# 5 0.000000 0.000000 0.000000 0.000000 0.028402 0.000000
# 6 0.000000 0.000000 0.000000 0.000000 0.000000 0.066194
#
#
# Mechanical properties :
#
#
# Convention : Reuss Voigt Hill
#
# Bulk Modulus (GPa) = 33.65353 60.04021 46.84687
# Shear Modulus (GPa) = 31.93976 56.62970 44.28473
#
# Velocity S-wave (km/s) = 3.60045 4.79416 4.23953
# Velocity P-wave (km/s) = 5.56265 7.41711 6.55578
#
# Compressibility (1/GPa) = 0.02971457
#
# Stress axis : x y z
#
# Youngs Moduli (GPa) = 58.41572 70.61633 173.93746
#
# Poissons Ratio (x) = -0.18226 0.31918
# Poissons Ratio (y) = -0.15077 0.76587
# Poissons Ratio (z) = 0.10719 0.31094
#
# Static dielectric constant tensor:
#      x y z
#    x 2.584090 0.000000 0.000000 
#    y 0.000000 2.089670 0.000000 
#    z 0.000000 0.000000 1.994880 
# 
# From -- ./inp_files/30164.got.cif
#   From: 2010.05.17/outbox.cif.g08.bks.cpg/sg50_16_cif.got.tgz:30164.got - 2010.06.03 11:33:33.
