data_PCOD9397982
_publ_section_title
;
Structure prediction by ZEFSAII (Michael W. Deem and Ramdas Pophale) SiO2 
 PCOD9397982
Probable space group: P B A N
;
_chemical_formula_sum "Si O2"
_cell_formula_units_Z 40
_cell_length_a 17.542324
_cell_length_b 8.058587
_cell_length_c 12.388229
_cell_angle_alpha 90.000000
_cell_angle_beta 90.000000
_cell_angle_gamma 90.000000
_cell_volume 1751.278644
_symmetry_space_group_name_H-M "P B A N"
_symmetry_group_IT_number 50
_space_group.IT_coordinate_system_code '2'
_symmetry_cell_setting 'orthorhombic'
loop_
_space_group_symop_operation_xyz
x,y,z
1/2-x,1/2-y,z
x,1/2-y,-z
1/2-x,y,-z
-x,-y,-z
1/2+x,1/2+y,-z
-x,1/2+y,z
1/2+x,-y,z
loop_
_atom_site_type_symbol
_atom_site_label
_atom_site_fract_x
_atom_site_fract_y
_atom_site_fract_z
Si Si1 0.664433 0.449832 0.481863
Si Si2 0.584118 0.986320 0.302363
Si Si3 0.331957 0.334195 0.107020
Si Si4 0.086863 0.560936 0.023077
Si Si5 0.410388 0.615524 0.734952
O O1 0.662425 0.250000 0.500000
O O2 0.750000 0.508757 0.500000
O O3 0.611375 0.527495 0.574024
O O4 0.639555 0.466811 0.358781
O O5 0.628634 0.862118 0.221530
O O6 0.496849 0.935555 0.290188
O O7 0.595231 0.182173 0.270021
O O8 0.250000 0.250000 0.116003
O O9 0.373292 0.250000 0.000000
O O10 0.342312 0.514151 0.054609
O O11 0.108470 0.540784 0.148330
O O12 0.075702 0.750000 0.000000
O O13 0.000000 0.500000 0.000000
#
# Coordination Sequence:
#
# PCOD9397982 Si02
#       5
#     8   8   8   8   8
#     4   9  21  42  67  98 139 187 235 293 369 434
#     4  11  23  43  70 104 138 184 243 299 364 440
#     4  11  26  44  65  98 147 192 236 304 373 437
#     4  12  22  41  72 108 142 188 249 305 376 451
#     4  11  22  40  76 105 139 184 241 307 357 446
#
# _framework density 22.840453
#
# number of rings (size 3 to 8) (size 9 to 14) (size 15 to 20)
#    0.000    1.200    4.000    1.200    2.800    3.200 
#    0.000    2.000    0.000    0.000    0.000    0.000 
#    0.000    0.000    0.000    0.000    0.000    0.000 
#
# Total GULP energy -223096.876985 kJ/mol
# GULP energy per Si atom -5577.421925 kJ/mol
# Density = 2.278847 g / cm^3
# Si number density = 22.840453 Si / 1000 Ang^3
#
#
#
# Elastic Constant Matrix: (Units=GPa)
#
#
# Indices 1 2 3 4 5 6 
#
# 1 132.6450 22.2686 61.0760 0.0000 0.0000 0.0000
# 2 22.2686 53.8710 11.5703 0.0000 0.0000 0.0000
# 3 61.0760 11.5703 196.1378 0.0000 0.0000 0.0000
# 4 0.0000 0.0000 0.0000 32.5613 0.0000 0.0000
# 5 0.0000 0.0000 0.0000 0.0000 62.1874 0.0000
# 6 0.0000 0.0000 0.0000 0.0000 0.0000 24.2515
#
#
#
# Elastic Compliance Matrix: (Units=1/GPa)
#
#
# Indices 1 2 3 4 5 6 
#
# 1 0.009339 -0.003277 -0.002715 0.000000 0.000000 0.000000
# 2 -0.003277 0.019951 -0.000156 0.000000 0.000000 0.000000
# 3 -0.002715 -0.000156 0.005953 0.000000 0.000000 0.000000
# 4 0.000000 0.000000 0.000000 0.030711 0.000000 0.000000
# 5 0.000000 0.000000 0.000000 0.000000 0.016080 0.000000
# 6 0.000000 0.000000 0.000000 0.000000 0.000000 0.041235
#
#
# Mechanical properties :
#
#
# Convention : Reuss Voigt Hill
#
# Bulk Modulus (GPa) = 43.58019 63.60930 53.59475
# Shear Modulus (GPa) = 34.91238 42.98265 38.94751
#
# Velocity S-wave (km/s) = 3.91389 4.34275 4.13389
# Velocity P-wave (km/s) = 6.28859 7.28395 6.80449
#
# Compressibility (1/GPa) = 0.02294620
#
# Stress axis : x y z
#
# Youngs Moduli (GPa) = 107.07591 50.12224 167.98101
#
# Poissons Ratio (x) = 0.16427 0.45604
# Poissons Ratio (y) = 0.35093 0.02627
# Poissons Ratio (z) = 0.29069 0.00784
#
# Static dielectric constant tensor:
#      x y z
#    x 1.470650 0.000000 0.000000 
#    y 0.000000 2.469580 0.000000 
#    z 0.000000 0.000000 1.924110 
# 
# From -- ./inp_files/21604.got.cif
#   From: 2010.05.17/outbox.cif.g08.bks.cpg/sg50_11_cif.got.tgz:21604.got - 2010.06.03 11:33:33.
