data_PCOD9397290
_publ_section_title
;
Structure prediction by ZEFSAII (Michael W. Deem and Ramdas Pophale) SiO2 
 PCOD9397290
Probable space group: P B A N
;
_chemical_formula_sum "Si O2"
_cell_formula_units_Z 32
_cell_length_a 5.346337
_cell_length_b 16.958542
_cell_length_c 16.016048
_cell_angle_alpha 90.000000
_cell_angle_beta 90.000000
_cell_angle_gamma 90.000000
_cell_volume 1452.112298
_symmetry_space_group_name_H-M "P B A N"
_symmetry_group_IT_number 50
_space_group.IT_coordinate_system_code '2'
_symmetry_cell_setting 'orthorhombic'
loop_
_space_group_symop_operation_xyz
x,y,z
1/2-x,1/2-y,z
x,1/2-y,-z
1/2-x,y,-z
-x,-y,-z
1/2+x,1/2+y,-z
-x,1/2+y,z
1/2+x,-y,z
loop_
_atom_site_type_symbol
_atom_site_label
_atom_site_fract_x
_atom_site_fract_y
_atom_site_fract_z
Si Si1 0.013747 0.703210 0.141825
Si Si2 0.023437 0.032461 0.093984
Si Si3 0.732893 0.340584 0.322768
Si Si4 0.242866 0.153925 0.598531
O O1 0.750000 0.750000 0.155930
O O2 0.948028 0.625680 0.090496
O O3 0.250000 0.750000 0.103096
O O4 0.140731 0.671408 0.227775
O O5 0.264160 0.993372 0.135691
O O6 0.000000 0.000000 0.000000
O O7 0.750000 0.250000 0.355834
O O8 0.499616 0.380948 0.366470
O O9 0.001956 0.374019 0.348438
O O10 0.250000 0.250000 0.609832
O O11 0.250000 0.139247 0.500000
#
# Coordination Sequence:
#
# PCOD9397290 Si02
#       4
#     8   8   8   8
#     4  11  21  36  59  86 114 150 197 246 298 352
#     4  10  22  42  61  83 117 152 187 241 303 359
#     4   9  16  26  41  67 102 137 180 228 271 324
#     4   9  15  23  37  61 100 146 180 210 267 337
#
# _framework density 22.036864000000001
#
# number of rings (size 3 to 8) (size 9 to 14) (size 15 to 20)
#    0.000    2.250    0.000    6.000    0.000    3.000 
#    0.000   15.000    0.000    0.000    0.000    0.000 
#    0.000   20.000    0.000    0.000    0.000   32.500 
#
# Total GULP energy -178206.055521 kJ/mol
# GULP energy per Si atom -5568.939235 kJ/mol
# Density = 2.198671 g / cm^3
# Si number density = 22.036864 Si / 1000 Ang^3
#
#
#
# Elastic Constant Matrix: (Units=GPa)
#
#
# Indices 1 2 3 4 5 6 
#
# 1 209.3014 43.0023 57.4841 0.0000 0.0000 0.0000
# 2 43.0023 66.9227 26.8796 0.0000 0.0000 0.0000
# 3 57.4841 26.8796 63.8290 0.0000 0.0000 0.0000
# 4 0.0000 0.0000 0.0000 -14.7900 0.0000 0.0000
# 5 0.0000 0.0000 0.0000 0.0000 -19.6612 0.0000
# 6 0.0000 0.0000 0.0000 0.0000 0.0000 18.6464
#
#
#
# Elastic Compliance Matrix: (Units=1/GPa)
#
#
# Indices 1 2 3 4 5 6 
#
# 1 0.006615 -0.002236 -0.005016 0.000000 0.000000 0.000000
# 2 -0.002236 0.018740 -0.005878 0.000000 0.000000 0.000000
# 3 -0.005016 -0.005878 0.022659 0.000000 0.000000 0.000000
# 4 0.000000 0.000000 0.000000 -0.067613 0.000000 0.000000
# 5 0.000000 0.000000 0.000000 0.000000 -0.050862 0.000000
# 6 0.000000 0.000000 0.000000 0.000000 0.000000 0.053630
#
#
# Mechanical properties :
#
#
# Convention : Reuss Voigt Hill
#
# Bulk Modulus (GPa) = 45.96679 66.08723 56.02701
# Shear Modulus (GPa) = 299.76138 11.01821 155.38980
#
# Velocity S-wave (km/s) = 11.67572 2.23847 8.40635
# Velocity P-wave (km/s) = 14.23614 6.06098 10.94082
#
# Compressibility (1/GPa) = 0.02175484
#
# Stress axis : x y z
#
# Youngs Moduli (GPa) = 151.17878 53.36089 44.13195
#
# Poissons Ratio (x) = 0.11931 0.22135
# Poissons Ratio (y) = 0.33801 0.25942
# Poissons Ratio (z) = 0.75825 0.31367
#
# Static dielectric constant tensor:
#      x y z
#    x 1.883900 0.000000 0.000000 
#    y 0.000000 1.817230 0.000000 
#    z 0.000000 0.000000 1.836550 
# 
# From -- ./inp_files/27899.got.cif
#   From: 2010.05.17/outbox.cif.g08.bks.cpg/sg50_14_cif.got.tgz:27899.got - 2010.06.03 11:33:33.
