data_PCOD9397261
_publ_section_title
;
Structure prediction by ZEFSAII (Michael W. Deem and Ramdas Pophale) SiO2 
 PCOD9397261
Probable space group: P B A N
;
_chemical_formula_sum "Si O2"
_cell_formula_units_Z 60
_cell_length_a 20.713216
_cell_length_b 13.743196
_cell_length_c 10.810650
_cell_angle_alpha 90.000000
_cell_angle_beta 90.000000
_cell_angle_gamma 90.000000
_cell_volume 3077.422193
_symmetry_space_group_name_H-M "P B A N"
_symmetry_group_IT_number 50
_space_group.IT_coordinate_system_code '2'
_symmetry_cell_setting 'orthorhombic'
loop_
_space_group_symop_operation_xyz
x,y,z
1/2-x,1/2-y,z
x,1/2-y,-z
1/2-x,y,-z
-x,-y,-z
1/2+x,1/2+y,-z
-x,1/2+y,z
1/2+x,-y,z
loop_
_atom_site_type_symbol
_atom_site_label
_atom_site_fract_x
_atom_site_fract_y
_atom_site_fract_z
Si Si1 0.250256 0.642789 0.801894
Si Si2 0.250000 0.016193 0.000000
Si Si3 0.910932 0.947028 0.733059
Si Si4 0.684670 0.068914 0.430125
Si Si5 0.623758 0.633034 0.000305
Si Si6 0.535349 0.926213 0.776923
Si Si7 0.885380 0.391843 0.678706
Si Si8 0.004451 0.228669 0.356783
O O1 0.250000 0.750000 0.857112
O O2 0.208846 0.643489 0.675092
O O3 0.323220 0.617490 0.764350
O O4 0.227093 0.557634 0.892357
O O5 0.191073 0.084152 0.957159
O O6 0.886272 0.901207 0.860118
O O7 0.948431 0.862729 0.659916
O O8 0.855173 0.989216 0.645939
O O9 0.963346 0.029360 0.770550
O O10 0.750000 0.033631 0.500000
O O11 0.639065 0.110662 0.537174
O O12 0.625800 0.750000 0.000000
O O13 0.566543 0.593441 0.088668
O O14 0.532813 0.823179 0.708609
O O15 0.579641 0.005807 0.707148
O O16 0.936789 0.306630 0.701208
O O17 0.994478 0.250000 0.500000
#
# Coordination Sequence:
#
# PCOD9397261 Si02
#       8
#     8   4   8   8   8   8   8   8
#     4  11  24  40  65  97 128 173 213 268 323 390
#     4  12  24  46  68  90 128 170 222 274 326 380
#     4  11  23  42  65  96 129 172 215 271 333 384
#     4  10  22  41  65  94 133 173 213 268 327 393
#     4  12  24  45  69  93 123 170 224 276 328 385
#     4  11  23  42  66  95 133 170 217 271 326 388
#     4  10  23  40  63  96 132 168 215 259 331 389
#     4  11  23  38  66  94 130 171 213 267 319 399
#
# _framework density 19.496836999999999
#
# number of rings (size 3 to 8) (size 9 to 14) (size 15 to 20)
#    0.000    1.067    4.000    2.400    3.733    4.000 
#    0.000    0.000    0.000    2.400    0.000    0.000 
#    0.000    0.000    0.000    0.000    0.000    0.000 
#
# Total GULP energy -335211.580697 kJ/mol
# GULP energy per Si atom -5586.859678 kJ/mol
# Density = 1.945246 g / cm^3
# Si number density = 19.496837 Si / 1000 Ang^3
#
#
#
# Elastic Constant Matrix: (Units=GPa)
#
#
# Indices 1 2 3 4 5 6 
#
# 1 72.8479 42.3746 20.1665 0.0000 0.0000 0.0000
# 2 42.3746 108.2654 24.6562 0.0000 0.0000 0.0000
# 3 20.1665 24.6562 67.3864 0.0000 0.0000 0.0000
# 4 0.0000 0.0000 0.0000 18.3134 0.0000 0.0000
# 5 0.0000 0.0000 0.0000 0.0000 27.8410 0.0000
# 6 0.0000 0.0000 0.0000 0.0000 0.0000 19.4992
#
#
#
# Elastic Compliance Matrix: (Units=1/GPa)
#
#
# Indices 1 2 3 4 5 6 
#
# 1 0.018358 -0.006473 -0.003125 0.000000 0.000000 0.000000
# 2 -0.006473 0.012359 -0.002585 0.000000 0.000000 0.000000
# 3 -0.003125 -0.002585 0.016721 0.000000 0.000000 0.000000
# 4 0.000000 0.000000 0.000000 0.054605 0.000000 0.000000
# 5 0.000000 0.000000 0.000000 0.000000 0.035918 0.000000
# 6 0.000000 0.000000 0.000000 0.000000 0.000000 0.051284
#
#
# Mechanical properties :
#
#
# Convention : Reuss Voigt Hill
#
# Bulk Modulus (GPa) = 43.34520 46.98826 45.16673
# Shear Modulus (GPa) = 22.59354 23.88421 23.23887
#
# Velocity S-wave (km/s) = 3.40785 3.50384 3.45618
# Velocity P-wave (km/s) = 6.14531 6.36569 6.25647
#
# Compressibility (1/GPa) = 0.02307060
#
# Stress axis : x y z
#
# Youngs Moduli (GPa) = 54.47234 80.91339 59.80562
#
# Poissons Ratio (x) = 0.52379 0.18691
# Poissons Ratio (y) = 0.35262 0.15458
# Poissons Ratio (z) = 0.17024 0.20914
#
# Static dielectric constant tensor:
#      x y z
#    x 1.699810 0.000000 0.000000 
#    y 0.000000 1.656230 0.000000 
#    z 0.000000 0.000000 1.674070 
# 
# From -- ./inp_files/22433.got.cif
#   From: 2010.05.17/outbox.cif.g08.bks.cpg/sg50_12_cif.got.tgz:22433.got - 2010.06.03 11:33:33.
