data_PCOD9397817
_publ_section_title
;
Structure prediction by ZEFSAII (Michael W. Deem and Ramdas Pophale) SiO2 
 PCOD9397817
Probable space group: P B A N
;
_chemical_formula_sum "Si O2"
_cell_formula_units_Z 48
_cell_length_a 14.087330
_cell_length_b 14.699864
_cell_length_c 10.685535
_cell_angle_alpha 90.000000
_cell_angle_beta 90.000000
_cell_angle_gamma 90.000000
_cell_volume 2212.780197
_symmetry_space_group_name_H-M "P B A N"
_symmetry_group_IT_number 50
_space_group.IT_coordinate_system_code '2'
_symmetry_cell_setting 'orthorhombic'
loop_
_space_group_symop_operation_xyz
x,y,z
1/2-x,1/2-y,z
x,1/2-y,-z
1/2-x,y,-z
-x,-y,-z
1/2+x,1/2+y,-z
-x,1/2+y,z
1/2+x,-y,z
loop_
_atom_site_type_symbol
_atom_site_label
_atom_site_fract_x
_atom_site_fract_y
_atom_site_fract_z
Si Si1 0.151864 0.513168 0.473023
Si Si2 0.445041 0.436125 0.094296
Si Si3 0.462634 0.241625 0.772752
Si Si4 0.841648 0.297774 0.635534
Si Si5 0.250000 0.105212 0.000000
Si Si6 0.250000 0.250000 0.213616
Si Si7 0.987437 0.064082 0.685763
O O1 0.250000 0.463177 0.500000
O O2 0.179047 0.596137 0.381971
O O3 0.076302 0.449640 0.405970
O O4 0.102290 0.561974 0.592020
O O5 0.461300 0.327075 0.107520
O O6 0.337176 0.450031 0.052715
O O7 0.469637 0.476778 0.228940
O O8 0.500000 0.500000 0.000000
O O9 0.553817 0.209029 0.693430
O O10 0.352816 0.230845 0.722687
O O11 0.489172 0.349065 0.772828
O O12 0.750000 0.250000 0.700011
O O13 0.847767 0.250000 0.500000
O O14 0.277298 0.168672 0.117687
#
# Coordination Sequence:
#
# PCOD9397817 Si02
#       7
#     8   8   8   8   4   4   8
#     4  11  22  40  63  96 134 172 221 274 340 414
#     4  11  24  42  67  93 129 173 221 287 333 402
#     4  11  22  41  63  95 130 165 227 268 335 406
#     4  11  19  38  66  93 128 178 219 266 339 408
#     4   9  20  42  62  87 120 170 222 257 342 393
#     4   9  20  38  65  86 120 176 211 276 327 392
#     4  11  24  39  64  97 129 175 219 277 336 404
#
# _framework density 21.692167999999999
#
# number of rings (size 3 to 8) (size 9 to 14) (size 15 to 20)
#    0.000    1.333    5.000    1.000    0.000    6.000 
#    3.000    0.417    0.000    2.000    0.000    0.000 
#    0.000    0.000    0.000    0.000    0.000    0.000 
#
# Total GULP energy -267327.695239 kJ/mol
# GULP energy per Si atom -5569.326984 kJ/mol
# Density = 2.164280 g / cm^3
# Si number density = 21.692168 Si / 1000 Ang^3
#
#
#
# Elastic Constant Matrix: (Units=GPa)
#
#
# Indices 1 2 3 4 5 6 
#
# 1 195.0964 23.8105 52.6240 0.0000 0.0000 0.0000
# 2 23.8105 92.1452 20.0184 0.0000 0.0000 0.0000
# 3 52.6240 20.0184 40.0040 0.0000 0.0000 0.0000
# 4 0.0000 0.0000 0.0000 12.2864 0.0000 0.0000
# 5 0.0000 0.0000 0.0000 0.0000 13.9555 0.0000
# 6 0.0000 0.0000 0.0000 0.0000 0.0000 28.0954
#
#
#
# Elastic Compliance Matrix: (Units=1/GPa)
#
#
# Indices 1 2 3 4 5 6 
#
# 1 0.007950 0.000244 -0.010580 0.000000 0.000000 0.000000
# 2 0.000244 0.012184 -0.006418 0.000000 0.000000 0.000000
# 3 -0.010580 -0.006418 0.042126 0.000000 0.000000 0.000000
# 4 0.000000 0.000000 0.000000 0.081391 0.000000 0.000000
# 5 0.000000 0.000000 0.000000 0.000000 0.071656 0.000000
# 6 0.000000 0.000000 0.000000 0.000000 0.000000 0.035593
#
#
# Mechanical properties :
#
#
# Convention : Reuss Voigt Hill
#
# Bulk Modulus (GPa) = 34.77948 57.79460 46.28704
# Shear Modulus (GPa) = 17.00734 26.25364 21.63049
#
# Velocity S-wave (km/s) = 2.80309 3.48268 3.16120
# Velocity P-wave (km/s) = 5.15213 6.54775 5.89141
#
# Compressibility (1/GPa) = 0.02875259
#
# Stress axis : x y z
#
# Youngs Moduli (GPa) = 125.79376 82.07722 23.73817
#
# Poissons Ratio (x) = -0.02004 0.25114
# Poissons Ratio (y) = -0.03072 0.15235
# Poissons Ratio (z) = 1.33084 0.52678
#
# Static dielectric constant tensor:
#      x y z
#    x 1.840700 0.000000 0.000000 
#    y 0.000000 2.032210 0.000000 
#    z 0.000000 0.000000 1.818210 
# 
# From -- ./inp_files/21119.got.cif
#   From: 2010.05.17/outbox.cif.g08.bks.cpg/sg50_11_cif.got.tgz:21119.got - 2010.06.03 11:33:33.
