data_PCOD9397152
_publ_section_title
;
Structure prediction by ZEFSAII (Michael W. Deem and Ramdas Pophale) SiO2 
 PCOD9397152
Probable space group: P B A N
;
_chemical_formula_sum "Si O2"
_cell_formula_units_Z 48
_cell_length_a 8.003068
_cell_length_b 13.790270
_cell_length_c 18.581834
_cell_angle_alpha 90.000000
_cell_angle_beta 90.000000
_cell_angle_gamma 90.000000
_cell_volume 2050.774234
_symmetry_space_group_name_H-M "P B A N"
_symmetry_group_IT_number 50
_space_group.IT_coordinate_system_code '2'
_symmetry_cell_setting 'orthorhombic'
loop_
_space_group_symop_operation_xyz
x,y,z
1/2-x,1/2-y,z
x,1/2-y,-z
1/2-x,y,-z
-x,-y,-z
1/2+x,1/2+y,-z
-x,1/2+y,z
1/2+x,-y,z
loop_
_atom_site_type_symbol
_atom_site_label
_atom_site_fract_x
_atom_site_fract_y
_atom_site_fract_z
Si Si1 0.083935 0.317309 0.830835
Si Si2 0.576228 0.376389 0.844678
Si Si3 0.744246 0.868779 0.582418
Si Si4 0.769673 0.975009 0.083225
Si Si5 0.949443 0.136963 0.320252
Si Si6 0.929704 0.371386 0.321634
O O1 0.250000 0.250000 0.814166
O O2 0.138439 0.392402 0.891456
O O3 0.944648 0.238569 0.851842
O O4 0.025766 0.373356 0.759536
O O5 0.743820 0.430537 0.867370
O O6 0.444015 0.425308 0.897959
O O7 0.532285 0.396995 0.761338
O O8 0.750000 0.750000 0.582425
O O9 0.750000 0.901512 0.500000
O O10 0.576663 0.900088 0.624228
O O11 0.910951 0.898441 0.624711
O O12 0.750000 0.997767 0.000000
O O13 0.932675 0.253937 0.326084
O O14 0.762795 0.098338 0.333178
#
# Coordination Sequence:
#
# PCOD9397152 Si02
#       6
#     8   8   8   8   8   8
#     4   9  19  37  62  84 119 169 210 251 321 382
#     4  10  22  39  59  88 121 158 210 260 307 381
#     4   9  16  27  47  82 124 159 198 254 313 370
#     4  11  23  40  62  89 125 159 203 264 319 381
#     4   9  16  30  54  78 114 159 206 254 304 367
#     4   9  18  32  51  80 115 157 207 254 303 373
#
# _framework density 23.405795000000001
#
# number of rings (size 3 to 8) (size 9 to 14) (size 15 to 20)
#    0.000    2.500    0.000    4.000    2.333    3.667 
#    0.000    3.333    0.000    0.000    0.000    4.667 
#    0.000    0.000    0.000    0.000    0.000    0.000 
#
# Total GULP energy -268444.249969 kJ/mol
# GULP energy per Si atom -5592.588541 kJ/mol
# Density = 2.335252 g / cm^3
# Si number density = 23.405795 Si / 1000 Ang^3
#
#
#
# Elastic Constant Matrix: (Units=GPa)
#
#
# Indices 1 2 3 4 5 6 
#
# 1 121.0139 26.3038 71.8227 0.0000 0.0000 0.0000
# 2 26.3038 107.5658 25.2944 0.0000 0.0000 0.0000
# 3 71.8227 25.2944 171.3550 0.0000 0.0000 0.0000
# 4 0.0000 0.0000 0.0000 32.6053 0.0000 0.0000
# 5 0.0000 0.0000 0.0000 0.0000 10.8508 0.0000
# 6 0.0000 0.0000 0.0000 0.0000 0.0000 28.2255
#
#
#
# Elastic Compliance Matrix: (Units=1/GPa)
#
#
# Indices 1 2 3 4 5 6 
#
# 1 0.011295 -0.001708 -0.004482 0.000000 0.000000 0.000000
# 2 -0.001708 0.009889 -0.000744 0.000000 0.000000 0.000000
# 3 -0.004482 -0.000744 0.007824 0.000000 0.000000 0.000000
# 4 0.000000 0.000000 0.000000 0.030670 0.000000 0.000000
# 5 0.000000 0.000000 0.000000 0.000000 0.092159 0.000000
# 6 0.000000 0.000000 0.000000 0.000000 0.000000 0.035429
#
#
# Mechanical properties :
#
#
# Convention : Reuss Voigt Hill
#
# Bulk Modulus (GPa) = 66.04826 71.86407 68.95617
# Shear Modulus (GPa) = 24.25053 32.77058 28.51056
#
# Velocity S-wave (km/s) = 3.22233 3.74586 3.49391
# Velocity P-wave (km/s) = 6.49034 7.03412 6.76769
#
# Compressibility (1/GPa) = 0.01514044
#
# Stress axis : x y z
#
# Youngs Moduli (GPa) = 88.53530 101.11998 127.80715
#
# Poissons Ratio (x) = 0.17272 0.57284
# Poissons Ratio (y) = 0.15122 0.09507
# Poissons Ratio (z) = 0.39682 0.07522
#
# Static dielectric constant tensor:
#      x y z
#    x 1.958040 0.000000 0.000000 
#    y 0.000000 1.939610 0.000000 
#    z 0.000000 0.000000 1.795800 
# 
# From -- ./inp_files/28704.got.cif
#   From: 2010.05.17/outbox.cif.g08.bks.cpg/sg50_15_cif.got.tgz:28704.got - 2010.06.03 11:33:33.
