data_PCOD9397666
_publ_section_title
;
Structure prediction by ZEFSAII (Michael W. Deem and Ramdas Pophale) SiO2 
 PCOD9397666
Probable space group: P B A N
;
_chemical_formula_sum "Si O2"
_cell_formula_units_Z 56
_cell_length_a 14.420893
_cell_length_b 15.104600
_cell_length_c 11.182768
_cell_angle_alpha 90.000000
_cell_angle_beta 90.000000
_cell_angle_gamma 90.000000
_cell_volume 2435.850883
_symmetry_space_group_name_H-M "P B A N"
_symmetry_group_IT_number 50
_space_group.IT_coordinate_system_code '2'
_symmetry_cell_setting 'orthorhombic'
loop_
_space_group_symop_operation_xyz
x,y,z
1/2-x,1/2-y,z
x,1/2-y,-z
1/2-x,y,-z
-x,-y,-z
1/2+x,1/2+y,-z
-x,1/2+y,z
1/2+x,-y,z
loop_
_atom_site_type_symbol
_atom_site_label
_atom_site_fract_x
_atom_site_fract_y
_atom_site_fract_z
Si Si1 0.094324 0.549280 0.700405
Si Si2 0.199693 0.024338 0.696806
Si Si3 0.352644 0.035779 0.042392
Si Si4 0.501127 0.592782 0.871379
Si Si5 0.340978 0.294813 0.627461
Si Si6 0.642977 0.135944 0.545104
Si Si7 0.956434 0.237515 0.728158
O O1 0.193723 0.502656 0.707927
O O2 0.028249 0.476979 0.764040
O O3 0.086249 0.586771 0.562874
O O4 0.087977 0.644184 0.767065
O O5 0.180930 0.102884 0.606225
O O6 0.161512 0.063351 0.820645
O O7 0.151331 0.936810 0.649555
O O8 0.420264 0.951792 0.050809
O O9 0.250000 0.013984 0.000000
O O10 0.406916 0.100616 0.953423
O O11 0.464475 0.685372 0.824262
O O12 0.250000 0.250000 0.686727
O O13 0.352044 0.250000 0.500000
O O14 0.437776 0.282007 0.692364
O O15 0.750000 0.149682 0.500000
O O16 0.599051 0.220034 0.614480
#
# Coordination Sequence:
#
# PCOD9397666 Si02
#       7
#     8   8   8   8   8   8   8
#     4  11  24  43  74 107 150 193 247 305 384 457
#     4  11  23  46  73 106 145 205 246 305 386 439
#     4  11  23  47  76  98 142 199 255 314 373 445
#     4  11  25  45  76 106 143 196 255 310 379 449
#     4  11  26  42  69 106 154 191 245 303 371 459
#     4  10  24  42  74 107 150 192 244 304 379 464
#     4  12  25  45  71 112 149 193 247 313 377 460
#
# _framework density 22.989915
#
# number of rings (size 3 to 8) (size 9 to 14) (size 15 to 20)
#    0.000    1.000    2.857    3.000    8.000    4.571 
#    0.000    6.429    3.143    0.000    0.000    0.000 
#    0.000    0.000    0.000    0.000    0.000    0.000 
#
# Total GULP energy -312865.825157 kJ/mol
# GULP energy per Si atom -5586.889735 kJ/mol
# Density = 2.293759 g / cm^3
# Si number density = 22.989915 Si / 1000 Ang^3
#
#
#
# Elastic Constant Matrix: (Units=GPa)
#
#
# Indices 1 2 3 4 5 6 
#
# 1 102.2370 17.3159 20.0233 0.0000 0.0000 0.0000
# 2 17.3159 90.0355 -3.6704 0.0000 0.0000 0.0000
# 3 20.0233 -3.6704 67.8645 0.0000 0.0000 0.0000
# 4 0.0000 0.0000 0.0000 28.2387 0.0000 0.0000
# 5 0.0000 0.0000 0.0000 0.0000 -29.1515 0.0000
# 6 0.0000 0.0000 0.0000 0.0000 0.0000 39.6064
#
#
#
# Elastic Compliance Matrix: (Units=1/GPa)
#
#
# Indices 1 2 3 4 5 6 
#
# 1 0.010804 -0.002213 -0.003307 0.000000 0.000000 0.000000
# 2 -0.002213 0.011584 0.001279 0.000000 0.000000 0.000000
# 3 -0.003307 0.001279 0.015780 0.000000 0.000000 0.000000
# 4 0.000000 0.000000 0.000000 0.035412 0.000000 0.000000
# 5 0.000000 0.000000 0.000000 0.000000 -0.034304 0.000000
# 6 0.000000 0.000000 0.000000 0.000000 0.000000 0.025248
#
#
# Mechanical properties :
#
#
# Convention : Reuss Voigt Hill
#
# Bulk Modulus (GPa) = 33.68445 36.38606 35.03525
# Shear Modulus (GPa) = 60.31190 22.83662 41.57426
#
# Velocity S-wave (km/s) = 5.12748 3.15514 4.25711
# Velocity P-wave (km/s) = 7.05254 5.39764 6.27984
#
# Compressibility (1/GPa) = 0.02968729
#
# Stress axis : x y z
#
# Youngs Moduli (GPa) = 92.56100 86.32285 63.37037
#
# Poissons Ratio (x) = 0.19100 0.20958
# Poissons Ratio (y) = 0.20480 -0.08107
# Poissons Ratio (z) = 0.30612 -0.11044
#
# Static dielectric constant tensor:
#      x y z
#    x 1.869030 0.000000 0.000000 
#    y 0.000000 1.894680 0.000000 
#    z 0.000000 0.000000 1.967410 
# 
# From -- ./inp_files/21152.got.cif
#   From: 2010.05.17/outbox.cif.g08.bks.cpg/sg50_11_cif.got.tgz:21152.got - 2010.06.03 11:33:33.
