data_PCOD9397061
_publ_section_title
;
Structure prediction by ZEFSAII (Michael W. Deem and Ramdas Pophale) SiO2 
 PCOD9397061
Probable space group: P B A N
;
_chemical_formula_sum "Si O2"
_cell_formula_units_Z 20
_cell_length_a 14.381062
_cell_length_b 9.377103
_cell_length_c 6.475699
_cell_angle_alpha 90.000000
_cell_angle_beta 90.000000
_cell_angle_gamma 90.000000
_cell_volume 873.265492
_symmetry_space_group_name_H-M "P B A N"
_symmetry_group_IT_number 50
_space_group.IT_coordinate_system_code '2'
_symmetry_cell_setting 'orthorhombic'
loop_
_space_group_symop_operation_xyz
x,y,z
1/2-x,1/2-y,z
x,1/2-y,-z
1/2-x,y,-z
-x,-y,-z
1/2+x,1/2+y,-z
-x,1/2+y,z
1/2+x,-y,z
loop_
_atom_site_type_symbol
_atom_site_label
_atom_site_fract_x
_atom_site_fract_y
_atom_site_fract_z
Si Si1 0.427133 0.897712 0.120335
Si Si2 0.520598 0.750000 0.500000
Si Si3 0.305080 0.108662 0.293725
O O1 0.462388 0.850714 0.348460
O O2 0.330706 0.982464 0.142079
O O3 0.417794 0.750000 0.000000
O O4 0.500000 0.000000 0.000000
O O5 0.592374 0.837956 0.640904
O O6 0.250000 0.250000 0.222723
O O7 0.250000 0.061295 0.500000
#
# Coordination Sequence:
#
# PCOD9397061 Si02
#       3
#     8   4   8
#     4  12  24  42  80 113 138 194 260 307 363 462
#     4  10  21  44  75 100 150 184 256 298 369 448
#     4   9  21  44  73  98 150 199 225 308 386 431
#
# _framework density 22.902542
#
# number of rings (size 3 to 8) (size 9 to 14) (size 15 to 20)
#    0.000    2.000    4.000    1.200    0.000    0.000 
#    0.000   17.000   17.600    0.000    0.000    0.000 
#    0.000    0.000    0.000    0.000    0.000    0.000 
#
# Total GULP energy -111745.245420 kJ/mol
# GULP energy per Si atom -5587.262271 kJ/mol
# Density = 2.285042 g / cm^3
# Si number density = 22.902542 Si / 1000 Ang^3
#
#
#
# Elastic Constant Matrix: (Units=GPa)
#
#
# Indices 1 2 3 4 5 6 
#
# 1 127.6538 92.8622 72.6860 0.0000 0.0000 0.0000
# 2 92.8622 214.5938 82.6207 0.0000 0.0000 0.0000
# 3 72.6860 82.6207 114.5424 0.0000 0.0000 0.0000
# 4 0.0000 0.0000 0.0000 42.9119 0.0000 0.0000
# 5 0.0000 0.0000 0.0000 0.0000 6.9354 0.0000
# 6 0.0000 0.0000 0.0000 0.0000 0.0000 19.4284
#
#
#
# Elastic Compliance Matrix: (Units=1/GPa)
#
#
# Indices 1 2 3 4 5 6 
#
# 1 0.014088 -0.003675 -0.006289 0.000000 0.000000 0.000000
# 2 -0.003675 0.007410 -0.003013 0.000000 0.000000 0.000000
# 3 -0.006289 -0.003013 0.014895 0.000000 0.000000 0.000000
# 4 0.000000 0.000000 0.000000 0.023304 0.000000 0.000000
# 5 0.000000 0.000000 0.000000 0.000000 0.144187 0.000000
# 6 0.000000 0.000000 0.000000 0.000000 0.000000 0.051471
#
#
# Mechanical properties :
#
#
# Convention : Reuss Voigt Hill
#
# Bulk Modulus (GPa) = 95.79782 105.90309 100.85046
# Shear Modulus (GPa) = 17.55685 27.76322 22.66003
#
# Velocity S-wave (km/s) = 2.77174 3.48549 3.14890
# Velocity P-wave (km/s) = 7.22237 7.90818 7.57304
#
# Compressibility (1/GPa) = 0.01043865
#
# Stress axis : x y z
#
# Youngs Moduli (GPa) = 70.98156 134.94654 67.13787
#
# Poissons Ratio (x) = 0.49593 0.42224
# Poissons Ratio (y) = 0.26086 0.20229
# Poissons Ratio (z) = 0.44642 0.40660
#
# Static dielectric constant tensor:
#      x y z
#    x 1.829900 0.000000 0.000000 
#    y 0.000000 1.983590 0.000000 
#    z 0.000000 0.000000 2.037490 
# 
# From -- ./inp_files/10240.got.cif
#   From: 2010.05.17/outbox.cif.g08.bks.cpg/sg50_6_cif.got.tgz:10240.got - 2010.06.03 11:33:33.
