data_PCOD9397037
_publ_section_title
;
Structure prediction by ZEFSAII (Michael W. Deem and Ramdas Pophale) SiO2 
 PCOD9397037
Probable space group: P B A N
;
_chemical_formula_sum "Si O2"
_cell_formula_units_Z 20
_cell_length_a 8.703773
_cell_length_b 11.443287
_cell_length_c 7.209923
_cell_angle_alpha 90.000000
_cell_angle_beta 90.000000
_cell_angle_gamma 90.000000
_cell_volume 718.106690
_symmetry_space_group_name_H-M "P B A N"
_symmetry_group_IT_number 50
_space_group.IT_coordinate_system_code '2'
_symmetry_cell_setting 'orthorhombic'
loop_
_space_group_symop_operation_xyz
x,y,z
1/2-x,1/2-y,z
x,1/2-y,-z
1/2-x,y,-z
-x,-y,-z
1/2+x,1/2+y,-z
-x,1/2+y,z
1/2+x,-y,z
loop_
_atom_site_type_symbol
_atom_site_label
_atom_site_fract_x
_atom_site_fract_y
_atom_site_fract_z
Si Si1 0.700311 0.940848 0.801602
Si Si2 0.982593 0.250000 0.000000
Si Si3 0.024894 0.856857 0.646024
O O1 0.586415 0.843036 0.885301
O O2 0.650707 0.884188 0.294712
O O3 0.612373 0.018162 0.647261
O O4 0.750000 0.997220 0.000000
O O5 0.897454 0.189955 0.165979
O O6 0.037031 0.750000 0.500000
#
# Coordination Sequence:
#
# PCOD9397037 Si02
#       3
#     8   4   8
#     4  10  21  44  76 109 153 204 253 318 395 469
#     4  10  21  42  75 106 147 202 247 312 397 470
#     4  11  24  45  74 109 153 201 256 320 390 468
#
# _framework density 27.851015
#
# number of rings (size 3 to 8) (size 9 to 14) (size 15 to 20)
#    0.000    1.600    0.000   10.200    0.000    4.800 
#    0.000   23.000    0.000    7.200    0.000    0.000 
#    0.000    0.000    0.000    0.000    0.000    0.000 
#
# Total GULP energy -111687.604140 kJ/mol
# GULP energy per Si atom -5584.380207 kJ/mol
# Density = 2.778762 g / cm^3
# Si number density = 27.851015 Si / 1000 Ang^3
#
#
#
# Elastic Constant Matrix: (Units=GPa)
#
#
# Indices 1 2 3 4 5 6 
#
# 1 95.2938 74.0467 29.6734 0.0000 0.0000 0.0000
# 2 74.0467 168.6660 94.0402 0.0000 0.0000 0.0000
# 3 29.6734 94.0402 199.2918 0.0000 0.0000 0.0000
# 4 0.0000 0.0000 0.0000 41.4502 0.0000 0.0000
# 5 0.0000 0.0000 0.0000 0.0000 65.4996 0.0000
# 6 0.0000 0.0000 0.0000 0.0000 0.0000 42.1214
#
#
#
# Elastic Compliance Matrix: (Units=1/GPa)
#
#
# Indices 1 2 3 4 5 6 
#
# 1 0.016163 -0.007808 0.001278 0.000000 0.000000 0.000000
# 2 -0.007808 0.011818 -0.004414 0.000000 0.000000 0.000000
# 3 0.001278 -0.004414 0.006910 0.000000 0.000000 0.000000
# 4 0.000000 0.000000 0.000000 0.024125 0.000000 0.000000
# 5 0.000000 0.000000 0.000000 0.000000 0.015267 0.000000
# 6 0.000000 0.000000 0.000000 0.000000 0.000000 0.023741
#
#
# Mechanical properties :
#
#
# Convention : Reuss Voigt Hill
#
# Bulk Modulus (GPa) = 76.90691 95.41915 86.16303
# Shear Modulus (GPa) = 40.24207 47.51365 43.87786
#
# Velocity S-wave (km/s) = 3.80531 4.13485 3.97350
# Velocity P-wave (km/s) = 6.85426 7.55850 7.21498
#
# Compressibility (1/GPa) = 0.01300273
#
# Stress axis : x y z
#
# Youngs Moduli (GPa) = 61.86824 84.61755 144.71208
#
# Poissons Ratio (x) = 0.66073 -0.18494
# Poissons Ratio (y) = 0.48310 0.63874
# Poissons Ratio (z) = -0.07907 0.37349
#
# Static dielectric constant tensor:
#      x y z
#    x 2.165270 0.000000 0.000000 
#    y 0.000000 2.500360 0.000000 
#    z 0.000000 0.000000 2.192510 
# 
# From -- ./inp_files/1486.got.cif
#   From: 2010.05.17/outbox.cif.g08.bks.cpg/sg50_1_cif.got.tgz:1486.got - 2010.06.03 11:33:33.
