data_PCOD9397644
_publ_section_title
;
Structure prediction by ZEFSAII (Michael W. Deem and Ramdas Pophale) SiO2 
 PCOD9397644
Probable space group: P B A N
;
_chemical_formula_sum "Si O2"
_cell_formula_units_Z 34
_cell_length_a 29.156586
_cell_length_b 9.292221
_cell_length_c 6.034288
_cell_angle_alpha 90.000000
_cell_angle_beta 90.000000
_cell_angle_gamma 90.000000
_cell_volume 1634.866273
_symmetry_space_group_name_H-M "P B A N"
_symmetry_group_IT_number 50
_space_group.IT_coordinate_system_code '2'
_symmetry_cell_setting 'orthorhombic'
loop_
_space_group_symop_operation_xyz
x,y,z
1/2-x,1/2-y,z
x,1/2-y,-z
1/2-x,y,-z
-x,-y,-z
1/2+x,1/2+y,-z
-x,1/2+y,z
1/2+x,-y,z
loop_
_atom_site_type_symbol
_atom_site_label
_atom_site_fract_x
_atom_site_fract_y
_atom_site_fract_z
Si Si1 0.057843 0.250000 0.000000
Si Si2 0.561613 0.250000 0.000000
Si Si3 0.391645 0.494218 0.269905
Si Si4 0.541673 0.001250 0.669835
Si Si5 0.750000 0.250000 0.500000
Si Si6 0.702827 0.403027 0.880108
O O1 0.086043 0.354249 0.838153
O O2 0.035737 0.135323 0.830899
O O3 0.589263 0.360788 0.844587
O O4 0.538376 0.141818 0.824339
O O5 0.410583 0.498570 0.525372
O O6 0.339352 0.494784 0.178415
O O7 0.500000 0.000000 0.500000
O O8 0.718647 0.350640 0.642910
O O9 0.690044 0.250000 0.000000
O O10 0.750000 0.456102 0.000000
#
# Coordination Sequence:
#
# PCOD9397644 Si02
#       6
#     4   4   8   8   2   8
#     4  10  26  45  63  94 136 174 223 292 334 411
#     4  10  24  41  67  98 128 168 229 286 318 411
#     4  11  22  40  68  94 133 179 223 273 348 407
#     4  11  26  45  67  97 134 183 231 283 351 410
#     4   8  18  28  60  90 134 168 214 272 342 398
#     4   9  19  36  59  98 134 169 218 284 335 402
#
# _framework density 20.796807000000001
#
# number of rings (size 3 to 8) (size 9 to 14) (size 15 to 20)
#    0.000    2.118    1.176    1.412    3.294   11.294 
#    0.000    4.118    0.000    0.000    0.000    0.000 
#    0.000    0.000    0.000    0.000    0.000    0.000 
#
# Total GULP energy -189439.591349 kJ/mol
# GULP energy per Si atom -5571.752687 kJ/mol
# Density = 2.074947 g / cm^3
# Si number density = 20.796807 Si / 1000 Ang^3
#
#
#
# Elastic Constant Matrix: (Units=GPa)
#
#
# Indices 1 2 3 4 5 6 
#
# 1 110.6439 45.2430 53.0336 0.0000 0.0000 0.0000
# 2 45.2430 142.1602 55.3976 0.0000 0.0000 0.0000
# 3 53.0336 55.3976 138.0782 0.0000 0.0000 0.0000
# 4 0.0000 0.0000 0.0000 18.3722 0.0000 0.0000
# 5 0.0000 0.0000 0.0000 0.0000 54.9088 0.0000
# 6 0.0000 0.0000 0.0000 0.0000 0.0000 18.0190
#
#
#
# Elastic Compliance Matrix: (Units=1/GPa)
#
#
# Indices 1 2 3 4 5 6 
#
# 1 0.011698 -0.002338 -0.003555 0.000000 0.000000 0.000000
# 2 -0.002338 0.008805 -0.002635 0.000000 0.000000 0.000000
# 3 -0.003555 -0.002635 0.009665 0.000000 0.000000 0.000000
# 4 0.000000 0.000000 0.000000 0.054430 0.000000 0.000000
# 5 0.000000 0.000000 0.000000 0.000000 0.018212 0.000000
# 6 0.000000 0.000000 0.000000 0.000000 0.000000 0.055497
#
#
# Mechanical properties :
#
#
# Convention : Reuss Voigt Hill
#
# Bulk Modulus (GPa) = 76.26144 77.58120 76.92132
# Shear Modulus (GPa) = 27.81911 34.07388 30.94649
#
# Velocity S-wave (km/s) = 3.66137 4.05213 3.86170
# Velocity P-wave (km/s) = 7.39078 7.69925 7.54659
#
# Compressibility (1/GPa) = 0.01311279
#
# Stress axis : x y z
#
# Youngs Moduli (GPa) = 85.48563 113.57214 103.46781
#
# Poissons Ratio (x) = 0.26548 0.36784
# Poissons Ratio (y) = 0.19982 0.27262
# Poissons Ratio (z) = 0.30391 0.29924
#
# Static dielectric constant tensor:
#      x y z
#    x 1.804140 0.000000 0.000000 
#    y 0.000000 1.648750 0.000000 
#    z 0.000000 0.000000 1.755970 
# 
# From -- ./inp_files/1272.got.cif
#   From: 2010.05.17/outbox.cif.g08.bks.cpg/sg50_1_cif.got.tgz:1272.got - 2010.06.03 11:33:33.
