data_PCOD9397478
_publ_section_title
;
Structure prediction by ZEFSAII (Michael W. Deem and Ramdas Pophale) SiO2 
 PCOD9397478
Probable space group: P B A N
;
_chemical_formula_sum "Si O2"
_cell_formula_units_Z 56
_cell_length_a 19.913117
_cell_length_b 8.495122
_cell_length_c 13.838513
_cell_angle_alpha 90.000000
_cell_angle_beta 90.000000
_cell_angle_gamma 90.000000
_cell_volume 2340.983172
_symmetry_space_group_name_H-M "P B A N"
_symmetry_group_IT_number 50
_space_group.IT_coordinate_system_code '2'
_symmetry_cell_setting 'orthorhombic'
loop_
_space_group_symop_operation_xyz
x,y,z
1/2-x,1/2-y,z
x,1/2-y,-z
1/2-x,y,-z
-x,-y,-z
1/2+x,1/2+y,-z
-x,1/2+y,z
1/2+x,-y,z
loop_
_atom_site_type_symbol
_atom_site_label
_atom_site_fract_x
_atom_site_fract_y
_atom_site_fract_z
Si Si1 0.220046 0.428713 0.603983
Si Si2 0.922413 0.564212 0.481736
Si Si3 0.294401 0.612621 0.773456
Si Si4 0.512768 0.681954 0.228030
Si Si5 0.582233 0.396207 0.332017
Si Si6 0.052638 0.044049 0.086702
Si Si7 0.826947 0.432327 0.976235
O O1 0.250000 0.250000 0.610465
O O2 0.250000 0.485816 0.500000
O O3 0.137863 0.442406 0.598966
O O4 0.250707 0.515320 0.697433
O O5 0.925849 0.750000 0.500000
O O6 0.892878 0.454409 0.565656
O O7 0.000000 0.500000 0.500000
O O8 0.250000 0.750000 0.818650
O O9 0.355242 0.688735 0.715378
O O10 0.330310 0.529041 0.863053
O O11 0.562467 0.555761 0.274706
O O12 0.481624 0.784532 0.315559
O O13 0.456338 0.584934 0.170670
O O14 0.539816 0.795769 0.144464
O O15 0.124644 0.038136 0.038976
O O16 0.000000 0.000000 0.000000
O O17 0.846639 0.250000 0.000000
O O18 0.750000 0.455872 0.000000
#
# Coordination Sequence:
#
# PCOD9397478 Si02
#       7
#     8   8   8   8   8   8   8
#     4  11  23  51  78 101 143 200 238 288 377 450
#     4  12  25  46  73 107 146 183 233 307 374 430
#     4  12  25  43  73 100 138 186 248 292 345 435
#     4  10  23  40  70 106 140 188 246 302 370 438
#     4  11  23  44  67 106 142 186 243 304 360 443
#     4  11  21  40  70  98 138 192 242 297 361 433
#     4  11  22  43  64  97 140 187 234 292 360 416
#
# _framework density 23.921572000000001
#
# number of rings (size 3 to 8) (size 9 to 14) (size 15 to 20)
#    0.000    0.857    4.286    4.714    0.000    2.571 
#    7.714    0.000    0.000    0.000    0.000    0.000 
#    0.000    0.000    0.000    0.000    0.000    0.000 
#
# Total GULP energy -312463.637984 kJ/mol
# GULP energy per Si atom -5579.707821 kJ/mol
# Density = 2.386713 g / cm^3
# Si number density = 23.921572 Si / 1000 Ang^3
#
#
#
# Elastic Constant Matrix: (Units=GPa)
#
#
# Indices 1 2 3 4 5 6 
#
# 1 112.5538 28.6562 14.0801 0.0000 0.0000 0.0000
# 2 28.6562 79.1140 25.5598 0.0000 0.0000 0.0000
# 3 14.0801 25.5598 86.2622 0.0000 0.0000 0.0000
# 4 0.0000 0.0000 0.0000 25.8620 0.0000 0.0000
# 5 0.0000 0.0000 0.0000 0.0000 28.8895 0.0000
# 6 0.0000 0.0000 0.0000 0.0000 0.0000 11.2675
#
#
#
# Elastic Compliance Matrix: (Units=1/GPa)
#
#
# Indices 1 2 3 4 5 6 
#
# 1 0.009816 -0.003359 -0.000607 0.000000 0.000000 0.000000
# 2 -0.003359 0.015128 -0.003934 0.000000 0.000000 0.000000
# 3 -0.000607 -0.003934 0.012857 0.000000 0.000000 0.000000
# 4 0.000000 0.000000 0.000000 0.038667 0.000000 0.000000
# 5 0.000000 0.000000 0.000000 0.000000 0.034615 0.000000
# 6 0.000000 0.000000 0.000000 0.000000 0.000000 0.088751
#
#
# Mechanical properties :
#
#
# Convention : Reuss Voigt Hill
#
# Bulk Modulus (GPa) = 45.45371 46.05803 45.75587
# Shear Modulus (GPa) = 22.42480 27.17939 24.80209
#
# Velocity S-wave (km/s) = 3.06507 3.37439 3.22344
# Velocity P-wave (km/s) = 5.61859 5.87176 5.74657
#
# Compressibility (1/GPa) = 0.02200040
#
# Stress axis : x y z
#
# Youngs Moduli (GPa) = 101.87606 66.10338 77.77683
#
# Poissons Ratio (x) = 0.22207 0.04719
# Poissons Ratio (y) = 0.34224 0.30598
# Poissons Ratio (z) = 0.06182 0.26006
#
# Static dielectric constant tensor:
#      x y z
#    x 1.983030 0.000000 0.000000 
#    y 0.000000 1.901250 0.000000 
#    z 0.000000 0.000000 2.019250 
# 
# From -- ./inp_files/27260.got.cif
#   From: 2010.05.17/outbox.cif.g08.bks.cpg/sg50_14_cif.got.tgz:27260.got - 2010.06.03 11:33:33.
