data_PCOD9397249
_publ_section_title
;
Structure prediction by ZEFSAII (Michael W. Deem and Ramdas Pophale) SiO2 
 PCOD9397249
Probable space group: P B A N
;
_chemical_formula_sum "Si O2"
_cell_formula_units_Z 52
_cell_length_a 18.733100
_cell_length_b 16.051192
_cell_length_c 8.813414
_cell_angle_alpha 90.000000
_cell_angle_beta 90.000000
_cell_angle_gamma 90.000000
_cell_volume 2650.092983
_symmetry_space_group_name_H-M "P B A N"
_symmetry_group_IT_number 50
_space_group.IT_coordinate_system_code '2'
_symmetry_cell_setting 'orthorhombic'
loop_
_space_group_symop_operation_xyz
x,y,z
1/2-x,1/2-y,z
x,1/2-y,-z
1/2-x,y,-z
-x,-y,-z
1/2+x,1/2+y,-z
-x,1/2+y,z
1/2+x,-y,z
loop_
_atom_site_type_symbol
_atom_site_label
_atom_site_fract_x
_atom_site_fract_y
_atom_site_fract_z
Si Si1 0.578376 0.655050 0.549450
Si Si2 0.940052 0.411116 0.393352
Si Si3 0.618252 0.008683 0.893731
Si Si4 0.364443 0.750000 0.500000
Si Si5 0.461613 0.440149 0.164390
Si Si6 0.750000 0.116659 0.000000
Si Si7 0.826995 0.524876 0.564775
Si Si8 0.250000 0.750000 0.257701
O O1 0.572392 0.750000 0.500000
O O2 0.518682 0.600025 0.461641
O O3 0.563209 0.632956 0.724111
O O4 0.653217 0.614877 0.503111
O O5 0.910176 0.317332 0.406946
O O6 0.946199 0.469289 0.244677
O O7 0.884113 0.460493 0.496666
O O8 0.547222 0.062699 0.854609
O O9 0.656974 0.974229 0.743497
O O10 0.679922 0.062152 0.972040
O O11 0.583308 0.941928 0.009319
O O12 0.311877 0.783506 0.368905
O O13 0.732601 0.174438 0.145104
O O14 0.750000 0.500193 0.500000
#
# Coordination Sequence:
#
# PCOD9397249 Si02
#       8
#     8   8   8   4   8   4   8   4
#     4  11  22  42  64  94 126 162 217 274 326 379
#     4  11  20  39  62  96 122 164 215 260 317 380
#     4  11  22  39  64  89 124 165 216 260 323 387
#     4  11  22  34  64  90 129 168 198 256 315 380
#     4  10  22  41  63  92 125 164 215 271 318 387
#     4  11  24  38  56  86 129 170 200 246 315 388
#     4  11  24  40  67  93 124 164 217 267 319 390
#     4  10  24  38  48  90 138 162 198 240 310 404
#
# _framework density 19.621952
#
# number of rings (size 3 to 8) (size 9 to 14) (size 15 to 20)
#    0.000    1.231    3.846    2.769    8.615    0.308 
#    0.000    0.769    0.000    0.000    0.000    0.000 
#    0.000    0.000    0.000    0.000    0.000    0.000 
#
# Total GULP energy -289955.898086 kJ/mol
# GULP energy per Si atom -5576.074963 kJ/mol
# Density = 1.957729 g / cm^3
# Si number density = 19.621952 Si / 1000 Ang^3
#
#
#
# Elastic Constant Matrix: (Units=GPa)
#
#
# Indices 1 2 3 4 5 6 
#
# 1 94.5893 32.2982 33.5139 0.0000 0.0000 0.0000
# 2 32.2982 71.2023 10.1567 0.0000 0.0000 0.0000
# 3 33.5139 10.1567 96.1792 0.0000 0.0000 0.0000
# 4 0.0000 0.0000 0.0000 12.0219 0.0000 0.0000
# 5 0.0000 0.0000 0.0000 0.0000 29.7527 0.0000
# 6 0.0000 0.0000 0.0000 0.0000 0.0000 15.7700
#
#
#
# Elastic Compliance Matrix: (Units=1/GPa)
#
#
# Indices 1 2 3 4 5 6 
#
# 1 0.014061 -0.005766 -0.004291 0.000000 0.000000 0.000000
# 2 -0.005766 0.016624 0.000254 0.000000 0.000000 0.000000
# 3 -0.004291 0.000254 0.011866 0.000000 0.000000 0.000000
# 4 0.000000 0.000000 0.000000 0.083182 0.000000 0.000000
# 5 0.000000 0.000000 0.000000 0.000000 0.033610 0.000000
# 6 0.000000 0.000000 0.000000 0.000000 0.000000 0.063411
#
#
# Mechanical properties :
#
#
# Convention : Reuss Voigt Hill
#
# Bulk Modulus (GPa) = 43.58395 45.98982 44.78688
# Shear Modulus (GPa) = 19.99931 23.90906 21.95418
#
# Velocity S-wave (km/s) = 3.19600 3.49447 3.34856
# Velocity P-wave (km/s) = 5.98993 6.30639 6.15020
#
# Compressibility (1/GPa) = 0.02294423
#
# Stress axis : x y z
#
# Youngs Moduli (GPa) = 71.11773 60.15420 84.27737
#
# Poissons Ratio (x) = 0.34686 0.36161
# Poissons Ratio (y) = 0.41008 -0.02139
# Poissons Ratio (z) = 0.30515 -0.01526
#
# Static dielectric constant tensor:
#      x y z
#    x 1.710950 0.000000 0.000000 
#    y 0.000000 1.747740 0.000000 
#    z 0.000000 0.000000 1.739000 
# 
# From -- ./inp_files/14469.got.cif
#   From: 2010.05.17/outbox.cif.g08.bks.cpg/sg50_8_cif.got.tgz:14469.got - 2010.06.03 11:33:33.
