data_PCOD9397049
_publ_section_title
;
Structure prediction by ZEFSAII (Michael W. Deem and Ramdas Pophale) SiO2 
 PCOD9397049
Probable space group: P B A N
;
_chemical_formula_sum "Si O2"
_cell_formula_units_Z 58
_cell_length_a 29.459988
_cell_length_b 10.876014
_cell_length_c 9.860717
_cell_angle_alpha 90.000000
_cell_angle_beta 90.000000
_cell_angle_gamma 90.000000
_cell_volume 3159.445137
_symmetry_space_group_name_H-M "P B A N"
_symmetry_group_IT_number 50
_space_group.IT_coordinate_system_code '2'
_symmetry_cell_setting 'orthorhombic'
loop_
_space_group_symop_operation_xyz
x,y,z
1/2-x,1/2-y,z
x,1/2-y,-z
1/2-x,y,-z
-x,-y,-z
1/2+x,1/2+y,-z
-x,1/2+y,z
1/2+x,-y,z
loop_
_atom_site_type_symbol
_atom_site_label
_atom_site_fract_x
_atom_site_fract_y
_atom_site_fract_z
Si Si1 0.198308 0.397149 0.488047
Si Si2 0.195397 0.892034 0.018140
Si Si3 0.678644 0.904177 0.824785
Si Si4 0.909969 0.745300 0.148716
Si Si5 0.750000 0.750000 0.000000
Si Si6 0.042110 0.367226 0.400095
Si Si7 0.063814 0.612501 0.558609
Si Si8 0.362271 0.497052 0.264052
O O1 0.198659 0.250000 0.500000
O O2 0.250000 0.443148 0.500000
O O3 0.182714 0.421296 0.335234
O O4 0.167032 0.446821 0.608684
O O5 0.173263 0.948427 0.154548
O O6 0.185041 0.750000 0.000000
O O7 0.250000 0.906164 0.000000
O O8 0.173617 0.966169 0.895574
O O9 0.636316 0.821000 0.860163
O O10 0.720466 0.834606 0.898899
O O11 0.939439 0.816894 0.258888
O O12 0.892985 0.611636 0.198863
O O13 0.931655 0.750000 0.000000
O O14 0.049641 0.250000 0.500000
O O15 0.065463 0.492839 0.456779
O O16 0.988313 0.391881 0.390980
O O17 0.070208 0.750000 0.500000
O O18 0.101498 0.591344 0.673278
#
# Coordination Sequence:
#
# PCOD9397049 Si02
#       8
#     8   8   8   8   2   8   8   8
#     4  11  23  34  59  97 130 161 214 278 332 371
#     4  11  25  44  63  85 130 186 222 256 327 406
#     4  12  22  36  61  92 126 170 214 269 327 385
#     4  12  23  38  64  99 127 168 215 279 335 378
#     4  12  20  36  60  88 136 164 218 270 324 388
#     4  10  21  43  72  95 131 169 223 273 335 398
#     4  10  23  42  71 100 128 175 216 271 337 401
#     4  12  23  43  64  97 132 172 225 276 320 398
#
# _framework density 18.357654
#
# number of rings (size 3 to 8) (size 9 to 14) (size 15 to 20)
#    0.000    0.828    5.517    2.483    0.000    2.207 
#    0.000    1.379    0.000    2.483    0.000    0.000 
#    0.000    0.000    0.000    0.000    0.000    0.000 
#
# Total GULP energy -323703.506864 kJ/mol
# GULP energy per Si atom -5581.094946 kJ/mol
# Density = 1.831587 g / cm^3
# Si number density = 18.357654 Si / 1000 Ang^3
#
#
#
# Elastic Constant Matrix: (Units=GPa)
#
#
# Indices 1 2 3 4 5 6 
#
# 1 63.7755 46.5763 53.0585 0.0000 0.0000 0.0000
# 2 46.5763 119.9015 57.3347 0.0000 0.0000 0.0000
# 3 53.0585 57.3347 167.8255 0.0000 0.0000 0.0000
# 4 0.0000 0.0000 0.0000 -97.7360 0.0000 0.0000
# 5 0.0000 0.0000 0.0000 0.0000 33.3992 0.0000
# 6 0.0000 0.0000 0.0000 0.0000 0.0000 -40.5907
#
#
#
# Elastic Compliance Matrix: (Units=1/GPa)
#
#
# Indices 1 2 3 4 5 6 
#
# 1 0.025686 -0.007285 -0.005632 0.000000 0.000000 0.000000
# 2 -0.007285 0.012035 -0.001808 0.000000 0.000000 0.000000
# 3 -0.005632 -0.001808 0.008357 0.000000 0.000000 0.000000
# 4 0.000000 0.000000 0.000000 -0.010232 0.000000 0.000000
# 5 0.000000 0.000000 0.000000 0.000000 0.029941 0.000000
# 6 0.000000 0.000000 0.000000 0.000000 0.000000 -0.024636
#
#
# Mechanical properties :
#
#
# Convention : Reuss Voigt Hill
#
# Bulk Modulus (GPa) = 60.14185 73.93794 67.03989
# Shear Modulus (GPa) = 65.66643 -8.01664 28.82489
#
# Velocity S-wave (km/s) = 5.98734 -2.09199 3.96685
# Velocity P-wave (km/s) = 8.97942 5.87610 7.58810
#
# Compressibility (1/GPa) = 0.01662736
#
# Stress axis : x y z
#
# Youngs Moduli (GPa) = 38.93234 83.09342 119.66129
#
# Poissons Ratio (x) = 0.60530 0.67392
# Poissons Ratio (y) = 0.28361 0.21639
# Poissons Ratio (z) = 0.21926 0.15026
#
# Static dielectric constant tensor:
#      x y z
#    x 1.651520 0.000000 0.000000 
#    y 0.000000 1.902820 0.000000 
#    z 0.000000 0.000000 1.651290 
# 
# From -- ./inp_files/17076.got.cif
#   From: 2010.05.17/outbox.cif.g08.bks.cpg/sg50_9_cif.got.tgz:17076.got - 2010.06.03 11:33:33.
