data_PCOD9397920
_publ_section_title
;
Structure prediction by ZEFSAII (Michael W. Deem and Ramdas Pophale) SiO2 
 PCOD9397920
Probable space group: P B A N
;
_chemical_formula_sum "Si O2"
_cell_formula_units_Z 24
_cell_length_a 9.675813
_cell_length_b 14.123828
_cell_length_c 7.448894
_cell_angle_alpha 90.000000
_cell_angle_beta 90.000000
_cell_angle_gamma 90.000000
_cell_volume 1017.962268
_symmetry_space_group_name_H-M "P B A N"
_symmetry_group_IT_number 50
_space_group.IT_coordinate_system_code '2'
_symmetry_cell_setting 'orthorhombic'
loop_
_space_group_symop_operation_xyz
x,y,z
1/2-x,1/2-y,z
x,1/2-y,-z
1/2-x,y,-z
-x,-y,-z
1/2+x,1/2+y,-z
-x,1/2+y,z
1/2+x,-y,z
loop_
_atom_site_type_symbol
_atom_site_label
_atom_site_fract_x
_atom_site_fract_y
_atom_site_fract_z
Si Si1 0.327654 0.338054 0.810985
Si Si2 0.624357 0.033451 0.623625
Si Si3 0.591206 0.232507 0.714986
O O1 0.250000 0.250000 0.714281
O O2 0.321866 0.440013 0.721324
O O3 0.485540 0.301735 0.814587
O O4 0.250000 0.346254 0.000000
O O5 0.750000 0.070858 0.500000
O O6 0.569547 0.120216 0.743146
O O7 0.500000 0.000000 0.500000
O O8 0.750000 0.250000 0.762750
O O9 0.570615 0.250000 0.500000
#
# Coordination Sequence:
#
# PCOD9397920 Si02
#       3
#     8   8   8
#     4  11  26  46  67 107 157 194 231 299 379 436
#     4  12  22  39  74 110 134 189 251 301 350 433
#     4  11  21  43  72 105 141 186 251 301 355 427
#
# _framework density 23.576512999999998
#
# number of rings (size 3 to 8) (size 9 to 14) (size 15 to 20)
#    0.000    0.667    6.667    2.000    0.000    0.000 
#    0.000   30.000    0.000    0.000    0.000    0.000 
#    0.000    0.000    0.000    0.000    0.000    0.000 
#
# Total GULP energy -134329.856747 kJ/mol
# GULP energy per Si atom -5597.077364 kJ/mol
# Density = 2.352285 g / cm^3
# Si number density = 23.576513 Si / 1000 Ang^3
#
#
#
# Elastic Constant Matrix: (Units=GPa)
#
#
# Indices 1 2 3 4 5 6 
#
# 1 135.3267 3.4370 36.9128 0.0000 0.0000 0.0000
# 2 3.4370 184.6725 36.9182 0.0000 0.0000 0.0000
# 3 36.9128 36.9182 86.7582 0.0000 0.0000 0.0000
# 4 0.0000 0.0000 0.0000 33.5479 0.0000 0.0000
# 5 0.0000 0.0000 0.0000 0.0000 23.6628 0.0000
# 6 0.0000 0.0000 0.0000 0.0000 0.0000 39.4188
#
#
#
# Elastic Compliance Matrix: (Units=1/GPa)
#
#
# Indices 1 2 3 4 5 6 
#
# 1 0.008422 0.000612 -0.003844 0.000000 0.000000 0.000000
# 2 0.000612 0.005963 -0.002798 0.000000 0.000000 0.000000
# 3 -0.003844 -0.002798 0.014352 0.000000 0.000000 0.000000
# 4 0.000000 0.000000 0.000000 0.029808 0.000000 0.000000
# 5 0.000000 0.000000 0.000000 0.000000 0.042260 0.000000
# 6 0.000000 0.000000 0.000000 0.000000 0.000000 0.025369
#
#
# Mechanical properties :
#
#
# Convention : Reuss Voigt Hill
#
# Bulk Modulus (GPa) = 59.95909 62.36592 61.16251
# Shear Modulus (GPa) = 34.77208 41.29185 38.03197
#
# Velocity S-wave (km/s) = 3.84456 4.18951 4.02074
# Velocity P-wave (km/s) = 6.72268 7.06489 6.89591
#
# Compressibility (1/GPa) = 0.01667804
#
# Stress axis : x y z
#
# Youngs Moduli (GPa) = 118.73045 167.70400 69.67598
#
# Poissons Ratio (x) = -0.10258 0.26782
# Poissons Ratio (y) = -0.07262 0.19493
# Poissons Ratio (z) = 0.45637 0.46917
#
# Static dielectric constant tensor:
#      x y z
#    x 2.072440 0.000000 0.000000 
#    y 0.000000 1.952460 0.000000 
#    z 0.000000 0.000000 1.947520 
# 
# From -- ./inp_files/8491.got.cif
#   From: 2010.05.17/outbox.cif.g08.bks.cpg/sg50_5_cif.got.tgz:8491.got - 2010.06.03 11:33:33.
