data_PCOD9397277
_publ_section_title
;
Structure prediction by ZEFSAII (Michael W. Deem and Ramdas Pophale) SiO2 
 PCOD9397277
Probable space group: P B A N
;
_chemical_formula_sum "Si O2"
_cell_formula_units_Z 34
_cell_length_a 12.663225
_cell_length_b 9.633441
_cell_length_c 11.925219
_cell_angle_alpha 90.000000
_cell_angle_beta 90.000000
_cell_angle_gamma 90.000000
_cell_volume 1454.762604
_symmetry_space_group_name_H-M "P B A N"
_symmetry_group_IT_number 50
_space_group.IT_coordinate_system_code '2'
_symmetry_cell_setting 'orthorhombic'
loop_
_space_group_symop_operation_xyz
x,y,z
1/2-x,1/2-y,z
x,1/2-y,-z
1/2-x,y,-z
-x,-y,-z
1/2+x,1/2+y,-z
-x,1/2+y,z
1/2+x,-y,z
loop_
_atom_site_type_symbol
_atom_site_label
_atom_site_fract_x
_atom_site_fract_y
_atom_site_fract_z
Si Si1 0.750000 0.250000 0.000000
Si Si2 0.659441 0.587959 0.713303
Si Si3 0.623214 0.093286 0.489003
Si Si4 0.063673 0.557850 0.894982
Si Si5 0.097132 0.385772 0.307675
O O1 0.835762 0.156958 0.927962
O O2 0.618664 0.462749 0.637074
O O3 0.610815 0.577121 0.834780
O O4 0.618420 0.727341 0.654912
O O5 0.783961 0.575009 0.729558
O O6 0.582723 0.250000 0.500000
O O7 0.750000 0.097765 0.500000
O O8 0.582454 0.988181 0.585023
O O9 0.980431 0.612819 0.800142
O O10 0.000000 0.500000 0.000000
#
# Coordination Sequence:
#
# PCOD9397277 Si02
#       5
#     2   8   8   8   8
#     4  12  28  48  72 104 146 192 252 322 380 452
#     4  10  22  41  67  98 139 184 232 290 355 433
#     4   9  19  37  66 103 142 184 232 288 351 426
#     4  12  26  45  69  99 137 185 243 305 373 440
#     4  10  22  42  68 100 138 183 232 289 359 435
#
# _framework density 23.371510000000001
#
# number of rings (size 3 to 8) (size 9 to 14) (size 15 to 20)
#    0.000    1.647    0.000    3.529    0.000   11.294 
#    0.000    2.353    0.000    0.000    0.000    1.647 
#    0.000    1.882    0.000    0.000    0.000    0.000 
#
# Total GULP energy -189494.051030 kJ/mol
# GULP energy per Si atom -5573.354442 kJ/mol
# Density = 2.331832 g / cm^3
# Si number density = 23.371510 Si / 1000 Ang^3
#
#
#
# Elastic Constant Matrix: (Units=GPa)
#
#
# Indices 1 2 3 4 5 6 
#
# 1 174.6747 32.4758 86.0077 0.0000 0.0000 0.0000
# 2 32.4758 111.4345 65.0745 0.0000 0.0000 0.0000
# 3 86.0077 65.0745 159.8509 0.0000 0.0000 0.0000
# 4 0.0000 0.0000 0.0000 36.4581 0.0000 0.0000
# 5 0.0000 0.0000 0.0000 0.0000 45.1730 0.0000
# 6 0.0000 0.0000 0.0000 0.0000 0.0000 9.0382
#
#
#
# Elastic Compliance Matrix: (Units=1/GPa)
#
#
# Indices 1 2 3 4 5 6 
#
# 1 0.007793 0.000233 -0.004288 0.000000 0.000000 0.000000
# 2 0.000233 0.011780 -0.004921 0.000000 0.000000 0.000000
# 3 -0.004288 -0.004921 0.010566 0.000000 0.000000 0.000000
# 4 0.000000 0.000000 0.000000 0.027429 0.000000 0.000000
# 5 0.000000 0.000000 0.000000 0.000000 0.022137 0.000000
# 6 0.000000 0.000000 0.000000 0.000000 0.000000 0.110641
#
#
# Mechanical properties :
#
#
# Convention : Reuss Voigt Hill
#
# Bulk Modulus (GPa) = 82.05279 90.34181 86.19730
# Shear Modulus (GPa) = 23.54499 35.62732 29.58616
#
# Velocity S-wave (km/s) = 3.17744 3.90858 3.56182
# Velocity P-wave (km/s) = 6.97465 7.68817 7.34008
#
# Compressibility (1/GPa) = 0.01218728
#
# Stress axis : x y z
#
# Youngs Moduli (GPa) = 128.32239 84.89282 94.64301
#
# Poissons Ratio (x) = -0.01976 0.40580
# Poissons Ratio (y) = -0.02987 0.46571
# Poissons Ratio (z) = 0.55021 0.41773
#
# Static dielectric constant tensor:
#      x y z
#    x 1.960640 0.000000 0.000000 
#    y 0.000000 1.926130 0.000000 
#    z 0.000000 0.000000 1.833940 
# 
# From -- ./inp_files/20866.got.cif
#   From: 2010.05.17/outbox.cif.g08.bks.cpg/sg50_11_cif.got.tgz:20866.got - 2010.06.03 11:33:33.
