data_PCOD9397720
_publ_section_title
;
Structure prediction by ZEFSAII (Michael W. Deem and Ramdas Pophale) SiO2 
 PCOD9397720
Probable space group: P B A N
;
_chemical_formula_sum "Si O2"
_cell_formula_units_Z 40
_cell_length_a 9.819701
_cell_length_b 10.943324
_cell_length_c 17.731783
_cell_angle_alpha 90.000000
_cell_angle_beta 90.000000
_cell_angle_gamma 90.000000
_cell_volume 1905.460409
_symmetry_space_group_name_H-M "P B A N"
_symmetry_group_IT_number 50
_space_group.IT_coordinate_system_code '2'
_symmetry_cell_setting 'orthorhombic'
loop_
_space_group_symop_operation_xyz
x,y,z
1/2-x,1/2-y,z
x,1/2-y,-z
1/2-x,y,-z
-x,-y,-z
1/2+x,1/2+y,-z
-x,1/2+y,z
1/2+x,-y,z
loop_
_atom_site_type_symbol
_atom_site_label
_atom_site_fract_x
_atom_site_fract_y
_atom_site_fract_z
Si Si1 0.750000 0.250000 0.000000
Si Si2 0.906890 0.107261 0.127395
Si Si3 0.920193 0.042159 0.425456
Si Si4 0.819924 0.510645 0.327614
Si Si5 0.786055 0.612041 0.163773
Si Si6 0.750000 0.250000 0.255091
Si Si7 0.250000 0.750000 0.500000
O O1 0.847686 0.328200 0.946162
O O2 0.864337 0.193018 0.199071
O O3 0.066698 0.084132 0.129133
O O4 0.827402 0.980815 0.135662
O O5 0.793374 0.965651 0.392070
O O6 0.848357 0.167786 0.449128
O O7 0.000000 0.000000 0.500000
O O8 0.032681 0.041873 0.360392
O O9 0.794329 0.589001 0.253408
O O10 0.805343 0.367139 0.302044
O O11 0.750000 0.750000 0.146606
#
# Coordination Sequence:
#
# PCOD9397720 Si02
#       7
#     2   8   8   8   8   4   2
#     4  10  24  48  82  96 154 200 228 274 366 428
#     4  10  24  46  71 108 145 188 233 286 350 422
#     4  12  25  43  66  94 134 179 238 286 363 432
#     4  11  23  42  72 100 132 188 231 290 369 410
#     4  11  26  44  72 107 145 178 244 298 343 420
#     4   9  21  41  75  98 140 174 234 292 343 425
#     4  12  26  48  64  86 146 176 218 318 348 436
#
# _framework density 20.9923
#
# number of rings (size 3 to 8) (size 9 to 14) (size 15 to 20)
#    0.000    1.200    2.000    3.000   11.200    2.400 
#    0.000    1.000    0.000    0.000    0.000    0.000 
#    0.000    0.000    0.000    0.000    0.000    0.000 
#
# Total GULP energy -223665.145400 kJ/mol
# GULP energy per Si atom -5591.628635 kJ/mol
# Density = 2.094452 g / cm^3
# Si number density = 20.992300 Si / 1000 Ang^3
#
#
#
# Elastic Constant Matrix: (Units=GPa)
#
#
# Indices 1 2 3 4 5 6 
#
# 1 172.8679 74.6747 38.8660 0.0000 0.0000 0.0000
# 2 74.6747 107.0940 50.2351 0.0000 0.0000 0.0000
# 3 38.8660 50.2351 91.6717 0.0000 0.0000 0.0000
# 4 0.0000 0.0000 0.0000 40.7881 0.0000 0.0000
# 5 0.0000 0.0000 0.0000 0.0000 25.7652 0.0000
# 6 0.0000 0.0000 0.0000 0.0000 0.0000 39.3905
#
#
#
# Elastic Compliance Matrix: (Units=1/GPa)
#
#
# Indices 1 2 3 4 5 6 
#
# 1 0.008293 -0.005563 -0.000467 0.000000 0.000000 0.000000
# 2 -0.005563 0.016300 -0.006574 0.000000 0.000000 0.000000
# 3 -0.000467 -0.006574 0.014709 0.000000 0.000000 0.000000
# 4 0.000000 0.000000 0.000000 0.024517 0.000000 0.000000
# 5 0.000000 0.000000 0.000000 0.000000 0.038812 0.000000
# 6 0.000000 0.000000 0.000000 0.000000 0.000000 0.025387
#
#
# Mechanical properties :
#
#
# Convention : Reuss Voigt Hill
#
# Bulk Modulus (GPa) = 70.95456 77.68723 74.32090
# Shear Modulus (GPa) = 31.66057 35.04594 33.35325
#
# Velocity S-wave (km/s) = 3.88777 4.09034 3.99034
# Velocity P-wave (km/s) = 7.35028 7.70686 7.53068
#
# Compressibility (1/GPa) = 0.01409353
#
# Stress axis : x y z
#
# Youngs Moduli (GPa) = 120.58233 61.34807 67.98574
#
# Poissons Ratio (x) = 0.34130 0.03177
# Poissons Ratio (y) = 0.67085 0.44692
# Poissons Ratio (z) = 0.05635 0.40329
#
# Static dielectric constant tensor:
#      x y z
#    x 1.701490 0.000000 0.000000 
#    y 0.000000 1.749450 0.000000 
#    z 0.000000 0.000000 1.779020 
# 
# From -- ./inp_files/30576.got.cif
#   From: 2010.05.17/outbox.cif.g08.bks.cpg/sg50_16_cif.got.tgz:30576.got - 2010.06.03 11:33:33.
