data_PCOD9397696
_publ_section_title
;
Structure prediction by ZEFSAII (Michael W. Deem and Ramdas Pophale) SiO2 
 PCOD9397696
Probable space group: P B A N
;
_chemical_formula_sum "Si O2"
_cell_formula_units_Z 32
_cell_length_a 10.015946
_cell_length_b 21.931507
_cell_length_c 6.111056
_cell_angle_alpha 90.000000
_cell_angle_beta 90.000000
_cell_angle_gamma 90.000000
_cell_volume 1342.383832
_symmetry_space_group_name_H-M "P B A N"
_symmetry_group_IT_number 50
_space_group.IT_coordinate_system_code '2'
_symmetry_cell_setting 'orthorhombic'
loop_
_space_group_symop_operation_xyz
x,y,z
1/2-x,1/2-y,z
x,1/2-y,-z
1/2-x,y,-z
-x,-y,-z
1/2+x,1/2+y,-z
-x,1/2+y,z
1/2+x,-y,z
loop_
_atom_site_type_symbol
_atom_site_label
_atom_site_fract_x
_atom_site_fract_y
_atom_site_fract_z
Si Si1 0.616397 0.816346 0.107604
Si Si2 0.250000 0.562722 0.500000
Si Si3 0.951287 0.137161 0.772936
Si Si4 0.461105 0.250000 0.500000
Si Si5 0.119425 0.475890 0.157373
O O1 0.621540 0.798796 0.358121
O O2 0.608964 0.750000 0.000000
O O3 0.750000 0.842919 0.000000
O O4 0.482525 0.850362 0.030114
O O5 0.323024 0.604047 0.319469
O O6 0.151211 0.520641 0.358580
O O7 0.959216 0.203009 0.654678
O O8 0.069559 0.087631 0.734198
O O9 0.250000 0.472699 0.000000
O O10 0.000000 0.500000 0.000000
#
# Coordination Sequence:
#
# PCOD9397696 Si02
#       5
#     8   4   8   4   8
#     4   9  20  40  65 106 144 194 249 316 387 467
#     4  12  28  49  76 111 156 210 262 328 410 476
#     4  11  25  44  74 109 151 198 262 323 400 480
#     4  10  24  44  74 106 154 203 257 328 402 470
#     4  12  27  49  77 113 153 207 268 332 397 476
#
# _framework density 23.838191999999999
#
# number of rings (size 3 to 8) (size 9 to 14) (size 15 to 20)
#    0.000    1.250    2.500    1.500    3.500   11.500 
#    0.000    0.000    5.500    0.000    0.000    0.000 
#    0.000    0.000    0.000    0.000    0.000    0.000 
#
# Total GULP energy -178298.689852 kJ/mol
# GULP energy per Si atom -5571.834058 kJ/mol
# Density = 2.378393 g / cm^3
# Si number density = 23.838192 Si / 1000 Ang^3
#
#
#
# Elastic Constant Matrix: (Units=GPa)
#
#
# Indices 1 2 3 4 5 6 
#
# 1 97.3786 41.1127 28.3340 0.0000 0.0000 0.0000
# 2 41.1127 125.7633 28.1697 0.0000 0.0000 0.0000
# 3 28.3340 28.1697 81.3307 0.0000 0.0000 0.0000
# 4 0.0000 0.0000 0.0000 30.5742 0.0000 0.0000
# 5 0.0000 0.0000 0.0000 0.0000 43.3809 0.0000
# 6 0.0000 0.0000 0.0000 0.0000 0.0000 23.1504
#
#
#
# Elastic Compliance Matrix: (Units=1/GPa)
#
#
# Indices 1 2 3 4 5 6 
#
# 1 0.012648 -0.003413 -0.003224 0.000000 0.000000 0.000000
# 2 -0.003413 0.009541 -0.002116 0.000000 0.000000 0.000000
# 3 -0.003224 -0.002116 0.014152 0.000000 0.000000 0.000000
# 4 0.000000 0.000000 0.000000 0.032707 0.000000 0.000000
# 5 0.000000 0.000000 0.000000 0.000000 0.023052 0.000000
# 6 0.000000 0.000000 0.000000 0.000000 0.000000 0.043196
#
#
# Mechanical properties :
#
#
# Convention : Reuss Voigt Hill
#
# Bulk Modulus (GPa) = 53.09166 55.52283 54.30724
# Shear Modulus (GPa) = 31.43090 33.21152 32.32121
#
# Velocity S-wave (km/s) = 3.63507 3.73662 3.68619
# Velocity P-wave (km/s) = 6.31968 6.47754 6.39910
#
# Compressibility (1/GPa) = 0.01883535
#
# Stress axis : x y z
#
# Youngs Moduli (GPa) = 79.06299 104.81166 70.66337
#
# Poissons Ratio (x) = 0.35767 0.22785
# Poissons Ratio (y) = 0.26980 0.14951
# Poissons Ratio (z) = 0.25493 0.22175
#
# Static dielectric constant tensor:
#      x y z
#    x 1.973820 0.000000 0.000000 
#    y 0.000000 1.963910 0.000000 
#    z 0.000000 0.000000 2.134630 
# 
# From -- ./inp_files/2205.got.cif
#   From: 2010.05.17/outbox.cif.g08.bks.cpg/sg50_2_cif.got.tgz:2205.got - 2010.06.03 11:33:33.
