data_PCOD9397830
_publ_section_title
;
Structure prediction by ZEFSAII (Michael W. Deem and Ramdas Pophale) SiO2 
 PCOD9397830
Probable space group: P B A N
;
_chemical_formula_sum "Si O2"
_cell_formula_units_Z 32
_cell_length_a 19.911634
_cell_length_b 9.367704
_cell_length_c 8.725313
_cell_angle_alpha 90.000000
_cell_angle_beta 90.000000
_cell_angle_gamma 90.000000
_cell_volume 1627.500293
_symmetry_space_group_name_H-M "P B A N"
_symmetry_group_IT_number 50
_space_group.IT_coordinate_system_code '2'
_symmetry_cell_setting 'orthorhombic'
loop_
_space_group_symop_operation_xyz
x,y,z
1/2-x,1/2-y,z
x,1/2-y,-z
1/2-x,y,-z
-x,-y,-z
1/2+x,1/2+y,-z
-x,1/2+y,z
1/2+x,-y,z
loop_
_atom_site_type_symbol
_atom_site_label
_atom_site_fract_x
_atom_site_fract_y
_atom_site_fract_z
Si Si1 0.176650 0.996636 0.007339
Si Si2 0.677149 0.229787 0.755443
Si Si3 0.531597 0.300034 0.663503
Si Si4 0.039351 0.072874 0.140254
O O1 0.180102 0.858029 0.119291
O O2 0.115325 0.084931 0.077229
O O3 0.250000 0.066587 0.000000
O O4 0.166948 0.921377 0.842309
O O5 0.750000 0.250000 0.678532
O O6 0.609336 0.253407 0.664707
O O7 0.502744 0.250000 0.500000
O O8 0.493576 0.217529 0.800566
O O9 0.532728 0.464692 0.714890
O O10 0.000000 0.000000 0.000000
#
# Coordination Sequence:
#
# PCOD9397830 Si02
#       4
#     8   8   8   8
#     4   8  14  27  50  78 100 131 179 232 264 306
#     4   8  14  27  48  76 106 135 173 223 272 315
#     4  11  22  34  51  82 116 145 177 225 279 326
#     4  11  20  35  57  80 106 145 188 226 266 324
#
# _framework density 19.662056
#
# number of rings (size 3 to 8) (size 9 to 14) (size 15 to 20)
#    0.000    2.500    2.500    3.000    0.000    0.500 
#    0.000    0.000    0.000    3.000    0.000    1.750 
#    0.000    0.000    0.000    0.000    0.000    0.000 
#
# Total GULP energy -178197.707853 kJ/mol
# GULP energy per Si atom -5568.678370 kJ/mol
# Density = 1.961730 g / cm^3
# Si number density = 19.662056 Si / 1000 Ang^3
#
#
#
# Elastic Constant Matrix: (Units=GPa)
#
#
# Indices 1 2 3 4 5 6 
#
# 1 122.1981 22.7475 11.3732 0.0000 0.0000 0.0000
# 2 22.7475 58.2789 9.1797 0.0000 0.0000 0.0000
# 3 11.3732 9.1797 70.0446 0.0000 0.0000 0.0000
# 4 0.0000 0.0000 0.0000 13.3804 0.0000 0.0000
# 5 0.0000 0.0000 0.0000 0.0000 14.3799 0.0000
# 6 0.0000 0.0000 0.0000 0.0000 0.0000 10.8677
#
#
#
# Elastic Compliance Matrix: (Units=1/GPa)
#
#
# Indices 1 2 3 4 5 6 
#
# 1 0.008894 -0.003312 -0.001010 0.000000 0.000000 0.000000
# 2 -0.003312 0.018754 -0.001920 0.000000 0.000000 0.000000
# 3 -0.001010 -0.001920 0.014692 0.000000 0.000000 0.000000
# 4 0.000000 0.000000 0.000000 0.074736 0.000000 0.000000
# 5 0.000000 0.000000 0.000000 0.000000 0.069542 0.000000
# 6 0.000000 0.000000 0.000000 0.000000 0.000000 0.092016
#
#
# Mechanical properties :
#
#
# Convention : Reuss Voigt Hill
#
# Bulk Modulus (GPa) = 33.49459 37.45805 35.47632
# Shear Modulus (GPa) = 16.60738 21.54033 19.07386
#
# Velocity S-wave (km/s) = 2.90942 3.31347 3.11800
# Velocity P-wave (km/s) = 5.32527 5.80784 5.57178
#
# Compressibility (1/GPa) = 0.02985557
#
# Stress axis : x y z
#
# Youngs Moduli (GPa) = 112.43457 53.32135 68.06316
#
# Poissons Ratio (x) = 0.17662 0.06875
# Poissons Ratio (y) = 0.37243 0.13068
# Poissons Ratio (z) = 0.11356 0.10238
#
# Static dielectric constant tensor:
#      x y z
#    x 1.738370 0.000000 0.000000 
#    y 0.000000 1.646610 0.000000 
#    z 0.000000 0.000000 1.781730 
# 
# From -- ./inp_files/9048.got.cif
#   From: 2010.05.17/outbox.cif.g08.bks.cpg/sg50_5_cif.got.tgz:9048.got - 2010.06.03 11:33:33.
