data_PCOD9397031
_publ_section_title
;
Structure prediction by ZEFSAII (Michael W. Deem and Ramdas Pophale) SiO2 
 PCOD9397031
Probable space group: P B A N
;
_chemical_formula_sum "Si O2"
_cell_formula_units_Z 32
_cell_length_a 9.062012
_cell_length_b 30.280570
_cell_length_c 5.120950
_cell_angle_alpha 90.000000
_cell_angle_beta 90.000000
_cell_angle_gamma 90.000000
_cell_volume 1405.203473
_symmetry_space_group_name_H-M "P B A N"
_symmetry_group_IT_number 50
_space_group.IT_coordinate_system_code '2'
_symmetry_cell_setting 'orthorhombic'
loop_
_space_group_symop_operation_xyz
x,y,z
1/2-x,1/2-y,z
x,1/2-y,-z
1/2-x,y,-z
-x,-y,-z
1/2+x,1/2+y,-z
-x,1/2+y,z
1/2+x,-y,z
loop_
_atom_site_type_symbol
_atom_site_label
_atom_site_fract_x
_atom_site_fract_y
_atom_site_fract_z
Si Si1 0.250000 0.250000 0.500000
Si Si2 0.005578 0.311725 0.705717
Si Si3 0.421804 0.955348 0.085309
Si Si4 0.531298 0.131001 0.202878
Si Si5 0.250000 0.585522 0.500000
Si Si6 0.750000 0.250000 0.500000
O O1 0.355314 0.219849 0.674014
O O2 0.023455 0.349548 0.480026
O O3 0.860121 0.282290 0.655196
O O4 0.995672 0.332371 0.989507
O O5 0.388488 0.942554 0.389865
O O6 0.250000 0.959894 0.000000
O O7 0.508340 0.915433 0.939878
O O8 0.500000 0.000000 0.000000
O O9 0.699649 0.118668 0.274870
#
# Coordination Sequence:
#
# PCOD9397031 Si02
#       6
#     2   8   8   8   4   2
#     4  10  28  52  66 104 150 200 232 322 352 448
#     4  11  25  45  69 100 142 182 246 288 377 414
#     4  10  23  43  69 105 147 188 238 296 356 431
#     4  11  23  41  72 100 139 188 231 299 349 434
#     4  10  21  42  71 109 144 186 236 306 356 413
#     4  10  26  36  72 100 126 176 232 308 336 442
#
# _framework density 22.772503
#
# number of rings (size 3 to 8) (size 9 to 14) (size 15 to 20)
#    0.000    1.500    2.500    0.750    7.000   11.000 
#    4.500    0.000    0.000    0.000    0.000    0.000 
#    0.000    0.000    0.000    0.000    0.000    0.000 
#
# Total GULP energy -178426.087768 kJ/mol
# GULP energy per Si atom -5575.815243 kJ/mol
# Density = 2.272067 g / cm^3
# Si number density = 22.772503 Si / 1000 Ang^3
#
#
#
# Elastic Constant Matrix: (Units=GPa)
#
#
# Indices 1 2 3 4 5 6 
#
# 1 87.1566 47.7601 19.1291 0.0000 0.0000 0.0000
# 2 47.7601 131.8721 33.1786 0.0000 0.0000 0.0000
# 3 19.1291 33.1786 133.5926 0.0000 0.0000 0.0000
# 4 0.0000 0.0000 0.0000 21.4656 0.0000 0.0000
# 5 0.0000 0.0000 0.0000 0.0000 13.3253 0.0000
# 6 0.0000 0.0000 0.0000 0.0000 0.0000 28.8907
#
#
#
# Elastic Compliance Matrix: (Units=1/GPa)
#
#
# Indices 1 2 3 4 5 6 
#
# 1 0.014398 -0.005009 -0.000818 0.000000 0.000000 0.000000
# 2 -0.005009 0.009831 -0.001724 0.000000 0.000000 0.000000
# 3 -0.000818 -0.001724 0.008031 0.000000 0.000000 0.000000
# 4 0.000000 0.000000 0.000000 0.046586 0.000000 0.000000
# 5 0.000000 0.000000 0.000000 0.000000 0.075045 0.000000
# 6 0.000000 0.000000 0.000000 0.000000 0.000000 0.034613
#
#
# Mechanical properties :
#
#
# Convention : Reuss Voigt Hill
#
# Bulk Modulus (GPa) = 58.28196 61.41743 59.84970
# Shear Modulus (GPa) = 23.88629 29.57321 26.72975
#
# Velocity S-wave (km/s) = 3.24220 3.60757 3.42975
# Velocity P-wave (km/s) = 6.29798 6.66193 6.48251
#
# Compressibility (1/GPa) = 0.01715797
#
# Stress axis : x y z
#
# Youngs Moduli (GPa) = 69.45543 101.71955 124.52077
#
# Poissons Ratio (x) = 0.50948 0.10182
# Poissons Ratio (y) = 0.34788 0.21472
# Poissons Ratio (z) = 0.05679 0.17540
#
# Static dielectric constant tensor:
#      x y z
#    x 1.845180 0.000000 0.000000 
#    y 0.000000 1.890210 0.000000 
#    z 0.000000 0.000000 2.060730 
# 
# From -- ./inp_files/1186.got.cif
#   From: 2010.05.17/outbox.cif.g08.bks.cpg/sg50_1_cif.got.tgz:1186.got - 2010.06.03 11:33:33.
