data_PCOD9397141
_publ_section_title
;
Structure prediction by ZEFSAII (Michael W. Deem and Ramdas Pophale) SiO2 
 PCOD9397141
Probable space group: P B A N
;
_chemical_formula_sum "Si O2"
_cell_formula_units_Z 32
_cell_length_a 36.801514
_cell_length_b 5.206873
_cell_length_c 7.055597
_cell_angle_alpha 90.000000
_cell_angle_beta 90.000000
_cell_angle_gamma 90.000000
_cell_volume 1351.999209
_symmetry_space_group_name_H-M "P B A N"
_symmetry_group_IT_number 50
_space_group.IT_coordinate_system_code '2'
_symmetry_cell_setting 'orthorhombic'
loop_
_space_group_symop_operation_xyz
x,y,z
1/2-x,1/2-y,z
x,1/2-y,-z
1/2-x,y,-z
-x,-y,-z
1/2+x,1/2+y,-z
-x,1/2+y,z
1/2+x,-y,z
loop_
_atom_site_type_symbol
_atom_site_label
_atom_site_fract_x
_atom_site_fract_y
_atom_site_fract_z
Si Si1 0.707944 0.756879 0.269484
Si Si2 0.983598 0.977391 0.787261
Si Si3 0.834115 0.252919 0.270437
Si Si4 0.093713 0.996368 0.367000
O O1 0.750000 0.750000 0.213805
O O2 0.707468 0.750000 0.500000
O O3 0.680480 0.526664 0.211596
O O4 0.693755 0.032034 0.205947
O O5 0.994835 0.244545 0.699350
O O6 0.940946 0.934451 0.761071
O O7 0.000000 0.000000 0.000000
O O8 0.833360 0.250000 0.500000
O O9 0.873669 0.380620 0.237931
O O10 0.102977 0.250000 0.500000
O O11 0.084770 0.750000 0.500000
#
# Coordination Sequence:
#
# PCOD9397141 Si02
#       4
#     8   8   8   8
#     4   9  15  23  37  57  87 131 175 205 241 299
#     4  10  22  39  56  75 102 138 177 227 284 338
#     4   9  16  26  38  60  93 127 168 212 254 300
#     4  11  21  33  52  77 105 139 182 231 280 329
#
# _framework density 23.668655000000001
#
# number of rings (size 3 to 8) (size 9 to 14) (size 15 to 20)
#    0.000    2.250    0.000    6.000    0.000    6.000 
#    0.000    0.000    0.000    0.000    0.000    0.000 
#    0.000    0.000    0.000   67.500    0.000  173.000 
#
# Total GULP energy -178362.404383 kJ/mol
# GULP energy per Si atom -5573.825137 kJ/mol
# Density = 2.361478 g / cm^3
# Si number density = 23.668655 Si / 1000 Ang^3
#
#
#
# Elastic Constant Matrix: (Units=GPa)
#
#
# Indices 1 2 3 4 5 6 
#
# 1 171.8018 25.0651 -2.3314 0.0000 0.0000 0.0000
# 2 25.0651 162.8312 -10.9005 0.0000 0.0000 0.0000
# 3 -2.3314 -10.9005 104.5572 0.0000 0.0000 0.0000
# 4 0.0000 0.0000 0.0000 -30.5950 0.0000 0.0000
# 5 0.0000 0.0000 0.0000 0.0000 -112.5105 0.0000
# 6 0.0000 0.0000 0.0000 0.0000 0.0000 39.5926
#
#
#
# Elastic Compliance Matrix: (Units=1/GPa)
#
#
# Indices 1 2 3 4 5 6 
#
# 1 0.005955 -0.000914 0.000037 0.000000 0.000000 0.000000
# 2 -0.000914 0.006325 0.000639 0.000000 0.000000 0.000000
# 3 0.000037 0.000639 0.009632 0.000000 0.000000 0.000000
# 4 0.000000 0.000000 0.000000 -0.032685 0.000000 0.000000
# 5 0.000000 0.000000 0.000000 0.000000 -0.008888 0.000000
# 6 0.000000 0.000000 0.000000 0.000000 0.000000 0.025257
#
#
# Mechanical properties :
#
#
# Convention : Reuss Voigt Hill
#
# Bulk Modulus (GPa) = 46.65109 51.42851 49.03980
# Shear Modulus (GPa) = 378.34467 7.78790 193.06628
#
# Velocity S-wave (km/s) = 12.65692 1.81591 9.04143
# Velocity P-wave (km/s) = 15.27578 5.11590 11.39127
#
# Compressibility (1/GPa) = 0.02143572
#
# Stress axis : x y z
#
# Youngs Moduli (GPa) = 167.93930 158.10739 103.82493
#
# Poissons Ratio (x) = 0.14452 -0.00389
# Poissons Ratio (y) = 0.15351 -0.06634
# Poissons Ratio (z) = -0.00629 -0.10103
#
# Static dielectric constant tensor:
#      x y z
#    x 1.926130 0.000000 0.000000 
#    y 0.000000 1.840380 0.000000 
#    z 0.000000 0.000000 1.926040 
# 
# From -- ./inp_files/16656.got.cif
#   From: 2010.05.17/outbox.cif.g08.bks.cpg/sg50_9_cif.got.tgz:16656.got - 2010.06.03 11:33:33.
