data_PCOD9397034
_publ_section_title
;
Structure prediction by ZEFSAII (Michael W. Deem and Ramdas Pophale) SiO2 
 PCOD9397034
Probable space group: P B A N
;
_chemical_formula_sum "Si O2"
_cell_formula_units_Z 64
_cell_length_a 12.265251
_cell_length_b 14.726390
_cell_length_c 17.613635
_cell_angle_alpha 90.000000
_cell_angle_beta 90.000000
_cell_angle_gamma 90.000000
_cell_volume 3181.425299
_symmetry_space_group_name_H-M "P B A N"
_symmetry_group_IT_number 50
_space_group.IT_coordinate_system_code '2'
_symmetry_cell_setting 'orthorhombic'
loop_
_space_group_symop_operation_xyz
x,y,z
1/2-x,1/2-y,z
x,1/2-y,-z
1/2-x,y,-z
-x,-y,-z
1/2+x,1/2+y,-z
-x,1/2+y,z
1/2+x,-y,z
loop_
_atom_site_type_symbol
_atom_site_label
_atom_site_fract_x
_atom_site_fract_y
_atom_site_fract_z
Si Si1 0.891079 0.277966 0.914419
Si Si2 0.928228 0.581768 0.033039
Si Si3 0.293676 0.909508 0.197326
Si Si4 0.055968 0.298139 0.204020
Si Si5 0.080842 0.569406 0.696682
Si Si6 0.124670 0.767469 0.410313
Si Si7 0.498488 0.633884 0.697863
Si Si8 0.210255 0.407299 0.115324
O O1 0.797630 0.332645 0.868386
O O2 0.987243 0.349149 0.932538
O O3 0.957672 0.209578 0.858967
O O4 0.860926 0.250000 0.000000
O O5 0.835275 0.569640 0.096450
O O6 0.856321 0.612586 0.961490
O O7 0.000000 0.500000 0.000000
O O8 0.184351 0.921669 0.246292
O O9 0.388452 0.884548 0.255348
O O10 0.328502 0.000662 0.154729
O O11 0.169759 0.326960 0.168159
O O12 0.016496 0.377534 0.260598
O O13 0.064271 0.203160 0.248244
O O14 0.100114 0.631323 0.621619
O O15 0.054330 0.463323 0.682576
O O16 0.250000 0.750000 0.385537
O O17 0.119504 0.750000 0.500000
O O18 0.042272 0.695195 0.372298
#
# Coordination Sequence:
#
# PCOD9397034 Si02
#       8
#     8   8   8   8   8   8   8   8
#     4  11  23  40  58  80 123 158 228 288 338 399
#     4  11  24  42  55  81 115 163 228 286 339 403
#     4  11  23  38  63  91 119 176 216 279 341 391
#     4  10  23  40  61  89 122 172 218 284 336 399
#     4  11  23  43  66  96 136 170 219 273 327 402
#     4  10  21  42  73 106 139 172 215 263 317 397
#     4  10  22  41  67 102 136 172 221 266 329 407
#     4  11  23  39  62  81 118 169 221 281 348 395
#
# _framework density 20.116771
#
# number of rings (size 3 to 8) (size 9 to 14) (size 15 to 20)
#    0.000    1.375    5.000    0.000    5.250    1.000 
#    0.000    1.875    0.000    0.000    0.000    0.875 
#    0.000    0.000    0.000    0.000    0.000    0.000 
#
# Total GULP energy -357109.355493 kJ/mol
# GULP energy per Si atom -5579.833680 kJ/mol
# Density = 2.007098 g / cm^3
# Si number density = 20.116771 Si / 1000 Ang^3
#
#
#
# Elastic Constant Matrix: (Units=GPa)
#
#
# Indices 1 2 3 4 5 6 
#
# 1 73.0330 45.5611 25.6478 0.0000 0.0000 0.0000
# 2 45.5611 142.6401 50.9595 0.0000 0.0000 0.0000
# 3 25.6478 50.9595 90.4919 0.0000 0.0000 0.0000
# 4 0.0000 0.0000 0.0000 24.5148 0.0000 0.0000
# 5 0.0000 0.0000 0.0000 0.0000 26.3158 0.0000
# 6 0.0000 0.0000 0.0000 0.0000 0.0000 21.2708
#
#
#
# Elastic Compliance Matrix: (Units=1/GPa)
#
#
# Indices 1 2 3 4 5 6 
#
# 1 0.017463 -0.004769 -0.002264 0.000000 0.000000 0.000000
# 2 -0.004769 0.010079 -0.004324 0.000000 0.000000 0.000000
# 3 -0.002264 -0.004324 0.014127 0.000000 0.000000 0.000000
# 4 0.000000 0.000000 0.000000 0.040792 0.000000 0.000000
# 5 0.000000 0.000000 0.000000 0.000000 0.038000 0.000000
# 6 0.000000 0.000000 0.000000 0.000000 0.000000 0.047013
#
#
# Mechanical properties :
#
#
# Convention : Reuss Voigt Hill
#
# Bulk Modulus (GPa) = 52.75648 61.16687 56.96168
# Shear Modulus (GPa) = 25.44465 26.68673 26.06569
#
# Velocity S-wave (km/s) = 3.56033 3.64619 3.60352
# Velocity P-wave (km/s) = 6.57140 6.94249 6.75949
#
# Compressibility (1/GPa) = 0.01895502
#
# Stress axis : x y z
#
# Youngs Moduli (GPa) = 57.26542 99.21863 70.78462
#
# Poissons Ratio (x) = 0.47318 0.16024
# Poissons Ratio (y) = 0.27310 0.30608
# Poissons Ratio (z) = 0.12963 0.42903
#
# Static dielectric constant tensor:
#      x y z
#    x 1.735220 0.000000 0.000000 
#    y 0.000000 1.740920 0.000000 
#    z 0.000000 0.000000 1.704950 
# 
# From -- ./inp_files/29248.got.cif
#   From: 2010.05.17/outbox.cif.g08.bks.cpg/sg50_15_cif.got.tgz:29248.got - 2010.06.03 11:33:33.
