data_PCOD9397227
_publ_section_title
;
Structure prediction by ZEFSAII (Michael W. Deem and Ramdas Pophale) SiO2 
 PCOD9397227
Probable space group: P B A N
;
_chemical_formula_sum "Si O2"
_cell_formula_units_Z 26
_cell_length_a 16.308058
_cell_length_b 5.175861
_cell_length_c 14.443396
_cell_angle_alpha 90.000000
_cell_angle_beta 90.000000
_cell_angle_gamma 90.000000
_cell_volume 1219.141656
_symmetry_space_group_name_H-M "P B A N"
_symmetry_group_IT_number 50
_space_group.IT_coordinate_system_code '2'
_symmetry_cell_setting 'orthorhombic'
loop_
_space_group_symop_operation_xyz
x,y,z
1/2-x,1/2-y,z
x,1/2-y,-z
1/2-x,y,-z
-x,-y,-z
1/2+x,1/2+y,-z
-x,1/2+y,z
1/2+x,-y,z
loop_
_atom_site_type_symbol
_atom_site_label
_atom_site_fract_x
_atom_site_fract_y
_atom_site_fract_z
Si Si1 0.942039 0.250000 0.000000
Si Si2 0.830317 0.905140 0.653082
Si Si3 0.058364 0.804634 0.203217
Si Si4 0.750000 0.250000 0.500000
Si Si5 0.056198 0.250000 0.500000
O O1 0.901058 0.279911 0.100353
O O2 0.000000 0.500000 0.000000
O O3 0.750000 0.750000 0.687939
O O4 0.894076 0.726234 0.597238
O O5 0.873341 0.093829 0.726041
O O6 0.802268 0.075520 0.566791
O O7 0.011724 0.529581 0.212548
O O8 0.000000 0.500000 0.500000
#
# Coordination Sequence:
#
# PCOD9397227 Si02
#       5
#     4   8   8   2   4
#     4   8  16  36  64  97 127 154 200 270 334 378
#     4  12  25  41  61  92 134 185 218 271 338 400
#     4  10  22  40  67 102 126 166 222 276 329 396
#     4  12  24  44  60  82 140 186 222 254 342 392
#     4  12  24  40  61  87 126 174 232 280 314 382
#
# _framework density 21.326481999999999
#
# number of rings (size 3 to 8) (size 9 to 14) (size 15 to 20)
#    0.000    1.231    3.077    2.769    4.308    0.000 
#    0.000    0.000    0.000    0.923    0.000    0.000 
#    0.000    0.000    0.000    0.308    0.000    0.000 
#
# Total GULP energy -145032.618968 kJ/mol
# GULP energy per Si atom -5578.177653 kJ/mol
# Density = 2.127794 g / cm^3
# Si number density = 21.326482 Si / 1000 Ang^3
#
#
#
# Elastic Constant Matrix: (Units=GPa)
#
#
# Indices 1 2 3 4 5 6 
#
# 1 70.0017 25.2371 49.9886 0.0000 0.0000 0.0000
# 2 25.2371 119.8651 21.4384 0.0000 0.0000 0.0000
# 3 49.9886 21.4384 177.0160 0.0000 0.0000 0.0000
# 4 0.0000 0.0000 0.0000 37.1838 0.0000 0.0000
# 5 0.0000 0.0000 0.0000 0.0000 30.1602 0.0000
# 6 0.0000 0.0000 0.0000 0.0000 0.0000 1.9287
#
#
#
# Elastic Compliance Matrix: (Units=1/GPa)
#
#
# Indices 1 2 3 4 5 6 
#
# 1 0.018958 -0.003101 -0.004978 0.000000 0.000000 0.000000
# 2 -0.003101 0.009035 -0.000218 0.000000 0.000000 0.000000
# 3 -0.004978 -0.000218 0.007081 0.000000 0.000000 0.000000
# 4 0.000000 0.000000 0.000000 0.026893 0.000000 0.000000
# 5 0.000000 0.000000 0.000000 0.000000 0.033156 0.000000
# 6 0.000000 0.000000 0.000000 0.000000 0.000000 0.518494
#
#
# Mechanical properties :
#
#
# Convention : Reuss Voigt Hill
#
# Bulk Modulus (GPa) = 54.11573 62.24564 58.18069
# Shear Modulus (GPa) = 7.85702 31.86912 19.86307
#
# Velocity S-wave (km/s) = 1.92150 3.86987 3.05516
# Velocity P-wave (km/s) = 5.50934 7.01557 6.30758
#
# Compressibility (1/GPa) = 0.01847892
#
# Stress axis : x y z
#
# Youngs Moduli (GPa) = 52.74719 110.68403 141.21354
#
# Poissons Ratio (x) = 0.34326 0.70298
# Poissons Ratio (y) = 0.16358 0.03084
# Poissons Ratio (z) = 0.26258 0.02418
#
# Static dielectric constant tensor:
#      x y z
#    x 1.496280 0.000000 0.000000 
#    y 0.000000 1.498290 0.000000 
#    z 0.000000 0.000000 1.828510 
# 
# From -- ./inp_files/23592.got.cif
#   From: 2010.05.17/outbox.cif.g08.bks.cpg/sg50_12_cif.got.tgz:23592.got - 2010.06.03 11:33:33.
