data_PCOD9397006
_publ_section_title
;
Structure prediction by ZEFSAII (Michael W. Deem and Ramdas Pophale) SiO2 
 PCOD9397006
Probable space group: P B A N
;
_chemical_formula_sum "Si O2"
_cell_formula_units_Z 54
_cell_length_a 26.331645
_cell_length_b 15.324756
_cell_length_c 6.373980
_cell_angle_alpha 90.000000
_cell_angle_beta 90.000000
_cell_angle_gamma 90.000000
_cell_volume 2572.066875
_symmetry_space_group_name_H-M "P B A N"
_symmetry_group_IT_number 50
_space_group.IT_coordinate_system_code '2'
_symmetry_cell_setting 'orthorhombic'
loop_
_space_group_symop_operation_xyz
x,y,z
1/2-x,1/2-y,z
x,1/2-y,-z
1/2-x,y,-z
-x,-y,-z
1/2+x,1/2+y,-z
-x,1/2+y,z
1/2+x,-y,z
loop_
_atom_site_type_symbol
_atom_site_label
_atom_site_fract_x
_atom_site_fract_y
_atom_site_fract_z
Si Si1 0.551114 0.250000 0.500000
Si Si2 0.007935 0.389740 0.272162
Si Si3 0.750000 0.250000 0.000000
Si Si4 0.608217 0.854274 0.002748
Si Si5 0.794723 0.117121 0.661794
Si Si6 0.687823 0.502547 0.012094
Si Si7 0.124297 0.606338 0.354467
Si Si8 0.566030 0.530135 0.642317
O O1 0.519205 0.200122 0.322908
O O2 0.581212 0.179618 0.645475
O O3 0.964802 0.461051 0.210498
O O4 0.025574 0.419423 0.502523
O O5 0.058135 0.378952 0.133108
O O6 0.778955 0.314658 0.159328
O O7 0.659373 0.907055 0.937890
O O8 0.595964 0.897745 0.227100
O O9 0.614609 0.750000 0.000000
O O10 0.750000 0.091857 0.500000
O O11 0.836449 0.152921 0.509005
O O12 0.819951 0.035551 0.779816
O O13 0.750000 0.506852 0.000000
O O14 0.658663 0.432544 0.164598
O O15 0.098503 0.525004 0.474350
#
# Coordination Sequence:
#
# PCOD9397006 Si02
#       8
#     4   8   2   8   8   8   8   8
#     4  10  24  40  67 102 142 187 230 300 350 442
#     4  10  21  43  65  97 139 178 230 289 357 431
#     4  12  26  40  68 106 134 184 230 284 348 422
#     4  12  25  42  68 100 134 184 241 301 355 423
#     4  12  24  42  68  98 140 185 229 284 352 424
#     4  12  25  45  68  99 136 189 236 294 353 419
#     4  11  23  42  66 100 140 183 234 290 359 434
#     4  10  21  41  69  95 132 182 229 288 366 422
#
# _framework density 20.994789000000001
#
# number of rings (size 3 to 8) (size 9 to 14) (size 15 to 20)
#    0.000    0.889    5.185    1.556    4.148    0.296 
#    2.667    1.481    0.000    0.000    0.000    0.000 
#    0.000    0.000    0.000    0.000    0.000    0.000 
#
# Total GULP energy -300713.499728 kJ/mol
# GULP energy per Si atom -5568.768513 kJ/mol
# Density = 2.094700 g / cm^3
# Si number density = 20.994789 Si / 1000 Ang^3
#
#
#
# Elastic Constant Matrix: (Units=GPa)
#
#
# Indices 1 2 3 4 5 6 
#
# 1 116.3303 59.8903 47.9758 0.0000 0.0000 0.0000
# 2 59.8903 150.7750 53.3485 0.0000 0.0000 0.0000
# 3 47.9758 53.3485 72.7443 0.0000 0.0000 0.0000
# 4 0.0000 0.0000 0.0000 18.2226 0.0000 0.0000
# 5 0.0000 0.0000 0.0000 0.0000 32.8463 0.0000
# 6 0.0000 0.0000 0.0000 0.0000 0.0000 29.5432
#
#
#
# Elastic Compliance Matrix: (Units=1/GPa)
#
#
# Indices 1 2 3 4 5 6 
#
# 1 0.012623 -0.002793 -0.006276 0.000000 0.000000 0.000000
# 2 -0.002793 0.009575 -0.005180 0.000000 0.000000 0.000000
# 3 -0.006276 -0.005180 0.021685 0.000000 0.000000 0.000000
# 4 0.000000 0.000000 0.000000 0.054877 0.000000 0.000000
# 5 0.000000 0.000000 0.000000 0.000000 0.030445 0.000000
# 6 0.000000 0.000000 0.000000 0.000000 0.000000 0.033849
#
#
# Mechanical properties :
#
#
# Convention : Reuss Voigt Hill
#
# Bulk Modulus (GPa) = 65.00400 73.58652 69.29526
# Shear Modulus (GPa) = 25.42218 28.03141 26.72680
#
# Velocity S-wave (km/s) = 3.48355 3.65795 3.57181
# Velocity P-wave (km/s) = 6.87090 7.27783 7.07729
#
# Compressibility (1/GPa) = 0.01538367
#
# Stress axis : x y z
#
# Youngs Moduli (GPa) = 79.22256 104.44333 46.11547
#
# Poissons Ratio (x) = 0.29173 0.28944
# Poissons Ratio (y) = 0.22128 0.23886
# Poissons Ratio (z) = 0.49723 0.54097
#
# Static dielectric constant tensor:
#      x y z
#    x 1.922770 0.000000 0.000000 
#    y 0.000000 1.783730 0.000000 
#    z 0.000000 0.000000 1.795220 
# 
# From -- ./inp_files/7213.got.cif
#   From: 2010.05.17/outbox.cif.g08.bks.cpg/sg50_4_cif.got.tgz:7213.got - 2010.06.03 11:33:33.
