data_PCOD9397532
_publ_section_title
;
Structure prediction by ZEFSAII (Michael W. Deem and Ramdas Pophale) SiO2 
 PCOD9397532
Probable space group: P B A N
;
_chemical_formula_sum "Si O2"
_cell_formula_units_Z 48
_cell_length_a 20.015827
_cell_length_b 8.933863
_cell_length_c 13.143086
_cell_angle_alpha 90.000000
_cell_angle_beta 90.000000
_cell_angle_gamma 90.000000
_cell_volume 2350.228977
_symmetry_space_group_name_H-M "P B A N"
_symmetry_group_IT_number 50
_space_group.IT_coordinate_system_code '2'
_symmetry_cell_setting 'orthorhombic'
loop_
_space_group_symop_operation_xyz
x,y,z
1/2-x,1/2-y,z
x,1/2-y,-z
1/2-x,y,-z
-x,-y,-z
1/2+x,1/2+y,-z
-x,1/2+y,z
1/2+x,-y,z
loop_
_atom_site_type_symbol
_atom_site_label
_atom_site_fract_x
_atom_site_fract_y
_atom_site_fract_z
Si Si1 0.150057 0.496103 0.703422
Si Si2 0.450496 0.479446 0.907599
Si Si3 0.750000 0.750000 0.747807
Si Si4 0.250000 0.750000 0.204336
Si Si5 0.802997 0.971699 0.086974
Si Si6 0.464001 0.879505 0.573953
Si Si7 0.975580 0.800896 0.771172
O O1 0.203595 0.364255 0.686776
O O2 0.194154 0.640071 0.741608
O O3 0.104356 0.549089 0.612187
O O4 0.089037 0.412368 0.765635
O O5 0.377021 0.479678 0.953465
O O6 0.463852 0.599587 0.816854
O O7 0.461245 0.321367 0.855275
O O8 0.500000 0.500000 0.000000
O O9 0.794974 0.648340 0.822723
O O10 0.211620 0.632380 0.134867
O O11 0.750000 0.936902 0.000000
O O12 0.444497 0.750000 0.500000
O O13 0.504591 0.794957 0.667983
O O14 0.500000 0.000000 0.500000
#
# Coordination Sequence:
#
# PCOD9397532 Si02
#       7
#     8   8   4   4   8   8   8
#     4  11  23  46  73 102 142 185 247 284 381 430
#     4  12  27  41  67 107 150 191 243 298 365 428
#     4  10  23  42  70  95 138 200 232 292 358 436
#     4  10  25  42  69  92 136 200 232 292 362 440
#     4  11  24  39  64  96 139 188 252 294 350 423
#     4  12  24  45  80 113 137 181 236 309 373 439
#     4  12  24  45  72 106 148 187 236 311 360 434
#
# _framework density 20.423539999999999
#
# number of rings (size 3 to 8) (size 9 to 14) (size 15 to 20)
#    0.000    0.667    5.000    2.000    4.667    2.667 
#    0.000    0.417    3.667    0.000    0.000    0.000 
#    0.000    0.000    0.000    0.000    0.000    0.000 
#
# Total GULP energy -267418.601876 kJ/mol
# GULP energy per Si atom -5571.220872 kJ/mol
# Density = 2.037706 g / cm^3
# Si number density = 20.423540 Si / 1000 Ang^3
#
#
#
# Elastic Constant Matrix: (Units=GPa)
#
#
# Indices 1 2 3 4 5 6 
#
# 1 153.4425 54.2750 52.8270 0.0000 0.0000 0.0000
# 2 54.2750 147.0436 60.7748 0.0000 0.0000 0.0000
# 3 52.8270 60.7748 89.4493 0.0000 0.0000 0.0000
# 4 0.0000 0.0000 0.0000 -92.7024 0.0000 0.0000
# 5 0.0000 0.0000 0.0000 0.0000 27.9939 0.0000
# 6 0.0000 0.0000 0.0000 0.0000 0.0000 32.2059
#
#
#
# Elastic Compliance Matrix: (Units=1/GPa)
#
#
# Indices 1 2 3 4 5 6 
#
# 1 0.008400 -0.001460 -0.003969 0.000000 0.000000 0.000000
# 2 -0.001460 0.009710 -0.005735 0.000000 0.000000 0.000000
# 3 -0.003969 -0.005735 0.017420 0.000000 0.000000 0.000000
# 4 0.000000 0.000000 0.000000 -0.010787 0.000000 0.000000
# 5 0.000000 0.000000 0.000000 0.000000 0.035722 0.000000
# 6 0.000000 0.000000 0.000000 0.000000 0.000000 0.031050
#
#
# Mechanical properties :
#
#
# Convention : Reuss Voigt Hill
#
# Bulk Modulus (GPa) = 75.74551 80.63210 78.18881
# Shear Modulus (GPa) = 42.28570 8.30338 25.29454
#
# Velocity S-wave (km/s) = 4.55514 2.01852 3.52305
# Velocity P-wave (km/s) = 8.05193 6.70807 7.41053
#
# Compressibility (1/GPa) = 0.01320210
#
# Stress axis : x y z
#
# Youngs Moduli (GPa) = 119.04848 102.98689 57.40566
#
# Poissons Ratio (x) = 0.15038 0.22783
# Poissons Ratio (y) = 0.17383 0.32922
# Poissons Ratio (z) = 0.47247 0.59062
#
# Static dielectric constant tensor:
#      x y z
#    x 1.755820 0.000000 0.000000 
#    y 0.000000 2.134790 0.000000 
#    z 0.000000 0.000000 1.730700 
# 
# From -- ./inp_files/26907.got.cif
#   From: 2010.05.17/outbox.cif.g08.bks.cpg/sg50_14_cif.got.tgz:26907.got - 2010.06.03 11:33:33.
