data_PCOD9397672
_publ_section_title
;
Structure prediction by ZEFSAII (Michael W. Deem and Ramdas Pophale) SiO2 
 PCOD9397672
Probable space group: P B A N
;
_chemical_formula_sum "Si O2"
_cell_formula_units_Z 56
_cell_length_a 10.919502
_cell_length_b 14.448130
_cell_length_c 14.932181
_cell_angle_alpha 90.000000
_cell_angle_beta 90.000000
_cell_angle_gamma 90.000000
_cell_volume 2355.796208
_symmetry_space_group_name_H-M "P B A N"
_symmetry_group_IT_number 50
_space_group.IT_coordinate_system_code '2'
_symmetry_cell_setting 'orthorhombic'
loop_
_space_group_symop_operation_xyz
x,y,z
1/2-x,1/2-y,z
x,1/2-y,-z
1/2-x,y,-z
-x,-y,-z
1/2+x,1/2+y,-z
-x,1/2+y,z
1/2+x,-y,z
loop_
_atom_site_type_symbol
_atom_site_label
_atom_site_fract_x
_atom_site_fract_y
_atom_site_fract_z
Si Si1 0.796694 0.403546 0.862693
Si Si2 0.904031 0.000280 0.656773
Si Si3 0.617962 0.198118 0.413999
Si Si4 0.877300 0.768415 0.138594
Si Si5 0.445774 0.599064 0.033231
Si Si6 0.027087 0.672258 0.275419
Si Si7 0.847183 0.937732 0.248142
O O1 0.654979 0.407204 0.887361
O O2 0.843382 0.357153 0.770622
O O3 0.835035 0.508968 0.845888
O O4 0.869652 0.364640 0.947302
O O5 0.882122 0.085583 0.586286
O O6 0.017306 0.040239 0.715873
O O7 0.768526 0.975535 0.694629
O O8 0.967169 0.897723 0.651869
O O9 0.750000 0.250000 0.408059
O O10 0.560828 0.250000 0.500000
O O11 0.550132 0.232794 0.325701
O O12 0.750000 0.750000 0.093406
O O13 0.839756 0.831880 0.223745
O O14 0.960452 0.827013 0.071882
O O15 0.942453 0.682194 0.187370
O O16 0.500000 0.500000 0.000000
#
# Coordination Sequence:
#
# PCOD9397672 Si02
#       7
#     8   8   8   8   8   8   8
#     4  10  24  43  68  99 140 193 254 306 381 450
#     4  11  23  43  77 109 150 197 246 310 372 461
#     4  11  25  46  75 116 154 191 247 313 379 464
#     4  12  24  42  71 103 151 190 257 321 380 452
#     4  11  24  44  69 101 142 194 252 318 381 444
#     4  11  25  44  73 108 146 201 252 303 386 459
#     4  11  21  41  72 106 142 197 255 302 379 456
#
# _framework density 23.771156000000001
#
# number of rings (size 3 to 8) (size 9 to 14) (size 15 to 20)
#    0.000    1.000    4.286    2.571    4.000    1.143 
#    0.000    3.571    0.000    3.000    0.000    0.000 
#    0.000    0.000    0.000    0.000    0.000    0.000 
#
# Total GULP energy -311891.873772 kJ/mol
# GULP energy per Si atom -5569.497746 kJ/mol
# Density = 2.371705 g / cm^3
# Si number density = 23.771156 Si / 1000 Ang^3
#
#
#
# Elastic Constant Matrix: (Units=GPa)
#
#
# Indices 1 2 3 4 5 6 
#
# 1 134.3422 34.9617 44.0602 0.0000 0.0000 0.0000
# 2 34.9617 105.4945 23.5066 0.0000 0.0000 0.0000
# 3 44.0602 23.5066 62.7491 0.0000 0.0000 0.0000
# 4 0.0000 0.0000 0.0000 23.5064 0.0000 0.0000
# 5 0.0000 0.0000 0.0000 0.0000 9.4416 0.0000
# 6 0.0000 0.0000 0.0000 0.0000 0.0000 31.4394
#
#
#
# Elastic Compliance Matrix: (Units=1/GPa)
#
#
# Indices 1 2 3 4 5 6 
#
# 1 0.010012 -0.001911 -0.006314 0.000000 0.000000 0.000000
# 2 -0.001911 0.010707 -0.002669 0.000000 0.000000 0.000000
# 3 -0.006314 -0.002669 0.021370 0.000000 0.000000 0.000000
# 4 0.000000 0.000000 0.000000 0.042542 0.000000 0.000000
# 5 0.000000 0.000000 0.000000 0.000000 0.105914 0.000000
# 6 0.000000 0.000000 0.000000 0.000000 0.000000 0.031807
#
#
# Mechanical properties :
#
#
# Convention : Reuss Voigt Hill
#
# Bulk Modulus (GPa) = 49.26015 56.40474 52.83244
# Shear Modulus (GPa) = 19.92768 26.21463 23.07116
#
# Velocity S-wave (km/s) = 2.89851 3.32443 3.11875
# Velocity P-wave (km/s) = 5.65415 6.20609 5.93654
#
# Compressibility (1/GPa) = 0.02030039
#
# Stress axis : x y z
#
# Youngs Moduli (GPa) = 99.88170 93.39452 46.79477
#
# Poissons Ratio (x) = 0.17848 0.29546
# Poissons Ratio (y) = 0.19088 0.12490
# Poissons Ratio (z) = 0.63066 0.24929
#
# Static dielectric constant tensor:
#      x y z
#    x 2.021970 0.000000 0.000000 
#    y 0.000000 2.035900 0.000000 
#    z 0.000000 0.000000 1.933320 
# 
# From -- ./inp_files/25966.got.cif
#   From: 2010.05.17/outbox.cif.g08.bks.cpg/sg50_13_cif.got.tgz:25966.got - 2010.06.03 11:33:33.
