data_PCOD9397105
_publ_section_title
;
Structure prediction by ZEFSAII (Michael W. Deem and Ramdas Pophale) SiO2 
 PCOD9397105
Probable space group: P B A N
;
_chemical_formula_sum "Si O2"
_cell_formula_units_Z 40
_cell_length_a 5.109295
_cell_length_b 21.106696
_cell_length_c 16.105187
_cell_angle_alpha 90.000000
_cell_angle_beta 90.000000
_cell_angle_gamma 90.000000
_cell_volume 1736.788783
_symmetry_space_group_name_H-M "P B A N"
_symmetry_group_IT_number 50
_space_group.IT_coordinate_system_code '2'
_symmetry_cell_setting 'orthorhombic'
loop_
_space_group_symop_operation_xyz
x,y,z
1/2-x,1/2-y,z
x,1/2-y,-z
1/2-x,y,-z
-x,-y,-z
1/2+x,1/2+y,-z
-x,1/2+y,z
1/2+x,-y,z
loop_
_atom_site_type_symbol
_atom_site_label
_atom_site_fract_x
_atom_site_fract_y
_atom_site_fract_z
Si Si1 0.143530 0.602034 0.777440
Si Si2 0.009635 0.833555 0.555247
Si Si3 0.236966 0.534337 0.382726
Si Si4 0.496785 0.928497 0.961637
Si Si5 0.860612 0.684212 0.260940
O O1 0.247891 0.547822 0.715706
O O2 0.042339 0.573313 0.863773
O O3 0.390205 0.650770 0.783559
O O4 0.890484 0.637126 0.737649
O O5 0.750000 0.831580 0.500000
O O6 0.957884 0.802379 0.644816
O O7 0.250000 0.810761 0.500000
O O8 0.103897 0.903878 0.580324
O O9 0.536429 0.521231 0.405805
O O10 0.250000 0.894394 0.000000
O O11 0.750000 0.897113 0.000000
O O12 0.500000 0.000000 0.000000
O O13 0.750000 0.750000 0.224631
#
# Coordination Sequence:
#
# PCOD9397105 Si02
#       5
#     8   8   8   8   8
#     4  11  23  41  66  95 138 169 220 275 317 396
#     4  11  23  41  61  90 128 163 222 286 332 385
#     4  11  23  36  59  88 125 180 214 254 323 408
#     4  10  22  37  62 100 137 174 201 259 326 393
#     4  11  24  45  69  94 123 176 230 276 337 385
#
# _framework density 23.031012
#
# number of rings (size 3 to 8) (size 9 to 14) (size 15 to 20)
#    0.000    1.200    0.000    7.800    5.600    2.800 
#    0.000    3.000    0.000    9.000    0.000    0.000 
#    0.000    0.000    0.000    0.000    0.000    0.000 
#
# Total GULP energy -223480.752770 kJ/mol
# GULP energy per Si atom -5587.018819 kJ/mol
# Density = 2.297859 g / cm^3
# Si number density = 23.031012 Si / 1000 Ang^3
#
#
#
# Elastic Constant Matrix: (Units=GPa)
#
#
# Indices 1 2 3 4 5 6 
#
# 1 219.9207 31.3673 45.5458 0.0000 0.0000 0.0000
# 2 31.3673 57.7854 20.2325 0.0000 0.0000 0.0000
# 3 45.5458 20.2325 138.1505 0.0000 0.0000 0.0000
# 4 0.0000 0.0000 0.0000 14.3099 0.0000 0.0000
# 5 0.0000 0.0000 0.0000 0.0000 43.2338 0.0000
# 6 0.0000 0.0000 0.0000 0.0000 0.0000 27.8597
#
#
#
# Elastic Compliance Matrix: (Units=1/GPa)
#
#
# Indices 1 2 3 4 5 6 
#
# 1 0.005161 -0.002325 -0.001361 0.000000 0.000000 0.000000
# 2 -0.002325 0.019288 -0.002058 0.000000 0.000000 0.000000
# 3 -0.001361 -0.002058 0.007989 0.000000 0.000000 0.000000
# 4 0.000000 0.000000 0.000000 0.069881 0.000000 0.000000
# 5 0.000000 0.000000 0.000000 0.000000 0.023130 0.000000
# 6 0.000000 0.000000 0.000000 0.000000 0.000000 0.035894
#
#
# Mechanical properties :
#
#
# Convention : Reuss Voigt Hill
#
# Bulk Modulus (GPa) = 47.73457 67.79420 57.76438
# Shear Modulus (GPa) = 27.80655 38.32810 33.06732
#
# Velocity S-wave (km/s) = 3.47847 4.08388 3.79327
# Velocity P-wave (km/s) = 6.07488 7.19287 6.65739
#
# Compressibility (1/GPa) = 0.02094918
#
# Stress axis : x y z
#
# Youngs Moduli (GPa) = 193.77929 51.84560 125.17858
#
# Poissons Ratio (x) = 0.12053 0.17035
# Poissons Ratio (y) = 0.45049 0.25766
# Poissons Ratio (z) = 0.26371 0.10672
#
# Static dielectric constant tensor:
#      x y z
#    x 1.887820 0.000000 0.000000 
#    y 0.000000 1.880030 0.000000 
#    z 0.000000 0.000000 1.880630 
# 
# From -- ./inp_files/23929.got.cif
#   From: 2010.05.17/outbox.cif.g08.bks.cpg/sg50_12_cif.got.tgz:23929.got - 2010.06.03 11:33:33.
