data_PCOD9397507
_publ_section_title
;
Structure prediction by ZEFSAII (Michael W. Deem and Ramdas Pophale) SiO2 
 PCOD9397507
Probable space group: P B A N
;
_chemical_formula_sum "Si O2"
_cell_formula_units_Z 64
_cell_length_a 21.197062
_cell_length_b 17.572145
_cell_length_c 8.810431
_cell_angle_alpha 90.000000
_cell_angle_beta 90.000000
_cell_angle_gamma 90.000000
_cell_volume 3281.690370
_symmetry_space_group_name_H-M "P B A N"
_symmetry_group_IT_number 50
_space_group.IT_coordinate_system_code '2'
_symmetry_cell_setting 'orthorhombic'
loop_
_space_group_symop_operation_xyz
x,y,z
1/2-x,1/2-y,z
x,1/2-y,-z
1/2-x,y,-z
-x,-y,-z
1/2+x,1/2+y,-z
-x,1/2+y,z
1/2+x,-y,z
loop_
_atom_site_type_symbol
_atom_site_label
_atom_site_fract_x
_atom_site_fract_y
_atom_site_fract_z
Si Si1 0.620987 0.581185 0.316760
Si Si2 0.647216 0.244831 0.667054
Si Si3 0.913038 0.751621 0.321456
Si Si4 0.489783 0.531151 0.168619
Si Si5 0.252751 0.026445 0.823703
Si Si6 0.748076 0.377207 0.332324
Si Si7 0.615630 0.919726 0.316255
Si Si8 0.033264 0.791192 0.152964
O O1 0.619370 0.670335 0.264806
O O2 0.558272 0.539712 0.250668
O O3 0.686893 0.547958 0.257326
O O4 0.616405 0.577144 0.499900
O O5 0.616365 0.250000 0.500000
O O6 0.681537 0.164556 0.683680
O O7 0.699975 0.310823 0.664771
O O8 0.600680 0.259318 0.802727
O O9 0.900705 0.750000 0.500000
O O10 0.896718 0.667462 0.264149
O O11 0.985687 0.766469 0.284794
O O12 0.438830 0.477016 0.253915
O O13 0.465017 0.617695 0.151257
O O14 0.500000 0.500000 0.000000
O O15 0.315207 0.059780 0.745568
O O16 0.259724 0.936227 0.799097
O O17 0.250000 0.047206 0.000000
O O18 0.750000 0.414953 0.500000
O O19 0.010745 0.750000 0.000000
#
# Coordination Sequence:
#
# PCOD9397507 Si02
#       8
#     8   8   8   8   8   8   8   8
#     4  10  23  42  63  89 118 155 199 246 298 355
#     4   9  19  35  56  81 111 148 193 241 290 347
#     4   9  21  41  63  84 109 145 194 244 292 347
#     4  11  23  40  61  90 126 159 198 246 298 356
#     4  12  25  39  58  88 122 157 196 246 300 355
#     4   9  19  37  57  79 110 150 193 239 289 349
#     4  11  22  41  66  89 116 155 201 248 295 353
#     4  11  22  35  55  84 118 154 190 234 293 353
#
# _framework density 19.502143
#
# number of rings (size 3 to 8) (size 9 to 14) (size 15 to 20)
#    0.000    1.750    0.000    4.875    0.000    6.500 
#    0.000    3.750    0.000    0.000    0.000    0.000 
#    0.000    0.000    0.000    0.000    0.000    0.000 
#
# Total GULP energy -357025.817906 kJ/mol
# GULP energy per Si atom -5578.528405 kJ/mol
# Density = 1.945776 g / cm^3
# Si number density = 19.502143 Si / 1000 Ang^3
#
#
#
# Elastic Constant Matrix: (Units=GPa)
#
#
# Indices 1 2 3 4 5 6 
#
# 1 106.0285 52.6259 44.1477 0.0000 0.0000 0.0000
# 2 52.6259 117.1488 34.9280 0.0000 0.0000 0.0000
# 3 44.1477 34.9280 70.2506 0.0000 0.0000 0.0000
# 4 0.0000 0.0000 0.0000 23.4581 0.0000 0.0000
# 5 0.0000 0.0000 0.0000 0.0000 23.8939 0.0000
# 6 0.0000 0.0000 0.0000 0.0000 0.0000 12.0136
#
#
#
# Elastic Compliance Matrix: (Units=1/GPa)
#
#
# Indices 1 2 3 4 5 6 
#
# 1 0.014523 -0.004465 -0.006907 0.000000 0.000000 0.000000
# 2 -0.004465 0.011394 -0.002859 0.000000 0.000000 0.000000
# 3 -0.006907 -0.002859 0.019997 0.000000 0.000000 0.000000
# 4 0.000000 0.000000 0.000000 0.042629 0.000000 0.000000
# 5 0.000000 0.000000 0.000000 0.000000 0.041852 0.000000
# 6 0.000000 0.000000 0.000000 0.000000 0.000000 0.083239
#
#
# Mechanical properties :
#
#
# Convention : Reuss Voigt Hill
#
# Bulk Modulus (GPa) = 57.29918 61.87011 59.58465
# Shear Modulus (GPa) = 20.16824 22.65487 21.41156
#
# Velocity S-wave (km/s) = 3.21932 3.41201 3.31706
# Velocity P-wave (km/s) = 6.57749 6.87867 6.72977
#
# Compressibility (1/GPa) = 0.01745226
#
# Stress axis : x y z
#
# Youngs Moduli (GPa) = 68.85406 87.76240 50.00750
#
# Poissons Ratio (x) = 0.39185 0.34541
# Poissons Ratio (y) = 0.30743 0.14299
# Poissons Ratio (z) = 0.47558 0.25094
#
# Static dielectric constant tensor:
#      x y z
#    x 1.674470 0.000000 0.000000 
#    y 0.000000 1.715680 0.000000 
#    z 0.000000 0.000000 1.702100 
# 
# From -- ./inp_files/15493.got.cif
#   From: 2010.05.17/outbox.cif.g08.bks.cpg/sg50_8_cif.got.tgz:15493.got - 2010.06.03 11:33:33.
