data_PCOD9397667
_publ_section_title
;
Structure prediction by ZEFSAII (Michael W. Deem and Ramdas Pophale) SiO2 
 PCOD9397667
Probable space group: P B A N
;
_chemical_formula_sum "Si O2"
_cell_formula_units_Z 44
_cell_length_a 9.140117
_cell_length_b 31.762798
_cell_length_c 7.484584
_cell_angle_alpha 90.000000
_cell_angle_beta 90.000000
_cell_angle_gamma 90.000000
_cell_volume 2172.892168
_symmetry_space_group_name_H-M "P B A N"
_symmetry_group_IT_number 50
_space_group.IT_coordinate_system_code '2'
_symmetry_cell_setting 'orthorhombic'
loop_
_space_group_symop_operation_xyz
x,y,z
1/2-x,1/2-y,z
x,1/2-y,-z
1/2-x,y,-z
-x,-y,-z
1/2+x,1/2+y,-z
-x,1/2+y,z
1/2+x,-y,z
loop_
_atom_site_type_symbol
_atom_site_label
_atom_site_fract_x
_atom_site_fract_y
_atom_site_fract_z
Si Si1 0.917810 0.112895 0.276620
Si Si2 0.250000 0.996020 0.000000
Si Si3 0.502225 0.559933 0.062144
Si Si4 0.920176 0.374826 0.320895
Si Si5 0.915062 0.800813 0.797741
Si Si6 0.925606 0.792837 0.228764
O O1 0.745320 0.121757 0.248115
O O2 0.930921 0.103324 0.486677
O O3 0.002730 0.156780 0.251979
O O4 0.977765 0.077720 0.139303
O O5 0.133330 0.027384 0.912724
O O6 0.353972 0.965193 0.886631
O O7 0.521956 0.600455 0.183301
O O8 0.972502 0.326816 0.323222
O O9 0.967680 0.755246 0.728086
O O10 0.745762 0.801876 0.735617
O O11 0.930394 0.797831 0.013159
#
# Coordination Sequence:
#
# PCOD9397667 Si02
#       6
#     8   4   8   8   8   8
#     4  11  23  38  60  89 123 160 197 241 292 349
#     4  10  24  42  74  86 114 156 194 230 318 360
#     4  11  22  46  63  92 118 153 189 249 293 363
#     4  11  23  38  60  89 123 160 197 241 292 349
#     4   9  19  36  59  88 121 160 204 246 288 341
#     4   9  19  36  59  88 121 160 204 246 288 341
#
# _framework density 20.249507999999999
#
# number of rings (size 3 to 8) (size 9 to 14) (size 15 to 20)
#    0.000    1.818    3.636    1.091    2.545    2.182 
#    0.000   10.909    0.000    0.000    0.000    0.000 
#    0.000    0.000    0.000    0.000    0.000    0.000 
#
# Total GULP energy -245363.003934 kJ/mol
# GULP energy per Si atom -5576.431908 kJ/mol
# Density = 2.020342 g / cm^3
# Si number density = 20.249508 Si / 1000 Ang^3
#
#
#
# Elastic Constant Matrix: (Units=GPa)
#
#
# Indices 1 2 3 4 5 6 
#
# 1 55.8663 36.0731 6.9877 0.0000 0.0000 0.0000
# 2 36.0731 109.1078 13.5544 0.0000 0.0000 0.0000
# 3 6.9877 13.5544 58.4393 0.0000 0.0000 0.0000
# 4 0.0000 0.0000 0.0000 -0.1852 0.0000 0.0000
# 5 0.0000 0.0000 0.0000 0.0000 2.3306 0.0000
# 6 0.0000 0.0000 0.0000 0.0000 0.0000 39.5357
#
#
#
# Elastic Compliance Matrix: (Units=1/GPa)
#
#
# Indices 1 2 3 4 5 6 
#
# 1 0.022816 -0.007418 -0.001008 0.000000 0.000000 0.000000
# 2 -0.007418 0.011849 -0.001861 0.000000 0.000000 0.000000
# 3 -0.001008 -0.001861 0.017664 0.000000 0.000000 0.000000
# 4 0.000000 0.000000 0.000000 -5.399595 0.000000 0.000000
# 5 0.000000 0.000000 0.000000 0.000000 0.429080 0.000000
# 6 0.000000 0.000000 0.000000 0.000000 0.000000 0.025294
#
#
# Mechanical properties :
#
#
# Convention : Reuss Voigt Hill
#
# Bulk Modulus (GPa) = 31.49122 37.40485 34.44804
# Shear Modulus (GPa) = -1.02844 19.45608 9.21382
#
# Velocity S-wave (km/s) = -0.71343 3.10307 2.13542
# Velocity P-wave (km/s) = 3.86092 5.59918 4.80924
#
# Compressibility (1/GPa) = 0.03175488
#
# Stress axis : x y z
#
# Youngs Moduli (GPa) = 43.82913 84.39478 56.61244
#
# Poissons Ratio (x) = 0.62606 0.05704
# Poissons Ratio (y) = 0.32513 0.10537
# Poissons Ratio (z) = 0.04416 0.15708
#
# Static dielectric constant tensor:
#      x y z
#    x 1.725790 0.000000 0.000000 
#    y 0.000000 1.793310 0.000000 
#    z 0.000000 0.000000 1.752970 
# 
# From -- ./inp_files/9972.got.cif
#   From: 2010.05.17/outbox.cif.g08.bks.cpg/sg50_5_cif.got.tgz:9972.got - 2010.06.03 11:33:33.
