data_PCOD9397298
_publ_section_title
;
Structure prediction by ZEFSAII (Michael W. Deem and Ramdas Pophale) SiO2 
 PCOD9397298
Probable space group: P B A N
;
_chemical_formula_sum "Si O2"
_cell_formula_units_Z 24
_cell_length_a 20.544652
_cell_length_b 8.951819
_cell_length_c 5.285443
_cell_angle_alpha 90.000000
_cell_angle_beta 90.000000
_cell_angle_gamma 90.000000
_cell_volume 972.056425
_symmetry_space_group_name_H-M "P B A N"
_symmetry_group_IT_number 50
_space_group.IT_coordinate_system_code '2'
_symmetry_cell_setting 'orthorhombic'
loop_
_space_group_symop_operation_xyz
x,y,z
1/2-x,1/2-y,z
x,1/2-y,-z
1/2-x,y,-z
-x,-y,-z
1/2+x,1/2+y,-z
-x,1/2+y,z
1/2+x,-y,z
loop_
_atom_site_type_symbol
_atom_site_label
_atom_site_fract_x
_atom_site_fract_y
_atom_site_fract_z
Si Si1 0.175943 0.570090 0.500885
Si Si2 0.590072 0.648049 0.753570
Si Si3 0.445081 0.648590 0.753255
O O1 0.182055 0.750000 0.500000
O O2 0.250000 0.512958 0.500000
O O3 0.142020 0.483990 0.730786
O O4 0.119450 0.549687 0.287614
O O5 0.596025 0.750000 0.500000
O O6 0.517127 0.578686 0.761306
O O7 0.597174 0.750000 0.000000
O O8 0.447957 0.750000 0.500000
O O9 0.437931 0.750000 0.000000
#
# Coordination Sequence:
#
# PCOD9397298 Si02
#       3
#     8   8   8
#     4  10  22  42  65  97 137 177 220 277 346 413
#     4  10  22  42  68  96 128 173 227 279 331 396
#     4   9  19  38  65  95 128 169 222 278 332 396
#
# _framework density 24.689927000000001
#
# number of rings (size 3 to 8) (size 9 to 14) (size 15 to 20)
#    0.000    2.333    0.000    1.000    0.000    6.000 
#    0.000   46.667    0.000    0.000    0.000    0.000 
#    0.000    0.000    0.000    0.000    0.000    0.000 
#
# Total GULP energy -133977.746579 kJ/mol
# GULP energy per Si atom -5582.406107 kJ/mol
# Density = 2.463373 g / cm^3
# Si number density = 24.689927 Si / 1000 Ang^3
#
#
#
# Elastic Constant Matrix: (Units=GPa)
#
#
# Indices 1 2 3 4 5 6 
#
# 1 284.8556 66.2036 51.3431 0.0000 0.0000 0.0000
# 2 66.2036 94.7502 70.2748 0.0000 0.0000 0.0000
# 3 51.3431 70.2748 187.8300 0.0000 0.0000 0.0000
# 4 0.0000 0.0000 0.0000 40.7092 0.0000 0.0000
# 5 0.0000 0.0000 0.0000 0.0000 -8.2963 0.0000
# 6 0.0000 0.0000 0.0000 0.0000 0.0000 -5.4159
#
#
#
# Elastic Compliance Matrix: (Units=1/GPa)
#
#
# Indices 1 2 3 4 5 6 
#
# 1 0.004192 -0.002878 -0.000069 0.000000 0.000000 0.000000
# 2 -0.002878 0.016583 -0.005418 0.000000 0.000000 0.000000
# 3 -0.000069 -0.005418 0.007370 0.000000 0.000000 0.000000
# 4 0.000000 0.000000 0.000000 0.024564 0.000000 0.000000
# 5 0.000000 0.000000 0.000000 0.000000 -0.120536 0.000000
# 6 0.000000 0.000000 0.000000 0.000000 0.000000 -0.184643
#
#
# Mechanical properties :
#
#
# Convention : Reuss Voigt Hill
#
# Bulk Modulus (GPa) = 87.59976 104.78653 96.19315
# Shear Modulus (GPa) = -21.55769 30.70702 4.57466
#
# Velocity S-wave (km/s) = -2.95810 3.53045 1.36267
# Velocity P-wave (km/s) = 4.88773 7.69103 6.44367
#
# Compressibility (1/GPa) = 0.01141556
#
# Stress axis : x y z
#
# Youngs Moduli (GPa) = 238.56090 60.30294 135.68718
#
# Poissons Ratio (x) = 0.17352 0.00939
# Poissons Ratio (y) = 0.68647 0.73512
# Poissons Ratio (z) = 0.01651 0.32671
#
# Static dielectric constant tensor:
#      x y z
#    x 1.992740 0.000000 0.000000 
#    y 0.000000 2.070760 0.000000 
#    z 0.000000 0.000000 2.004680 
# 
# From -- ./inp_files/791.got.cif
#   From: 2010.05.17/outbox.cif.g08.bks.cpg/sg50_1_cif.got.tgz:791.got - 2010.06.03 11:33:33.
