data_PCOD9397021
_publ_section_title
;
Structure prediction by ZEFSAII (Michael W. Deem and Ramdas Pophale) SiO2 
 PCOD9397021
Probable space group: P B A N
;
_chemical_formula_sum "Si O2"
_cell_formula_units_Z 30
_cell_length_a 16.343555
_cell_length_b 13.461991
_cell_length_c 6.075943
_cell_angle_alpha 90.000000
_cell_angle_beta 90.000000
_cell_angle_gamma 90.000000
_cell_volume 1336.809477
_symmetry_space_group_name_H-M "P B A N"
_symmetry_group_IT_number 50
_space_group.IT_coordinate_system_code '2'
_symmetry_cell_setting 'orthorhombic'
loop_
_space_group_symop_operation_xyz
x,y,z
1/2-x,1/2-y,z
x,1/2-y,-z
1/2-x,y,-z
-x,-y,-z
1/2+x,1/2+y,-z
-x,1/2+y,z
1/2+x,-y,z
loop_
_atom_site_type_symbol
_atom_site_label
_atom_site_fract_x
_atom_site_fract_y
_atom_site_fract_z
Si Si1 0.371978 0.929606 0.404166
Si Si2 0.250000 0.750000 0.500000
Si Si3 0.115702 0.250000 0.500000
Si Si4 0.829608 0.612899 0.857570
Si Si5 0.049691 0.067319 0.248355
O O1 0.316230 0.830679 0.400838
O O2 0.451647 0.929905 0.245078
O O3 0.320050 0.020476 0.308128
O O4 0.409938 0.968314 0.639584
O O5 0.162301 0.289401 0.288406
O O6 0.066025 0.154828 0.423394
O O7 0.750000 0.616074 0.000000
O O8 0.906197 0.596643 0.022343
#
# Coordination Sequence:
#
# PCOD9397021 Si02
#       5
#     8   2   4   8   8
#     4  10  23  41  66  95 132 175 220 274 341 415
#     4  12  22  44  68  98 140 176 224 288 340 406
#     4  10  23  39  63  95 124 164 218 273 337 402
#     4  11  23  41  64  94 130 172 220 279 341 408
#     4  10  21  42  66  95 131 173 221 276 341 417
#
# _framework density 22.441493999999999
#
# number of rings (size 3 to 8) (size 9 to 14) (size 15 to 20)
#    0.000    1.600    0.000    4.000    0.000    6.400 
#    0.000   14.000    0.000    0.000    0.000    0.000 
#    0.000    0.000    0.000    0.000    0.000    0.000 
#
# Total GULP energy -167341.144490 kJ/mol
# GULP energy per Si atom -5578.038150 kJ/mol
# Density = 2.239042 g / cm^3
# Si number density = 22.441494 Si / 1000 Ang^3
#
#
#
# Elastic Constant Matrix: (Units=GPa)
#
#
# Indices 1 2 3 4 5 6 
#
# 1 148.0916 48.5066 59.0830 0.0000 0.0000 0.0000
# 2 48.5066 113.1315 22.5481 0.0000 0.0000 0.0000
# 3 59.0830 22.5481 90.1077 0.0000 0.0000 0.0000
# 4 0.0000 0.0000 0.0000 39.8059 0.0000 0.0000
# 5 0.0000 0.0000 0.0000 0.0000 25.7989 0.0000
# 6 0.0000 0.0000 0.0000 0.0000 0.0000 41.9555
#
#
#
# Elastic Compliance Matrix: (Units=1/GPa)
#
#
# Indices 1 2 3 4 5 6 
#
# 1 0.010124 -0.003176 -0.005844 0.000000 0.000000 0.000000
# 2 -0.003176 0.010300 -0.000495 0.000000 0.000000 0.000000
# 3 -0.005844 -0.000495 0.015053 0.000000 0.000000 0.000000
# 4 0.000000 0.000000 0.000000 0.025122 0.000000 0.000000
# 5 0.000000 0.000000 0.000000 0.000000 0.038761 0.000000
# 6 0.000000 0.000000 0.000000 0.000000 0.000000 0.023835
#
#
# Mechanical properties :
#
#
# Convention : Reuss Voigt Hill
#
# Bulk Modulus (GPa) = 60.79724 67.95623 64.37673
# Shear Modulus (GPa) = 33.85072 36.25825 35.05448
#
# Velocity S-wave (km/s) = 3.88802 4.02391 3.95655
# Velocity P-wave (km/s) = 6.87793 7.20669 7.04423
#
# Compressibility (1/GPa) = 0.01644812
#
# Stress axis : x y z
#
# Youngs Moduli (GPa) = 98.77191 97.08993 66.43084
#
# Poissons Ratio (x) = 0.30838 0.38820
# Poissons Ratio (y) = 0.31372 0.03286
# Poissons Ratio (z) = 0.57719 0.04803
#
# Static dielectric constant tensor:
#      x y z
#    x 1.901300 0.000000 0.000000 
#    y 0.000000 1.845920 0.000000 
#    z 0.000000 0.000000 1.881290 
# 
# From -- ./inp_files/4007.got.cif
#   From: 2010.05.17/outbox.cif.g08.bks.cpg/sg50_3_cif.got.tgz:4007.got - 2010.06.03 11:33:33.
