data_PCOD9397384
_publ_section_title
;
Structure prediction by ZEFSAII (Michael W. Deem and Ramdas Pophale) SiO2 
 PCOD9397384
Probable space group: P B A N
;
_chemical_formula_sum "Si O2"
_cell_formula_units_Z 40
_cell_length_a 12.122974
_cell_length_b 8.759091
_cell_length_c 16.297696
_cell_angle_alpha 90.000000
_cell_angle_beta 90.000000
_cell_angle_gamma 90.000000
_cell_volume 1730.590936
_symmetry_space_group_name_H-M "P B A N"
_symmetry_group_IT_number 50
_space_group.IT_coordinate_system_code '2'
_symmetry_cell_setting 'orthorhombic'
loop_
_space_group_symop_operation_xyz
x,y,z
1/2-x,1/2-y,z
x,1/2-y,-z
1/2-x,y,-z
-x,-y,-z
1/2+x,1/2+y,-z
-x,1/2+y,z
1/2+x,-y,z
loop_
_atom_site_type_symbol
_atom_site_label
_atom_site_fract_x
_atom_site_fract_y
_atom_site_fract_z
Si Si1 0.621394 0.199633 0.905977
Si Si2 0.132613 0.800156 0.594927
Si Si3 0.755424 0.569706 0.905708
Si Si4 0.944087 0.906375 0.323421
Si Si5 0.569704 0.852133 0.210095
O O1 0.750000 0.250000 0.889738
O O2 0.518467 0.234697 0.848336
O O3 0.634495 0.019181 0.884495
O O4 0.595706 0.250000 0.000000
O O5 0.250000 0.750000 0.632380
O O6 0.133759 0.750000 0.500000
O O7 0.034207 0.700732 0.633054
O O8 0.118582 0.981263 0.612995
O O9 0.750000 0.750000 0.909279
O O10 0.653505 0.547268 0.844781
O O11 0.750000 0.516167 0.000000
O O12 0.879007 0.784857 0.265946
O O13 0.008096 0.029760 0.268553
#
# Coordination Sequence:
#
# PCOD9397384 Si02
#       5
#     8   8   8   8   8
#     4  11  23  42  61  85 117 167 231 284 338 396
#     4  10  22  44  74 103 138 178 213 261 335 418
#     4  11  24  39  56  86 116 165 225 283 336 386
#     4  10  23  41  66 104 133 172 217 278 332 401
#     4  11  24  40  64  89 130 173 218 280 340 386
#
# _framework density 23.113492000000001
#
# number of rings (size 3 to 8) (size 9 to 14) (size 15 to 20)
#    0.000    1.400    2.000    3.000    2.800    8.800 
#    0.000    3.000    0.000   10.800    0.000    0.000 
#    0.000    0.000    0.000    0.000    0.000    0.000 
#
# Total GULP energy -222833.205810 kJ/mol
# GULP energy per Si atom -5570.830145 kJ/mol
# Density = 2.306088 g / cm^3
# Si number density = 23.113492 Si / 1000 Ang^3
#
#
#
# Elastic Constant Matrix: (Units=GPa)
#
#
# Indices 1 2 3 4 5 6 
#
# 1 72.8301 39.8794 37.0588 0.0000 0.0000 0.0000
# 2 39.8794 132.7089 33.1891 0.0000 0.0000 0.0000
# 3 37.0588 33.1891 93.4901 0.0000 0.0000 0.0000
# 4 0.0000 0.0000 0.0000 16.0967 0.0000 0.0000
# 5 0.0000 0.0000 0.0000 0.0000 32.6599 0.0000
# 6 0.0000 0.0000 0.0000 0.0000 0.0000 38.0960
#
#
#
# Elastic Compliance Matrix: (Units=1/GPa)
#
#
# Indices 1 2 3 4 5 6 
#
# 1 0.019144 -0.004231 -0.006087 0.000000 0.000000 0.000000
# 2 -0.004231 0.009204 -0.001591 0.000000 0.000000 0.000000
# 3 -0.006087 -0.001591 0.013674 0.000000 0.000000 0.000000
# 4 0.000000 0.000000 0.000000 0.062124 0.000000 0.000000
# 5 0.000000 0.000000 0.000000 0.000000 0.030619 0.000000
# 6 0.000000 0.000000 0.000000 0.000000 0.000000 0.026249
#
#
# Mechanical properties :
#
#
# Convention : Reuss Voigt Hill
#
# Bulk Modulus (GPa) = 54.92570 57.69821 56.31196
# Shear Modulus (GPa) = 26.19173 29.96397 28.07785
#
# Velocity S-wave (km/s) = 3.36992 3.60444 3.48915
# Velocity P-wave (km/s) = 6.24155 6.50691 6.37561
#
# Compressibility (1/GPa) = 0.01820641
#
# Stress axis : x y z
#
# Youngs Moduli (GPa) = 52.23464 108.64350 73.13288
#
# Poissons Ratio (x) = 0.45964 0.44515
# Poissons Ratio (y) = 0.22099 0.11632
# Poissons Ratio (z) = 0.31794 0.17280
#
# Static dielectric constant tensor:
#      x y z
#    x 1.982790 0.000000 0.000000 
#    y 0.000000 1.998020 0.000000 
#    z 0.000000 0.000000 1.984260 
# 
# From -- ./inp_files/26269.got.cif
#   From: 2010.05.17/outbox.cif.g08.bks.cpg/sg50_14_cif.got.tgz:26269.got - 2010.06.03 11:33:33.
