data_PCOD9397592
_publ_section_title
;
Structure prediction by ZEFSAII (Michael W. Deem and Ramdas Pophale) SiO2 
 PCOD9397592
Probable space group: P B A N
;
_chemical_formula_sum "Si O2"
_cell_formula_units_Z 38
_cell_length_a 9.730386
_cell_length_b 9.080772
_cell_length_c 20.334238
_cell_angle_alpha 90.000000
_cell_angle_beta 90.000000
_cell_angle_gamma 90.000000
_cell_volume 1796.721409
_symmetry_space_group_name_H-M "P B A N"
_symmetry_group_IT_number 50
_space_group.IT_coordinate_system_code '2'
_symmetry_cell_setting 'orthorhombic'
loop_
_space_group_symop_operation_xyz
x,y,z
1/2-x,1/2-y,z
x,1/2-y,-z
1/2-x,y,-z
-x,-y,-z
1/2+x,1/2+y,-z
-x,1/2+y,z
1/2+x,-y,z
loop_
_atom_site_type_symbol
_atom_site_label
_atom_site_fract_x
_atom_site_fract_y
_atom_site_fract_z
Si Si1 0.750000 0.750000 0.000000
Si Si2 0.624936 0.845699 0.628952
Si Si3 0.166890 0.594286 0.161584
Si Si4 0.112273 0.842425 0.693701
Si Si5 0.750000 0.250000 0.000000
Si Si6 0.604275 0.510554 0.914482
Si Si7 0.250000 0.250000 0.500000
O O1 0.652415 0.853417 0.042451
O O2 0.750000 0.750000 0.657650
O O3 0.494950 0.763331 0.658236
O O4 0.651997 0.837139 0.550544
O O5 0.627491 0.011688 0.651335
O O6 0.250000 0.750000 0.155961
O O7 0.090080 0.604251 0.231185
O O8 0.296521 0.488057 0.149719
O O9 0.052256 0.538955 0.108699
O O10 0.250000 0.750000 0.696427
O O11 0.847913 0.363975 0.042786
#
# Coordination Sequence:
#
# PCOD9397592 Si02
#       7
#     2   8   8   8   2   8   2
#     4  10  28  44  72 106 138 206 230 300 382 430
#     4  10  23  45  69 103 145 186 231 289 345 417
#     4  11  28  47  71 107 142 186 244 299 363 437
#     4  11  25  44  72 105 142 186 238 295 361 413
#     4  10  24  48  76 104 138 182 238 312 370 438
#     4  11  26  46  72 101 147 180 246 300 368 442
#     4   8  24  44  70 104 148 184 248 270 352 416
#
# _framework density 21.149633000000001
#
# number of rings (size 3 to 8) (size 9 to 14) (size 15 to 20)
#    0.632    0.842    1.053    1.263   11.789    5.895 
#    0.000    0.000    0.000    0.000    0.000    0.000 
#    0.000    0.000    0.000    0.000    0.000    0.000 
#
# Total GULP energy -211666.524031 kJ/mol
# GULP energy per Si atom -5570.171685 kJ/mol
# Density = 2.110150 g / cm^3
# Si number density = 21.149633 Si / 1000 Ang^3
#
#
#
# Elastic Constant Matrix: (Units=GPa)
#
#
# Indices 1 2 3 4 5 6 
#
# 1 133.8940 34.5370 41.9185 0.0000 0.0000 0.0000
# 2 34.5370 133.7431 60.2884 0.0000 0.0000 0.0000
# 3 41.9185 60.2884 138.8407 0.0000 0.0000 0.0000
# 4 0.0000 0.0000 0.0000 4.3551 0.0000 0.0000
# 5 0.0000 0.0000 0.0000 0.0000 30.8880 0.0000
# 6 0.0000 0.0000 0.0000 0.0000 0.0000 18.5370
#
#
#
# Elastic Compliance Matrix: (Units=1/GPa)
#
#
# Indices 1 2 3 4 5 6 
#
# 1 0.008421 -0.001279 -0.001987 0.000000 0.000000 0.000000
# 2 -0.001279 0.009491 -0.003735 0.000000 0.000000 0.000000
# 3 -0.001987 -0.003735 0.009424 0.000000 0.000000 0.000000
# 4 0.000000 0.000000 0.000000 0.229616 0.000000 0.000000
# 5 0.000000 0.000000 0.000000 0.000000 0.032375 0.000000
# 6 0.000000 0.000000 0.000000 0.000000 0.000000 0.053946
#
#
# Mechanical properties :
#
#
# Convention : Reuss Voigt Hill
#
# Bulk Modulus (GPa) = 74.99668 75.55173 75.27421
# Shear Modulus (GPa) = 13.82288 28.73828 21.28058
#
# Velocity S-wave (km/s) = 2.55929 3.69020 3.17549
# Velocity P-wave (km/s) = 6.65359 7.34553 7.00811
#
# Compressibility (1/GPa) = 0.01333392
#
# Stress axis : x y z
#
# Youngs Moduli (GPa) = 118.75741 105.36339 106.10835
#
# Poissons Ratio (x) = 0.13473 0.21084
# Poissons Ratio (y) = 0.15186 0.39633
# Poissons Ratio (z) = 0.23598 0.39355
#
# Static dielectric constant tensor:
#      x y z
#    x 1.755700 0.000000 0.000000 
#    y 0.000000 1.830130 0.000000 
#    z 0.000000 0.000000 1.851070 
# 
# From -- ./inp_files/31578.got.cif
#   From: 2010.05.17/outbox.cif.g08.bks.cpg/sg50_16_cif.got.tgz:31578.got - 2010.06.03 11:33:33.
