data_PCOD9397143
_publ_section_title
;
Structure prediction by ZEFSAII (Michael W. Deem and Ramdas Pophale) SiO2 
 PCOD9397143
Probable space group: P B A N
;
_chemical_formula_sum "Si O2"
_cell_formula_units_Z 40
_cell_length_a 7.875580
_cell_length_b 21.368106
_cell_length_c 12.791959
_cell_angle_alpha 90.000000
_cell_angle_beta 90.000000
_cell_angle_gamma 90.000000
_cell_volume 2152.710532
_symmetry_space_group_name_H-M "P B A N"
_symmetry_group_IT_number 50
_space_group.IT_coordinate_system_code '2'
_symmetry_cell_setting 'orthorhombic'
loop_
_space_group_symop_operation_xyz
x,y,z
1/2-x,1/2-y,z
x,1/2-y,-z
1/2-x,y,-z
-x,-y,-z
1/2+x,1/2+y,-z
-x,1/2+y,z
1/2+x,-y,z
loop_
_atom_site_type_symbol
_atom_site_label
_atom_site_fract_x
_atom_site_fract_y
_atom_site_fract_z
Si Si1 0.750000 0.750000 0.000000
Si Si2 0.092515 0.206335 0.299208
Si Si3 0.018927 0.655794 0.939289
Si Si4 0.750000 0.250000 0.183753
Si Si5 0.750000 0.750000 0.500000
Si Si6 0.321393 0.961405 0.880548
Si Si7 0.516605 0.906919 0.166029
O O1 0.633240 0.704248 0.067419
O O2 0.250000 0.250000 0.263935
O O3 0.126994 0.210142 0.423634
O O4 0.098765 0.136916 0.252624
O O5 0.910581 0.230785 0.255940
O O6 0.176389 0.695318 0.891865
O O7 0.026095 0.589202 0.880785
O O8 0.005267 0.634840 0.060826
O O9 0.171349 0.933517 0.810055
O O10 0.376671 0.030998 0.856600
O O11 0.250000 0.960761 0.000000
#
# Coordination Sequence:
#
# PCOD9397143 Si02
#       7
#     2   8   8   4   2   8   8
#     4  12  28  28  56  80 138 202 240 274 308 352
#     4  10  24  44  72  99 128 166 221 290 353 405
#     4  11  25  36  53  96 144 178 228 270 317 403
#     4  12  24  42  64 102 140 177 218 277 338 408
#     4   8  24  52  72 106 122 156 224 310 364 414
#     4  10  22  39  56  83 140 192 223 259 312 401
#     4  11  23  39  60  91 135 187 226 262 326 399
#
# _framework density 18.581226000000001
#
# number of rings (size 3 to 8) (size 9 to 14) (size 15 to 20)
#    0.600    0.800    2.000    3.600   15.400    1.200 
#    0.000    0.000    0.000    1.200    0.000    0.000 
#    0.000    0.000    0.000    0.000    0.000    0.000 
#
# Total GULP energy -222840.316135 kJ/mol
# GULP energy per Si atom -5571.007903 kJ/mol
# Density = 1.853893 g / cm^3
# Si number density = 18.581226 Si / 1000 Ang^3
#
#
#
# Elastic Constant Matrix: (Units=GPa)
#
#
# Indices 1 2 3 4 5 6 
#
# 1 123.4293 69.0930 35.3013 0.0000 0.0000 0.0000
# 2 69.0930 161.4898 59.4842 0.0000 0.0000 0.0000
# 3 35.3013 59.4842 100.7492 0.0000 0.0000 0.0000
# 4 0.0000 0.0000 0.0000 17.8685 0.0000 0.0000
# 5 0.0000 0.0000 0.0000 0.0000 30.2611 0.0000
# 6 0.0000 0.0000 0.0000 0.0000 0.0000 47.9914
#
#
#
# Elastic Compliance Matrix: (Units=1/GPa)
#
#
# Indices 1 2 3 4 5 6 
#
# 1 0.010795 -0.004122 -0.001349 0.000000 0.000000 0.000000
# 2 -0.004122 0.009487 -0.004157 0.000000 0.000000 0.000000
# 3 -0.001349 -0.004157 0.012853 0.000000 0.000000 0.000000
# 4 0.000000 0.000000 0.000000 0.055965 0.000000 0.000000
# 5 0.000000 0.000000 0.000000 0.000000 0.033046 0.000000
# 6 0.000000 0.000000 0.000000 0.000000 0.000000 0.020837
#
#
# Mechanical properties :
#
#
# Convention : Reuss Voigt Hill
#
# Bulk Modulus (GPa) = 72.05016 79.26947 75.65982
# Shear Modulus (GPa) = 29.96458 34.01018 31.98738
#
# Velocity S-wave (km/s) = 4.02011 4.28290 4.15358
# Velocity P-wave (km/s) = 7.77228 8.19825 7.98811
#
# Compressibility (1/GPa) = 0.01387922
#
# Stress axis : x y z
#
# Youngs Moduli (GPa) = 92.63708 105.40667 77.80456
#
# Poissons Ratio (x) = 0.43445 0.10495
# Poissons Ratio (y) = 0.38182 0.32344
# Poissons Ratio (z) = 0.12495 0.43819
#
# Static dielectric constant tensor:
#      x y z
#    x 1.765250 0.000000 0.000000 
#    y 0.000000 1.668140 0.000000 
#    z 0.000000 0.000000 1.642920 
# 
# From -- ./inp_files/19042.got.cif
#   From: 2010.05.17/outbox.cif.g08.bks.cpg/sg50_10_cif.got.tgz:19042.got - 2010.06.03 11:33:33.
