data_PCOD9397206
_publ_section_title
;
Structure prediction by ZEFSAII (Michael W. Deem and Ramdas Pophale) SiO2 
 PCOD9397206
Probable space group: P B A N
;
_chemical_formula_sum "Si O2"
_cell_formula_units_Z 24
_cell_length_a 5.239046
_cell_length_b 23.620660
_cell_length_c 8.249944
_cell_angle_alpha 90.000000
_cell_angle_beta 90.000000
_cell_angle_gamma 90.000000
_cell_volume 1020.928295
_symmetry_space_group_name_H-M "P B A N"
_symmetry_group_IT_number 50
_space_group.IT_coordinate_system_code '2'
_symmetry_cell_setting 'orthorhombic'
loop_
_space_group_symop_operation_xyz
x,y,z
1/2-x,1/2-y,z
x,1/2-y,-z
1/2-x,y,-z
-x,-y,-z
1/2+x,1/2+y,-z
-x,1/2+y,z
1/2+x,-y,z
loop_
_atom_site_type_symbol
_atom_site_label
_atom_site_fract_x
_atom_site_fract_y
_atom_site_fract_z
Si Si1 0.992882 0.813362 0.570283
Si Si2 0.505825 0.361930 0.104865
Si Si3 0.730949 0.468457 0.304171
O O1 0.992330 0.750000 0.500000
O O2 0.750000 0.845722 0.500000
O O3 0.250000 0.839122 0.500000
O O4 0.963927 0.813645 0.761239
O O5 0.607787 0.415005 0.212333
O O6 0.750000 0.345756 0.000000
O O7 0.250000 0.371797 0.000000
O O8 0.750000 0.464351 0.500000
O O9 0.523348 0.517247 0.257677
#
# Coordination Sequence:
#
# PCOD9397206 Si02
#       3
#     8   8   8
#     4  10  22  44  68  89 120 170 217 259 317 391
#     4  12  25  40  64  99 134 165 210 273 332 377
#     4  10  22  40  63  91 128 177 222 255 303 384
#
# _framework density 23.508015
#
# number of rings (size 3 to 8) (size 9 to 14) (size 15 to 20)
#    0.000    1.333    0.000    5.000    0.000    8.000 
#    0.000   20.000    0.000    0.000    0.000    0.000 
#    0.000    0.000    0.000    0.000    0.000    0.000 
#
# Total GULP energy -133998.560095 kJ/mol
# GULP energy per Si atom -5583.273337 kJ/mol
# Density = 2.345451 g / cm^3
# Si number density = 23.508015 Si / 1000 Ang^3
#
#
#
# Elastic Constant Matrix: (Units=GPa)
#
#
# Indices 1 2 3 4 5 6 
#
# 1 237.4347 16.0158 88.0825 0.0000 0.0000 0.0000
# 2 16.0158 70.1858 39.8169 0.0000 0.0000 0.0000
# 3 88.0825 39.8169 160.2680 0.0000 0.0000 0.0000
# 4 0.0000 0.0000 0.0000 26.1705 0.0000 0.0000
# 5 0.0000 0.0000 0.0000 0.0000 52.9208 0.0000
# 6 0.0000 0.0000 0.0000 0.0000 0.0000 -35.7446
#
#
#
# Elastic Compliance Matrix: (Units=1/GPa)
#
#
# Indices 1 2 3 4 5 6 
#
# 1 0.005306 0.000516 -0.003045 0.000000 0.000000 0.000000
# 2 0.000516 0.016636 -0.004417 0.000000 0.000000 0.000000
# 3 -0.003045 -0.004417 0.009010 0.000000 0.000000 0.000000
# 4 0.000000 0.000000 0.000000 0.038211 0.000000 0.000000
# 5 0.000000 0.000000 0.000000 0.000000 0.018896 0.000000
# 6 0.000000 0.000000 0.000000 0.000000 0.000000 -0.027976
#
#
# Mechanical properties :
#
#
# Convention : Reuss Voigt Hill
#
# Bulk Modulus (GPa) = 58.60910 83.96875 71.28893
# Shear Modulus (GPa) = 62.76634 30.26756 46.51695
#
# Velocity S-wave (km/s) = 5.17281 3.59213 4.45316
# Velocity P-wave (km/s) = 7.78864 7.28020 7.53871
#
# Compressibility (1/GPa) = 0.01706220
#
# Stress axis : x y z
#
# Youngs Moduli (GPa) = 188.45410 60.11155 110.98588
#
# Poissons Ratio (x) = -0.03104 0.33791
# Poissons Ratio (y) = -0.09731 0.49020
# Poissons Ratio (z) = 0.57377 0.26550
#
# Static dielectric constant tensor:
#      x y z
#    x 1.938320 0.000000 0.000000 
#    y 0.000000 1.829020 0.000000 
#    z 0.000000 0.000000 1.923690 
# 
# From -- ./inp_files/7649.got.cif
#   From: 2010.05.17/outbox.cif.g08.bks.cpg/sg50_4_cif.got.tgz:7649.got - 2010.06.03 11:33:33.
