data_PCOD9397344
_publ_section_title
;
Structure prediction by ZEFSAII (Michael W. Deem and Ramdas Pophale) SiO2 
 PCOD9397344
Probable space group: P B A N
;
_chemical_formula_sum "Si O2"
_cell_formula_units_Z 64
_cell_length_a 24.454535
_cell_length_b 8.896340
_cell_length_c 14.619012
_cell_angle_alpha 90.000000
_cell_angle_beta 90.000000
_cell_angle_gamma 90.000000
_cell_volume 3180.451697
_symmetry_space_group_name_H-M "P B A N"
_symmetry_group_IT_number 50
_space_group.IT_coordinate_system_code '2'
_symmetry_cell_setting 'orthorhombic'
loop_
_space_group_symop_operation_xyz
x,y,z
1/2-x,1/2-y,z
x,1/2-y,-z
1/2-x,y,-z
-x,-y,-z
1/2+x,1/2+y,-z
-x,1/2+y,z
1/2+x,-y,z
loop_
_atom_site_type_symbol
_atom_site_label
_atom_site_fract_x
_atom_site_fract_y
_atom_site_fract_z
Si Si1 0.809183 0.556669 0.309381
Si Si2 0.109876 0.067531 0.155607
Si Si3 0.185886 0.415353 0.337515
Si Si4 0.527986 0.150873 0.578123
Si Si5 0.974584 0.417180 0.295642
Si Si6 0.059657 0.572832 0.017097
Si Si7 0.856706 0.077894 0.509615
Si Si8 0.090118 0.088806 0.801872
O O1 0.834892 0.530064 0.209969
O O2 0.813321 0.734657 0.331026
O O3 0.745186 0.520219 0.311880
O O4 0.844762 0.474716 0.387552
O O5 0.104284 0.248204 0.155481
O O6 0.063010 0.993178 0.219655
O O7 0.100932 0.000387 0.055947
O O8 0.173961 0.468946 0.439777
O O9 0.137502 0.461244 0.268015
O O10 0.499058 0.250000 0.500000
O O11 0.547002 0.264454 0.658568
O O12 0.581052 0.082437 0.528581
O O13 0.487505 0.034912 0.624109
O O14 0.033906 0.385503 0.252688
O O15 0.055854 0.750000 0.000000
O O16 0.078625 0.530656 0.118757
O O17 0.000000 0.500000 0.000000
O O18 0.837218 0.250000 0.500000
#
# Coordination Sequence:
#
# PCOD9397344 Si02
#       8
#     8   8   8   8   8   8   8   8
#     4  10  23  42  66  93 118 169 215 266 308 361
#     4  11  23  41  65  92 128 158 206 260 314 378
#     4  10  22  43  67  89 124 162 222 263 305 366
#     4  11  24  38  55  87 128 172 211 249 308 372
#     4  12  22  39  60  88 127 167 207 254 313 375
#     4  12  26  41  66  95 128 162 204 255 314 386
#     4  11  22  38  59  92 128 166 213 258 310 366
#     4  11  23  41  64  94 121 167 205 259 318 373
#
# _framework density 20.122927000000001
#
# number of rings (size 3 to 8) (size 9 to 14) (size 15 to 20)
#    0.000    1.000    3.750    3.750    1.750    3.000 
#    0.000    0.625    0.000    3.750    0.000    0.000 
#    0.000    0.000    0.000    0.000    0.000    0.000 
#
# Total GULP energy -357884.414349 kJ/mol
# GULP energy per Si atom -5591.943974 kJ/mol
# Density = 2.007713 g / cm^3
# Si number density = 20.122927 Si / 1000 Ang^3
#
#
#
# Elastic Constant Matrix: (Units=GPa)
#
#
# Indices 1 2 3 4 5 6 
#
# 1 65.5168 1.7886 17.4778 0.0000 0.0000 0.0000
# 2 1.7886 54.7177 16.3542 0.0000 0.0000 0.0000
# 3 17.4778 16.3542 84.0931 0.0000 0.0000 0.0000
# 4 0.0000 0.0000 0.0000 41.7456 0.0000 0.0000
# 5 0.0000 0.0000 0.0000 0.0000 20.6050 0.0000
# 6 0.0000 0.0000 0.0000 0.0000 0.0000 17.9748
#
#
#
# Elastic Compliance Matrix: (Units=1/GPa)
#
#
# Indices 1 2 3 4 5 6 
#
# 1 0.016172 0.000505 -0.003460 0.000000 0.000000 0.000000
# 2 0.000505 0.019419 -0.003882 0.000000 0.000000 0.000000
# 3 -0.003460 -0.003882 0.013366 0.000000 0.000000 0.000000
# 4 0.000000 0.000000 0.000000 0.023955 0.000000 0.000000
# 5 0.000000 0.000000 0.000000 0.000000 0.048532 0.000000
# 6 0.000000 0.000000 0.000000 0.000000 0.000000 0.055634
#
#
# Mechanical properties :
#
#
# Convention : Reuss Voigt Hill
#
# Bulk Modulus (GPa) = 28.34024 30.61876 29.47950
# Shear Modulus (GPa) = 24.69006 27.31220 26.00113
#
# Velocity S-wave (km/s) = 3.50660 3.68811 3.59850
# Velocity P-wave (km/s) = 5.52351 5.77798 5.65218
#
# Compressibility (1/GPa) = 0.03528551
#
# Stress axis : x y z
#
# Youngs Moduli (GPa) = 61.83387 51.49523 74.81947
#
# Poissons Ratio (x) = -0.02602 0.25884
# Poissons Ratio (y) = -0.03125 0.29042
# Poissons Ratio (z) = 0.21392 0.19989
#
# Static dielectric constant tensor:
#      x y z
#    x 1.724800 0.000000 0.000000 
#    y 0.000000 1.736970 0.000000 
#    z 0.000000 0.000000 1.700570 
# 
# From -- ./inp_files/27515.got.cif
#   From: 2010.05.17/outbox.cif.g08.bks.cpg/sg50_14_cif.got.tgz:27515.got - 2010.06.03 11:33:33.
