data_PCOD9397635
_publ_section_title
;
Structure prediction by ZEFSAII (Michael W. Deem and Ramdas Pophale) SiO2 
 PCOD9397635
Probable space group: P B A N
;
_chemical_formula_sum "Si O2"
_cell_formula_units_Z 28
_cell_length_a 9.404263
_cell_length_b 9.235842
_cell_length_c 13.005300
_cell_angle_alpha 90.000000
_cell_angle_beta 90.000000
_cell_angle_gamma 90.000000
_cell_volume 1129.592072
_symmetry_space_group_name_H-M "P B A N"
_symmetry_group_IT_number 50
_space_group.IT_coordinate_system_code '2'
_symmetry_cell_setting 'orthorhombic'
loop_
_space_group_symop_operation_xyz
x,y,z
1/2-x,1/2-y,z
x,1/2-y,-z
1/2-x,y,-z
-x,-y,-z
1/2+x,1/2+y,-z
-x,1/2+y,z
1/2+x,-y,z
loop_
_atom_site_type_symbol
_atom_site_label
_atom_site_fract_x
_atom_site_fract_y
_atom_site_fract_z
Si Si1 0.492847 0.371727 0.636269
Si Si2 0.250000 0.750000 0.500000
Si Si3 0.250000 0.250000 0.500000
Si Si4 0.788780 0.083251 0.118196
Si Si5 0.065981 0.114003 0.225139
O O1 0.637385 0.328771 0.576760
O O2 0.355488 0.347735 0.566476
O O3 0.454759 0.278319 0.738791
O O4 0.513243 0.534609 0.671728
O O5 0.750000 0.250000 0.146500
O O6 0.956300 0.078044 0.135189
O O7 0.709465 0.964963 0.189194
O O8 0.750000 0.059208 0.000000
#
# Coordination Sequence:
#
# PCOD9397635 Si02
#       5
#     8   2   2   8   8
#     4  11  24  40  67  92 138 170 223 270 332 383
#     4  10  24  44  64 100 130 184 212 276 328 396
#     4  10  24  40  56 100 126 172 220 280 316 392
#     4  11  24  44  69 100 137 173 219 277 335 396
#     4  12  23  45  68 100 130 182 216 277 327 404
#
# _framework density 24.787707999999999
#
# number of rings (size 3 to 8) (size 9 to 14) (size 15 to 20)
#    0.000    0.857    2.857    4.286    0.000    6.857 
#    0.000    1.429    0.000    0.000    0.000    0.000 
#    0.000    0.000    0.000    0.000    0.000    0.000 
#
# Total GULP energy -156745.263924 kJ/mol
# GULP energy per Si atom -5598.045140 kJ/mol
# Density = 2.473129 g / cm^3
# Si number density = 24.787708 Si / 1000 Ang^3
#
#
#
# Elastic Constant Matrix: (Units=GPa)
#
#
# Indices 1 2 3 4 5 6 
#
# 1 159.5159 31.8794 44.8396 0.0000 0.0000 0.0000
# 2 31.8794 69.1742 9.3257 0.0000 0.0000 0.0000
# 3 44.8396 9.3257 95.0301 0.0000 0.0000 0.0000
# 4 0.0000 0.0000 0.0000 12.0567 0.0000 0.0000
# 5 0.0000 0.0000 0.0000 0.0000 36.8968 0.0000
# 6 0.0000 0.0000 0.0000 0.0000 0.0000 21.5513
#
#
#
# Elastic Compliance Matrix: (Units=1/GPa)
#
#
# Indices 1 2 3 4 5 6 
#
# 1 0.007856 -0.003162 -0.003396 0.000000 0.000000 0.000000
# 2 -0.003162 0.015923 -0.000070 0.000000 0.000000 0.000000
# 3 -0.003396 -0.000070 0.012132 0.000000 0.000000 0.000000
# 4 0.000000 0.000000 0.000000 0.082941 0.000000 0.000000
# 5 0.000000 0.000000 0.000000 0.000000 0.027103 0.000000
# 6 0.000000 0.000000 0.000000 0.000000 0.000000 0.046401
#
#
# Mechanical properties :
#
#
# Convention : Reuss Voigt Hill
#
# Bulk Modulus (GPa) = 44.14446 55.08997 49.61722
# Shear Modulus (GPa) = 23.45594 29.94600 26.70097
#
# Velocity S-wave (km/s) = 3.07949 3.47954 3.28561
# Velocity P-wave (km/s) = 5.52196 6.19806 5.86975
#
# Compressibility (1/GPa) = 0.02265290
#
# Stress axis : x y z
#
# Youngs Moduli (GPa) = 127.29620 62.80144 82.42367
#
# Poissons Ratio (x) = 0.19861 0.27994
# Poissons Ratio (y) = 0.40257 0.00580
# Poissons Ratio (z) = 0.43234 0.00442
#
# Static dielectric constant tensor:
#      x y z
#    x 2.059500 0.000000 0.000000 
#    y 0.000000 1.916110 0.000000 
#    z 0.000000 0.000000 1.940780 
# 
# From -- ./inp_files/28460.got.cif
#   From: 2010.05.17/outbox.cif.g08.bks.cpg/sg50_15_cif.got.tgz:28460.got - 2010.06.03 11:33:33.
