data_PCOD9397352
_publ_section_title
;
Structure prediction by ZEFSAII (Michael W. Deem and Ramdas Pophale) SiO2 
 PCOD9397352
Probable space group: P B A N
;
_chemical_formula_sum "Si O2"
_cell_formula_units_Z 40
_cell_length_a 9.070231
_cell_length_b 14.671027
_cell_length_c 14.957043
_cell_angle_alpha 90.000000
_cell_angle_beta 90.000000
_cell_angle_gamma 90.000000
_cell_volume 1990.327787
_symmetry_space_group_name_H-M "P B A N"
_symmetry_group_IT_number 50
_space_group.IT_coordinate_system_code '2'
_symmetry_cell_setting 'orthorhombic'
loop_
_space_group_symop_operation_xyz
x,y,z
1/2-x,1/2-y,z
x,1/2-y,-z
1/2-x,y,-z
-x,-y,-z
1/2+x,1/2+y,-z
-x,1/2+y,z
1/2+x,-y,z
loop_
_atom_site_type_symbol
_atom_site_label
_atom_site_fract_x
_atom_site_fract_y
_atom_site_fract_z
Si Si1 0.175970 0.651360 0.091531
Si Si2 0.786621 0.492831 0.232472
Si Si3 0.966144 0.997867 0.357098
Si Si4 0.178085 0.348629 0.906771
Si Si5 0.072109 0.355737 0.508394
O O1 0.250000 0.750000 0.105000
O O2 0.220574 0.587128 0.172926
O O3 0.999148 0.658068 0.083162
O O4 0.250000 0.615069 0.000000
O O5 0.702574 0.498253 0.326850
O O6 0.783770 0.583717 0.173526
O O7 0.953027 0.477224 0.263921
O O8 0.017527 0.092594 0.402229
O O9 0.989897 0.917436 0.427811
O O10 0.250000 0.250000 0.890017
O O11 0.250000 0.381624 0.000000
O O12 0.027898 0.250000 0.500000
O O13 0.250000 0.359234 0.500000
#
# Coordination Sequence:
#
# PCOD9397352 Si02
#       5
#     8   8   8   8   8
#     4  11  25  42  64  94 132 173 215 265 317 374
#     4  12  25  41  66  94 132 167 213 266 319 370
#     4  11  24  42  63  99 128 160 211 268 312 382
#     4  11  25  42  65  93 129 176 218 261 317 378
#     4  10  22  43  69  91 125 169 206 255 324 387
#
# _framework density 20.097190999999999
#
# number of rings (size 3 to 8) (size 9 to 14) (size 15 to 20)
#    0.000    1.000    4.000    3.000    5.600    4.800 
#    0.000    1.000    0.000    0.000    0.000    0.000 
#    0.000    0.000    0.000    0.000    0.000    0.000 
#
# Total GULP energy -223451.962719 kJ/mol
# GULP energy per Si atom -5586.299068 kJ/mol
# Density = 2.005145 g / cm^3
# Si number density = 20.097191 Si / 1000 Ang^3
#
#
#
# Elastic Constant Matrix: (Units=GPa)
#
#
# Indices 1 2 3 4 5 6 
#
# 1 85.7861 46.8023 25.3688 0.0000 0.0000 0.0000
# 2 46.8023 124.1640 51.9999 0.0000 0.0000 0.0000
# 3 25.3688 51.9999 88.4988 0.0000 0.0000 0.0000
# 4 0.0000 0.0000 0.0000 60.8396 0.0000 0.0000
# 5 0.0000 0.0000 0.0000 0.0000 40.6747 0.0000
# 6 0.0000 0.0000 0.0000 0.0000 0.0000 21.2019
#
#
#
# Elastic Compliance Matrix: (Units=1/GPa)
#
#
# Indices 1 2 3 4 5 6 
#
# 1 0.014783 -0.005037 -0.001278 0.000000 0.000000 0.000000
# 2 -0.005037 0.012399 -0.005841 0.000000 0.000000 0.000000
# 3 -0.001278 -0.005841 0.015098 0.000000 0.000000 0.000000
# 4 0.000000 0.000000 0.000000 0.016437 0.000000 0.000000
# 5 0.000000 0.000000 0.000000 0.000000 0.024585 0.000000
# 6 0.000000 0.000000 0.000000 0.000000 0.000000 0.047166
#
#
# Mechanical properties :
#
#
# Convention : Reuss Voigt Hill
#
# Bulk Modulus (GPa) = 55.65712 60.75456 58.20584
# Shear Modulus (GPa) = 31.10040 36.16174 33.63107
#
# Velocity S-wave (km/s) = 3.93810 4.24647 4.09519
# Velocity P-wave (km/s) = 6.95933 7.37152 7.16839
#
# Compressibility (1/GPa) = 0.01796715
#
# Stress axis : x y z
#
# Youngs Moduli (GPa) = 67.64582 80.65220 66.23295
#
# Poissons Ratio (x) = 0.40625 0.08464
# Poissons Ratio (y) = 0.34073 0.38690
# Poissons Ratio (z) = 0.08645 0.47112
#
# Static dielectric constant tensor:
#      x y z
#    x 1.697460 0.000000 0.000000 
#    y 0.000000 1.673220 0.000000 
#    z 0.000000 0.000000 1.718980 
# 
# From -- ./inp_files/24631.got.cif
#   From: 2010.05.17/outbox.cif.g08.bks.cpg/sg50_13_cif.got.tgz:24631.got - 2010.06.03 11:33:33.
