data_PCOD9397969
_publ_section_title
;
Structure prediction by ZEFSAII (Michael W. Deem and Ramdas Pophale) SiO2 
 PCOD9397969
Probable space group: P B A N
;
_chemical_formula_sum "Si O2"
_cell_formula_units_Z 64
_cell_length_a 14.041786
_cell_length_b 18.242607
_cell_length_c 12.944860
_cell_angle_alpha 90.000000
_cell_angle_beta 90.000000
_cell_angle_gamma 90.000000
_cell_volume 3315.939591
_symmetry_space_group_name_H-M "P B A N"
_symmetry_group_IT_number 50
_space_group.IT_coordinate_system_code '2'
_symmetry_cell_setting 'orthorhombic'
loop_
_space_group_symop_operation_xyz
x,y,z
1/2-x,1/2-y,z
x,1/2-y,-z
1/2-x,y,-z
-x,-y,-z
1/2+x,1/2+y,-z
-x,1/2+y,z
1/2+x,-y,z
loop_
_atom_site_type_symbol
_atom_site_label
_atom_site_fract_x
_atom_site_fract_y
_atom_site_fract_z
Si Si1 0.372359 0.950218 0.754483
Si Si2 0.653790 0.052081 0.762533
Si Si3 0.962782 0.184533 0.144242
Si Si4 0.146229 0.376404 0.760756
Si Si5 0.361378 0.329883 0.476685
Si Si6 0.316246 0.089060 0.103188
Si Si7 0.464264 0.044137 0.401182
Si Si8 0.528545 0.152948 0.093027
O O1 0.262844 0.932445 0.732075
O O2 0.445395 0.929437 0.664565
O O3 0.409767 0.911012 0.856677
O O4 0.379178 0.037685 0.767210
O O5 0.599465 0.127054 0.790039
O O6 0.660968 0.993929 0.858082
O O7 0.598941 0.007487 0.673089
O O8 0.072674 0.167606 0.169364
O O9 0.950703 0.271770 0.155044
O O10 0.943831 0.166052 0.025043
O O11 0.131345 0.351589 0.643294
O O12 0.252583 0.373005 0.806745
O O13 0.403103 0.250000 0.500000
O O14 0.250000 0.327818 0.500000
O O15 0.405829 0.388714 0.553328
O O16 0.416905 0.130393 0.093501
O O17 0.250000 0.088898 0.000000
O O18 0.500000 0.000000 0.500000
#
# Coordination Sequence:
#
# PCOD9397969 Si02
#       8
#     8   8   8   8   8   8   8   8
#     4  11  24  42  67  95 125 174 222 280 324 396
#     4  11  25  42  67  98 127 175 231 280 328 401
#     4  11  24  42  62  93 138 173 221 274 334 408
#     4  11  22  41  63  98 130 167 224 276 332 398
#     4  11  25  40  65  98 133 174 213 275 345 406
#     4  11  22  39  68 101 135 176 220 281 336 403
#     4  12  23  44  69  98 132 173 222 284 337 395
#     4  11  25  41  63  96 135 183 214 271 344 405
#
# _framework density 19.300712000000001
#
# number of rings (size 3 to 8) (size 9 to 14) (size 15 to 20)
#    0.000    0.875    5.000    1.500    5.250    3.000 
#    0.000    1.250    0.000    0.000    0.000    0.000 
#    0.000    0.000    0.000    0.000    0.000    0.000 
#
# Total GULP energy -357588.935903 kJ/mol
# GULP energy per Si atom -5587.327123 kJ/mol
# Density = 1.925678 g / cm^3
# Si number density = 19.300712 Si / 1000 Ang^3
#
#
#
# Elastic Constant Matrix: (Units=GPa)
#
#
# Indices 1 2 3 4 5 6 
#
# 1 103.8487 38.5262 33.8709 0.0000 0.0000 0.0000
# 2 38.5262 112.3498 49.5772 0.0000 0.0000 0.0000
# 3 33.8709 49.5772 92.0592 0.0000 0.0000 0.0000
# 4 0.0000 0.0000 0.0000 -5.4606 0.0000 0.0000
# 5 0.0000 0.0000 0.0000 0.0000 31.8772 0.0000
# 6 0.0000 0.0000 0.0000 0.0000 0.0000 30.7836
#
#
#
# Elastic Compliance Matrix: (Units=1/GPa)
#
#
# Indices 1 2 3 4 5 6 
#
# 1 0.011550 -0.002735 -0.002776 0.000000 0.000000 0.000000
# 2 -0.002735 0.012323 -0.005630 0.000000 0.000000 0.000000
# 3 -0.002776 -0.005630 0.014916 0.000000 0.000000 0.000000
# 4 0.000000 0.000000 0.000000 -0.183130 0.000000 0.000000
# 5 0.000000 0.000000 0.000000 0.000000 0.031370 0.000000
# 6 0.000000 0.000000 0.000000 0.000000 0.000000 0.032485
#
#
# Mechanical properties :
#
#
# Convention : Reuss Voigt Hill
#
# Bulk Modulus (GPa) = 60.58636 61.35626 60.97131
# Shear Modulus (GPa) = -94.87624 23.85892 -35.50866
#
# Velocity S-wave (km/s) = -7.01880 3.51973 -4.29389
# Velocity P-wave (km/s) = 5.85029 6.95533 2.65996
#
# Compressibility (1/GPa) = 0.01650537
#
# Stress axis : x y z
#
# Youngs Moduli (GPa) = 86.58229 81.14780 67.04191
#
# Poissons Ratio (x) = 0.22197 0.18613
# Poissons Ratio (y) = 0.23684 0.37745
# Poissons Ratio (z) = 0.24038 0.45687
#
# Static dielectric constant tensor:
#      x y z
#    x 1.663860 0.000000 0.000000 
#    y 0.000000 1.700390 0.000000 
#    z 0.000000 0.000000 1.787210 
# 
# From -- ./inp_files/21335.got.cif
#   From: 2010.05.17/outbox.cif.g08.bks.cpg/sg50_11_cif.got.tgz:21335.got - 2010.06.03 11:33:33.
