data_PCOD9397343
_publ_section_title
;
Structure prediction by ZEFSAII (Michael W. Deem and Ramdas Pophale) SiO2 
 PCOD9397343
Probable space group: P B A N
;
_chemical_formula_sum "Si O2"
_cell_formula_units_Z 64
_cell_length_a 14.732366
_cell_length_b 8.900687
_cell_length_c 23.721614
_cell_angle_alpha 90.000000
_cell_angle_beta 90.000000
_cell_angle_gamma 90.000000
_cell_volume 3110.572036
_symmetry_space_group_name_H-M "P B A N"
_symmetry_group_IT_number 50
_space_group.IT_coordinate_system_code '2'
_symmetry_cell_setting 'orthorhombic'
loop_
_space_group_symop_operation_xyz
x,y,z
1/2-x,1/2-y,z
x,1/2-y,-z
1/2-x,y,-z
-x,-y,-z
1/2+x,1/2+y,-z
-x,1/2+y,z
1/2+x,-y,z
loop_
_atom_site_type_symbol
_atom_site_label
_atom_site_fract_x
_atom_site_fract_y
_atom_site_fract_z
Si Si1 0.520164 0.862154 0.457522
Si Si2 0.505158 0.458004 0.909261
Si Si3 0.151794 0.176269 0.753367
Si Si4 0.655270 0.156443 0.609602
Si Si5 0.347487 0.678390 0.741403
Si Si6 0.355143 0.207707 0.373321
Si Si7 0.854302 0.931057 0.000338
Si Si8 0.002309 0.709688 0.169828
O O1 0.568511 0.750000 0.500000
O O2 0.424297 0.799346 0.433714
O O3 0.587546 0.839584 0.404669
O O4 0.500000 0.000000 0.500000
O O5 0.589430 0.511378 0.946587
O O6 0.500027 0.537198 0.848586
O O7 0.517193 0.286547 0.890729
O O8 0.413742 0.477601 0.945411
O O9 0.250000 0.250000 0.755763
O O10 0.111875 0.210554 0.691350
O O11 0.091836 0.242736 0.802846
O O12 0.159113 0.997651 0.754821
O O13 0.750000 0.250000 0.597743
O O14 0.632094 0.196212 0.674657
O O15 0.647275 0.970742 0.607573
O O16 0.250000 0.750000 0.751425
O O17 0.421842 0.742848 0.783732
O O18 0.250000 0.250000 0.375342
O O19 0.854012 0.750000 0.000000
O O20 0.750000 0.982905 0.000000
#
# Coordination Sequence:
#
# PCOD9397343 Si02
#       8
#     8   8   8   8   8   8   8   8
#     4  12  25  44  64  95 126 165 218 272 325 385
#     4  11  24  40  63  95 128 164 212 265 319 375
#     4  10  23  41  65  94 127 172 214 255 321 393
#     4  10  23  44  66  92 128 172 213 262 325 392
#     4  10  23  41  64  95 130 169 213 257 320 392
#     4  10  23  44  66  92 128 170 215 264 322 393
#     4  10  22  43  67  88 120 172 218 260 314 381
#     4  12  23  41  62  96 135 165 205 270 323 376
#
# _framework density 20.574992999999999
#
# number of rings (size 3 to 8) (size 9 to 14) (size 15 to 20)
#    0.000    1.375    3.750    0.750    3.500    2.500 
#    0.000    0.625    0.000    0.000    0.000    0.000 
#    0.000    0.000    0.000    0.000    0.000    0.000 
#
# Total GULP energy -356476.929291 kJ/mol
# GULP energy per Si atom -5569.952020 kJ/mol
# Density = 2.052816 g / cm^3
# Si number density = 20.574993 Si / 1000 Ang^3
#
#
#
# Elastic Constant Matrix: (Units=GPa)
#
#
# Indices 1 2 3 4 5 6 
#
# 1 125.0694 20.9670 59.1835 0.0000 0.0000 0.0000
# 2 20.9670 43.3255 33.1473 0.0000 0.0000 0.0000
# 3 59.1835 33.1473 90.8912 0.0000 0.0000 0.0000
# 4 0.0000 0.0000 0.0000 -16.5889 0.0000 0.0000
# 5 0.0000 0.0000 0.0000 0.0000 -31.7663 0.0000
# 6 0.0000 0.0000 0.0000 0.0000 0.0000 24.6145
#
#
#
# Elastic Compliance Matrix: (Units=1/GPa)
#
#
# Indices 1 2 3 4 5 6 
#
# 1 0.011558 0.000228 -0.007609 0.000000 0.000000 0.000000
# 2 0.000228 0.032018 -0.011825 0.000000 0.000000 0.000000
# 3 -0.007609 -0.011825 0.020269 0.000000 0.000000 0.000000
# 4 0.000000 0.000000 0.000000 -0.060281 0.000000 0.000000
# 5 0.000000 0.000000 0.000000 0.000000 -0.031480 0.000000
# 6 0.000000 0.000000 0.000000 0.000000 0.000000 0.040626
#
#
# Mechanical properties :
#
#
# Convention : Reuss Voigt Hill
#
# Bulk Modulus (GPa) = 39.31923 53.98687 46.65305
# Shear Modulus (GPa) = 83.89173 4.98443 44.43808
#
# Velocity S-wave (km/s) = 6.39235 1.55815 4.65242
# Velocity P-wave (km/s) = 8.58106 5.43444 7.18219
#
# Compressibility (1/GPa) = 0.02543285
#
# Stress axis : x y z
#
# Youngs Moduli (GPa) = 86.52008 31.23253 49.33530
#
# Poissons Ratio (x) = -0.00713 0.37540
# Poissons Ratio (y) = -0.01975 0.58340
# Poissons Ratio (z) = 0.65835 0.36933
#
# Static dielectric constant tensor:
#      x y z
#    x 1.701300 0.000000 0.000000 
#    y 0.000000 1.808710 0.000000 
#    z 0.000000 0.000000 1.857450 
# 
# From -- ./inp_files/31769.got.cif
#   From: 2010.05.17/outbox.cif.g08.bks.cpg/sg50_16_cif.got.tgz:31769.got - 2010.06.03 11:33:33.
