data_PCOD9397032
_publ_section_title
;
Structure prediction by ZEFSAII (Michael W. Deem and Ramdas Pophale) SiO2 
 PCOD9397032
Probable space group: P B A N
;
_chemical_formula_sum "Si O2"
_cell_formula_units_Z 64
_cell_length_a 9.750186
_cell_length_b 31.437197
_cell_length_c 11.369348
_cell_angle_alpha 90.000000
_cell_angle_beta 90.000000
_cell_angle_gamma 90.000000
_cell_volume 3484.915700
_symmetry_space_group_name_H-M "P B A N"
_symmetry_group_IT_number 50
_space_group.IT_coordinate_system_code '2'
_symmetry_cell_setting 'orthorhombic'
loop_
_space_group_symop_operation_xyz
x,y,z
1/2-x,1/2-y,z
x,1/2-y,-z
1/2-x,y,-z
-x,-y,-z
1/2+x,1/2+y,-z
-x,1/2+y,z
1/2+x,-y,z
loop_
_atom_site_type_symbol
_atom_site_label
_atom_site_fract_x
_atom_site_fract_y
_atom_site_fract_z
Si Si1 0.486608 0.138231 0.759944
Si Si2 0.259601 0.299646 0.141095
Si Si3 0.070687 0.026533 0.600707
Si Si4 0.407444 0.121675 0.494365
Si Si5 0.549060 0.866295 0.761773
Si Si6 0.802507 0.483790 0.249585
Si Si7 0.277871 0.072767 0.863618
Si Si8 0.740711 0.393109 0.860055
O O1 0.395685 0.177907 0.805793
O O2 0.475357 0.132009 0.619177
O O3 0.410880 0.097554 0.818245
O O4 0.640682 0.136591 0.806497
O O5 0.250000 0.250000 0.170245
O O6 0.132029 0.326000 0.191588
O O7 0.250000 0.304291 0.000000
O O8 0.954707 0.026545 0.703134
O O9 0.096408 0.071790 0.539143
O O10 0.000000 0.000000 0.500000
O O11 0.205425 0.002718 0.647873
O O12 0.250000 0.136805 0.500000
O O13 0.475969 0.139924 0.376888
O O14 0.653692 0.905971 0.788512
O O15 0.408220 0.875461 0.826317
O O16 0.799051 0.522909 0.158289
O O17 0.745109 0.440154 0.196413
O O18 0.250000 0.081582 0.000000
O O19 0.750000 0.396061 0.000000
#
# Coordination Sequence:
#
# PCOD9397032 Si02
#       8
#     8   8   8   8   8   8   8   8
#     4  11  23  38  63  90 121 164 201 249 315 362
#     4  10  21  42  71  99 121 150 202 251 295 366
#     4  12  23  34  53  76 117 159 214 262 299 345
#     4  12  20  40  61  85 119 161 209 260 298 357
#     4  11  22  40  61  88 123 163 199 250 312 358
#     4  12  22  37  50  84 113 162 216 257 303 346
#     4  11  20  36  57  79 114 161 216 260 298 347
#     4  12  24  39  57  87 130 165 206 253 308 371
#
# _framework density 18.364863
#
# number of rings (size 3 to 8) (size 9 to 14) (size 15 to 20)
#    0.000    0.625    5.000    6.750    0.000    0.500 
#    0.000    5.625    0.000    2.250    0.000    1.750 
#    0.000    0.000    0.000    0.000    0.000    0.000 
#
# Total GULP energy -357508.690132 kJ/mol
# GULP energy per Si atom -5586.073283 kJ/mol
# Density = 1.832306 g / cm^3
# Si number density = 18.364863 Si / 1000 Ang^3
#
#
#
# Elastic Constant Matrix: (Units=GPa)
#
#
# Indices 1 2 3 4 5 6 
#
# 1 86.7411 29.1367 0.6015 0.0000 0.0000 0.0000
# 2 29.1367 118.7153 29.4215 0.0000 0.0000 0.0000
# 3 0.6015 29.4215 100.2034 0.0000 0.0000 0.0000
# 4 0.0000 0.0000 0.0000 14.5179 0.0000 0.0000
# 5 0.0000 0.0000 0.0000 0.0000 27.9545 0.0000
# 6 0.0000 0.0000 0.0000 0.0000 0.0000 11.8550
#
#
#
# Elastic Compliance Matrix: (Units=1/GPa)
#
#
# Indices 1 2 3 4 5 6 
#
# 1 0.012639 -0.003325 0.000900 0.000000 0.000000 0.000000
# 2 -0.003325 0.009959 -0.002904 0.000000 0.000000 0.000000
# 3 0.000900 -0.002904 0.010827 0.000000 0.000000 0.000000
# 4 0.000000 0.000000 0.000000 0.068881 0.000000 0.000000
# 5 0.000000 0.000000 0.000000 0.000000 0.035772 0.000000
# 6 0.000000 0.000000 0.000000 0.000000 0.000000 0.084352
#
#
# Mechanical properties :
#
#
# Convention : Reuss Voigt Hill
#
# Bulk Modulus (GPa) = 43.92210 47.10881 45.51545
# Shear Modulus (GPa) = 20.77458 27.29880 24.03669
#
# Velocity S-wave (km/s) = 3.36700 3.85966 3.62172
# Velocity P-wave (km/s) = 6.25171 6.75055 6.50591
#
# Compressibility (1/GPa) = 0.02276758
#
# Stress axis : x y z
#
# Youngs Moduli (GPa) = 79.11841 100.40742 92.36124
#
# Poissons Ratio (x) = 0.33388 -0.08317
# Poissons Ratio (y) = 0.26309 0.26824
# Poissons Ratio (z) = -0.07124 0.29161
#
# Static dielectric constant tensor:
#      x y z
#    x 8.020930 0.000000 0.000000 
#    y 0.000000 1.516820 0.000000 
#    z 0.000000 0.000000 1.661370 
# 
# From -- ./inp_files/19540.got.cif
#   From: 2010.05.17/outbox.cif.g08.bks.cpg/sg50_10_cif.got.tgz:19540.got - 2010.06.03 11:33:33.
