data_PCOD9397019
_publ_section_title
;
Structure prediction by ZEFSAII (Michael W. Deem and Ramdas Pophale) SiO2 
 PCOD9397019
Probable space group: P B A N
;
_chemical_formula_sum "Si O2"
_cell_formula_units_Z 46
_cell_length_a 8.245436
_cell_length_b 16.600244
_cell_length_c 16.783796
_cell_angle_alpha 90.000000
_cell_angle_beta 90.000000
_cell_angle_gamma 90.000000
_cell_volume 2297.303049
_symmetry_space_group_name_H-M "P B A N"
_symmetry_group_IT_number 50
_space_group.IT_coordinate_system_code '2'
_symmetry_cell_setting 'orthorhombic'
loop_
_space_group_symop_operation_xyz
x,y,z
1/2-x,1/2-y,z
x,1/2-y,-z
1/2-x,y,-z
-x,-y,-z
1/2+x,1/2+y,-z
-x,1/2+y,z
1/2+x,-y,z
loop_
_atom_site_type_symbol
_atom_site_label
_atom_site_fract_x
_atom_site_fract_y
_atom_site_fract_z
Si Si1 0.411966 0.650855 0.445441
Si Si2 0.750000 0.250000 0.322090
Si Si3 0.943103 0.895370 0.919177
Si Si4 0.250000 0.971189 0.000000
Si Si5 0.105641 0.908755 0.747007
Si Si6 0.750000 0.610341 0.500000
Si Si7 0.835990 0.510558 0.349798
Si Si8 0.250000 0.250000 0.000000
O O1 0.250000 0.651009 0.500000
O O2 0.392714 0.721290 0.380947
O O3 0.577670 0.654839 0.494594
O O4 0.401992 0.569258 0.393312
O O5 0.805706 0.174778 0.270692
O O6 0.860090 0.811111 0.946246
O O7 0.095821 0.917817 0.975888
O O8 0.018680 0.901463 0.831570
O O9 0.811083 0.966629 0.932009
O O10 0.970968 0.928702 0.681212
O O11 0.233391 0.980032 0.726577
O O12 0.746726 0.555917 0.420990
#
# Coordination Sequence:
#
# PCOD9397019 Si02
#       8
#     8   4   8   4   8   4   8   2
#     4  11  22  40  63  84 125 163 222 284 323 379
#     4  10  25  42  52  89 134 166 202 272 336 389
#     4  10  21  42  66 100 129 172 206 271 316 397
#     4   9  20  40  72  99 126 156 228 257 320 386
#     4  11  23  41  64  89 130 162 207 267 334 372
#     4  12  20  38  67  89 114 172 228 274 318 391
#     4  11  21  38  63  93 115 160 224 270 316 378
#     4  10  24  42  64  98 140 170 216 242 324 418
#
# _framework density 20.023478999999998
#
# number of rings (size 3 to 8) (size 9 to 14) (size 15 to 20)
#    0.000    1.391    2.609    3.913    0.000    1.739 
#    3.130    9.565    0.000    0.000    0.000    0.000 
#    0.000    0.000    0.000    0.000    0.000    0.000 
#
# Total GULP energy -256554.240159 kJ/mol
# GULP energy per Si atom -5577.266090 kJ/mol
# Density = 1.997790 g / cm^3
# Si number density = 20.023479 Si / 1000 Ang^3
#
#
#
# Elastic Constant Matrix: (Units=GPa)
#
#
# Indices 1 2 3 4 5 6 
#
# 1 109.9718 33.8661 25.4019 0.0000 0.0000 0.0000
# 2 33.8661 86.8931 27.2904 0.0000 0.0000 0.0000
# 3 25.4019 27.2904 75.0625 0.0000 0.0000 0.0000
# 4 0.0000 0.0000 0.0000 -0.2441 0.0000 0.0000
# 5 0.0000 0.0000 0.0000 0.0000 39.4014 0.0000
# 6 0.0000 0.0000 0.0000 0.0000 0.0000 46.7551
#
#
#
# Elastic Compliance Matrix: (Units=1/GPa)
#
#
# Indices 1 2 3 4 5 6 
#
# 1 0.010696 -0.003423 -0.002375 0.000000 0.000000 0.000000
# 2 -0.003423 0.014087 -0.003963 0.000000 0.000000 0.000000
# 3 -0.002375 -0.003963 0.015567 0.000000 0.000000 0.000000
# 4 0.000000 0.000000 0.000000 -4.096047 0.000000 0.000000
# 5 0.000000 0.000000 0.000000 0.000000 0.025380 0.000000
# 6 0.000000 0.000000 0.000000 0.000000 0.000000 0.021388
#
#
# Mechanical properties :
#
#
# Convention : Reuss Voigt Hill
#
# Bulk Modulus (GPa) = 48.01347 49.44932 48.73140
# Shear Modulus (GPa) = -1.25550 29.54040 14.14245
#
# Velocity S-wave (km/s) = -0.79270 3.84512 2.66050
# Velocity P-wave (km/s) = 4.81589 6.66802 5.81615
#
# Compressibility (1/GPa) = 0.02082749
#
# Stress axis : x y z
#
# Youngs Moduli (GPa) = 93.49371 70.98675 64.23849
#
# Poissons Ratio (x) = 0.24297 0.15258
# Poissons Ratio (y) = 0.32000 0.25460
# Poissons Ratio (z) = 0.22207 0.28135
#
# Static dielectric constant tensor:
#      x y z
#    x 1.755150 0.000000 0.000000 
#    y 0.000000 1.708380 0.000000 
#    z 0.000000 0.000000 1.689590 
# 
# From -- ./inp_files/28841.got.cif
#   From: 2010.05.17/outbox.cif.g08.bks.cpg/sg50_15_cif.got.tgz:28841.got - 2010.06.03 11:33:33.
