data_PCOD9397205
_publ_section_title
;
Structure prediction by ZEFSAII (Michael W. Deem and Ramdas Pophale) SiO2 
 PCOD9397205
Probable space group: P B A N
;
_chemical_formula_sum "Si O2"
_cell_formula_units_Z 40
_cell_length_a 13.815135
_cell_length_b 8.074098
_cell_length_c 14.497088
_cell_angle_alpha 90.000000
_cell_angle_beta 90.000000
_cell_angle_gamma 90.000000
_cell_volume 1617.074113
_symmetry_space_group_name_H-M "P B A N"
_symmetry_group_IT_number 50
_space_group.IT_coordinate_system_code '2'
_symmetry_cell_setting 'orthorhombic'
loop_
_space_group_symop_operation_xyz
x,y,z
1/2-x,1/2-y,z
x,1/2-y,-z
1/2-x,y,-z
-x,-y,-z
1/2+x,1/2+y,-z
-x,1/2+y,z
1/2+x,-y,z
loop_
_atom_site_type_symbol
_atom_site_label
_atom_site_fract_x
_atom_site_fract_y
_atom_site_fract_z
Si Si1 0.681286 0.912403 0.286607
Si Si2 0.136913 0.549109 0.900038
Si Si3 0.129065 0.564973 0.097883
Si Si4 0.977426 0.759609 0.394079
Si Si5 0.877988 0.059029 0.300366
O O1 0.750000 0.750000 0.273627
O O2 0.605832 0.873809 0.367009
O O3 0.621728 0.947316 0.192886
O O4 0.761837 0.052598 0.305763
O O5 0.103357 0.739898 0.897786
O O6 0.254102 0.557275 0.901829
O O7 0.103211 0.483432 0.999933
O O8 0.097089 0.497702 0.196470
O O9 0.005532 0.750000 0.500000
O O10 0.068401 0.727759 0.326953
O O11 0.924149 0.930417 0.371427
#
# Coordination Sequence:
#
# PCOD9397205 Si02
#       5
#     8   8   8   8   8
#     4   9  20  38  63  91 123 168 210 259 317 374
#     4   8  14  30  58  88 119 163 204 251 306 369
#     4   8  15  30  57  88 121 158 205 253 310 364
#     4  11  24  43  64  88 126 165 206 265 328 367
#     4  10  22  40  63  91 122 163 210 259 312 380
#
# _framework density 24.736034
#
# number of rings (size 3 to 8) (size 9 to 14) (size 15 to 20)
#    0.000    2.800    0.000    1.800    2.800    3.600 
#    0.000   18.000    0.000    0.000    0.000    0.000 
#    0.000    0.000    0.000    0.000    0.000    0.000 
#
# Total GULP energy -223379.943658 kJ/mol
# GULP energy per Si atom -5584.498591 kJ/mol
# Density = 2.467973 g / cm^3
# Si number density = 24.736034 Si / 1000 Ang^3
#
#
#
# Elastic Constant Matrix: (Units=GPa)
#
#
# Indices 1 2 3 4 5 6 
#
# 1 127.2074 13.0756 24.8753 0.0000 0.0000 0.0000
# 2 13.0756 35.6930 13.0725 0.0000 0.0000 0.0000
# 3 24.8753 13.0725 162.5183 0.0000 0.0000 0.0000
# 4 0.0000 0.0000 0.0000 32.3899 0.0000 0.0000
# 5 0.0000 0.0000 0.0000 0.0000 42.3910 0.0000
# 6 0.0000 0.0000 0.0000 0.0000 0.0000 15.5672
#
#
#
# Elastic Compliance Matrix: (Units=1/GPa)
#
#
# Indices 1 2 3 4 5 6 
#
# 1 0.008343 -0.002667 -0.001062 0.000000 0.000000 0.000000
# 2 -0.002667 0.029720 -0.001982 0.000000 0.000000 0.000000
# 3 -0.001062 -0.001982 0.006475 0.000000 0.000000 0.000000
# 4 0.000000 0.000000 0.000000 0.030874 0.000000 0.000000
# 5 0.000000 0.000000 0.000000 0.000000 0.023590 0.000000
# 6 0.000000 0.000000 0.000000 0.000000 0.000000 0.064238
#
#
# Mechanical properties :
#
#
# Convention : Reuss Voigt Hill
#
# Bulk Modulus (GPa) = 30.19863 47.49617 38.84740
# Shear Modulus (GPa) = 26.92489 36.36264 31.64376
#
# Velocity S-wave (km/s) = 3.30280 3.83825 3.58055
# Velocity P-wave (km/s) = 5.17490 6.23585 5.72998
#
# Compressibility (1/GPa) = 0.03311408
#
# Stress axis : x y z
#
# Youngs Moduli (GPa) = 119.85940 33.64759 154.43472
#
# Poissons Ratio (x) = 0.08975 0.16408
# Poissons Ratio (y) = 0.31969 0.30614
# Poissons Ratio (z) = 0.12735 0.06670
#
# Static dielectric constant tensor:
#      x y z
#    x 1.984690 0.000000 0.000000 
#    y 0.000000 2.051090 0.000000 
#    z 0.000000 0.000000 1.953120 
# 
# From -- ./inp_files/26305.got.cif
#   From: 2010.05.17/outbox.cif.g08.bks.cpg/sg50_14_cif.got.tgz:26305.got - 2010.06.03 11:33:33.
