data_PCOD9397789
_publ_section_title
;
Structure prediction by ZEFSAII (Michael W. Deem and Ramdas Pophale) SiO2 
 PCOD9397789
Probable space group: P B A N
;
_chemical_formula_sum "Si O2"
_cell_formula_units_Z 64
_cell_length_a 13.401641
_cell_length_b 24.168408
_cell_length_c 9.388420
_cell_angle_alpha 90.000000
_cell_angle_beta 90.000000
_cell_angle_gamma 90.000000
_cell_volume 3040.874760
_symmetry_space_group_name_H-M "P B A N"
_symmetry_group_IT_number 50
_space_group.IT_coordinate_system_code '2'
_symmetry_cell_setting 'orthorhombic'
loop_
_space_group_symop_operation_xyz
x,y,z
1/2-x,1/2-y,z
x,1/2-y,-z
1/2-x,y,-z
-x,-y,-z
1/2+x,1/2+y,-z
-x,1/2+y,z
1/2+x,-y,z
loop_
_atom_site_type_symbol
_atom_site_label
_atom_site_fract_x
_atom_site_fract_y
_atom_site_fract_z
Si Si1 0.076902 0.974991 0.612714
Si Si2 0.325592 0.585683 0.120254
Si Si3 0.583782 0.532449 0.839055
Si Si4 0.357817 0.377877 0.932179
Si Si5 0.132327 0.742560 0.333651
Si Si6 0.952469 0.194035 0.914021
Si Si7 0.185879 0.869723 0.629377
Si Si8 0.770671 0.926705 0.344442
O O1 0.120048 0.917272 0.560109
O O2 0.022566 0.962496 0.762540
O O3 0.166926 0.017398 0.630777
O O4 0.000000 0.000000 0.500000
O O5 0.395152 0.532959 0.148175
O O6 0.381802 0.640679 0.066365
O O7 0.260377 0.603608 0.256571
O O8 0.250000 0.565852 0.000000
O O9 0.667242 0.557335 0.732041
O O10 0.599780 0.568037 0.982777
O O11 0.437351 0.328787 0.944582
O O12 0.335829 0.391929 0.767521
O O13 0.250000 0.364939 0.000000
O O14 0.250000 0.750000 0.296577
O O15 0.114056 0.750000 0.500000
O O16 0.066479 0.785295 0.246666
O O17 0.117857 0.677585 0.300998
O O18 0.927637 0.250000 0.000000
O O19 0.250000 0.844308 0.500000
O O20 0.750000 0.901511 0.500000
#
# Coordination Sequence:
#
# PCOD9397789 Si02
#       8
#     8   8   8   8   8   8   8   8
#     4  12  24  37  64 100 138 176 226 270 330 417
#     4  12  24  39  65  99 137 173 217 274 337 414
#     4  11  24  42  64  99 138 181 223 276 349 407
#     4  10  26  48  70  96 136 179 231 293 341 400
#     4  11  22  44  65  97 140 178 217 279 340 414
#     4  12  27  44  71 100 131 180 233 280 341 413
#     4  12  23  40  66  93 140 182 213 268 344 402
#     4  11  21  43  65  96 140 174 220 278 338 411
#
# _framework density 21.046576000000002
#
# number of rings (size 3 to 8) (size 9 to 14) (size 15 to 20)
#    0.000    0.625    5.000    3.750    3.500    2.250 
#    0.000    0.000    0.000    0.000    0.000    0.000 
#    0.000    0.000    0.000    0.000    0.000    0.000 
#
# Total GULP energy -357889.871093 kJ/mol
# GULP energy per Si atom -5592.029236 kJ/mol
# Density = 2.099867 g / cm^3
# Si number density = 21.046576 Si / 1000 Ang^3
#
#
#
# Elastic Constant Matrix: (Units=GPa)
#
#
# Indices 1 2 3 4 5 6 
#
# 1 53.2879 12.7897 13.7930 0.0000 0.0000 0.0000
# 2 12.7897 91.2120 10.1264 0.0000 0.0000 0.0000
# 3 13.7930 10.1264 98.6067 0.0000 0.0000 0.0000
# 4 0.0000 0.0000 0.0000 25.3862 0.0000 0.0000
# 5 0.0000 0.0000 0.0000 0.0000 30.8622 0.0000
# 6 0.0000 0.0000 0.0000 0.0000 0.0000 21.1743
#
#
#
# Elastic Compliance Matrix: (Units=1/GPa)
#
#
# Indices 1 2 3 4 5 6 
#
# 1 0.020030 -0.002526 -0.002542 0.000000 0.000000 0.000000
# 2 -0.002526 0.011409 -0.000818 0.000000 0.000000 0.000000
# 3 -0.002542 -0.000818 0.010581 0.000000 0.000000 0.000000
# 4 0.000000 0.000000 0.000000 0.039392 0.000000 0.000000
# 5 0.000000 0.000000 0.000000 0.000000 0.032402 0.000000
# 6 0.000000 0.000000 0.000000 0.000000 0.000000 0.047227
#
#
# Mechanical properties :
#
#
# Convention : Reuss Voigt Hill
#
# Bulk Modulus (GPa) = 33.06229 35.16943 34.11586
# Shear Modulus (GPa) = 27.33783 29.24435 28.29109
#
# Velocity S-wave (km/s) = 3.60796 3.73165 3.67033
# Velocity P-wave (km/s) = 5.75324 5.94252 5.84864
#
# Compressibility (1/GPa) = 0.03024594
#
# Stress axis : x y z
#
# Youngs Moduli (GPa) = 49.92401 87.65345 94.50944
#
# Poissons Ratio (x) = 0.22145 0.24028
# Poissons Ratio (y) = 0.12613 0.07733
# Poissons Ratio (z) = 0.12693 0.07172
#
# Static dielectric constant tensor:
#      x y z
#    x 1.748610 0.000000 0.000000 
#    y 0.000000 1.746310 0.000000 
#    z 0.000000 0.000000 1.929750 
# 
# From -- ./inp_files/13465.got.cif
#   From: 2010.05.17/outbox.cif.g08.bks.cpg/sg50_7_cif.got.tgz:13465.got - 2010.06.03 11:33:33.
