data_PCOD9397297
_publ_section_title
;
Structure prediction by ZEFSAII (Michael W. Deem and Ramdas Pophale) SiO2 
 PCOD9397297
Probable space group: P B A N
;
_chemical_formula_sum "Si O2"
_cell_formula_units_Z 52
_cell_length_a 20.214319
_cell_length_b 7.938498
_cell_length_c 14.199007
_cell_angle_alpha 90.000000
_cell_angle_beta 90.000000
_cell_angle_gamma 90.000000
_cell_volume 2278.533551
_symmetry_space_group_name_H-M "P B A N"
_symmetry_group_IT_number 50
_space_group.IT_coordinate_system_code '2'
_symmetry_cell_setting 'orthorhombic'
loop_
_space_group_symop_operation_xyz
x,y,z
1/2-x,1/2-y,z
x,1/2-y,-z
1/2-x,y,-z
-x,-y,-z
1/2+x,1/2+y,-z
-x,1/2+y,z
1/2+x,-y,z
loop_
_atom_site_type_symbol
_atom_site_label
_atom_site_fract_x
_atom_site_fract_y
_atom_site_fract_z
Si Si1 0.867086 0.580124 0.378777
Si Si2 0.540515 0.660691 0.285448
Si Si3 0.352487 0.046938 0.156996
Si Si4 0.750000 0.750000 0.730009
Si Si5 0.827760 0.436436 0.032419
Si Si6 0.930901 0.438529 0.541854
Si Si7 0.387202 0.669306 0.222612
O O1 0.934005 0.680202 0.346784
O O2 0.806831 0.684657 0.338756
O O3 0.873541 0.542969 0.488835
O O4 0.861633 0.404584 0.321361
O O5 0.589163 0.657286 0.198264
O O6 0.561939 0.499814 0.350711
O O7 0.466480 0.663387 0.243765
O O8 0.363225 0.855106 0.193213
O O9 0.284219 0.113740 0.201296
O O10 0.357279 0.058985 0.045073
O O11 0.855621 0.447326 0.138527
O O12 0.849415 0.250000 0.000000
O O13 0.750000 0.442561 0.000000
O O14 0.924359 0.250000 0.500000
O O15 0.000000 0.500000 0.500000
#
# Coordination Sequence:
#
# PCOD9397297 Si02
#       7
#     8   8   8   4   8   8   8
#     4  11  23  41  66  98 137 175 225 282 336 407
#     4  11  23  40  63 104 137 175 221 279 342 403
#     4  10  22  42  65  93 134 177 226 279 338 398
#     4  10  24  44  66  94 134 182 230 280 336 398
#     4   9  19  37  62  91 124 174 226 270 326 398
#     4  12  24  41  69 103 131 175 224 279 344 412
#     4  11  21  37  67  98 132 173 226 279 337 405
#
# _framework density 22.821695999999999
#
# number of rings (size 3 to 8) (size 9 to 14) (size 15 to 20)
#    0.000    1.385    1.538    4.154    0.000    2.462 
#    0.000   15.000    0.000    3.692    0.000    0.000 
#    0.000    0.000    0.000    0.000    0.000    0.000 
#
# Total GULP energy -289869.104456 kJ/mol
# GULP energy per Si atom -5574.405855 kJ/mol
# Density = 2.276975 g / cm^3
# Si number density = 22.821696 Si / 1000 Ang^3
#
#
#
# Elastic Constant Matrix: (Units=GPa)
#
#
# Indices 1 2 3 4 5 6 
#
# 1 114.8171 34.9736 60.7087 0.0000 0.0000 0.0000
# 2 34.9736 94.4518 34.4854 0.0000 0.0000 0.0000
# 3 60.7087 34.4854 137.1666 0.0000 0.0000 0.0000
# 4 0.0000 0.0000 0.0000 32.3404 0.0000 0.0000
# 5 0.0000 0.0000 0.0000 0.0000 26.0638 0.0000
# 6 0.0000 0.0000 0.0000 0.0000 0.0000 21.6520
#
#
#
# Elastic Compliance Matrix: (Units=1/GPa)
#
#
# Indices 1 2 3 4 5 6 
#
# 1 0.011988 -0.002754 -0.004613 0.000000 0.000000 0.000000
# 2 -0.002754 0.012290 -0.001871 0.000000 0.000000 0.000000
# 3 -0.004613 -0.001871 0.009802 0.000000 0.000000 0.000000
# 4 0.000000 0.000000 0.000000 0.030921 0.000000 0.000000
# 5 0.000000 0.000000 0.000000 0.000000 0.038367 0.000000
# 6 0.000000 0.000000 0.000000 0.000000 0.000000 0.046185
#
#
# Mechanical properties :
#
#
# Convention : Reuss Voigt Hill
#
# Bulk Modulus (GPa) = 64.08759 67.41899 65.75329
# Shear Modulus (GPa) = 28.86297 30.42909 29.64603
#
# Velocity S-wave (km/s) = 3.56014 3.65545 3.60811
# Velocity P-wave (km/s) = 6.71136 6.88638 6.79943
#
# Compressibility (1/GPa) = 0.01560365
#
# Stress axis : x y z
#
# Youngs Moduli (GPa) = 83.41888 81.36422 102.01483
#
# Poissons Ratio (x) = 0.22412 0.47061
# Poissons Ratio (y) = 0.22978 0.19086
# Poissons Ratio (z) = 0.38482 0.15222
#
# Static dielectric constant tensor:
#      x y z
#    x 1.860380 0.000000 0.000000 
#    y 0.000000 1.983710 0.000000 
#    z 0.000000 0.000000 1.912130 
# 
# From -- ./inp_files/27192.got.cif
#   From: 2010.05.17/outbox.cif.g08.bks.cpg/sg50_14_cif.got.tgz:27192.got - 2010.06.03 11:33:33.
