data_PCOD9397606
_publ_section_title
;
Structure prediction by ZEFSAII (Michael W. Deem and Ramdas Pophale) SiO2 
 PCOD9397606
Probable space group: P B A N
;
_chemical_formula_sum "Si O2"
_cell_formula_units_Z 18
_cell_length_a 9.308998
_cell_length_b 9.093532
_cell_length_c 8.255754
_cell_angle_alpha 90.000000
_cell_angle_beta 90.000000
_cell_angle_gamma 90.000000
_cell_volume 698.863373
_symmetry_space_group_name_H-M "P B A N"
_symmetry_group_IT_number 50
_space_group.IT_coordinate_system_code '2'
_symmetry_cell_setting 'orthorhombic'
loop_
_space_group_symop_operation_xyz
x,y,z
1/2-x,1/2-y,z
x,1/2-y,-z
1/2-x,y,-z
-x,-y,-z
1/2+x,1/2+y,-z
-x,1/2+y,z
1/2+x,-y,z
loop_
_atom_site_type_symbol
_atom_site_label
_atom_site_fract_x
_atom_site_fract_y
_atom_site_fract_z
Si Si1 0.750000 0.250000 0.000000
Si Si2 0.816774 0.974549 0.834687
Si Si3 0.433161 0.613763 0.621008
O O1 0.646994 0.358659 0.898460
O O2 0.697780 0.027098 0.705276
O O3 0.940694 0.876829 0.756887
O O4 0.750000 0.911306 0.000000
O O5 0.403169 0.750000 0.500000
O O6 0.500000 0.500000 0.500000
#
# Coordination Sequence:
#
# PCOD9397606 Si02
#       3
#     2   8   8
#     4   8  20  40  78  96 148 188 262 284 388 416
#     4  10  23  46  74 108 150 204 253 307 376 462
#     4  12  26  46  75 114 154 197 253 319 388 448
#
# _framework density 25.756105000000002
#
# number of rings (size 3 to 8) (size 9 to 14) (size 15 to 20)
#    1.333    0.000    0.000    5.333    0.000    5.333 
#    0.000    2.222    0.000    0.000    0.000    0.000 
#    0.000    0.000    0.000    0.000    0.000    0.000 
#
# Total GULP energy -100317.458241 kJ/mol
# GULP energy per Si atom -5573.192124 kJ/mol
# Density = 2.569748 g / cm^3
# Si number density = 25.756105 Si / 1000 Ang^3
#
#
#
# Elastic Constant Matrix: (Units=GPa)
#
#
# Indices 1 2 3 4 5 6 
#
# 1 155.8006 48.6748 93.0407 0.0000 0.0000 0.0000
# 2 48.6748 122.7307 43.7401 0.0000 0.0000 0.0000
# 3 93.0407 43.7401 170.3800 0.0000 0.0000 0.0000
# 4 0.0000 0.0000 0.0000 29.4063 0.0000 0.0000
# 5 0.0000 0.0000 0.0000 0.0000 26.7558 0.0000
# 6 0.0000 0.0000 0.0000 0.0000 0.0000 -13.2316
#
#
#
# Elastic Compliance Matrix: (Units=1/GPa)
#
#
# Indices 1 2 3 4 5 6 
#
# 1 0.010052 -0.002235 -0.004915 0.000000 0.000000 0.000000
# 2 -0.002235 0.009465 -0.001210 0.000000 0.000000 0.000000
# 3 -0.004915 -0.001210 0.008864 0.000000 0.000000 0.000000
# 4 0.000000 0.000000 0.000000 0.034006 0.000000 0.000000
# 5 0.000000 0.000000 0.000000 0.000000 0.037375 0.000000
# 6 0.000000 0.000000 0.000000 0.000000 0.000000 -0.075577
#
#
# Mechanical properties :
#
#
# Convention : Reuss Voigt Hill
#
# Bulk Modulus (GPa) = 85.75105 91.09137 88.42121
# Shear Modulus (GPa) = 111.62423 26.14981 68.88702
#
# Velocity S-wave (km/s) = 6.59037 3.18981 5.17725
# Velocity P-wave (km/s) = 9.55387 7.00073 8.37516
#
# Compressibility (1/GPa) = 0.01166167
#
# Stress axis : x y z
#
# Youngs Moduli (GPa) = 99.48190 105.64880 112.81594
#
# Poissons Ratio (x) = 0.23610 0.55455
# Poissons Ratio (y) = 0.22232 0.13646
# Poissons Ratio (z) = 0.48900 0.12779
#
# Static dielectric constant tensor:
#      x y z
#    x 2.087490 0.000000 0.000000 
#    y 0.000000 -7.523690 0.000000 
#    z 0.000000 0.000000 2.066310 
# 
# From -- ./inp_files/8170.got.cif
#   From: 2010.05.17/outbox.cif.g08.bks.cpg/sg50_5_cif.got.tgz:8170.got - 2010.06.03 11:33:33.
