data_PCOD9397415
_publ_section_title
;
Structure prediction by ZEFSAII (Michael W. Deem and Ramdas Pophale) SiO2 
 PCOD9397415
Probable space group: P B A N
;
_chemical_formula_sum "Si O2"
_cell_formula_units_Z 16
_cell_length_a 10.915788
_cell_length_b 4.565543
_cell_length_c 12.618148
_cell_angle_alpha 90.000000
_cell_angle_beta 90.000000
_cell_angle_gamma 90.000000
_cell_volume 628.844326
_symmetry_space_group_name_H-M "P B A N"
_symmetry_group_IT_number 50
_space_group.IT_coordinate_system_code '2'
_symmetry_cell_setting 'orthorhombic'
loop_
_space_group_symop_operation_xyz
x,y,z
1/2-x,1/2-y,z
x,1/2-y,-z
1/2-x,y,-z
-x,-y,-z
1/2+x,1/2+y,-z
-x,1/2+y,z
1/2+x,-y,z
loop_
_atom_site_type_symbol
_atom_site_label
_atom_site_fract_x
_atom_site_fract_y
_atom_site_fract_z
Si Si1 0.750000 0.250000 0.851774
Si Si2 0.084792 0.900159 0.663433
Si Si3 0.250000 0.250000 0.500000
Si Si4 0.250000 0.250000 0.000000
O O1 0.846501 0.412156 0.775535
O O2 0.688323 0.508461 0.922220
O O3 0.045015 0.564302 0.654871
O O4 0.169614 0.037808 0.574348
#
# Coordination Sequence:
#
# PCOD9397415 Si02
#       4
#     4   8   2   2
#     4  11  24  47  70 102 142 181 234 299 346 412
#     4  12  26  45  71 105 142 187 234 284 347 418
#     4  12  26  46  72 106 148 190 230 286 344 418
#     4  10  22  46  76  96 136 188 230 294 364 400
#
# _framework density 25.443498000000002
#
# number of rings (size 3 to 8) (size 9 to 14) (size 15 to 20)
#    0.000    0.500    0.000    9.000    0.000    7.000 
#    0.000   25.000    0.000    0.000    0.000    0.000 
#    0.000    0.000    0.000    0.000    0.000    0.000 
#
# Total GULP energy -89438.728923 kJ/mol
# GULP energy per Si atom -5589.920558 kJ/mol
# Density = 2.538559 g / cm^3
# Si number density = 25.443498 Si / 1000 Ang^3
#
#
#
# Elastic Constant Matrix: (Units=GPa)
#
#
# Indices 1 2 3 4 5 6 
#
# 1 77.9398 24.3017 48.1583 0.0000 0.0000 0.0000
# 2 24.3017 150.6262 79.3708 0.0000 0.0000 0.0000
# 3 48.1583 79.3708 169.8154 0.0000 0.0000 0.0000
# 4 0.0000 0.0000 0.0000 101.9399 0.0000 0.0000
# 5 0.0000 0.0000 0.0000 0.0000 -7.8948 0.0000
# 6 0.0000 0.0000 0.0000 0.0000 0.0000 39.6844
#
#
#
# Elastic Compliance Matrix: (Units=1/GPa)
#
#
# Indices 1 2 3 4 5 6 
#
# 1 0.015563 -0.000246 -0.004299 0.000000 0.000000 0.000000
# 2 -0.000246 0.008812 -0.004049 0.000000 0.000000 0.000000
# 3 -0.004299 -0.004049 0.009000 0.000000 0.000000 0.000000
# 4 0.000000 0.000000 0.000000 0.009810 0.000000 0.000000
# 5 0.000000 0.000000 0.000000 0.000000 -0.126665 0.000000
# 6 0.000000 0.000000 0.000000 0.000000 0.000000 0.025199
#
#
# Mechanical properties :
#
#
# Convention : Reuss Voigt Hill
#
# Bulk Modulus (GPa) = 61.77183 78.00476 69.88830
# Shear Modulus (GPa) = -140.06689 43.18260 -48.44215
#
# Velocity S-wave (km/s) = -7.42763 4.12417 -4.36812
# Velocity P-wave (km/s) = 7.01633 7.30774 1.44467
#
# Compressibility (1/GPa) = 0.01618861
#
# Stress axis : x y z
#
# Youngs Moduli (GPa) = 64.25419 113.47876 111.10676
#
# Poissons Ratio (x) = 0.02789 0.47762
# Poissons Ratio (y) = 0.01579 0.44988
# Poissons Ratio (z) = 0.27621 0.45949
#
# Static dielectric constant tensor:
#      x y z
#    x 1.941510 0.000000 0.000000 
#    y 0.000000 1.947070 0.000000 
#    z 0.000000 0.000000 2.039470 
# 
# From -- ./inp_files/17197.got.cif
#   From: 2010.05.17/outbox.cif.g08.bks.cpg/sg50_9_cif.got.tgz:17197.got - 2010.06.03 11:33:33.
