data_PCOD9397768
_publ_section_title
;
Structure prediction by ZEFSAII (Michael W. Deem and Ramdas Pophale) SiO2 
 PCOD9397768
Probable space group: P B A N
;
_chemical_formula_sum "Si O2"
_cell_formula_units_Z 18
_cell_length_a 15.950372
_cell_length_b 9.371108
_cell_length_c 5.090737
_cell_angle_alpha 90.000000
_cell_angle_beta 90.000000
_cell_angle_gamma 90.000000
_cell_volume 760.925994
_symmetry_space_group_name_H-M "P B A N"
_symmetry_group_IT_number 50
_space_group.IT_coordinate_system_code '2'
_symmetry_cell_setting 'orthorhombic'
loop_
_space_group_symop_operation_xyz
x,y,z
1/2-x,1/2-y,z
x,1/2-y,-z
1/2-x,y,-z
-x,-y,-z
1/2+x,1/2+y,-z
-x,1/2+y,z
1/2+x,-y,z
loop_
_atom_site_type_symbol
_atom_site_label
_atom_site_fract_x
_atom_site_fract_y
_atom_site_fract_z
Si Si1 0.750000 0.953307 0.000000
Si Si2 0.423345 0.505887 0.800618
Si Si3 0.484120 0.250000 0.500000
Si Si4 0.250000 0.250000 0.500000
O O1 0.775778 0.865879 0.733839
O O2 0.666143 0.036584 0.923175
O O3 0.423057 0.345887 0.680020
O O4 0.453878 0.630622 0.611753
O O5 0.500000 0.500000 0.000000
#
# Coordination Sequence:
#
# PCOD9397768 Si02
#       4
#     4   8   4   2
#     4  11  26  44  75 106 146 191 253 302 370 435
#     4  11  25  45  73 106 143 198 239 307 361 445
#     4  10  25  46  72 107 154 188 249 300 376 429
#     4  10  26  42  76 110 140 192 258 304 360 444
#
# _framework density 23.655387000000001
#
# number of rings (size 3 to 8) (size 9 to 14) (size 15 to 20)
#    0.000    1.333    0.000    2.667   24.889    0.000 
#    0.000    6.667    0.000    2.667    0.000    0.000 
#    0.000    0.000    0.000    0.000    0.000    0.000 
#
# Total GULP energy -100249.525075 kJ/mol
# GULP energy per Si atom -5569.418060 kJ/mol
# Density = 2.360155 g / cm^3
# Si number density = 23.655387 Si / 1000 Ang^3
#
#
#
# Elastic Constant Matrix: (Units=GPa)
#
#
# Indices 1 2 3 4 5 6 
#
# 1 185.7195 24.8436 23.6661 0.0000 0.0000 0.0000
# 2 24.8436 106.7799 39.3294 0.0000 0.0000 0.0000
# 3 23.6661 39.3294 117.2869 0.0000 0.0000 0.0000
# 4 0.0000 0.0000 0.0000 10.8027 0.0000 0.0000
# 5 0.0000 0.0000 0.0000 0.0000 38.5293 0.0000
# 6 0.0000 0.0000 0.0000 0.0000 0.0000 23.1199
#
#
#
# Elastic Compliance Matrix: (Units=1/GPa)
#
#
# Indices 1 2 3 4 5 6 
#
# 1 0.005621 -0.001016 -0.000794 0.000000 0.000000 0.000000
# 2 -0.001016 0.010868 -0.003439 0.000000 0.000000 0.000000
# 3 -0.000794 -0.003439 0.009840 0.000000 0.000000 0.000000
# 4 0.000000 0.000000 0.000000 0.092570 0.000000 0.000000
# 5 0.000000 0.000000 0.000000 0.000000 0.025954 0.000000
# 6 0.000000 0.000000 0.000000 0.000000 0.000000 0.043253
#
#
# Mechanical properties :
#
#
# Convention : Reuss Voigt Hill
#
# Bulk Modulus (GPa) = 63.16438 65.05160 64.10799
# Shear Modulus (GPa) = 24.52416 35.95352 30.23884
#
# Velocity S-wave (km/s) = 3.22332 3.90280 3.57922
# Velocity P-wave (km/s) = 6.37282 6.91871 6.65137
#
# Compressibility (1/GPa) = 0.01583171
#
# Stress axis : x y z
#
# Youngs Moduli (GPa) = 177.88967 92.01186 101.63010
#
# Poissons Ratio (x) = 0.09344 0.08067
# Poissons Ratio (y) = 0.18065 0.34955
# Poissons Ratio (z) = 0.14120 0.31647
#
# Static dielectric constant tensor:
#      x y z
#    x 2.092250 0.000000 0.000000 
#    y 0.000000 1.728360 0.000000 
#    z 0.000000 0.000000 2.026910 
# 
# From -- ./inp_files/602.got.cif
#   From: 2010.05.17/outbox.cif.g08.bks.cpg/sg50_1_cif.got.tgz:602.got - 2010.06.03 11:33:33.
