data_PCOD9397233
_publ_section_title
;
Structure prediction by ZEFSAII (Michael W. Deem and Ramdas Pophale) SiO2 
 PCOD9397233
Probable space group: P B A N
;
_chemical_formula_sum "Si O2"
_cell_formula_units_Z 40
_cell_length_a 16.874199
_cell_length_b 8.851306
_cell_length_c 13.485208
_cell_angle_alpha 90.000000
_cell_angle_beta 90.000000
_cell_angle_gamma 90.000000
_cell_volume 2014.133121
_symmetry_space_group_name_H-M "P B A N"
_symmetry_group_IT_number 50
_space_group.IT_coordinate_system_code '2'
_symmetry_cell_setting 'orthorhombic'
loop_
_space_group_symop_operation_xyz
x,y,z
1/2-x,1/2-y,z
x,1/2-y,-z
1/2-x,y,-z
-x,-y,-z
1/2+x,1/2+y,-z
-x,1/2+y,z
1/2+x,-y,z
loop_
_atom_site_type_symbol
_atom_site_label
_atom_site_fract_x
_atom_site_fract_y
_atom_site_fract_z
Si Si1 0.062620 0.194089 0.823008
Si Si2 0.184904 0.506231 0.080604
Si Si3 0.750000 0.250000 0.235156
Si Si4 0.939226 0.250000 0.000000
Si Si5 0.111962 0.707064 0.606750
Si Si6 0.483656 0.444724 0.317057
O O1 0.068276 0.345135 0.758611
O O2 0.142485 0.138401 0.873493
O O3 0.033595 0.061497 0.749699
O O4 0.995169 0.215847 0.906354
O O5 0.224434 0.611882 0.164580
O O6 0.250000 0.468053 0.000000
O O7 0.116834 0.609613 0.028790
O O8 0.823916 0.287708 0.305890
O O9 0.146217 0.750000 0.500000
O O10 0.070043 0.543887 0.610286
O O11 0.043888 0.830426 0.630360
#
# Coordination Sequence:
#
# PCOD9397233 Si02
#       6
#     8   8   4   4   8   8
#     4  11  22  39  63  95 126 175 212 268 324 376
#     4  12  23  38  62  93 133 177 216 264 324 394
#     4  12  22  42  64  92 134 164 212 264 334 398
#     4  12  21  38  65  88 130 172 232 260 305 394
#     4  11  23  42  70  98 121 167 215 269 330 392
#     4  10  22  40  68  91 129 159 217 271 320 384
#
# _framework density 19.859660999999999
#
# number of rings (size 3 to 8) (size 9 to 14) (size 15 to 20)
#    0.000    0.800    6.000    2.700    0.000    0.000 
#    0.000    3.500    0.000    0.000   10.400    0.000 
#    0.000    0.000    0.000    0.000    0.000    0.000 
#
# Total GULP energy -223823.359299 kJ/mol
# GULP energy per Si atom -5595.583982 kJ/mol
# Density = 1.981446 g / cm^3
# Si number density = 19.859661 Si / 1000 Ang^3
#
#
#
# Elastic Constant Matrix: (Units=GPa)
#
#
# Indices 1 2 3 4 5 6 
#
# 1 92.4693 35.4237 36.8044 0.0000 0.0000 0.0000
# 2 35.4237 89.5470 29.8148 0.0000 0.0000 0.0000
# 3 36.8044 29.8148 94.5702 0.0000 0.0000 0.0000
# 4 0.0000 0.0000 0.0000 18.1492 0.0000 0.0000
# 5 0.0000 0.0000 0.0000 0.0000 8.7381 0.0000
# 6 0.0000 0.0000 0.0000 0.0000 0.0000 32.8094
#
#
#
# Elastic Compliance Matrix: (Units=1/GPa)
#
#
# Indices 1 2 3 4 5 6 
#
# 1 0.014071 -0.004182 -0.004158 0.000000 0.000000 0.000000
# 2 -0.004182 0.013720 -0.002698 0.000000 0.000000 0.000000
# 3 -0.004158 -0.002698 0.013043 0.000000 0.000000 0.000000
# 4 0.000000 0.000000 0.000000 0.055099 0.000000 0.000000
# 5 0.000000 0.000000 0.000000 0.000000 0.114442 0.000000
# 6 0.000000 0.000000 0.000000 0.000000 0.000000 0.030479
#
#
# Mechanical properties :
#
#
# Convention : Reuss Voigt Hill
#
# Bulk Modulus (GPa) = 53.30874 53.40805 53.35839
# Shear Modulus (GPa) = 18.57479 23.57558 21.07519
#
# Velocity S-wave (km/s) = 3.06159 3.44918 3.26115
# Velocity P-wave (km/s) = 6.27684 6.54321 6.41141
#
# Compressibility (1/GPa) = 0.01875865
#
# Stress axis : x y z
#
# Youngs Moduli (GPa) = 71.06628 72.88635 76.67070
#
# Poissons Ratio (x) = 0.30482 0.31878
# Poissons Ratio (y) = 0.29721 0.20685
# Poissons Ratio (z) = 0.29548 0.19664
#
# Static dielectric constant tensor:
#      x y z
#    x 1.682560 0.000000 0.000000 
#    y 0.000000 1.689160 0.000000 
#    z 0.000000 0.000000 1.693750 
# 
# From -- ./inp_files/21639.got.cif
#   From: 2010.05.17/outbox.cif.g08.bks.cpg/sg50_11_cif.got.tgz:21639.got - 2010.06.03 11:33:33.
