data_PCOD9397590
_publ_section_title
;
Structure prediction by ZEFSAII (Michael W. Deem and Ramdas Pophale) SiO2 
 PCOD9397590
Probable space group: P B A N
;
_chemical_formula_sum "Si O2"
_cell_formula_units_Z 48
_cell_length_a 14.417121
_cell_length_b 16.550087
_cell_length_c 10.182480
_cell_angle_alpha 90.000000
_cell_angle_beta 90.000000
_cell_angle_gamma 90.000000
_cell_volume 2429.586637
_symmetry_space_group_name_H-M "P B A N"
_symmetry_group_IT_number 50
_space_group.IT_coordinate_system_code '2'
_symmetry_cell_setting 'orthorhombic'
loop_
_space_group_symop_operation_xyz
x,y,z
1/2-x,1/2-y,z
x,1/2-y,-z
1/2-x,y,-z
-x,-y,-z
1/2+x,1/2+y,-z
-x,1/2+y,z
1/2+x,-y,z
loop_
_atom_site_type_symbol
_atom_site_label
_atom_site_fract_x
_atom_site_fract_y
_atom_site_fract_z
Si Si1 0.685513 0.672292 0.264422
Si Si2 0.516468 0.210113 0.360968
Si Si3 0.250000 0.415011 0.000000
Si Si4 0.572327 0.030576 0.394486
Si Si5 0.082703 0.524993 0.899736
Si Si6 0.250000 0.443217 0.500000
Si Si7 0.356135 0.784680 0.864991
O O1 0.750000 0.750000 0.283982
O O2 0.578046 0.694826 0.281518
O O3 0.708606 0.636253 0.121312
O O4 0.707986 0.610852 0.382960
O O5 0.494366 0.250000 0.500000
O O6 0.565703 0.126338 0.396282
O O7 0.588361 0.249762 0.259955
O O8 0.169599 0.471038 0.941356
O O9 0.549198 0.003079 0.246920
O O10 0.500000 0.000000 0.500000
O O11 0.671526 0.997404 0.434536
O O12 0.122006 0.618213 0.882762
O O13 0.000000 0.500000 0.000000
O O14 0.250000 0.750000 0.855802
O O15 0.395183 0.750000 0.000000
#
# Coordination Sequence:
#
# PCOD9397590 Si02
#       7
#     8   8   4   8   8   4   8
#     4  12  26  44  67  99 138 185 230 285 352 413
#     4  11  25  44  68 102 139 176 233 286 344 416
#     4  12  23  44  67 100 136 180 236 290 343 416
#     4  11  24  43  69 102 135 183 231 281 351 416
#     4  11  25  43  70 102 139 182 237 293 350 423
#     4  12  23  46  71  96 144 178 224 292 345 418
#     4  10  23  45  69 100 142 187 228 284 358 423
#
# _framework density 19.756447000000001
#
# number of rings (size 3 to 8) (size 9 to 14) (size 15 to 20)
#    0.000    0.833    3.333    4.500    0.000    7.000 
#    0.000    0.000    0.000    0.000    0.000    0.000 
#    0.000    0.000    0.000    0.000    0.000    0.000 
#
# Total GULP energy -267865.068337 kJ/mol
# GULP energy per Si atom -5580.522257 kJ/mol
# Density = 1.971148 g / cm^3
# Si number density = 19.756447 Si / 1000 Ang^3
#
#
#
# Elastic Constant Matrix: (Units=GPa)
#
#
# Indices 1 2 3 4 5 6 
#
# 1 116.3525 42.0916 63.4223 0.0000 0.0000 0.0000
# 2 42.0916 69.2150 38.4122 0.0000 0.0000 0.0000
# 3 63.4223 38.4122 180.8683 0.0000 0.0000 0.0000
# 4 0.0000 0.0000 0.0000 59.1538 0.0000 0.0000
# 5 0.0000 0.0000 0.0000 0.0000 47.2385 0.0000
# 6 0.0000 0.0000 0.0000 0.0000 0.0000 32.7367
#
#
#
# Elastic Compliance Matrix: (Units=1/GPa)
#
#
# Indices 1 2 3 4 5 6 
#
# 1 0.012392 -0.005809 -0.003112 0.000000 0.000000 0.000000
# 2 -0.005809 0.019101 -0.002020 0.000000 0.000000 0.000000
# 3 -0.003112 -0.002020 0.007049 0.000000 0.000000 0.000000
# 4 0.000000 0.000000 0.000000 0.016905 0.000000 0.000000
# 5 0.000000 0.000000 0.000000 0.000000 0.021169 0.000000
# 6 0.000000 0.000000 0.000000 0.000000 0.000000 0.030547
#
#
# Mechanical properties :
#
#
# Convention : Reuss Voigt Hill
#
# Bulk Modulus (GPa) = 60.01872 72.69867 66.35869
# Shear Modulus (GPa) = 37.14757 42.65978 39.90367
#
# Velocity S-wave (km/s) = 4.34092 4.65185 4.49907
# Velocity P-wave (km/s) = 7.45453 8.10742 7.78782
#
# Compressibility (1/GPa) = 0.01666147
#
# Stress axis : x y z
#
# Youngs Moduli (GPa) = 80.69573 52.35246 141.86551
#
# Poissons Ratio (x) = 0.30413 0.44144
# Poissons Ratio (y) = 0.46878 0.28652
# Poissons Ratio (z) = 0.25110 0.10573
#
# Static dielectric constant tensor:
#      x y z
#    x 1.808890 0.000000 0.000000 
#    y 0.000000 1.716620 0.000000 
#    z 0.000000 0.000000 1.738650 
# 
# From -- ./inp_files/13007.got.cif
#   From: 2010.05.17/outbox.cif.g08.bks.cpg/sg50_7_cif.got.tgz:13007.got - 2010.06.03 11:33:33.
