data_PCOD9397221
_publ_section_title
;
Structure prediction by ZEFSAII (Michael W. Deem and Ramdas Pophale) SiO2 
 PCOD9397221
Probable space group: P B A N
;
_chemical_formula_sum "Si O2"
_cell_formula_units_Z 32
_cell_length_a 13.529727
_cell_length_b 9.123514
_cell_length_c 11.560375
_cell_angle_alpha 90.000000
_cell_angle_beta 90.000000
_cell_angle_gamma 90.000000
_cell_volume 1426.997126
_symmetry_space_group_name_H-M "P B A N"
_symmetry_group_IT_number 50
_space_group.IT_coordinate_system_code '2'
_symmetry_cell_setting 'orthorhombic'
loop_
_space_group_symop_operation_xyz
x,y,z
1/2-x,1/2-y,z
x,1/2-y,-z
1/2-x,y,-z
-x,-y,-z
1/2+x,1/2+y,-z
-x,1/2+y,z
1/2+x,-y,z
loop_
_atom_site_type_symbol
_atom_site_label
_atom_site_fract_x
_atom_site_fract_y
_atom_site_fract_z
Si Si1 0.217233 0.420617 0.371531
Si Si2 0.250000 0.750000 0.000000
Si Si3 0.841660 0.498679 0.152933
Si Si4 0.981202 0.250000 0.500000
Si Si5 0.250000 0.250000 0.000000
Si Si6 0.484879 0.512775 0.340924
O O1 0.250000 0.250000 0.362492
O O2 0.250000 0.467881 0.500000
O O3 0.100445 0.447720 0.353040
O O4 0.271206 0.499002 0.265435
O O5 0.182698 0.643172 0.922447
O O6 0.816046 0.642653 0.078774
O O7 0.949533 0.501943 0.210544
O O8 0.035168 0.366513 0.584298
O O9 0.929724 0.145488 0.592752
#
# Coordination Sequence:
#
# PCOD9397221 Si02
#       6
#     8   2   8   4   2   8
#     4  11  22  42  77 111 141 187 238 301 381 464
#     4  10  28  50  64 102 146 198 268 330 356 406
#     4  11  24  48  71 100 145 195 260 314 371 438
#     4  10  22  40  66 112 148 176 228 294 384 462
#     4  10  24  50  76  94 144 208 268 318 356 434
#     4  11  23  42  72 108 148 192 238 298 373 461
#
# _framework density 22.424714000000002
#
# number of rings (size 3 to 8) (size 9 to 14) (size 15 to 20)
#    0.000    1.250    1.250    6.000    3.500    0.000 
#    0.000    7.500    0.000    0.000    0.000    0.000 
#    0.000    0.000    0.000    0.000    0.000    0.000 
#
# Total GULP energy -178760.532538 kJ/mol
# GULP energy per Si atom -5586.266642 kJ/mol
# Density = 2.237367 g / cm^3
# Si number density = 22.424714 Si / 1000 Ang^3
#
#
#
# Elastic Constant Matrix: (Units=GPa)
#
#
# Indices 1 2 3 4 5 6 
#
# 1 146.0951 40.0970 66.2086 0.0000 0.0000 0.0000
# 2 40.0970 164.8942 84.7246 0.0000 0.0000 0.0000
# 3 66.2086 84.7246 179.8815 0.0000 0.0000 0.0000
# 4 0.0000 0.0000 0.0000 28.0232 0.0000 0.0000
# 5 0.0000 0.0000 0.0000 0.0000 44.6594 0.0000
# 6 0.0000 0.0000 0.0000 0.0000 0.0000 15.2297
#
#
#
# Elastic Compliance Matrix: (Units=1/GPa)
#
#
# Indices 1 2 3 4 5 6 
#
# 1 0.008258 -0.000589 -0.002762 0.000000 0.000000 0.000000
# 2 -0.000589 0.008043 -0.003571 0.000000 0.000000 0.000000
# 3 -0.002762 -0.003571 0.008258 0.000000 0.000000 0.000000
# 4 0.000000 0.000000 0.000000 0.035685 0.000000 0.000000
# 5 0.000000 0.000000 0.000000 0.000000 0.022392 0.000000
# 6 0.000000 0.000000 0.000000 0.000000 0.000000 0.065661
#
#
# Mechanical properties :
#
#
# Convention : Reuss Voigt Hill
#
# Bulk Modulus (GPa) = 93.33566 96.99236 95.16401
# Shear Modulus (GPa) = 30.17262 37.57183 33.87222
#
# Velocity S-wave (km/s) = 3.67210 4.09769 3.89071
# Velocity P-wave (km/s) = 7.72601 8.10767 7.91914
#
# Compressibility (1/GPa) = 0.01071402
#
# Stress axis : x y z
#
# Youngs Moduli (GPa) = 121.09032 124.33610 121.09400
#
# Poissons Ratio (x) = 0.07322 0.33449
# Poissons Ratio (y) = 0.07131 0.43247
# Poissons Ratio (z) = 0.33448 0.44405
#
# Static dielectric constant tensor:
#      x y z
#    x 1.949610 0.000000 0.000000 
#    y 0.000000 1.841380 0.000000 
#    z 0.000000 0.000000 1.808640 
# 
# From -- ./inp_files/18868.got.cif
#   From: 2010.05.17/outbox.cif.g08.bks.cpg/sg50_10_cif.got.tgz:18868.got - 2010.06.03 11:33:33.
