data_PCOD9397937
_publ_section_title
;
Structure prediction by ZEFSAII (Michael W. Deem and Ramdas Pophale) SiO2 
 PCOD9397937
Probable space group: P B A N
;
_chemical_formula_sum "Si O2"
_cell_formula_units_Z 48
_cell_length_a 12.035581
_cell_length_b 17.229641
_cell_length_c 10.982588
_cell_angle_alpha 90.000000
_cell_angle_beta 90.000000
_cell_angle_gamma 90.000000
_cell_volume 2277.445434
_symmetry_space_group_name_H-M "P B A N"
_symmetry_group_IT_number 50
_space_group.IT_coordinate_system_code '2'
_symmetry_cell_setting 'orthorhombic'
loop_
_space_group_symop_operation_xyz
x,y,z
1/2-x,1/2-y,z
x,1/2-y,-z
1/2-x,y,-z
-x,-y,-z
1/2+x,1/2+y,-z
-x,1/2+y,z
1/2+x,-y,z
loop_
_atom_site_type_symbol
_atom_site_label
_atom_site_fract_x
_atom_site_fract_y
_atom_site_fract_z
Si Si1 0.778765 0.339970 0.143691
Si Si2 0.564919 0.626999 0.773756
Si Si3 0.792653 0.620092 0.631971
Si Si4 0.624591 0.471607 0.258985
Si Si5 0.474485 0.196125 0.212065
Si Si6 0.124347 0.409988 0.036944
O O1 0.750000 0.250000 0.170791
O O2 0.707743 0.403784 0.215798
O O3 0.908829 0.345203 0.179872
O O4 0.750000 0.351552 0.000000
O O5 0.690025 0.633570 0.724889
O O6 0.488233 0.569093 0.697158
O O7 0.512707 0.712295 0.777341
O O8 0.560699 0.592318 0.909977
O O9 0.750000 0.642632 0.500000
O O10 0.821861 0.529230 0.643623
O O11 0.903688 0.665141 0.673426
O O12 0.600282 0.527914 0.142692
O O13 0.396361 0.173059 0.098822
O O14 0.250000 0.423305 0.000000
#
# Coordination Sequence:
#
# PCOD9397937 Si02
#       6
#     8   8   8   8   8   8
#     4  11  23  41  65 106 148 181 215 270 349 436
#     4  12  23  42  67  99 137 177 230 286 346 418
#     4  11  28  47  70  97 132 185 242 301 344 402
#     4  11  24  42  66  97 138 180 224 276 351 423
#     4  11  24  42  69 100 138 182 225 285 348 414
#     4  11  22  37  62 101 139 175 215 276 342 430
#
# _framework density 21.076245
#
# number of rings (size 3 to 8) (size 9 to 14) (size 15 to 20)
#    0.000    0.833    5.000    3.000    7.000    2.667 
#    0.000    0.000    0.000    0.500    0.000    0.000 
#    0.000    0.000    0.000    0.000    0.000    0.000 
#
# Total GULP energy -268048.735485 kJ/mol
# GULP energy per Si atom -5584.348656 kJ/mol
# Density = 2.102827 g / cm^3
# Si number density = 21.076245 Si / 1000 Ang^3
#
#
#
# Elastic Constant Matrix: (Units=GPa)
#
#
# Indices 1 2 3 4 5 6 
#
# 1 108.2751 33.0455 28.4081 0.0000 0.0000 0.0000
# 2 33.0455 73.0659 -4.1374 0.0000 0.0000 0.0000
# 3 28.4081 -4.1374 63.9498 0.0000 0.0000 0.0000
# 4 0.0000 0.0000 0.0000 -4.1901 0.0000 0.0000
# 5 0.0000 0.0000 0.0000 0.0000 22.0154 0.0000
# 6 0.0000 0.0000 0.0000 0.0000 0.0000 13.4319
#
#
#
# Elastic Compliance Matrix: (Units=1/GPa)
#
#
# Indices 1 2 3 4 5 6 
#
# 1 0.012668 -0.006070 -0.006020 0.000000 0.000000 0.000000
# 2 -0.006070 0.016645 0.003773 0.000000 0.000000 0.000000
# 3 -0.006020 0.003773 0.018556 0.000000 0.000000 0.000000
# 4 0.000000 0.000000 0.000000 -0.238660 0.000000 0.000000
# 5 0.000000 0.000000 0.000000 0.000000 0.045423 0.000000
# 6 0.000000 0.000000 0.000000 0.000000 0.000000 0.074450
#
#
# Mechanical properties :
#
#
# Convention : Reuss Voigt Hill
#
# Bulk Modulus (GPa) = 32.01523 39.99147 36.00335
# Shear Modulus (GPa) = -113.96415 18.78306 -47.59054
#
# Velocity S-wave (km/s) = -7.36137 2.98853 -4.75702
# Velocity P-wave (km/s) = 7.55181 5.56096 3.61286
#
# Compressibility (1/GPa) = 0.03123513
#
# Stress axis : x y z
#
# Youngs Moduli (GPa) = 78.94004 60.07699 53.89188
#
# Poissons Ratio (x) = 0.36468 0.32443
# Poissons Ratio (y) = 0.47918 -0.20336
# Poissons Ratio (z) = 0.47523 -0.22670
#
# Static dielectric constant tensor:
#      x y z
#    x 1.798550 0.000000 0.000000 
#    y 0.000000 1.765660 0.000000 
#    z 0.000000 0.000000 1.766880 
# 
# From -- ./inp_files/20203.got.cif
#   From: 2010.05.17/outbox.cif.g08.bks.cpg/sg50_11_cif.got.tgz:20203.got - 2010.06.03 11:33:33.
