data_PCOD9397464
_publ_section_title
;
Structure prediction by ZEFSAII (Michael W. Deem and Ramdas Pophale) SiO2 
 PCOD9397464
Probable space group: P B A N
;
_chemical_formula_sum "Si O2"
_cell_formula_units_Z 40
_cell_length_a 8.429695
_cell_length_b 24.736105
_cell_length_c 8.367800
_cell_angle_alpha 90.000000
_cell_angle_beta 90.000000
_cell_angle_gamma 90.000000
_cell_volume 1744.835420
_symmetry_space_group_name_H-M "P B A N"
_symmetry_group_IT_number 50
_space_group.IT_coordinate_system_code '2'
_symmetry_cell_setting 'orthorhombic'
loop_
_space_group_symop_operation_xyz
x,y,z
1/2-x,1/2-y,z
x,1/2-y,-z
1/2-x,y,-z
-x,-y,-z
1/2+x,1/2+y,-z
-x,1/2+y,z
1/2+x,-y,z
loop_
_atom_site_type_symbol
_atom_site_label
_atom_site_fract_x
_atom_site_fract_y
_atom_site_fract_z
Si Si1 0.745235 0.975980 0.810170
Si Si2 0.582917 0.718425 0.797494
Si Si3 0.917628 0.075914 0.693229
Si Si4 0.909730 0.184214 0.897990
Si Si5 0.589967 0.610427 0.606578
O O1 0.575743 0.953903 0.756677
O O2 0.873452 0.932008 0.747546
O O3 0.781517 0.032858 0.726824
O O4 0.750000 0.981956 0.000000
O O5 0.750000 0.750000 0.784928
O O6 0.448775 0.764642 0.786390
O O7 0.567587 0.670465 0.672191
O O8 0.550547 0.689628 0.969674
O O9 0.902985 0.129970 0.797430
O O10 0.950904 0.091601 0.510608
O O11 0.750000 0.188610 0.000000
O O12 0.750000 0.610559 0.500000
#
# Coordination Sequence:
#
# PCOD9397464 Si02
#       5
#     8   8   8   8   8
#     4  11  22  40  64  95 132 175 224 275 331 401
#     4  11  22  41  70  97 127 173 221 275 332 401
#     4  11  24  42  65  95 135 176 222 277 336 398
#     4  11  24  43  66  98 135 172 219 278 335 401
#     4  10  23  40  64  99 135 170 222 281 338 401
#
# _framework density 22.924799
#
# number of rings (size 3 to 8) (size 9 to 14) (size 15 to 20)
#    0.000    1.200    0.000    7.800    0.000    6.000 
#    0.000    3.000    0.000    9.600    0.000    0.000 
#    0.000    0.000    0.000    0.000    0.000    0.000 
#
# Total GULP energy -223961.216297 kJ/mol
# GULP energy per Si atom -5599.030407 kJ/mol
# Density = 2.287262 g / cm^3
# Si number density = 22.924799 Si / 1000 Ang^3
#
#
#
# Elastic Constant Matrix: (Units=GPa)
#
#
# Indices 1 2 3 4 5 6 
#
# 1 95.7875 65.3266 52.0236 0.0000 0.0000 0.0000
# 2 65.3266 205.3220 85.7196 0.0000 0.0000 0.0000
# 3 52.0236 85.7196 120.6620 0.0000 0.0000 0.0000
# 4 0.0000 0.0000 0.0000 44.4858 0.0000 0.0000
# 5 0.0000 0.0000 0.0000 0.0000 13.4659 0.0000
# 6 0.0000 0.0000 0.0000 0.0000 0.0000 32.6882
#
#
#
# Elastic Compliance Matrix: (Units=1/GPa)
#
#
# Indices 1 2 3 4 5 6 
#
# 1 0.014752 -0.002898 -0.004302 0.000000 0.000000 0.000000
# 2 -0.002898 0.007493 -0.004074 0.000000 0.000000 0.000000
# 3 -0.004302 -0.004074 0.013037 0.000000 0.000000 0.000000
# 4 0.000000 0.000000 0.000000 0.022479 0.000000 0.000000
# 5 0.000000 0.000000 0.000000 0.000000 0.074261 0.000000
# 6 0.000000 0.000000 0.000000 0.000000 0.000000 0.030592
#
#
# Mechanical properties :
#
#
# Convention : Reuss Voigt Hill
#
# Bulk Modulus (GPa) = 78.52348 91.99011 85.25680
# Shear Modulus (GPa) = 26.39820 32.70811 29.55315
#
# Velocity S-wave (km/s) = 3.39708 3.78134 3.59435
# Velocity P-wave (km/s) = 7.05080 7.69927 7.38216
#
# Compressibility (1/GPa) = 0.01273504
#
# Stress axis : x y z
#
# Youngs Moduli (GPa) = 67.78523 133.45528 76.70748
#
# Poissons Ratio (x) = 0.38672 0.32999
# Poissons Ratio (y) = 0.19642 0.31250
# Poissons Ratio (z) = 0.29161 0.54368
#
# Static dielectric constant tensor:
#      x y z
#    x 1.925290 0.000000 0.000000 
#    y 0.000000 1.827500 0.000000 
#    z 0.000000 0.000000 1.851840 
# 
# From -- ./inp_files/9529.got.cif
#   From: 2010.05.17/outbox.cif.g08.bks.cpg/sg50_5_cif.got.tgz:9529.got - 2010.06.03 11:33:33.
