data_PCOD9397816
_publ_section_title
;
Structure prediction by ZEFSAII (Michael W. Deem and Ramdas Pophale) SiO2 
 PCOD9397816
Probable space group: P B A N
;
_chemical_formula_sum "Si O2"
_cell_formula_units_Z 64
_cell_length_a 13.788159
_cell_length_b 14.498100
_cell_length_c 16.855306
_cell_angle_alpha 90.000000
_cell_angle_beta 90.000000
_cell_angle_gamma 90.000000
_cell_volume 3369.411200
_symmetry_space_group_name_H-M "P B A N"
_symmetry_group_IT_number 50
_space_group.IT_coordinate_system_code '2'
_symmetry_cell_setting 'orthorhombic'
loop_
_space_group_symop_operation_xyz
x,y,z
1/2-x,1/2-y,z
x,1/2-y,-z
1/2-x,y,-z
-x,-y,-z
1/2+x,1/2+y,-z
-x,1/2+y,z
1/2+x,-y,z
loop_
_atom_site_type_symbol
_atom_site_label
_atom_site_fract_x
_atom_site_fract_y
_atom_site_fract_z
Si Si1 0.351646 0.517129 0.044108
Si Si2 0.596704 0.311233 0.193514
Si Si3 0.010893 0.148459 0.035749
Si Si4 0.953416 0.095523 0.344687
Si Si5 0.539616 0.640787 0.482633
Si Si6 0.713241 0.988598 0.579626
Si Si7 0.310930 0.882763 0.802495
Si Si8 0.598815 0.045503 0.351429
O O1 0.395776 0.416597 0.029034
O O2 0.339699 0.536772 0.137469
O O3 0.250000 0.528989 0.000000
O O4 0.425673 0.593079 0.009390
O O5 0.522206 0.343518 0.127128
O O6 0.553395 0.321966 0.282391
O O7 0.634871 0.210326 0.170801
O O8 0.695389 0.370842 0.193265
O O9 0.023694 0.250000 0.000000
O O10 0.003414 0.107099 0.430953
O O11 0.848891 0.055827 0.366399
O O12 0.015461 0.012585 0.307750
O O13 0.550389 0.750000 0.500000
O O14 0.639864 0.592982 0.449960
O O15 0.456361 0.605251 0.420104
O O16 0.750000 0.038596 0.500000
O O17 0.816620 0.973374 0.621236
O O18 0.347197 0.893584 0.712991
#
# Coordination Sequence:
#
# PCOD9397816 Si02
#       8
#     8   8   8   8   8   8   8   8
#     4  11  23  41  68  96 125 166 211 253 315 380
#     4  11  22  36  61  95 125 160 204 264 313 366
#     4  11  23  42  67  96 128 164 206 260 313 378
#     4  11  21  37  59  83 122 160 204 252 314 370
#     4  11  23  37  59  88 116 158 207 262 309 367
#     4  11  19  38  59  83 113 160 212 250 309 373
#     4  11  22  37  61  92 126 161 207 260 314 369
#     4  11  21  39  60  84 122 165 205 257 312 378
#
# _framework density 18.994415
#
# number of rings (size 3 to 8) (size 9 to 14) (size 15 to 20)
#    0.000    1.000    6.250    2.250    0.000    0.750 
#    0.000    0.625    0.000    0.000    0.000    0.000 
#    0.000    0.000    0.000    0.000    0.000    0.000 
#
# Total GULP energy -356413.408613 kJ/mol
# GULP energy per Si atom -5568.959510 kJ/mol
# Density = 1.895118 g / cm^3
# Si number density = 18.994415 Si / 1000 Ang^3
#
#
#
# Elastic Constant Matrix: (Units=GPa)
#
#
# Indices 1 2 3 4 5 6 
#
# 1 88.6714 26.2194 26.7519 0.0000 0.0000 0.0000
# 2 26.2194 91.4210 24.3230 0.0000 0.0000 0.0000
# 3 26.7519 24.3230 83.7559 0.0000 0.0000 0.0000
# 4 0.0000 0.0000 0.0000 32.5208 0.0000 0.0000
# 5 0.0000 0.0000 0.0000 0.0000 18.4085 0.0000
# 6 0.0000 0.0000 0.0000 0.0000 0.0000 13.1561
#
#
#
# Elastic Compliance Matrix: (Units=1/GPa)
#
#
# Indices 1 2 3 4 5 6 
#
# 1 0.013142 -0.002874 -0.003363 0.000000 0.000000 0.000000
# 2 -0.002874 0.012483 -0.002707 0.000000 0.000000 0.000000
# 3 -0.003363 -0.002707 0.013800 0.000000 0.000000 0.000000
# 4 0.000000 0.000000 0.000000 0.030750 0.000000 0.000000
# 5 0.000000 0.000000 0.000000 0.000000 0.054323 0.000000
# 6 0.000000 0.000000 0.000000 0.000000 0.000000 0.076010
#
#
# Mechanical properties :
#
#
# Convention : Reuss Voigt Hill
#
# Bulk Modulus (GPa) = 46.43351 46.49298 46.46324
# Shear Modulus (GPa) = 22.16560 25.25402 23.70981
#
# Velocity S-wave (km/s) = 3.41978 3.65025 3.53689
# Velocity P-wave (km/s) = 6.33183 6.50355 6.41826
#
# Compressibility (1/GPa) = 0.02153617
#
# Stress axis : x y z
#
# Youngs Moduli (GPa) = 76.09126 80.10892 72.46541
#
# Poissons Ratio (x) = 0.23027 0.24369
# Poissons Ratio (y) = 0.21872 0.19616
# Poissons Ratio (z) = 0.25589 0.21686
#
# Static dielectric constant tensor:
#      x y z
#    x 1.661270 0.000000 0.000000 
#    y 0.000000 1.690800 0.000000 
#    z 0.000000 0.000000 1.739790 
# 
# From -- ./inp_files/29238.got.cif
#   From: 2010.05.17/outbox.cif.g08.bks.cpg/sg50_15_cif.got.tgz:29238.got - 2010.06.03 11:33:33.
