data_PCOD9397586
_publ_section_title
;
Structure prediction by ZEFSAII (Michael W. Deem and Ramdas Pophale) SiO2 
 PCOD9397586
Probable space group: P B A N
;
_chemical_formula_sum "Si O2"
_cell_formula_units_Z 38
_cell_length_a 11.282872
_cell_length_b 8.491948
_cell_length_c 19.764799
_cell_angle_alpha 90.000000
_cell_angle_beta 90.000000
_cell_angle_gamma 90.000000
_cell_volume 1893.735801
_symmetry_space_group_name_H-M "P B A N"
_symmetry_group_IT_number 50
_space_group.IT_coordinate_system_code '2'
_symmetry_cell_setting 'orthorhombic'
loop_
_space_group_symop_operation_xyz
x,y,z
1/2-x,1/2-y,z
x,1/2-y,-z
1/2-x,y,-z
-x,-y,-z
1/2+x,1/2+y,-z
-x,1/2+y,z
1/2+x,-y,z
loop_
_atom_site_type_symbol
_atom_site_label
_atom_site_fract_x
_atom_site_fract_y
_atom_site_fract_z
Si Si1 0.632280 0.327149 0.128926
Si Si2 0.327412 0.911644 0.683168
Si Si3 0.970246 0.623462 0.797819
Si Si4 0.750000 0.750000 0.271806
Si Si5 0.622929 0.072202 0.473543
Si Si6 0.250000 0.750000 0.000000
O O1 0.750000 0.250000 0.159557
O O2 0.593241 0.467825 0.176072
O O3 0.532681 0.196248 0.136468
O O4 0.670205 0.352941 0.051300
O O5 0.250000 0.750000 0.685863
O O6 0.432554 0.900932 0.738878
O O7 0.378340 0.924071 0.607508
O O8 0.257000 0.078194 0.692381
O O9 0.869276 0.740064 0.771639
O O10 0.623764 0.250000 0.500000
O O11 0.750000 0.001383 0.500000
O O12 0.500000 0.000000 0.500000
#
# Coordination Sequence:
#
# PCOD9397586 Si02
#       6
#     8   8   8   4   8   2
#     4  10  23  45  67 101 143 186 241 299 365 436
#     4  12  27  48  74 107 147 189 253 310 369 437
#     4  12  23  43  72 101 143 185 242 311 356 439
#     4  12  28  40  71 113 134 194 234 300 384 424
#     4  11  27  49  71 102 148 198 247 312 378 454
#     4   8  24  44  68 104 144 200 240 296 374 454
#
# _framework density 20.066157
#
# number of rings (size 3 to 8) (size 9 to 14) (size 15 to 20)
#    0.632    0.211    4.211    3.158    5.895    1.263 
#    0.000    0.000    0.000    1.263    0.000    0.000 
#    0.000    0.000    0.000    0.000    0.000    0.000 
#
# Total GULP energy -211783.580985 kJ/mol
# GULP energy per Si atom -5573.252131 kJ/mol
# Density = 2.002049 g / cm^3
# Si number density = 20.066157 Si / 1000 Ang^3
#
#
#
# Elastic Constant Matrix: (Units=GPa)
#
#
# Indices 1 2 3 4 5 6 
#
# 1 137.5186 64.9364 63.1942 0.0000 0.0000 0.0000
# 2 64.9364 116.2014 35.5146 0.0000 0.0000 0.0000
# 3 63.1942 35.5146 157.3488 0.0000 0.0000 0.0000
# 4 0.0000 0.0000 0.0000 18.0515 0.0000 0.0000
# 5 0.0000 0.0000 0.0000 0.0000 39.4734 0.0000
# 6 0.0000 0.0000 0.0000 0.0000 0.0000 41.9659
#
#
#
# Elastic Compliance Matrix: (Units=1/GPa)
#
#
# Indices 1 2 3 4 5 6 
#
# 1 0.011312 -0.005298 -0.003347 0.000000 0.000000 0.000000
# 2 -0.005298 0.011725 -0.000519 0.000000 0.000000 0.000000
# 3 -0.003347 -0.000519 0.007817 0.000000 0.000000 0.000000
# 4 0.000000 0.000000 0.000000 0.055397 0.000000 0.000000
# 5 0.000000 0.000000 0.000000 0.000000 0.025333 0.000000
# 6 0.000000 0.000000 0.000000 0.000000 0.000000 0.023829
#
#
# Mechanical properties :
#
#
# Convention : Reuss Voigt Hill
#
# Bulk Modulus (GPa) = 79.83735 82.03992 80.93864
# Shear Modulus (GPa) = 31.66240 36.39306 34.02773
#
# Velocity S-wave (km/s) = 3.97659 4.26332 4.12245
# Velocity P-wave (km/s) = 7.80755 8.07515 7.94247
#
# Compressibility (1/GPa) = 0.01252547
#
# Stress axis : x y z
#
# Youngs Moduli (GPa) = 88.40378 85.28737 127.93259
#
# Poissons Ratio (x) = 0.45188 0.42821
# Poissons Ratio (y) = 0.46839 0.06634
# Poissons Ratio (z) = 0.29590 0.04422
#
# Static dielectric constant tensor:
#      x y z
#    x 1.746010 0.000000 0.000000 
#    y 0.000000 1.775320 0.000000 
#    z 0.000000 0.000000 1.661010 
# 
# From -- ./inp_files/29100.got.cif
#   From: 2010.05.17/outbox.cif.g08.bks.cpg/sg50_15_cif.got.tgz:29100.got - 2010.06.03 11:33:33.
