data_PCOD9397137
_publ_section_title
;
Structure prediction by ZEFSAII (Michael W. Deem and Ramdas Pophale) SiO2 
 PCOD9397137
Probable space group: P B A N
;
_chemical_formula_sum "Si O2"
_cell_formula_units_Z 40
_cell_length_a 9.122184
_cell_length_b 19.017075
_cell_length_c 10.778505
_cell_angle_alpha 90.000000
_cell_angle_beta 90.000000
_cell_angle_gamma 90.000000
_cell_volume 1869.825485
_symmetry_space_group_name_H-M "P B A N"
_symmetry_group_IT_number 50
_space_group.IT_coordinate_system_code '2'
_symmetry_cell_setting 'orthorhombic'
loop_
_space_group_symop_operation_xyz
x,y,z
1/2-x,1/2-y,z
x,1/2-y,-z
1/2-x,y,-z
-x,-y,-z
1/2+x,1/2+y,-z
-x,1/2+y,z
1/2+x,-y,z
loop_
_atom_site_type_symbol
_atom_site_label
_atom_site_fract_x
_atom_site_fract_y
_atom_site_fract_z
Si Si1 0.250000 0.492049 0.000000
Si Si2 0.588713 0.287210 0.379481
Si Si3 0.002543 0.455014 0.180923
Si Si4 0.105169 0.954425 0.585385
Si Si5 0.750000 0.750000 0.000000
Si Si6 0.998770 0.803540 0.168862
Si Si7 0.250000 0.750000 0.000000
O O1 0.349609 0.529655 0.108095
O O2 0.125248 0.451127 0.074217
O O3 0.750000 0.250000 0.366183
O O4 0.522180 0.250000 0.500000
O O5 0.591225 0.370476 0.396274
O O6 0.502272 0.262967 0.259022
O O7 0.992333 0.377421 0.239967
O O8 0.066125 0.510937 0.279787
O O9 0.250000 0.961847 0.500000
O O10 0.000000 0.000000 0.500000
O O11 0.643373 0.796065 0.915300
O O12 0.142672 0.796978 0.083054
#
# Coordination Sequence:
#
# PCOD9397137 Si02
#       7
#     4   8   8   8   2   8   2
#     4  10  24  42  62 100 134 184 220 286 340 418
#     4  11  23  44  73  96 130 175 241 281 334 404
#     4  11  24  41  69  95 141 174 235 278 354 402
#     4  12  26  44  69 104 138 181 229 292 349 416
#     4  10  26  42  62 100 150 170 222 272 366 402
#     4  11  23  42  68  99 134 184 225 288 339 414
#     4  10  22  38  70 100 130 182 256 270 334 410
#
# _framework density 21.392371000000001
#
# number of rings (size 3 to 8) (size 9 to 14) (size 15 to 20)
#    0.000    1.000    3.000    3.600    2.800    9.600 
#    0.000    0.500    0.000    0.000    0.000    0.000 
#    0.000    0.000    0.000    0.000    0.000    0.000 
#
# Total GULP energy -222885.214517 kJ/mol
# GULP energy per Si atom -5572.130363 kJ/mol
# Density = 2.134368 g / cm^3
# Si number density = 21.392371 Si / 1000 Ang^3
#
#
#
# Elastic Constant Matrix: (Units=GPa)
#
#
# Indices 1 2 3 4 5 6 
#
# 1 129.2632 66.2266 50.9283 0.0000 0.0000 0.0000
# 2 66.2266 193.8009 57.1931 0.0000 0.0000 0.0000
# 3 50.9283 57.1931 115.1314 0.0000 0.0000 0.0000
# 4 0.0000 0.0000 0.0000 34.3566 0.0000 0.0000
# 5 0.0000 0.0000 0.0000 0.0000 12.7764 0.0000
# 6 0.0000 0.0000 0.0000 0.0000 0.0000 16.6489
#
#
#
# Elastic Compliance Matrix: (Units=1/GPa)
#
#
# Indices 1 2 3 4 5 6 
#
# 1 0.010351 -0.002562 -0.003306 0.000000 0.000000 0.000000
# 2 -0.002562 0.006680 -0.002185 0.000000 0.000000 0.000000
# 3 -0.003306 -0.002185 0.011234 0.000000 0.000000 0.000000
# 4 0.000000 0.000000 0.000000 0.029106 0.000000 0.000000
# 5 0.000000 0.000000 0.000000 0.000000 0.078269 0.000000
# 6 0.000000 0.000000 0.000000 0.000000 0.000000 0.060064
#
#
# Mechanical properties :
#
#
# Convention : Reuss Voigt Hill
#
# Bulk Modulus (GPa) = 82.24527 87.43238 84.83883
# Shear Modulus (GPa) = 23.16268 30.34622 26.75445
#
# Velocity S-wave (km/s) = 3.29409 3.77045 3.54030
# Velocity P-wave (km/s) = 7.27995 7.74046 7.51373
#
# Compressibility (1/GPa) = 0.01215875
#
# Stress axis : x y z
#
# Youngs Moduli (GPa) = 96.60722 149.69594 89.01603
#
# Poissons Ratio (x) = 0.38345 0.29432
# Poissons Ratio (y) = 0.24746 0.19454
# Poissons Ratio (z) = 0.31942 0.32715
#
# Static dielectric constant tensor:
#      x y z
#    x 1.770220 0.000000 0.000000 
#    y 0.000000 1.775850 0.000000 
#    z 0.000000 0.000000 1.827340 
# 
# From -- ./inp_files/18820.got.cif
#   From: 2010.05.17/outbox.cif.g08.bks.cpg/sg50_10_cif.got.tgz:18820.got - 2010.06.03 11:33:33.
