data_PCOD9397094
_publ_section_title
;
Structure prediction by ZEFSAII (Michael W. Deem and Ramdas Pophale) SiO2 
 PCOD9397094
Probable space group: P B A N
;
_chemical_formula_sum "Si O2"
_cell_formula_units_Z 52
_cell_length_a 10.811362
_cell_length_b 8.484240
_cell_length_c 25.789173
_cell_angle_alpha 90.000000
_cell_angle_beta 90.000000
_cell_angle_gamma 90.000000
_cell_volume 2365.542581
_symmetry_space_group_name_H-M "P B A N"
_symmetry_group_IT_number 50
_space_group.IT_coordinate_system_code '2'
_symmetry_cell_setting 'orthorhombic'
loop_
_space_group_symop_operation_xyz
x,y,z
1/2-x,1/2-y,z
x,1/2-y,-z
1/2-x,y,-z
-x,-y,-z
1/2+x,1/2+y,-z
-x,1/2+y,z
1/2+x,-y,z
loop_
_atom_site_type_symbol
_atom_site_label
_atom_site_fract_x
_atom_site_fract_y
_atom_site_fract_z
Si Si1 0.982394 0.330742 0.692904
Si Si2 0.117002 0.312671 0.058357
Si Si3 0.750000 0.750000 0.264417
Si Si4 0.938599 0.403192 0.380988
Si Si5 0.875530 0.688516 0.440945
Si Si6 0.374225 0.649113 0.903493
Si Si7 0.677338 0.081464 0.786323
O O1 0.123621 0.270496 0.701838
O O2 0.982670 0.470043 0.651083
O O3 0.891423 0.198640 0.667960
O O4 0.936019 0.393989 0.747290
O O5 0.250000 0.250000 0.078657
O O6 0.119594 0.501082 0.058352
O O7 0.998402 0.251277 0.090131
O O8 0.104225 0.250000 0.000000
O O9 0.738368 0.585389 0.231630
O O10 0.872661 0.505289 0.425531
O O11 0.014644 0.277479 0.413258
O O12 0.750000 0.750000 0.417016
O O13 0.879215 0.750000 0.500000
O O14 0.250000 0.750000 0.912576
O O15 0.363925 0.575859 0.845913
O O16 0.750000 0.250000 0.782297
#
# Coordination Sequence:
#
# PCOD9397094 Si02
#       7
#     8   8   4   8   8   8   8
#     4  11  23  42  64 100 131 180 226 282 348 412
#     4  11  25  46  73 107 145 189 244 311 373 438
#     4  12  26  44  72  96 152 184 236 292 348 418
#     4  10  22  36  65  93 125 168 222 280 334 415
#     4  10  22  41  63  90 126 170 221 281 355 413
#     4  11  26  46  74 108 147 193 247 299 375 449
#     4  11  27  45  70 105 143 186 237 289 350 424
#
# _framework density 21.982271999999998
#
# number of rings (size 3 to 8) (size 9 to 14) (size 15 to 20)
#    0.000    1.231    1.538    2.769    7.538    4.000 
#    0.000    2.308    0.000    8.308    0.000    0.000 
#    0.000    0.000    0.000    0.000    0.000    0.000 
#
# Total GULP energy -289797.968095 kJ/mol
# GULP energy per Si atom -5573.037848 kJ/mol
# Density = 2.193224 g / cm^3
# Si number density = 21.982272 Si / 1000 Ang^3
#
#
#
# Elastic Constant Matrix: (Units=GPa)
#
#
# Indices 1 2 3 4 5 6 
#
# 1 110.5236 38.5554 23.4553 0.0000 0.0000 0.0000
# 2 38.5554 131.8171 35.0072 0.0000 0.0000 0.0000
# 3 23.4553 35.0072 106.2587 0.0000 0.0000 0.0000
# 4 0.0000 0.0000 0.0000 28.5830 0.0000 0.0000
# 5 0.0000 0.0000 0.0000 0.0000 5.9054 0.0000
# 6 0.0000 0.0000 0.0000 0.0000 0.0000 19.9716
#
#
#
# Elastic Compliance Matrix: (Units=1/GPa)
#
#
# Indices 1 2 3 4 5 6 
#
# 1 0.010262 -0.002630 -0.001399 0.000000 0.000000 0.000000
# 2 -0.002630 0.008988 -0.002380 0.000000 0.000000 0.000000
# 3 -0.001399 -0.002380 0.010504 0.000000 0.000000 0.000000
# 4 0.000000 0.000000 0.000000 0.034986 0.000000 0.000000
# 5 0.000000 0.000000 0.000000 0.000000 0.169338 0.000000
# 6 0.000000 0.000000 0.000000 0.000000 0.000000 0.050071
#
#
# Mechanical properties :
#
#
# Convention : Reuss Voigt Hill
#
# Bulk Modulus (GPa) = 59.04847 60.29281 59.67064
# Shear Modulus (GPa) = 16.52279 27.66411 22.09345
#
# Velocity S-wave (km/s) = 2.74458 3.55135 3.17370
# Velocity P-wave (km/s) = 6.07979 6.65609 6.37446
#
# Compressibility (1/GPa) = 0.01693524
#
# Stress axis : x y z
#
# Youngs Moduli (GPa) = 97.44514 111.26259 95.20185
#
# Poissons Ratio (x) = 0.29264 0.13316
# Poissons Ratio (y) = 0.25629 0.22662
# Poissons Ratio (z) = 0.13630 0.26486
#
# Static dielectric constant tensor:
#      x y z
#    x 1.787800 0.000000 0.000000 
#    y 0.000000 1.848050 0.000000 
#    z 0.000000 0.000000 1.854700 
# 
# From -- ./inp_files/32172.got.cif
#   From: 2010.05.17/outbox.cif.g08.bks.cpg/sg50_17_cif.got.tgz:32172.got - 2010.06.03 11:33:33.
