data_PCOD9397074
_publ_section_title
;
Structure prediction by ZEFSAII (Michael W. Deem and Ramdas Pophale) SiO2 
 PCOD9397074
Probable space group: P B A N
;
_chemical_formula_sum "Si O2"
_cell_formula_units_Z 40
_cell_length_a 22.481498
_cell_length_b 9.266771
_cell_length_c 9.098718
_cell_angle_alpha 90.000000
_cell_angle_beta 90.000000
_cell_angle_gamma 90.000000
_cell_volume 1895.544052
_symmetry_space_group_name_H-M "P B A N"
_symmetry_group_IT_number 50
_space_group.IT_coordinate_system_code '2'
_symmetry_cell_setting 'orthorhombic'
loop_
_space_group_symop_operation_xyz
x,y,z
1/2-x,1/2-y,z
x,1/2-y,-z
1/2-x,y,-z
-x,-y,-z
1/2+x,1/2+y,-z
-x,1/2+y,z
1/2+x,-y,z
loop_
_atom_site_type_symbol
_atom_site_label
_atom_site_fract_x
_atom_site_fract_y
_atom_site_fract_z
Si Si1 0.750000 0.750000 0.500000
Si Si2 0.664346 0.346212 0.751809
Si Si3 0.250000 0.750000 0.000000
Si Si4 0.335654 0.153788 0.751809
Si Si5 0.250000 0.750000 0.500000
Si Si6 0.558725 0.327625 0.340806
Si Si7 0.750000 0.750000 0.000000
Si Si8 0.058725 0.327625 0.340805
O O1 0.706675 0.835778 0.390880
O O2 0.707049 0.336925 0.891511
O O3 0.631956 0.500000 0.748108
O O4 0.706675 0.335778 0.609120
O O5 0.617550 0.216441 0.747747
O O6 0.292951 0.163075 0.891511
O O7 0.382450 0.283558 0.747747
O O8 0.566556 0.250000 0.500000
O O9 0.500000 0.250000 0.277306
O O10 0.552130 0.500000 0.354845
O O11 0.066556 0.250000 0.500000
#
# Coordination Sequence:
#
# PCOD9397074 Si02
#       8
#     2   8   2   8   2   8   2   8
#     4  10  22  34  62  92 126 158 214 256 314 370
#     4  11  22  40  63  92 128 167 210 260 312 372
#     4  10  26  42  62  92 130 170 216 254 314 370
#     4  11  22  40  63  92 128 167 210 260 312 372
#     4  10  22  34  62  92 126 158 214 256 314 370
#     4  11  22  38  63  94 127 162 206 260 316 373
#     4  10  26  42  62  92 130 170 216 254 314 370
#     4  11  22  38  63  94 127 162 206 260 316 373
#
# _framework density 21.102121
#
# number of rings (size 3 to 8) (size 9 to 14) (size 15 to 20)
#    0.000    1.200    2.000    6.000    0.000    8.000 
#    0.000    1.000    0.000    4.800    0.000    0.000 
#    0.000    0.000    0.000    0.000    0.000    0.000 
#
# Total GULP energy -223347.304091 kJ/mol
# GULP energy per Si atom -5583.682602 kJ/mol
# Density = 2.105409 g / cm^3
# Si number density = 21.102121 Si / 1000 Ang^3
#
#
#
# Elastic Constant Matrix: (Units=GPa)
#
#
# Indices 1 2 3 4 5 6 
#
# 1 121.6972 55.8832 33.0173 0.0000 0.0000 0.0000
# 2 55.8832 198.7550 28.0534 0.0000 0.0000 0.0000
# 3 33.0173 28.0534 96.0322 0.0000 0.0000 0.0000
# 4 0.0000 0.0000 0.0000 -8.9656 0.0000 0.0000
# 5 0.0000 0.0000 0.0000 0.0000 25.9002 0.0000
# 6 0.0000 0.0000 0.0000 0.0000 0.0000 27.0587
#
#
#
# Elastic Compliance Matrix: (Units=1/GPa)
#
#
# Indices 1 2 3 4 5 6 
#
# 1 0.010088 -0.002448 -0.002753 0.000000 0.000000 0.000000
# 2 -0.002448 0.005842 -0.000865 0.000000 0.000000 0.000000
# 3 -0.002753 -0.000865 0.011612 0.000000 0.000000 0.000000
# 4 0.000000 0.000000 0.000000 -0.111538 0.000000 0.000000
# 5 0.000000 0.000000 0.000000 0.000000 0.038610 0.000000
# 6 0.000000 0.000000 0.000000 0.000000 0.000000 0.036957
#
#
# Mechanical properties :
#
#
# Convention : Reuss Voigt Hill
#
# Bulk Modulus (GPa) = 64.89258 72.26580 68.57919
# Shear Modulus (GPa) = 565.63088 28.76738 297.19913
#
# Velocity S-wave (km/s) = 16.38983 3.69622 11.88041
# Velocity P-wave (km/s) = 19.72276 7.24818 14.85805
#
# Compressibility (1/GPa) = 0.01541008
#
# Stress axis : x y z
#
# Youngs Moduli (GPa) = 99.12612 171.18487 86.11425
#
# Poissons Ratio (x) = 0.41903 0.23711
# Poissons Ratio (y) = 0.24264 0.07448
# Poissons Ratio (z) = 0.27293 0.14806
#
# Static dielectric constant tensor:
#      x y z
#    x 1.785430 0.000000 0.000000 
#    y 0.000000 1.774520 0.000000 
#    z 0.000000 0.000000 1.749850 
# 
# From -- ./inp_files/9850.got.cif
#   From: 2010.05.17/outbox.cif.g08.bks.cpg/sg50_5_cif.got.tgz:9850.got - 2010.06.03 11:33:33.
