data_PCOD9397835
_publ_section_title
;
Structure prediction by ZEFSAII (Michael W. Deem and Ramdas Pophale) SiO2 
 PCOD9397835
Probable space group: P B A N
;
_chemical_formula_sum "Si O2"
_cell_formula_units_Z 58
_cell_length_a 23.596102
_cell_length_b 17.927596
_cell_length_c 6.793880
_cell_angle_alpha 90.000000
_cell_angle_beta 90.000000
_cell_angle_gamma 90.000000
_cell_volume 2873.956519
_symmetry_space_group_name_H-M "P B A N"
_symmetry_group_IT_number 50
_space_group.IT_coordinate_system_code '2'
_symmetry_cell_setting 'orthorhombic'
loop_
_space_group_symop_operation_xyz
x,y,z
1/2-x,1/2-y,z
x,1/2-y,-z
1/2-x,y,-z
-x,-y,-z
1/2+x,1/2+y,-z
-x,1/2+y,z
1/2+x,-y,z
loop_
_atom_site_type_symbol
_atom_site_label
_atom_site_fract_x
_atom_site_fract_y
_atom_site_fract_z
Si Si1 0.797329 0.024756 0.363072
Si Si2 0.398249 0.538505 0.929878
Si Si3 0.486802 0.662586 0.041377
Si Si4 0.123334 0.443503 0.670130
Si Si5 0.284544 0.370394 0.804034
Si Si6 0.250000 0.250000 0.500000
Si Si7 0.382740 0.163841 0.960889
Si Si8 0.968839 0.937238 0.370789
O O1 0.750000 0.066514 0.500000
O O2 0.838634 0.054363 0.186790
O O3 0.840512 0.992455 0.523384
O O4 0.766485 0.952030 0.269907
O O5 0.437925 0.485053 0.798379
O O6 0.435954 0.612746 0.957364
O O7 0.390972 0.497022 0.142174
O O8 0.496656 0.628958 0.263108
O O9 0.475275 0.750000 0.000000
O O10 0.549987 0.650639 0.949791
O O11 0.148129 0.369466 0.770325
O O12 0.074712 0.408953 0.532994
O O13 0.282228 0.306657 0.643067
O O14 0.250000 0.349703 0.000000
O O15 0.350483 0.377735 0.863676
O O16 0.373634 0.250000 0.000000
O O17 0.000000 0.000000 0.500000
#
# Coordination Sequence:
#
# PCOD9397835 Si02
#       8
#     8   8   8   8   8   2   8   8
#     4  11  24  38  63  96 118 158 228 273 332 400
#     4  11  22  41  66  88 133 171 206 279 331 387
#     4  11  23  42  63  96 134 173 219 271 335 400
#     4  11  21  38  62  90 123 168 217 265 325 386
#     4  12  24  41  57  87 126 172 222 275 327 388
#     4  12  26  36  60  74 124 180 214 270 344 390
#     4  11  22  37  57  85 130 172 213 267 319 378
#     4  11  20  36  66  92 123 171 219 254 315 397
#
# _framework density 20.181236999999999
#
# number of rings (size 3 to 8) (size 9 to 14) (size 15 to 20)
#    0.000    0.828    4.828    3.931    1.931    0.000 
#    0.000    5.517    0.000    0.000    0.000    2.897 
#    0.000    0.000    0.000    0.000    0.000    0.000 
#
# Total GULP energy -323131.094809 kJ/mol
# GULP energy per Si atom -5571.225773 kJ/mol
# Density = 2.013530 g / cm^3
# Si number density = 20.181237 Si / 1000 Ang^3
#
#
#
# Elastic Constant Matrix: (Units=GPa)
#
#
# Indices 1 2 3 4 5 6 
#
# 1 77.4202 40.4617 46.6811 0.0000 0.0000 0.0000
# 2 40.4617 92.0825 48.1476 0.0000 0.0000 0.0000
# 3 46.6811 48.1476 138.4089 0.0000 0.0000 0.0000
# 4 0.0000 0.0000 0.0000 27.4721 0.0000 0.0000
# 5 0.0000 0.0000 0.0000 0.0000 45.9295 0.0000
# 6 0.0000 0.0000 0.0000 0.0000 0.0000 23.2105
#
#
#
# Elastic Compliance Matrix: (Units=1/GPa)
#
#
# Indices 1 2 3 4 5 6 
#
# 1 0.018557 -0.005967 -0.004183 0.000000 0.000000 0.000000
# 2 -0.005967 0.015193 -0.003273 0.000000 0.000000 0.000000
# 3 -0.004183 -0.003273 0.009774 0.000000 0.000000 0.000000
# 4 0.000000 0.000000 0.000000 0.036401 0.000000 0.000000
# 5 0.000000 0.000000 0.000000 0.000000 0.021773 0.000000
# 6 0.000000 0.000000 0.000000 0.000000 0.000000 0.043084
#
#
# Mechanical properties :
#
#
# Convention : Reuss Voigt Hill
#
# Bulk Modulus (GPa) = 59.95540 64.27692 62.11616
# Shear Modulus (GPa) = 28.21888 30.83050 29.52469
#
# Velocity S-wave (km/s) = 3.74341 3.91280 3.82904
# Velocity P-wave (km/s) = 6.96111 7.23411 7.09892
#
# Compressibility (1/GPa) = 0.01667907
#
# Stress axis : x y z
#
# Youngs Moduli (GPa) = 53.88737 65.82021 102.30984
#
# Poissons Ratio (x) = 0.39274 0.42797
# Poissons Ratio (y) = 0.32154 0.33482
# Poissons Ratio (z) = 0.22542 0.21540
#
# Static dielectric constant tensor:
#      x y z
#    x 1.899440 0.000000 0.000000 
#    y 0.000000 1.748740 0.000000 
#    z 0.000000 0.000000 1.796620 
# 
# From -- ./inp_files/6756.got.cif
#   From: 2010.05.17/outbox.cif.g08.bks.cpg/sg50_4_cif.got.tgz:6756.got - 2010.06.03 11:33:33.
