data_PCOD9397997
_publ_section_title
;
Structure prediction by ZEFSAII (Michael W. Deem and Ramdas Pophale) SiO2 
 PCOD9397997
Probable space group: P B A N
;
_chemical_formula_sum "Si O2"
_cell_formula_units_Z 32
_cell_length_a 8.021480
_cell_length_b 9.940589
_cell_length_c 15.746860
_cell_angle_alpha 90.000000
_cell_angle_beta 90.000000
_cell_angle_gamma 90.000000
_cell_volume 1255.626837
_symmetry_space_group_name_H-M "P B A N"
_symmetry_group_IT_number 50
_space_group.IT_coordinate_system_code '2'
_symmetry_cell_setting 'orthorhombic'
loop_
_space_group_symop_operation_xyz
x,y,z
1/2-x,1/2-y,z
x,1/2-y,-z
1/2-x,y,-z
-x,-y,-z
1/2+x,1/2+y,-z
-x,1/2+y,z
1/2+x,-y,z
loop_
_atom_site_type_symbol
_atom_site_label
_atom_site_fract_x
_atom_site_fract_y
_atom_site_fract_z
Si Si1 0.062232 0.332363 0.150038
Si Si2 0.019136 0.288285 0.341130
Si Si3 0.818467 0.968350 0.595324
Si Si4 0.428325 0.424211 0.083249
O O1 0.963594 0.469470 0.156526
O O2 0.047363 0.262203 0.241471
O O3 0.982256 0.218291 0.091157
O O4 0.237223 0.379757 0.104985
O O5 0.038302 0.149408 0.394427
O O6 0.171392 0.390183 0.358282
O O7 0.867266 0.387094 0.366305
O O8 0.750000 0.982013 0.500000
O O9 0.500000 0.500000 0.000000
#
# Coordination Sequence:
#
# PCOD9397997 Si02
#       4
#     8   8   8   8
#     4  11  23  42  67  99 135 182 229 282 342 408
#     4  11  22  43  67  97 137 180 227 282 341 414
#     4  11  24  42  66  98 135 178 226 282 345 412
#     4  11  23  41  66  98 137 178 227 284 343 408
#
# _framework density 25.485277
#
# number of rings (size 3 to 8) (size 9 to 14) (size 15 to 20)
#    0.000    1.000    0.000    9.750    0.000    4.000 
#    0.000   10.000    0.000    0.000    0.000    0.000 
#    0.000    0.000    0.000    0.000    0.000    0.000 
#
# Total GULP energy -178307.585540 kJ/mol
# GULP energy per Si atom -5572.112048 kJ/mol
# Density = 2.542727 g / cm^3
# Si number density = 25.485277 Si / 1000 Ang^3
#
#
#
# Elastic Constant Matrix: (Units=GPa)
#
#
# Indices 1 2 3 4 5 6 
#
# 1 47.5495 47.9806 26.3228 0.0000 0.0000 0.0000
# 2 47.9806 184.3345 49.1971 0.0000 0.0000 0.0000
# 3 26.3228 49.1971 174.3936 0.0000 0.0000 0.0000
# 4 0.0000 0.0000 0.0000 10.7302 0.0000 0.0000
# 5 0.0000 0.0000 0.0000 0.0000 30.6855 0.0000
# 6 0.0000 0.0000 0.0000 0.0000 0.0000 42.9166
#
#
#
# Elastic Compliance Matrix: (Units=1/GPa)
#
#
# Indices 1 2 3 4 5 6 
#
# 1 0.029475 -0.007013 -0.002471 0.000000 0.000000 0.000000
# 2 -0.007013 0.007535 -0.001067 0.000000 0.000000 0.000000
# 3 -0.002471 -0.001067 0.006408 0.000000 0.000000 0.000000
# 4 0.000000 0.000000 0.000000 0.093195 0.000000 0.000000
# 5 0.000000 0.000000 0.000000 0.000000 0.032589 0.000000
# 6 0.000000 0.000000 0.000000 0.000000 0.000000 0.023301
#
#
# Mechanical properties :
#
#
# Convention : Reuss Voigt Hill
#
# Bulk Modulus (GPa) = 44.80889 72.58649 58.69769
# Shear Modulus (GPa) = 22.62016 35.71828 29.16922
#
# Velocity S-wave (km/s) = 2.98246 3.74776 3.38679
# Velocity P-wave (km/s) = 5.42959 6.87540 6.19482
#
# Compressibility (1/GPa) = 0.02231700
#
# Stress axis : x y z
#
# Youngs Moduli (GPa) = 33.92763 132.71310 156.05194
#
# Poissons Ratio (x) = 0.93066 0.38554
# Poissons Ratio (y) = 0.23792 0.16654
# Poissons Ratio (z) = 0.08382 0.14163
#
# Static dielectric constant tensor:
#      x y z
#    x 2.387390 0.000000 0.000000 
#    y 0.000000 2.066540 0.000000 
#    z 0.000000 0.000000 2.290790 
# 
# From -- ./inp_files/25653.got.cif
#   From: 2010.05.17/outbox.cif.g08.bks.cpg/sg50_13_cif.got.tgz:25653.got - 2010.06.03 11:33:33.
