data_PCOD9397114
_publ_section_title
;
Structure prediction by ZEFSAII (Michael W. Deem and Ramdas Pophale) SiO2 
 PCOD9397114
Probable space group: P B A N
;
_chemical_formula_sum "Si O2"
_cell_formula_units_Z 30
_cell_length_a 4.921299
_cell_length_b 11.974073
_cell_length_c 20.784544
_cell_angle_alpha 90.000000
_cell_angle_beta 90.000000
_cell_angle_gamma 90.000000
_cell_volume 1224.791473
_symmetry_space_group_name_H-M "P B A N"
_symmetry_group_IT_number 50
_space_group.IT_coordinate_system_code '2'
_symmetry_cell_setting 'orthorhombic'
loop_
_space_group_symop_operation_xyz
x,y,z
1/2-x,1/2-y,z
x,1/2-y,-z
1/2-x,y,-z
-x,-y,-z
1/2+x,1/2+y,-z
-x,1/2+y,z
1/2+x,-y,z
loop_
_atom_site_type_symbol
_atom_site_label
_atom_site_fract_x
_atom_site_fract_y
_atom_site_fract_z
Si Si1 0.750000 0.915692 0.000000
Si Si2 0.331291 0.423872 0.269843
Si Si3 0.564775 0.919312 0.410264
Si Si4 0.072717 0.421540 0.868325
Si Si5 0.750000 0.250000 0.500000
O O1 0.678277 0.859195 0.068033
O O2 0.500000 0.000000 0.000000
O O3 0.019680 0.463686 0.269915
O O4 0.422182 0.371566 0.337189
O O5 0.388294 0.367058 0.201536
O O6 0.447192 0.825917 0.456522
O O7 0.859300 0.975315 0.418770
O O8 0.265492 0.532920 0.869496
#
# Coordination Sequence:
#
# PCOD9397114 Si02
#       5
#     4   8   8   8   2
#     4   8  12  16  24  44  72 102 144 186 220 266
#     4   8  14  26  42  59  84 119 158 197 243 297
#     4  10  22  38  55  78 105 134 176 225 276 338
#     4   8  12  18  30  48  73 108 148 186 227 274
#     4  12  24  38  60  80 104 138 176 232 292 336
#
# _framework density 24.493964999999999
#
# number of rings (size 3 to 8) (size 9 to 14) (size 15 to 20)
#    0.000    3.200    0.000    0.800    0.000    2.133 
#    0.000    0.000    0.000    0.000    0.000    0.000 
#    0.000    0.000    0.000    0.000    0.000 1605.333 
#
# Total GULP energy -167152.208204 kJ/mol
# GULP energy per Si atom -5571.740273 kJ/mol
# Density = 2.443822 g / cm^3
# Si number density = 24.493965 Si / 1000 Ang^3
#
#
#
# Elastic Constant Matrix: (Units=GPa)
#
#
# Indices 1 2 3 4 5 6 
#
# 1 125.1599 7.2843 10.7047 0.0000 0.0000 0.0000
# 2 7.2843 60.5220 46.8650 0.0000 0.0000 0.0000
# 3 10.7047 46.8650 250.6648 0.0000 0.0000 0.0000
# 4 0.0000 0.0000 0.0000 -46.0274 0.0000 0.0000
# 5 0.0000 0.0000 0.0000 0.0000 44.6160 0.0000
# 6 0.0000 0.0000 0.0000 0.0000 0.0000 -0.2599
#
#
#
# Elastic Compliance Matrix: (Units=1/GPa)
#
#
# Indices 1 2 3 4 5 6 
#
# 1 0.008054 -0.000822 -0.000190 0.000000 0.000000 0.000000
# 2 -0.000822 0.019404 -0.003593 0.000000 0.000000 0.000000
# 3 -0.000190 -0.003593 0.004669 0.000000 0.000000 0.000000
# 4 0.000000 0.000000 0.000000 -0.021726 0.000000 0.000000
# 5 0.000000 0.000000 0.000000 0.000000 0.022413 0.000000
# 6 0.000000 0.000000 0.000000 0.000000 0.000000 -3.846894
#
#
# Mechanical properties :
#
#
# Convention : Reuss Voigt Hill
#
# Bulk Modulus (GPa) = 43.63572 62.89496 53.26534
# Shear Modulus (GPa) = -1.31675 24.43191 11.55758
#
# Velocity S-wave (km/s) = -0.73399 3.16170 2.17458
# Velocity P-wave (km/s) = 4.13947 6.24995 5.30081
#
# Compressibility (1/GPa) = 0.02291701
#
# Stress axis : x y z
#
# Youngs Moduli (GPa) = 124.16356 51.53619 214.16866
#
# Poissons Ratio (x) = 0.04236 0.04075
# Poissons Ratio (y) = 0.10207 0.76944
# Poissons Ratio (z) = 0.02362 0.18515
#
# Static dielectric constant tensor:
#      x y z
#    x 1.859620 0.000000 0.000000 
#    y 0.000000 1.930690 0.000000 
#    z 0.000000 0.000000 2.156090 
# 
# From -- ./inp_files/31327.got.cif
#   From: 2010.05.17/outbox.cif.g08.bks.cpg/sg50_16_cif.got.tgz:31327.got - 2010.06.03 11:33:33.
