data_PCOD9397740
_publ_section_title
;
Structure prediction by ZEFSAII (Michael W. Deem and Ramdas Pophale) SiO2 
 PCOD9397740
Probable space group: P B A N
;
_chemical_formula_sum "Si O2"
_cell_formula_units_Z 24
_cell_length_a 4.589590
_cell_length_b 21.845339
_cell_length_c 8.631184
_cell_angle_alpha 90.000000
_cell_angle_beta 90.000000
_cell_angle_gamma 90.000000
_cell_volume 865.372429
_symmetry_space_group_name_H-M "P B A N"
_symmetry_group_IT_number 50
_space_group.IT_coordinate_system_code '2'
_symmetry_cell_setting 'orthorhombic'
loop_
_space_group_symop_operation_xyz
x,y,z
1/2-x,1/2-y,z
x,1/2-y,-z
1/2-x,y,-z
-x,-y,-z
1/2+x,1/2+y,-z
-x,1/2+y,z
1/2+x,-y,z
loop_
_atom_site_type_symbol
_atom_site_label
_atom_site_fract_x
_atom_site_fract_y
_atom_site_fract_z
Si Si1 0.250000 0.750000 0.233843
Si Si2 0.750000 0.329145 0.500000
Si Si3 0.750000 0.348669 0.000000
Si Si4 0.954970 0.043413 0.807791
Si Si5 0.750000 0.910799 0.500000
O O1 0.411068 0.708719 0.363964
O O2 0.108060 0.699399 0.122040
O O3 0.501895 0.370140 0.422784
O O4 0.537435 0.393264 0.902241
O O5 0.069916 0.055115 0.633299
O O6 0.131937 0.981164 0.840363
#
# Coordination Sequence:
#
# PCOD9397740 Si02
#       5
#     4   4   4   8   4
#     4  10  24  48  80 110 156 204 264 328 406 476
#     4  11  24  49  77 114 151 205 262 333 390 485
#     4  11  24  50  76 116 156 207 260 334 406 481
#     4  12  26  48  76 111 156 207 261 326 397 479
#     4  12  24  48  79 110 155 202 272 324 394 482
#
# _framework density 27.733723000000001
#
# number of rings (size 3 to 8) (size 9 to 14) (size 15 to 20)
#    0.000    0.667    3.333    4.000    0.000    2.667 
#    0.000    0.000    0.000    0.000    0.000    0.000 
#    0.000    0.000    0.000    0.000    0.000    0.000 
#
# Total GULP energy -133817.718713 kJ/mol
# GULP energy per Si atom -5575.738280 kJ/mol
# Density = 2.767060 g / cm^3
# Si number density = 27.733723 Si / 1000 Ang^3
#
#
#
# Elastic Constant Matrix: (Units=GPa)
#
#
# Indices 1 2 3 4 5 6 
#
# 1 57.6282 28.5988 2.7651 0.0000 0.0000 0.0000
# 2 28.5988 169.5330 97.4966 0.0000 0.0000 0.0000
# 3 2.7651 97.4966 184.1976 0.0000 0.0000 0.0000
# 4 0.0000 0.0000 0.0000 67.1043 0.0000 0.0000
# 5 0.0000 0.0000 0.0000 0.0000 38.6576 0.0000
# 6 0.0000 0.0000 0.0000 0.0000 0.0000 24.8115
#
#
#
# Elastic Compliance Matrix: (Units=1/GPa)
#
#
# Indices 1 2 3 4 5 6 
#
# 1 0.019477 -0.004482 0.002080 0.000000 0.000000 0.000000
# 2 -0.004482 0.009511 -0.004967 0.000000 0.000000 0.000000
# 3 0.002080 -0.004967 0.008027 0.000000 0.000000 0.000000
# 4 0.000000 0.000000 0.000000 0.014902 0.000000 0.000000
# 5 0.000000 0.000000 0.000000 0.000000 0.025868 0.000000
# 6 0.000000 0.000000 0.000000 0.000000 0.000000 0.040304
#
#
# Mechanical properties :
#
#
# Convention : Reuss Voigt Hill
#
# Bulk Modulus (GPa) = 44.88928 74.34220 59.61574
# Shear Modulus (GPa) = 35.65008 44.94792 40.29900
#
# Velocity S-wave (km/s) = 3.58920 4.03015 3.81605
# Velocity P-wave (km/s) = 5.77905 6.96564 6.39990
#
# Compressibility (1/GPa) = 0.02227704
#
# Stress axis : x y z
#
# Youngs Moduli (GPa) = 51.34288 105.14136 124.58340
#
# Poissons Ratio (x) = 0.47121 -0.25911
# Poissons Ratio (y) = 0.23010 0.61880
# Poissons Ratio (z) = -0.10678 0.52223
#
# Static dielectric constant tensor:
#      x y z
#    x 2.157220 0.000000 0.000000 
#    y 0.000000 2.305010 0.000000 
#    z 0.000000 0.000000 2.290750 
# 
# From -- ./inp_files/7686.got.cif
#   From: 2010.05.17/outbox.cif.g08.bks.cpg/sg50_4_cif.got.tgz:7686.got - 2010.06.03 11:33:33.
