data_PCOD9397758
_publ_section_title
;
Structure prediction by ZEFSAII (Michael W. Deem and Ramdas Pophale) SiO2 
 PCOD9397758
Probable space group: P B A N
;
_chemical_formula_sum "Si O2"
_cell_formula_units_Z 32
_cell_length_a 8.048192
_cell_length_b 14.469181
_cell_length_c 11.113837
_cell_angle_alpha 90.000000
_cell_angle_beta 90.000000
_cell_angle_gamma 90.000000
_cell_volume 1294.214618
_symmetry_space_group_name_H-M "P B A N"
_symmetry_group_IT_number 50
_space_group.IT_coordinate_system_code '2'
_symmetry_cell_setting 'orthorhombic'
loop_
_space_group_symop_operation_xyz
x,y,z
1/2-x,1/2-y,z
x,1/2-y,-z
1/2-x,y,-z
-x,-y,-z
1/2+x,1/2+y,-z
-x,1/2+y,z
1/2+x,-y,z
loop_
_atom_site_type_symbol
_atom_site_label
_atom_site_fract_x
_atom_site_fract_y
_atom_site_fract_z
Si Si1 0.739682 0.981000 0.861364
Si Si2 0.051824 0.893388 0.500353
Si Si3 0.564810 0.135577 0.230091
Si Si4 0.918053 0.811685 0.747963
O O1 0.568249 0.927473 0.838865
O O2 0.874502 0.903147 0.823412
O O3 0.770577 0.072966 0.781703
O O4 0.750000 0.007063 0.000000
O O5 0.250000 0.881973 0.500000
O O6 0.004076 0.859065 0.368284
O O7 0.969702 0.844219 0.614271
O O8 0.000000 0.000000 0.500000
O O9 0.553720 0.242353 0.193614
O O10 0.750000 0.750000 0.747688
#
# Coordination Sequence:
#
# PCOD9397758 Si02
#       4
#     8   8   8   8
#     4  11  24  46  71 100 139 189 240 293 349 422
#     4  12  25  44  74 106 148 186 233 298 367 433
#     4  11  24  43  69 101 139 185 233 291 357 416
#     4  10  25  43  73 104 144 186 241 291 362 427
#
# _framework density 24.725418999999999
#
# number of rings (size 3 to 8) (size 9 to 14) (size 15 to 20)
#    0.000    1.000    2.500    3.000    3.500    9.500 
#    0.000    0.000    0.000    0.000    0.000    0.000 
#    0.000    0.000    0.000    0.000    0.000    0.000 
#
# Total GULP energy -179141.034450 kJ/mol
# GULP energy per Si atom -5598.157327 kJ/mol
# Density = 2.466914 g / cm^3
# Si number density = 24.725419 Si / 1000 Ang^3
#
#
#
# Elastic Constant Matrix: (Units=GPa)
#
#
# Indices 1 2 3 4 5 6 
#
# 1 54.1638 18.1054 -0.0822 0.0000 0.0000 0.0000
# 2 18.1054 189.7773 30.5472 0.0000 0.0000 0.0000
# 3 -0.0822 30.5472 101.5467 0.0000 0.0000 0.0000
# 4 0.0000 0.0000 0.0000 -5.9246 0.0000 0.0000
# 5 0.0000 0.0000 0.0000 0.0000 29.9468 0.0000
# 6 0.0000 0.0000 0.0000 0.0000 0.0000 44.4229
#
#
#
# Elastic Compliance Matrix: (Units=1/GPa)
#
#
# Indices 1 2 3 4 5 6 
#
# 1 0.019105 -0.001918 0.000592 0.000000 0.000000 0.000000
# 2 -0.001918 0.005730 -0.001725 0.000000 0.000000 0.000000
# 3 0.000592 -0.001725 0.010367 0.000000 0.000000 0.000000
# 4 0.000000 0.000000 0.000000 -0.168787 0.000000 0.000000
# 5 0.000000 0.000000 0.000000 0.000000 0.033393 0.000000
# 6 0.000000 0.000000 0.000000 0.000000 0.000000 0.022511
#
#
# Mechanical properties :
#
#
# Convention : Reuss Voigt Hill
#
# Bulk Modulus (GPa) = 34.36416 49.18095 41.77256
# Shear Modulus (GPa) = -80.80089 33.48351 -23.65869
#
# Velocity S-wave (km/s) = -5.72278 3.68396 -3.09667
# Velocity P-wave (km/s) = 5.45330 6.16680 2.03604
#
# Compressibility (1/GPa) = 0.02910008
#
# Stress axis : x y z
#
# Youngs Moduli (GPa) = 52.34359 174.51944 96.45844
#
# Poissons Ratio (x) = 0.33473 -0.05715
# Poissons Ratio (y) = 0.10040 0.16642
# Poissons Ratio (z) = -0.03101 0.30109
#
# Static dielectric constant tensor:
#      x y z
#    x 2.080160 0.000000 0.000000 
#    y 0.000000 1.994250 0.000000 
#    z 0.000000 0.000000 1.895440 
# 
# From -- ./inp_files/18312.got.cif
#   From: 2010.05.17/outbox.cif.g08.bks.cpg/sg50_10_cif.got.tgz:18312.got - 2010.06.03 11:33:33.
