data_PCOD9397647
_publ_section_title
;
Structure prediction by ZEFSAII (Michael W. Deem and Ramdas Pophale) SiO2 
 PCOD9397647
Probable space group: P B A N
;
_chemical_formula_sum "Si O2"
_cell_formula_units_Z 32
_cell_length_a 12.845398
_cell_length_b 14.390680
_cell_length_c 7.805852
_cell_angle_alpha 90.000000
_cell_angle_beta 90.000000
_cell_angle_gamma 90.000000
_cell_volume 1442.943060
_symmetry_space_group_name_H-M "P B A N"
_symmetry_group_IT_number 50
_space_group.IT_coordinate_system_code '2'
_symmetry_cell_setting 'orthorhombic'
loop_
_space_group_symop_operation_xyz
x,y,z
1/2-x,1/2-y,z
x,1/2-y,-z
1/2-x,y,-z
-x,-y,-z
1/2+x,1/2+y,-z
-x,1/2+y,z
1/2+x,-y,z
loop_
_atom_site_type_symbol
_atom_site_label
_atom_site_fract_x
_atom_site_fract_y
_atom_site_fract_z
Si Si1 0.599094 0.171557 0.372904
Si Si2 0.722997 0.453434 0.200278
Si Si3 0.277645 0.350722 0.200482
Si Si4 0.487207 0.850966 0.284671
O O1 0.647224 0.250000 0.500000
O O2 0.685972 0.106049 0.293835
O O3 0.518638 0.128749 0.509774
O O4 0.536350 0.240880 0.248642
O O5 0.720514 0.558194 0.271682
O O6 0.610765 0.406639 0.214454
O O7 0.750000 0.456283 0.000000
O O8 0.250000 0.250000 0.277621
O O9 0.399841 0.372115 0.216340
O O10 0.250000 0.345478 0.000000
#
# Coordination Sequence:
#
# PCOD9397647 Si02
#       4
#     8   8   8   8
#     4   8  21  41  64  94 131 165 213 264 329 390
#     4  11  22  36  66  99 124 166 223 268 321 392
#     4  10  24  42  60  89 133 174 218 271 320 386
#     4   9  21  41  63  90 127 178 202 273 334 375
#
# _framework density 22.176895999999999
#
# number of rings (size 3 to 8) (size 9 to 14) (size 15 to 20)
#    1.500    0.750    0.000    1.500    3.500   13.000 
#    0.000    7.500    0.000    0.000    0.000    0.000 
#    0.000    0.000    0.000    0.000    0.000    0.000 
#
# Total GULP energy -178192.831025 kJ/mol
# GULP energy per Si atom -5568.525970 kJ/mol
# Density = 2.212642 g / cm^3
# Si number density = 22.176896 Si / 1000 Ang^3
#
#
#
# Elastic Constant Matrix: (Units=GPa)
#
#
# Indices 1 2 3 4 5 6 
#
# 1 138.6081 34.9509 39.7513 0.0000 0.0000 0.0000
# 2 34.9509 124.1952 35.4958 0.0000 0.0000 0.0000
# 3 39.7513 35.4958 56.7675 0.0000 0.0000 0.0000
# 4 0.0000 0.0000 0.0000 46.9465 0.0000 0.0000
# 5 0.0000 0.0000 0.0000 0.0000 26.4194 0.0000
# 6 0.0000 0.0000 0.0000 0.0000 0.0000 5.4274
#
#
#
# Elastic Compliance Matrix: (Units=1/GPa)
#
#
# Indices 1 2 3 4 5 6 
#
# 1 0.009110 -0.000902 -0.005815 0.000000 0.000000 0.000000
# 2 -0.000902 0.009893 -0.005555 0.000000 0.000000 0.000000
# 3 -0.005815 -0.005555 0.025161 0.000000 0.000000 0.000000
# 4 0.000000 0.000000 0.000000 0.021301 0.000000 0.000000
# 5 0.000000 0.000000 0.000000 0.000000 0.037851 0.000000
# 6 0.000000 0.000000 0.000000 0.000000 0.000000 0.184249
#
#
# Mechanical properties :
#
#
# Convention : Reuss Voigt Hill
#
# Bulk Modulus (GPa) = 50.96628 59.99630 55.48129
# Shear Modulus (GPa) = 15.69131 29.71685 22.70408
#
# Velocity S-wave (km/s) = 2.66287 3.66456 3.20311
# Velocity P-wave (km/s) = 5.69966 6.70951 6.22510
#
# Compressibility (1/GPa) = 0.01962082
#
# Stress axis : x y z
#
# Youngs Moduli (GPa) = 109.77321 101.08028 39.74391
#
# Poissons Ratio (x) = 0.09113 0.23112
# Poissons Ratio (y) = 0.09897 0.22076
# Poissons Ratio (z) = 0.63836 0.56147
#
# Static dielectric constant tensor:
#      x y z
#    x 1.837950 0.000000 0.000000 
#    y 0.000000 1.987790 0.000000 
#    z 0.000000 0.000000 1.735340 
# 
# From -- ./inp_files/10702.got.cif
#   From: 2010.05.17/outbox.cif.g08.bks.cpg/sg50_6_cif.got.tgz:10702.got - 2010.06.03 11:33:33.
