data_PCOD9397693
_publ_section_title
;
Structure prediction by ZEFSAII (Michael W. Deem and Ramdas Pophale) SiO2 
 PCOD9397693
Probable space group: P B A N
;
_chemical_formula_sum "Si O2"
_cell_formula_units_Z 28
_cell_length_a 10.279648
_cell_length_b 8.635977
_cell_length_c 14.012789
_cell_angle_alpha 90.000000
_cell_angle_beta 90.000000
_cell_angle_gamma 90.000000
_cell_volume 1243.982593
_symmetry_space_group_name_H-M "P B A N"
_symmetry_group_IT_number 50
_space_group.IT_coordinate_system_code '2'
_symmetry_cell_setting 'orthorhombic'
loop_
_space_group_symop_operation_xyz
x,y,z
1/2-x,1/2-y,z
x,1/2-y,-z
1/2-x,y,-z
-x,-y,-z
1/2+x,1/2+y,-z
-x,1/2+y,z
1/2+x,-y,z
loop_
_atom_site_type_symbol
_atom_site_label
_atom_site_fract_x
_atom_site_fract_y
_atom_site_fract_z
Si Si1 0.875591 0.423788 0.956332
Si Si2 0.441114 0.988251 0.641323
Si Si3 0.799844 0.573099 0.761692
Si Si4 0.031508 0.750000 0.500000
O O1 0.857408 0.462975 0.845403
O O2 0.877736 0.250000 0.000000
O O3 0.750000 0.504714 0.000000
O O4 0.000000 0.500000 0.000000
O O5 0.334660 0.004392 0.722672
O O6 0.453239 0.138255 0.572899
O O7 0.582450 0.937176 0.683739
O O8 0.390375 0.858469 0.569830
O O9 0.750000 0.750000 0.786548
#
# Coordination Sequence:
#
# PCOD9397693 Si02
#       4
#     8   8   8   4
#     4  11  28  49  77 110 147 192 249 314 387 463
#     4  11  25  46  76 109 156 204 257 311 381 446
#     4  12  27  48  77 112 153 201 255 318 388 462
#     4  10  24  44  72 114 152 210 256 314 372 454
#
# _framework density 22.508353
#
# number of rings (size 3 to 8) (size 9 to 14) (size 15 to 20)
#    0.000    0.857    2.857    1.714    8.000   12.571 
#    0.000    0.000    0.000    0.000    0.000    0.000 
#    0.000    0.000    0.000    0.000    0.000    0.000 
#
# Total GULP energy -156038.696486 kJ/mol
# GULP energy per Si atom -5572.810589 kJ/mol
# Density = 2.245712 g / cm^3
# Si number density = 22.508353 Si / 1000 Ang^3
#
#
#
# Elastic Constant Matrix: (Units=GPa)
#
#
# Indices 1 2 3 4 5 6 
#
# 1 140.9721 45.1940 22.8555 0.0000 0.0000 0.0000
# 2 45.1940 147.9401 70.6561 0.0000 0.0000 0.0000
# 3 22.8555 70.6561 109.7015 0.0000 0.0000 0.0000
# 4 0.0000 0.0000 0.0000 45.9854 0.0000 0.0000
# 5 0.0000 0.0000 0.0000 0.0000 23.9434 0.0000
# 6 0.0000 0.0000 0.0000 0.0000 0.0000 33.6066
#
#
#
# Elastic Compliance Matrix: (Units=1/GPa)
#
#
# Indices 1 2 3 4 5 6 
#
# 1 0.007865 -0.002340 -0.000132 0.000000 0.000000 0.000000
# 2 -0.002340 0.010459 -0.006249 0.000000 0.000000 0.000000
# 3 -0.000132 -0.006249 0.013168 0.000000 0.000000 0.000000
# 4 0.000000 0.000000 0.000000 0.021746 0.000000 0.000000
# 5 0.000000 0.000000 0.000000 0.000000 0.041765 0.000000
# 6 0.000000 0.000000 0.000000 0.000000 0.000000 0.029756
#
#
# Mechanical properties :
#
#
# Convention : Reuss Voigt Hill
#
# Bulk Modulus (GPa) = 71.16841 75.11389 73.14115
# Shear Modulus (GPa) = 34.04077 38.03428 36.03752
#
# Velocity S-wave (km/s) = 3.89313 4.11516 4.00568
# Velocity P-wave (km/s) = 7.20388 7.48488 7.34572
#
# Compressibility (1/GPa) = 0.01405118
#
# Stress axis : x y z
#
# Youngs Moduli (GPa) = 127.14458 95.61456 75.94346
#
# Poissons Ratio (x) = 0.22372 0.00999
# Poissons Ratio (y) = 0.29750 0.47455
# Poissons Ratio (z) = 0.01673 0.59747
#
# Static dielectric constant tensor:
#      x y z
#    x 1.804420 0.000000 0.000000 
#    y 0.000000 2.047980 0.000000 
#    z 0.000000 0.000000 1.933060 
# 
# From -- ./inp_files/25567.got.cif
#   From: 2010.05.17/outbox.cif.g08.bks.cpg/sg50_13_cif.got.tgz:25567.got - 2010.06.03 11:33:33.
