data_PCOD9397980
_publ_section_title
;
Structure prediction by ZEFSAII (Michael W. Deem and Ramdas Pophale) SiO2 
 PCOD9397980
Probable space group: P B A N
;
_chemical_formula_sum "Si O2"
_cell_formula_units_Z 32
_cell_length_a 11.568035
_cell_length_b 14.573214
_cell_length_c 8.706747
_cell_angle_alpha 90.000000
_cell_angle_beta 90.000000
_cell_angle_gamma 90.000000
_cell_volume 1467.813444
_symmetry_space_group_name_H-M "P B A N"
_symmetry_group_IT_number 50
_space_group.IT_coordinate_system_code '2'
_symmetry_cell_setting 'orthorhombic'
loop_
_space_group_symop_operation_xyz
x,y,z
1/2-x,1/2-y,z
x,1/2-y,-z
1/2-x,y,-z
-x,-y,-z
1/2+x,1/2+y,-z
-x,1/2+y,z
1/2+x,-y,z
loop_
_atom_site_type_symbol
_atom_site_label
_atom_site_fract_x
_atom_site_fract_y
_atom_site_fract_z
Si Si1 0.871801 0.702956 0.341553
Si Si2 0.357119 0.038515 0.113816
Si Si3 0.366226 0.475363 0.530379
Si Si4 0.955337 0.156763 0.069210
O O1 0.750000 0.750000 0.294687
O O2 0.913997 0.750000 0.500000
O O3 0.847589 0.601496 0.401596
O O4 0.965358 0.693573 0.209110
O O5 0.361443 0.058008 0.294409
O O6 0.372469 0.927360 0.113428
O O7 0.250000 0.059036 0.000000
O O8 0.459292 0.101231 0.045212
O O9 0.250000 0.537487 0.500000
O O10 0.500000 0.500000 0.500000
O O11 0.903153 0.250000 0.000000
#
# Coordination Sequence:
#
# PCOD9397980 Si02
#       4
#     8   8   8   8
#     4  11  22  40  69 105 135 181 242 307 355 439
#     4  11  26  44  70 103 145 194 239 301 388 442
#     4  12  24  45  72 103 146 190 244 304 375 448
#     4  11  25  43  69 103 140 183 245 305 364 441
#
# _framework density 21.801134999999999
#
# number of rings (size 3 to 8) (size 9 to 14) (size 15 to 20)
#    0.000    0.750    5.000    3.000    7.000    0.500 
#    0.000    0.000    0.000    0.750    0.000    0.000 
#    0.000    0.000    0.000    0.000    0.000    0.000 
#
# Total GULP energy -178161.662415 kJ/mol
# GULP energy per Si atom -5567.551950 kJ/mol
# Density = 2.175151 g / cm^3
# Si number density = 21.801135 Si / 1000 Ang^3
#
#
#
# Elastic Constant Matrix: (Units=GPa)
#
#
# Indices 1 2 3 4 5 6 
#
# 1 101.6040 6.0984 30.0262 0.0000 0.0000 0.0000
# 2 6.0984 90.9224 -22.9737 0.0000 0.0000 0.0000
# 3 30.0262 -22.9737 97.7801 0.0000 0.0000 0.0000
# 4 0.0000 0.0000 0.0000 9.5537 0.0000 0.0000
# 5 0.0000 0.0000 0.0000 0.0000 22.6294 0.0000
# 6 0.0000 0.0000 0.0000 0.0000 0.0000 32.2281
#
#
#
# Elastic Compliance Matrix: (Units=1/GPa)
#
#
# Indices 1 2 3 4 5 6 
#
# 1 0.011067 -0.001702 -0.003798 0.000000 0.000000 0.000000
# 2 -0.001702 0.011954 0.003331 0.000000 0.000000 0.000000
# 3 -0.003798 0.003331 0.012176 0.000000 0.000000 0.000000
# 4 0.000000 0.000000 0.000000 0.104671 0.000000 0.000000
# 5 0.000000 0.000000 0.000000 0.000000 0.044190 0.000000
# 6 0.000000 0.000000 0.000000 0.000000 0.000000 0.031029
#
#
# Mechanical properties :
#
#
# Convention : Reuss Voigt Hill
#
# Bulk Modulus (GPa) = 32.40511 35.17869 33.79190
# Shear Modulus (GPa) = 21.76639 31.35927 26.56283
#
# Velocity S-wave (km/s) = 3.16318 3.79677 3.49437
# Velocity P-wave (km/s) = 5.31387 5.94910 5.64044
#
# Compressibility (1/GPa) = 0.03085933
#
# Stress axis : x y z
#
# Youngs Moduli (GPa) = 90.36071 83.65198 82.12812
#
# Poissons Ratio (x) = 0.14237 0.31194
# Poissons Ratio (y) = 0.15379 -0.27360
# Poissons Ratio (z) = 0.34321 -0.27867
#
# Static dielectric constant tensor:
#      x y z
#    x 2.148990 0.000000 0.000000 
#    y 0.000000 1.916390 0.000000 
#    z 0.000000 0.000000 1.699150 
# 
# From -- ./inp_files/10541.got.cif
#   From: 2010.05.17/outbox.cif.g08.bks.cpg/sg50_6_cif.got.tgz:10541.got - 2010.06.03 11:33:33.
