data_PCOD9397288
_publ_section_title
;
Structure prediction by ZEFSAII (Michael W. Deem and Ramdas Pophale) SiO2 
 PCOD9397288
Probable space group: P B A N
;
_chemical_formula_sum "Si O2"
_cell_formula_units_Z 30
_cell_length_a 15.487218
_cell_length_b 16.424632
_cell_length_c 5.479131
_cell_angle_alpha 90.000000
_cell_angle_beta 90.000000
_cell_angle_gamma 90.000000
_cell_volume 1393.736724
_symmetry_space_group_name_H-M "P B A N"
_symmetry_group_IT_number 50
_space_group.IT_coordinate_system_code '2'
_symmetry_cell_setting 'orthorhombic'
loop_
_space_group_symop_operation_xyz
x,y,z
1/2-x,1/2-y,z
x,1/2-y,-z
1/2-x,y,-z
-x,-y,-z
1/2+x,1/2+y,-z
-x,1/2+y,z
1/2+x,-y,z
loop_
_atom_site_type_symbol
_atom_site_label
_atom_site_fract_x
_atom_site_fract_y
_atom_site_fract_z
Si Si1 0.750000 0.250000 0.500000
Si Si2 0.129491 0.624460 0.381118
Si Si3 0.197381 0.445432 0.257065
Si Si4 0.089639 0.750000 0.000000
Si Si5 0.040113 0.332256 0.371646
O O1 0.819126 0.321520 0.416724
O O2 0.166347 0.537099 0.318354
O O3 0.142581 0.684483 0.152937
O O4 0.027547 0.622642 0.445429
O O5 0.250000 0.419702 0.500000
O O6 0.113443 0.388287 0.259412
O O7 0.250000 0.442058 0.000000
O O8 0.023564 0.800530 0.165553
O O9 0.075228 0.250000 0.500000
#
# Coordination Sequence:
#
# PCOD9397288 Si02
#       5
#     2   8   8   4   8
#     4  12  20  42  68 104 142 176 246 300 370 424
#     4  11  24  43  72 102 149 184 240 304 372 436
#     4  12  30  47  71 110 147 191 244 302 358 433
#     4  10  22  41  75 100 130 198 230 300 353 445
#     4  10  24  49  71 101 140 194 247 294 371 430
#
# _framework density 21.524868999999999
#
# number of rings (size 3 to 8) (size 9 to 14) (size 15 to 20)
#    0.000    1.067    5.333    0.800   14.933    1.600 
#    0.000    0.000    0.000    0.000    0.000    0.000 
#    0.000    0.000    0.000    0.000    0.000    0.000 
#
# Total GULP energy -167049.202088 kJ/mol
# GULP energy per Si atom -5568.306736 kJ/mol
# Density = 2.147588 g / cm^3
# Si number density = 21.524869 Si / 1000 Ang^3
#
#
#
# Elastic Constant Matrix: (Units=GPa)
#
#
# Indices 1 2 3 4 5 6 
#
# 1 135.2432 82.2590 43.0316 0.0000 0.0000 0.0000
# 2 82.2590 113.2284 28.3670 0.0000 0.0000 0.0000
# 3 43.0316 28.3670 102.8616 0.0000 0.0000 0.0000
# 4 0.0000 0.0000 0.0000 18.7377 0.0000 0.0000
# 5 0.0000 0.0000 0.0000 0.0000 17.4231 0.0000
# 6 0.0000 0.0000 0.0000 0.0000 0.0000 37.1002
#
#
#
# Elastic Compliance Matrix: (Units=1/GPa)
#
#
# Indices 1 2 3 4 5 6 
#
# 1 0.014239 -0.009509 -0.003334 0.000000 0.000000 0.000000
# 2 -0.009509 0.015837 -0.000390 0.000000 0.000000 0.000000
# 3 -0.003334 -0.000390 0.011224 0.000000 0.000000 0.000000
# 4 0.000000 0.000000 0.000000 0.053368 0.000000 0.000000
# 5 0.000000 0.000000 0.000000 0.000000 0.057395 0.000000
# 6 0.000000 0.000000 0.000000 0.000000 0.000000 0.026954
#
#
# Mechanical properties :
#
#
# Convention : Reuss Voigt Hill
#
# Bulk Modulus (GPa) = 67.41012 73.18313 70.29663
# Shear Modulus (GPa) = 23.76113 27.83057 25.79585
#
# Velocity S-wave (km/s) = 3.32609 3.59966 3.46558
# Velocity P-wave (km/s) = 6.79234 7.16588 6.98161
#
# Compressibility (1/GPa) = 0.01483457
#
# Stress axis : x y z
#
# Youngs Moduli (GPa) = 70.23210 63.14201 89.09364
#
# Poissons Ratio (x) = 0.60040 0.29706
# Poissons Ratio (y) = 0.66782 0.03471
# Poissons Ratio (z) = 0.23417 0.02460
#
# Static dielectric constant tensor:
#      x y z
#    x 1.825400 0.000000 0.000000 
#    y 0.000000 1.734130 0.000000 
#    z 0.000000 0.000000 2.167240 
# 
# From -- ./inp_files/2941.got.cif
#   From: 2010.05.17/outbox.cif.g08.bks.cpg/sg50_2_cif.got.tgz:2941.got - 2010.06.03 11:33:33.
