data_PCOD9397793
_publ_section_title
;
Structure prediction by ZEFSAII (Michael W. Deem and Ramdas Pophale) SiO2 
 PCOD9397793
Probable space group: P B A N
;
_chemical_formula_sum "Si O2"
_cell_formula_units_Z 40
_cell_length_a 8.837238
_cell_length_b 20.646169
_cell_length_c 8.741113
_cell_angle_alpha 90.000000
_cell_angle_beta 90.000000
_cell_angle_gamma 90.000000
_cell_volume 1594.860727
_symmetry_space_group_name_H-M "P B A N"
_symmetry_group_IT_number 50
_space_group.IT_coordinate_system_code '2'
_symmetry_cell_setting 'orthorhombic'
loop_
_space_group_symop_operation_xyz
x,y,z
1/2-x,1/2-y,z
x,1/2-y,-z
1/2-x,y,-z
-x,-y,-z
1/2+x,1/2+y,-z
-x,1/2+y,z
1/2+x,-y,z
loop_
_atom_site_type_symbol
_atom_site_label
_atom_site_fract_x
_atom_site_fract_y
_atom_site_fract_z
Si Si1 0.828564 0.952375 0.840640
Si Si2 0.392338 0.948968 0.590881
Si Si3 0.409982 0.880424 0.087621
Si Si4 0.909792 0.848891 0.214396
Si Si5 0.081398 0.768405 0.679514
O O1 0.751021 0.885264 0.783089
O O2 0.007688 0.946446 0.866737
O O3 0.810312 0.008204 0.719269
O O4 0.750000 0.966573 0.000000
O O5 0.250000 0.920063 0.500000
O O6 0.488521 0.892847 0.671072
O O7 0.500000 0.000000 0.500000
O O8 0.423823 0.838595 0.242390
O O9 0.250000 0.882067 0.000000
O O10 0.523090 0.854052 0.956264
O O11 0.942622 0.775184 0.258939
O O12 0.250000 0.750000 0.737327
O O13 0.081523 0.750000 0.500000
#
# Coordination Sequence:
#
# PCOD9397793 Si02
#       5
#     8   8   8   8   8
#     4  10  26  49  68 107 145 190 252 305 380 455
#     4  12  27  46  74 106 152 197 249 312 378 449
#     4  11  24  43  75 100 142 189 245 308 365 451
#     4  11  25  45  70 102 145 194 237 308 372 444
#     4  11  25  43  69 108 140 182 246 300 370 448
#
# _framework density 25.080559000000001
#
# number of rings (size 3 to 8) (size 9 to 14) (size 15 to 20)
#    0.000    1.000    4.000    0.600    8.400    4.800 
#    0.000    4.000    0.000    0.000    0.000    0.000 
#    0.000    0.000    0.000    0.000    0.000    0.000 
#
# Total GULP energy -223633.454357 kJ/mol
# GULP energy per Si atom -5590.836359 kJ/mol
# Density = 2.502347 g / cm^3
# Si number density = 25.080559 Si / 1000 Ang^3
#
#
#
# Elastic Constant Matrix: (Units=GPa)
#
#
# Indices 1 2 3 4 5 6 
#
# 1 151.1463 44.5350 44.1526 0.0000 0.0000 0.0000
# 2 44.5350 76.4476 28.7610 0.0000 0.0000 0.0000
# 3 44.1526 28.7610 107.5345 0.0000 0.0000 0.0000
# 4 0.0000 0.0000 0.0000 32.8454 0.0000 0.0000
# 5 0.0000 0.0000 0.0000 0.0000 39.5169 0.0000
# 6 0.0000 0.0000 0.0000 0.0000 0.0000 37.6043
#
#
#
# Elastic Compliance Matrix: (Units=1/GPa)
#
#
# Indices 1 2 3 4 5 6 
#
# 1 0.008515 -0.004053 -0.002412 0.000000 0.000000 0.000000
# 2 -0.004053 0.016473 -0.002742 0.000000 0.000000 0.000000
# 3 -0.002412 -0.002742 0.011023 0.000000 0.000000 0.000000
# 4 0.000000 0.000000 0.000000 0.030446 0.000000 0.000000
# 5 0.000000 0.000000 0.000000 0.000000 0.025306 0.000000
# 6 0.000000 0.000000 0.000000 0.000000 0.000000 0.026593
#
#
# Mechanical properties :
#
#
# Convention : Reuss Voigt Hill
#
# Bulk Modulus (GPa) = 56.82604 63.33616 60.08110
# Shear Modulus (GPa) = 35.05446 36.50531 35.77988
#
# Velocity S-wave (km/s) = 3.74260 3.81927 3.78113
# Velocity P-wave (km/s) = 6.43294 6.69007 6.56276
#
# Compressibility (1/GPa) = 0.01759757
#
# Stress axis : x y z
#
# Youngs Moduli (GPa) = 117.44080 60.70374 90.71873
#
# Poissons Ratio (x) = 0.24603 0.21883
# Poissons Ratio (y) = 0.47598 0.24874
# Poissons Ratio (z) = 0.28329 0.16644
#
# Static dielectric constant tensor:
#      x y z
#    x 1.988460 0.000000 0.000000 
#    y 0.000000 1.998790 0.000000 
#    z 0.000000 0.000000 2.025720 
# 
# From -- ./inp_files/9488.got.cif
#   From: 2010.05.17/outbox.cif.g08.bks.cpg/sg50_5_cif.got.tgz:9488.got - 2010.06.03 11:33:33.
