data_PCOD9397327
_publ_section_title
;
Structure prediction by ZEFSAII (Michael W. Deem and Ramdas Pophale) SiO2 
 PCOD9397327
Probable space group: P B A N
;
_chemical_formula_sum "Si O2"
_cell_formula_units_Z 26
_cell_length_a 24.730919
_cell_length_b 8.655177
_cell_length_c 5.561680
_cell_angle_alpha 90.000000
_cell_angle_beta 90.000000
_cell_angle_gamma 90.000000
_cell_volume 1190.480281
_symmetry_space_group_name_H-M "P B A N"
_symmetry_group_IT_number 50
_space_group.IT_coordinate_system_code '2'
_symmetry_cell_setting 'orthorhombic'
loop_
_space_group_symop_operation_xyz
x,y,z
1/2-x,1/2-y,z
x,1/2-y,-z
1/2-x,y,-z
-x,-y,-z
1/2+x,1/2+y,-z
-x,1/2+y,z
1/2+x,-y,z
loop_
_atom_site_type_symbol
_atom_site_label
_atom_site_fract_x
_atom_site_fract_y
_atom_site_fract_z
Si Si1 0.250000 0.250000 0.000000
Si Si2 0.953433 0.020616 0.302468
Si Si3 0.281240 0.956387 0.757079
Si Si4 0.864996 0.250000 0.500000
Si Si5 0.525442 0.750000 0.000000
O O1 0.213156 0.362209 0.832265
O O2 0.902195 0.114191 0.394298
O O3 0.984211 0.132634 0.121490
O O4 0.000000 0.000000 0.500000
O O5 0.940947 0.854960 0.184232
O O6 0.250000 0.952700 0.500000
O O7 0.329934 0.839486 0.701424
O O8 0.250000 0.906804 0.000000
#
# Coordination Sequence:
#
# PCOD9397327 Si02
#       5
#     2   8   8   4   4
#     4   8  22  52  78 100 158 190 250 346 386 450
#     4  11  22  45  69 109 155 198 261 317 370 477
#     4  10  24  48  80 109 149 197 264 336 387 484
#     4  12  25  44  82 110 152 212 259 318 422 466
#     4  10  22  42  75  96 158 206 240 327 370 434
#
# _framework density 21.839925000000001
#
# number of rings (size 3 to 8) (size 9 to 14) (size 15 to 20)
#    0.923    0.615    3.077    0.923    0.000    4.923 
#    0.000    9.231    6.769    0.000    0.000    0.000 
#    0.000    0.000    0.000    0.000    0.000    0.000 
#
# Total GULP energy -144781.952137 kJ/mol
# GULP energy per Si atom -5568.536621 kJ/mol
# Density = 2.179022 g / cm^3
# Si number density = 21.839925 Si / 1000 Ang^3
#
#
#
# Elastic Constant Matrix: (Units=GPa)
#
#
# Indices 1 2 3 4 5 6 
#
# 1 102.7646 71.9281 66.3906 0.0000 0.0000 0.0000
# 2 71.9281 182.9387 73.6488 0.0000 0.0000 0.0000
# 3 66.3906 73.6488 140.3686 0.0000 0.0000 0.0000
# 4 0.0000 0.0000 0.0000 18.9715 0.0000 0.0000
# 5 0.0000 0.0000 0.0000 0.0000 24.4255 0.0000
# 6 0.0000 0.0000 0.0000 0.0000 0.0000 35.6865
#
#
#
# Elastic Compliance Matrix: (Units=1/GPa)
#
#
# Indices 1 2 3 4 5 6 
#
# 1 0.016174 -0.004158 -0.005468 0.000000 0.000000 0.000000
# 2 -0.004158 0.007999 -0.002230 0.000000 0.000000 0.000000
# 3 -0.005468 -0.002230 0.010881 0.000000 0.000000 0.000000
# 4 0.000000 0.000000 0.000000 0.052711 0.000000 0.000000
# 5 0.000000 0.000000 0.000000 0.000000 0.040941 0.000000
# 6 0.000000 0.000000 0.000000 0.000000 0.000000 0.028022
#
#
# Mechanical properties :
#
#
# Convention : Reuss Voigt Hill
#
# Bulk Modulus (GPa) = 88.17865 94.44520 91.31193
# Shear Modulus (GPa) = 27.14143 30.09033 28.61588
#
# Velocity S-wave (km/s) = 3.52908 3.71586 3.62367
# Velocity P-wave (km/s) = 7.55437 7.85801 7.70768
#
# Compressibility (1/GPa) = 0.01134061
#
# Stress axis : x y z
#
# Youngs Moduli (GPa) = 61.82785 125.01524 91.90575
#
# Poissons Ratio (x) = 0.51979 0.50257
# Poissons Ratio (y) = 0.25707 0.20499
# Poissons Ratio (z) = 0.33809 0.27883
#
# Static dielectric constant tensor:
#      x y z
#    x 1.538180 0.000000 0.000000 
#    y 0.000000 1.829550 0.000000 
#    z 0.000000 0.000000 1.869900 
# 
# From -- ./inp_files/5671.got.cif
#   From: 2010.05.17/outbox.cif.g08.bks.cpg/sg50_3_cif.got.tgz:5671.got - 2010.06.03 11:33:33.
