data_PCOD9397305
_publ_section_title
;
Structure prediction by ZEFSAII (Michael W. Deem and Ramdas Pophale) SiO2 
 PCOD9397305
Probable space group: P B A N
;
_chemical_formula_sum "Si O2"
_cell_formula_units_Z 60
_cell_length_a 11.023658
_cell_length_b 20.478848
_cell_length_c 12.580841
_cell_angle_alpha 90.000000
_cell_angle_beta 90.000000
_cell_angle_gamma 90.000000
_cell_volume 2840.147710
_symmetry_space_group_name_H-M "P B A N"
_symmetry_group_IT_number 50
_space_group.IT_coordinate_system_code '2'
_symmetry_cell_setting 'orthorhombic'
loop_
_space_group_symop_operation_xyz
x,y,z
1/2-x,1/2-y,z
x,1/2-y,-z
1/2-x,y,-z
-x,-y,-z
1/2+x,1/2+y,-z
-x,1/2+y,z
1/2+x,-y,z
loop_
_atom_site_type_symbol
_atom_site_label
_atom_site_fract_x
_atom_site_fract_y
_atom_site_fract_z
Si Si1 0.565853 0.385108 0.491453
Si Si2 0.509444 0.446927 0.158702
Si Si3 0.929981 0.303148 0.295225
Si Si4 0.836007 0.912640 0.657403
Si Si5 0.634860 0.938159 0.947389
Si Si6 0.673161 0.342994 0.276628
Si Si7 0.693590 0.681257 0.196827
Si Si8 0.750000 0.005266 0.500000
O O1 0.557536 0.332101 0.585161
O O2 0.437856 0.394876 0.430807
O O3 0.659092 0.364596 0.398634
O O4 0.629369 0.452871 0.525503
O O5 0.403206 0.449220 0.245959
O O6 0.573256 0.516127 0.140248
O O7 0.600459 0.392659 0.203466
O O8 0.457540 0.426424 0.043888
O O9 0.814130 0.340869 0.247041
O O10 0.888620 0.228164 0.281870
O O11 0.057386 0.310908 0.238576
O O12 0.776121 0.848836 0.708944
O O13 0.736625 0.958428 0.601968
O O14 0.685432 0.872881 0.894454
O O15 0.750000 0.974264 0.000000
O O16 0.750000 0.750000 0.162830
#
# Coordination Sequence:
#
# PCOD9397305 Si02
#       8
#     8   8   8   8   8   8   8   4
#     4  11  22  39  64  97 137 182 228 281 330 405
#     4  10  24  45  71 100 134 171 226 293 347 408
#     4  11  23  41  67  97 139 182 226 271 339 406
#     4  11  25  42  65 100 142 178 235 281 340 413
#     4  11  25  45  71 102 131 174 227 286 354 415
#     4  10  22  42  67 101 132 178 228 281 334 407
#     4  12  27  46  69 100 135 185 223 282 352 419
#     4  12  24  38  64 102 136 186 226 282 340 406
#
# _framework density 21.125661000000001
#
# number of rings (size 3 to 8) (size 9 to 14) (size 15 to 20)
#    0.000    1.067    2.667    3.200    5.600    3.467 
#    0.000    2.333    0.000    1.600    0.000    0.000 
#    0.000    0.000    0.000    0.000    0.000    0.000 
#
# Total GULP energy -335291.652825 kJ/mol
# GULP energy per Si atom -5588.194214 kJ/mol
# Density = 2.107758 g / cm^3
# Si number density = 21.125661 Si / 1000 Ang^3
#
#
#
# Elastic Constant Matrix: (Units=GPa)
#
#
# Indices 1 2 3 4 5 6 
#
# 1 102.8864 37.5103 38.6531 0.0000 0.0000 0.0000
# 2 37.5103 103.1055 51.3446 0.0000 0.0000 0.0000
# 3 38.6531 51.3446 81.5843 0.0000 0.0000 0.0000
# 4 0.0000 0.0000 0.0000 79.4857 0.0000 0.0000
# 5 0.0000 0.0000 0.0000 0.0000 36.3694 0.0000
# 6 0.0000 0.0000 0.0000 0.0000 0.0000 19.0612
#
#
#
# Elastic Compliance Matrix: (Units=1/GPa)
#
#
# Indices 1 2 3 4 5 6 
#
# 1 0.012178 -0.002268 -0.004342 0.000000 0.000000 0.000000
# 2 -0.002268 0.014548 -0.008081 0.000000 0.000000 0.000000
# 3 -0.004342 -0.008081 0.019400 0.000000 0.000000 0.000000
# 4 0.000000 0.000000 0.000000 0.012581 0.000000 0.000000
# 5 0.000000 0.000000 0.000000 0.000000 0.027496 0.000000
# 6 0.000000 0.000000 0.000000 0.000000 0.000000 0.052463
#
#
# Mechanical properties :
#
#
# Convention : Reuss Voigt Hill
#
# Bulk Modulus (GPa) = 59.72524 60.28802 60.00663
# Shear Modulus (GPa) = 28.79695 37.65448 33.22571
#
# Velocity S-wave (km/s) = 3.69606 4.22643 3.97011
# Velocity P-wave (km/s) = 6.82256 7.23994 7.03435
#
# Compressibility (1/GPa) = 0.01674334
#
# Stress axis : x y z
#
# Youngs Moduli (GPa) = 82.11789 68.73677 51.54517
#
# Poissons Ratio (x) = 0.15589 0.22382
# Poissons Ratio (y) = 0.18624 0.41655
# Poissons Ratio (z) = 0.35657 0.55549
#
# Static dielectric constant tensor:
#      x y z
#    x 1.744430 0.000000 0.000000 
#    y 0.000000 1.825710 0.000000 
#    z 0.000000 0.000000 1.740540 
# 
# From -- ./inp_files/20415.got.cif
#   From: 2010.05.17/outbox.cif.g08.bks.cpg/sg50_11_cif.got.tgz:20415.got - 2010.06.03 11:33:33.
