data_PCOD9397270
_publ_section_title
;
Structure prediction by ZEFSAII (Michael W. Deem and Ramdas Pophale) SiO2 
 PCOD9397270
Probable space group: P B A N
;
_chemical_formula_sum "Si O2"
_cell_formula_units_Z 40
_cell_length_a 9.083681
_cell_length_b 20.597904
_cell_length_c 9.505790
_cell_angle_alpha 90.000000
_cell_angle_beta 90.000000
_cell_angle_gamma 90.000000
_cell_volume 1778.578834
_symmetry_space_group_name_H-M "P B A N"
_symmetry_group_IT_number 50
_space_group.IT_coordinate_system_code '2'
_symmetry_cell_setting 'orthorhombic'
loop_
_space_group_symop_operation_xyz
x,y,z
1/2-x,1/2-y,z
x,1/2-y,-z
1/2-x,y,-z
-x,-y,-z
1/2+x,1/2+y,-z
-x,1/2+y,z
1/2+x,-y,z
loop_
_atom_site_type_symbol
_atom_site_label
_atom_site_fract_x
_atom_site_fract_y
_atom_site_fract_z
Si Si1 0.880479 0.478799 0.110730
Si Si2 0.579402 0.328492 0.487590
Si Si3 0.863094 0.808801 0.265567
Si Si4 0.910823 0.160956 0.945079
Si Si5 0.915377 0.888373 0.781425
O O1 0.887437 0.403538 0.151893
O O2 0.895675 0.533747 0.228578
O O3 0.750000 0.483796 0.000000
O O4 0.000000 0.500000 0.000000
O O5 0.589562 0.250000 0.500000
O O6 0.750000 0.351666 0.500000
O O7 0.454838 0.338851 0.606453
O O8 0.506661 0.356796 0.346277
O O9 0.750000 0.750000 0.303054
O O10 0.750013 0.861479 0.206887
O O11 0.986764 0.791507 0.147556
O O12 0.750000 0.181544 0.000000
O O13 0.000599 0.134810 0.078583
#
# Coordination Sequence:
#
# PCOD9397270 Si02
#       5
#     8   8   8   8   8
#     4   9  18  36  63  96 133 169 219 277 342 394
#     4  11  24  44  64  90 133 184 230 278 346 412
#     4  12  24  42  65 100 140 179 226 286 344 410
#     4  10  22  41  66  99 136 179 222 283 343 410
#     4  11  21  38  67  97 129 180 230 277 341 406
#
# _framework density 22.489867
#
# number of rings (size 3 to 8) (size 9 to 14) (size 15 to 20)
#    0.000    1.400    2.000    4.800    0.000    1.600 
#    0.000    2.000    0.000    4.800    0.000    0.000 
#    0.000    0.000    0.000    0.000    0.000    0.000 
#
# Total GULP energy -222921.539801 kJ/mol
# GULP energy per Si atom -5573.038495 kJ/mol
# Density = 2.243868 g / cm^3
# Si number density = 22.489867 Si / 1000 Ang^3
#
#
#
# Elastic Constant Matrix: (Units=GPa)
#
#
# Indices 1 2 3 4 5 6 
#
# 1 164.0644 14.1469 32.6230 0.0000 0.0000 0.0000
# 2 14.1469 105.5297 18.0065 0.0000 0.0000 0.0000
# 3 32.6230 18.0065 103.9368 0.0000 0.0000 0.0000
# 4 0.0000 0.0000 0.0000 20.0150 0.0000 0.0000
# 5 0.0000 0.0000 0.0000 0.0000 44.1267 0.0000
# 6 0.0000 0.0000 0.0000 0.0000 0.0000 20.7011
#
#
#
# Elastic Compliance Matrix: (Units=1/GPa)
#
#
# Indices 1 2 3 4 5 6 
#
# 1 0.006531 -0.000542 -0.001956 0.000000 0.000000 0.000000
# 2 -0.000542 0.009810 -0.001529 0.000000 0.000000 0.000000
# 3 -0.001956 -0.001529 0.010500 0.000000 0.000000 0.000000
# 4 0.000000 0.000000 0.000000 0.049962 0.000000 0.000000
# 5 0.000000 0.000000 0.000000 0.000000 0.022662 0.000000
# 6 0.000000 0.000000 0.000000 0.000000 0.000000 0.048307
#
#
# Mechanical properties :
#
#
# Convention : Reuss Voigt Hill
#
# Bulk Modulus (GPa) = 53.23052 55.89820 54.56436
# Shear Modulus (GPa) = 30.84744 37.55220 34.19982
#
# Velocity S-wave (km/s) = 3.70755 4.09068 3.90382
# Velocity P-wave (km/s) = 6.48444 6.87170 6.68088
#
# Compressibility (1/GPa) = 0.01878622
#
# Stress axis : x y z
#
# Youngs Moduli (GPa) = 153.12024 101.94099 95.23690
#
# Poissons Ratio (x) = 0.05523 0.18628
# Poissons Ratio (y) = 0.08295 0.14566
# Poissons Ratio (z) = 0.29950 0.15591
#
# Static dielectric constant tensor:
#      x y z
#    x 1.837730 0.000000 0.000000 
#    y 0.000000 2.378590 0.000000 
#    z 0.000000 0.000000 1.840310 
# 
# From -- ./inp_files/9506.got.cif
#   From: 2010.05.17/outbox.cif.g08.bks.cpg/sg50_5_cif.got.tgz:9506.got - 2010.06.03 11:33:33.
