data_PCOD9397804
_publ_section_title
;
Structure prediction by ZEFSAII (Michael W. Deem and Ramdas Pophale) SiO2 
 PCOD9397804
Probable space group: P B A N
;
_chemical_formula_sum "Si O2"
_cell_formula_units_Z 56
_cell_length_a 20.272930
_cell_length_b 13.620211
_cell_length_c 10.203676
_cell_angle_alpha 90.000000
_cell_angle_beta 90.000000
_cell_angle_gamma 90.000000
_cell_volume 2817.455182
_symmetry_space_group_name_H-M "P B A N"
_symmetry_group_IT_number 50
_space_group.IT_coordinate_system_code '2'
_symmetry_cell_setting 'orthorhombic'
loop_
_space_group_symop_operation_xyz
x,y,z
1/2-x,1/2-y,z
x,1/2-y,-z
1/2-x,y,-z
-x,-y,-z
1/2+x,1/2+y,-z
-x,1/2+y,z
1/2+x,-y,z
loop_
_atom_site_type_symbol
_atom_site_label
_atom_site_fract_x
_atom_site_fract_y
_atom_site_fract_z
Si Si1 0.578418 0.370693 0.638624
Si Si2 0.848760 0.503614 0.739763
Si Si3 0.734765 0.138366 0.345586
Si Si4 0.042872 0.852203 0.666943
Si Si5 0.670446 0.867361 0.993389
Si Si6 0.670781 0.864270 0.491983
Si Si7 0.590869 0.567101 0.754405
O O1 0.657166 0.377133 0.655375
O O2 0.552488 0.379747 0.488341
O O3 0.561076 0.261345 0.679684
O O4 0.557126 0.461079 0.728509
O O5 0.780443 0.441254 0.726658
O O6 0.906195 0.422849 0.741253
O O7 0.855950 0.570357 0.610340
O O8 0.849335 0.577920 0.860317
O O9 0.750000 0.250000 0.301344
O O10 0.750000 0.132355 0.500000
O O11 0.969985 0.862039 0.723439
O O12 0.629040 0.916866 0.110669
O O13 0.657636 0.750000 0.000000
O O14 0.750000 0.879155 0.000000
O O15 0.650991 0.750000 0.500000
O O16 0.750000 0.868238 0.500000
O O17 0.644089 0.909284 0.358406
#
# Coordination Sequence:
#
# PCOD9397804 Si02
#       7
#     8   8   8   8   8   8   8
#     4  11  21  40  64 101 141 173 222 278 340 405
#     4  12  22  40  68  97 135 176 224 276 338 399
#     4  11  17  33  65 102 132 172 219 277 339 393
#     4  11  24  39  66 103 136 179 214 272 345 408
#     4  11  26  48  69  92 130 181 228 278 339 396
#     4  11  23  38  63  98 126 164 229 285 324 386
#     4  12  25  42  67  95 133 178 221 279 335 401
#
# _framework density 19.876090999999999
#
# number of rings (size 3 to 8) (size 9 to 14) (size 15 to 20)
#    0.000    0.714    4.286    5.143    2.000    4.000 
#    0.000    0.714    0.000    0.000    0.000    0.000 
#    0.000    0.000    0.000    0.000    0.000    0.000 
#
# Total GULP energy -312874.945748 kJ/mol
# GULP energy per Si atom -5587.052603 kJ/mol
# Density = 1.983085 g / cm^3
# Si number density = 19.876091 Si / 1000 Ang^3
#
#
#
# Elastic Constant Matrix: (Units=GPa)
#
#
# Indices 1 2 3 4 5 6 
#
# 1 79.8298 9.4135 10.1540 0.0000 0.0000 0.0000
# 2 9.4135 127.9935 25.4916 0.0000 0.0000 0.0000
# 3 10.1540 25.4916 75.3158 0.0000 0.0000 0.0000
# 4 0.0000 0.0000 0.0000 22.7626 0.0000 0.0000
# 5 0.0000 0.0000 0.0000 0.0000 16.8532 0.0000
# 6 0.0000 0.0000 0.0000 0.0000 0.0000 11.3727
#
#
#
# Elastic Compliance Matrix: (Units=1/GPa)
#
#
# Indices 1 2 3 4 5 6 
#
# 1 0.012794 -0.000641 -0.001508 0.000000 0.000000 0.000000
# 2 -0.000641 0.008410 -0.002760 0.000000 0.000000 0.000000
# 3 -0.001508 -0.002760 0.014415 0.000000 0.000000 0.000000
# 4 0.000000 0.000000 0.000000 0.043932 0.000000 0.000000
# 5 0.000000 0.000000 0.000000 0.000000 0.059336 0.000000
# 6 0.000000 0.000000 0.000000 0.000000 0.000000 0.087930
#
#
# Mechanical properties :
#
#
# Convention : Reuss Voigt Hill
#
# Bulk Modulus (GPa) = 38.75776 41.47303 40.11539
# Shear Modulus (GPa) = 20.38871 26.06970 23.22921
#
# Velocity S-wave (km/s) = 3.20627 3.62555 3.42234
# Velocity P-wave (km/s) = 5.76619 6.19977 5.98691
#
# Compressibility (1/GPa) = 0.02580129
#
# Stress axis : x y z
#
# Youngs Moduli (GPa) = 78.16160 118.91025 69.37262
#
# Poissons Ratio (x) = 0.07617 0.10462
# Poissons Ratio (y) = 0.05007 0.19147
# Poissons Ratio (z) = 0.11787 0.32819
#
# Static dielectric constant tensor:
#      x y z
#    x 1.657140 0.000000 0.000000 
#    y 0.000000 1.767320 0.000000 
#    z 0.000000 0.000000 1.665260 
# 
# From -- ./inp_files/15378.got.cif
#   From: 2010.05.17/outbox.cif.g08.bks.cpg/sg50_8_cif.got.tgz:15378.got - 2010.06.03 11:33:33.
