data_PCOD9397076
_publ_section_title
;
Structure prediction by ZEFSAII (Michael W. Deem and Ramdas Pophale) SiO2 
 PCOD9397076
Probable space group: P B A N
;
_chemical_formula_sum "Si O2"
_cell_formula_units_Z 64
_cell_length_a 7.681043
_cell_length_b 20.194487
_cell_length_c 17.885236
_cell_angle_alpha 90.000000
_cell_angle_beta 90.000000
_cell_angle_gamma 90.000000
_cell_volume 2774.263428
_symmetry_space_group_name_H-M "P B A N"
_symmetry_group_IT_number 50
_space_group.IT_coordinate_system_code '2'
_symmetry_cell_setting 'orthorhombic'
loop_
_space_group_symop_operation_xyz
x,y,z
1/2-x,1/2-y,z
x,1/2-y,-z
1/2-x,y,-z
-x,-y,-z
1/2+x,1/2+y,-z
-x,1/2+y,z
1/2+x,-y,z
loop_
_atom_site_type_symbol
_atom_site_label
_atom_site_fract_x
_atom_site_fract_y
_atom_site_fract_z
Si Si1 0.571523 0.610812 0.608105
Si Si2 0.430315 0.869369 0.543824
Si Si3 0.129997 0.942874 0.172986
Si Si4 0.464074 0.092102 0.856559
Si Si5 0.402785 0.836345 0.711902
Si Si6 0.544318 0.076832 0.014029
Si Si7 0.845929 0.511480 0.580748
Si Si8 0.004573 0.300495 0.740365
O O1 0.565804 0.639863 0.524177
O O2 0.725362 0.560141 0.627815
O O3 0.403809 0.560200 0.610779
O O4 0.579710 0.670739 0.663997
O O5 0.250000 0.858305 0.500000
O O6 0.429969 0.832400 0.622510
O O7 0.480737 0.944157 0.569083
O O8 0.330471 0.923373 0.157838
O O9 0.069171 0.907473 0.249053
O O10 0.019564 0.913713 0.102469
O O11 0.121925 0.022547 0.168144
O O12 0.420953 0.154754 0.806258
O O13 0.443081 0.108826 0.944522
O O14 0.201712 0.818190 0.730162
O O15 0.516824 0.777895 0.747881
O O16 0.750000 0.088245 0.000000
O O17 0.500000 0.000000 0.000000
O O18 0.750000 0.510912 0.500000
#
# Coordination Sequence:
#
# PCOD9397076 Si02
#       8
#     8   8   8   8   8   8   8   8
#     4  11  21  36  55  82 110 145 181 237 285 334
#     4  11  20  37  58  79 105 146 189 226 281 337
#     4   9  18  34  56  82 114 141 183 228 280 334
#     4   9  18  33  56  84 110 143 185 228 278 329
#     4  10  22  38  54  81 110 151 188 232 279 340
#     4   8  14  28  52  81 110 141 174 224 277 331
#     4  10  22  35  56  84 112 134 179 240 288 329
#     4  10  22  36  54  79 114 146 192 236 273 336
#
# _framework density 23.069185999999998
#
# number of rings (size 3 to 8) (size 9 to 14) (size 15 to 20)
#    0.000    2.250    1.250    2.625    1.750    1.500 
#    0.000    1.250    0.000    6.000    0.000    0.000 
#    0.000   10.000    0.000    0.000    0.000    0.000 
#
# Total GULP energy -356805.265617 kJ/mol
# GULP energy per Si atom -5575.082275 kJ/mol
# Density = 2.301668 g / cm^3
# Si number density = 23.069186 Si / 1000 Ang^3
#
#
#
# Elastic Constant Matrix: (Units=GPa)
#
#
# Indices 1 2 3 4 5 6 
#
# 1 48.4250 11.4968 9.3970 0.0000 0.0000 0.0000
# 2 11.4968 52.2560 20.8549 0.0000 0.0000 0.0000
# 3 9.3970 20.8549 120.5935 0.0000 0.0000 0.0000
# 4 0.0000 0.0000 0.0000 25.0480 0.0000 0.0000
# 5 0.0000 0.0000 0.0000 0.0000 12.7603 0.0000
# 6 0.0000 0.0000 0.0000 0.0000 0.0000 18.5662
#
#
#
# Elastic Compliance Matrix: (Units=1/GPa)
#
#
# Indices 1 2 3 4 5 6 
#
# 1 0.021887 -0.004441 -0.000937 0.000000 0.000000 0.000000
# 2 -0.004441 0.021456 -0.003365 0.000000 0.000000 0.000000
# 3 -0.000937 -0.003365 0.008947 0.000000 0.000000 0.000000
# 4 0.000000 0.000000 0.000000 0.039923 0.000000 0.000000
# 5 0.000000 0.000000 0.000000 0.000000 0.078368 0.000000
# 6 0.000000 0.000000 0.000000 0.000000 0.000000 0.053861
#
#
# Mechanical properties :
#
#
# Convention : Reuss Voigt Hill
#
# Bulk Modulus (GPa) = 28.73218 33.86355 31.29787
# Shear Modulus (GPa) = 19.72146 23.24329 21.48237
#
# Velocity S-wave (km/s) = 2.92701 3.17763 3.05489
# Velocity P-wave (km/s) = 4.88928 5.30793 5.10290
#
# Compressibility (1/GPa) = 0.03480418
#
# Stress axis : x y z
#
# Youngs Moduli (GPa) = 45.68961 46.60612 111.76666
#
# Poissons Ratio (x) = 0.20699 0.10478
# Poissons Ratio (y) = 0.20292 0.37604
# Poissons Ratio (z) = 0.04283 0.15681
#
# Static dielectric constant tensor:
#      x y z
#    x 2.067330 0.000000 0.000000 
#    y 0.000000 1.864230 0.000000 
#    z 0.000000 0.000000 1.922700 
# 
# From -- ./inp_files/28946.got.cif
#   From: 2010.05.17/outbox.cif.g08.bks.cpg/sg50_15_cif.got.tgz:28946.got - 2010.06.03 11:33:33.
