data_PCOD9397138
_publ_section_title
;
Structure prediction by ZEFSAII (Michael W. Deem and Ramdas Pophale) SiO2 
 PCOD9397138
Probable space group: P B A N
;
_chemical_formula_sum "Si O2"
_cell_formula_units_Z 40
_cell_length_a 15.689836
_cell_length_b 15.042820
_cell_length_c 8.437688
_cell_angle_alpha 90.000000
_cell_angle_beta 90.000000
_cell_angle_gamma 90.000000
_cell_volume 1991.457880
_symmetry_space_group_name_H-M "P B A N"
_symmetry_group_IT_number 50
_space_group.IT_coordinate_system_code '2'
_symmetry_cell_setting 'orthorhombic'
loop_
_space_group_symop_operation_xyz
x,y,z
1/2-x,1/2-y,z
x,1/2-y,-z
1/2-x,y,-z
-x,-y,-z
1/2+x,1/2+y,-z
-x,1/2+y,z
1/2+x,-y,z
loop_
_atom_site_type_symbol
_atom_site_label
_atom_site_fract_x
_atom_site_fract_y
_atom_site_fract_z
Si Si1 0.074300 0.561026 0.561029
Si Si2 0.897215 0.250000 0.500000
Si Si3 0.412672 0.489299 0.095403
Si Si4 0.283323 0.149036 0.818629
Si Si5 0.250000 0.592903 0.000000
Si Si6 0.250000 0.750000 0.753063
Si Si7 0.250000 0.467007 0.500000
O O1 0.052113 0.659816 0.508284
O O2 0.078426 0.548986 0.748457
O O3 0.166114 0.528736 0.497189
O O4 0.000000 0.500000 0.500000
O O5 0.834106 0.249738 0.351616
O O6 0.380297 0.390940 0.154078
O O7 0.334092 0.532722 0.999812
O O8 0.500000 0.500000 0.000000
O O9 0.250000 0.250000 0.782121
O O10 0.253541 0.090675 0.664419
O O11 0.250000 0.137123 0.000000
O O12 0.250509 0.660178 0.146451
#
# Coordination Sequence:
#
# PCOD9397138 Si02
#       7
#     8   4   8   8   4   4   4
#     4  11  26  44  68 101 131 181 224 279 354 409
#     4  11  22  42  66  99 134 170 222 289 336 415
#     4  11  25  43  69 100 136 182 232 290 346 418
#     4  10  22  42  67  97 132 186 231 281 345 411
#     4  11  22  44  67  98 132 180 223 280 350 405
#     4  10  22  38  72  96 128 168 226 276 348 408
#     4  10  23  45  70  94 134 180 228 286 342 414
#
# _framework density 20.085788000000001
#
# number of rings (size 3 to 8) (size 9 to 14) (size 15 to 20)
#    0.000    1.400    3.000    1.500    8.400    0.000 
#    7.200    4.000    0.000    0.000    0.000    0.000 
#    0.000    0.000    0.000    0.000    0.000    0.000 
#
# Total GULP energy -222887.641621 kJ/mol
# GULP energy per Si atom -5572.191041 kJ/mol
# Density = 2.004007 g / cm^3
# Si number density = 20.085788 Si / 1000 Ang^3
#
#
#
# Elastic Constant Matrix: (Units=GPa)
#
#
# Indices 1 2 3 4 5 6 
#
# 1 136.1171 65.8658 31.1909 0.0000 0.0000 0.0000
# 2 65.8658 176.1103 36.5689 0.0000 0.0000 0.0000
# 3 31.1909 36.5689 101.7068 0.0000 0.0000 0.0000
# 4 0.0000 0.0000 0.0000 23.2032 0.0000 0.0000
# 5 0.0000 0.0000 0.0000 0.0000 30.2124 0.0000
# 6 0.0000 0.0000 0.0000 0.0000 0.0000 21.6856
#
#
#
# Elastic Compliance Matrix: (Units=1/GPa)
#
#
# Indices 1 2 3 4 5 6 
#
# 1 0.009240 -0.003099 -0.001720 0.000000 0.000000 0.000000
# 2 -0.003099 0.007176 -0.001630 0.000000 0.000000 0.000000
# 3 -0.001720 -0.001630 0.010945 0.000000 0.000000 0.000000
# 4 0.000000 0.000000 0.000000 0.043097 0.000000 0.000000
# 5 0.000000 0.000000 0.000000 0.000000 0.033099 0.000000
# 6 0.000000 0.000000 0.000000 0.000000 0.000000 0.046113
#
#
# Mechanical properties :
#
#
# Convention : Reuss Voigt Hill
#
# Bulk Modulus (GPa) = 69.13141 75.68725 72.40933
# Shear Modulus (GPa) = 29.87058 33.70750 31.78904
#
# Velocity S-wave (km/s) = 3.86054 4.10100 3.98259
# Velocity P-wave (km/s) = 7.37323 7.75810 7.56811
#
# Compressibility (1/GPa) = 0.01446520
#
# Stress axis : x y z
#
# Youngs Moduli (GPa) = 108.22382 139.36098 91.36186
#
# Poissons Ratio (x) = 0.43185 0.15710
# Poissons Ratio (y) = 0.33536 0.14889
# Poissons Ratio (z) = 0.18609 0.22712
#
# Static dielectric constant tensor:
#      x y z
#    x 1.714710 0.000000 0.000000 
#    y 0.000000 1.758300 0.000000 
#    z 0.000000 0.000000 1.727780 
# 
# From -- ./inp_files/12630.got.cif
#   From: 2010.05.17/outbox.cif.g08.bks.cpg/sg50_7_cif.got.tgz:12630.got - 2010.06.03 11:33:33.
