data_PCOD9397534
_publ_section_title
;
Structure prediction by ZEFSAII (Michael W. Deem and Ramdas Pophale) SiO2 
 PCOD9397534
Probable space group: P B A N
;
_chemical_formula_sum "Si O2"
_cell_formula_units_Z 26
_cell_length_a 5.270257
_cell_length_b 16.898597
_cell_length_c 11.439383
_cell_angle_alpha 90.000000
_cell_angle_beta 90.000000
_cell_angle_gamma 90.000000
_cell_volume 1018.790868
_symmetry_space_group_name_H-M "P B A N"
_symmetry_group_IT_number 50
_space_group.IT_coordinate_system_code '2'
_symmetry_cell_setting 'orthorhombic'
loop_
_space_group_symop_operation_xyz
x,y,z
1/2-x,1/2-y,z
x,1/2-y,-z
1/2-x,y,-z
-x,-y,-z
1/2+x,1/2+y,-z
-x,1/2+y,z
1/2+x,-y,z
loop_
_atom_site_type_symbol
_atom_site_label
_atom_site_fract_x
_atom_site_fract_y
_atom_site_fract_z
Si Si1 0.750000 0.750000 0.500000
Si Si2 0.837726 0.447415 0.809538
Si Si3 0.582141 0.326456 0.693317
Si Si4 0.488672 0.842129 0.956873
O O1 0.586259 0.692724 0.417392
O O2 0.592774 0.504097 0.822107
O O3 0.777520 0.400336 0.690888
O O4 0.691829 0.378636 0.089462
O O5 0.750000 0.250000 0.710357
O O6 0.431413 0.336895 0.814414
O O7 0.489098 0.750000 0.000000
O O8 0.750000 0.883311 0.000000
#
# Coordination Sequence:
#
# PCOD9397534 Si02
#       4
#     2   8   8   8
#     4  12  26  52  78  90 144 196 260 298 378 424
#     4  10  23  43  72 108 151 188 241 293 364 438
#     4  10  27  46  74 104 141 192 251 294 367 433
#     4  10  23  42  71 110 150 188 233 293 359 438
#
# _framework density 25.520448999999999
#
# number of rings (size 3 to 8) (size 9 to 14) (size 15 to 20)
#    1.846    0.000    0.000    2.308    8.615    4.308 
#    0.000    1.538    0.000    0.000    0.000    0.000 
#    0.000    0.000    0.000    0.000    0.000    0.000 
#
# Total GULP energy -144840.626997 kJ/mol
# GULP energy per Si atom -5570.793346 kJ/mol
# Density = 2.546236 g / cm^3
# Si number density = 25.520449 Si / 1000 Ang^3
#
#
#
# Elastic Constant Matrix: (Units=GPa)
#
#
# Indices 1 2 3 4 5 6 
#
# 1 191.6496 80.1246 74.5509 0.0000 0.0000 0.0000
# 2 80.1246 190.6975 36.1406 0.0000 0.0000 0.0000
# 3 74.5509 36.1406 140.9670 0.0000 0.0000 0.0000
# 4 0.0000 0.0000 0.0000 -11.4588 0.0000 0.0000
# 5 0.0000 0.0000 0.0000 0.0000 128.1772 0.0000
# 6 0.0000 0.0000 0.0000 0.0000 0.0000 40.9751
#
#
#
# Elastic Compliance Matrix: (Units=1/GPa)
#
#
# Indices 1 2 3 4 5 6 
#
# 1 0.007593 -0.002553 -0.003361 0.000000 0.000000 0.000000
# 2 -0.002553 0.006370 -0.000283 0.000000 0.000000 0.000000
# 3 -0.003361 -0.000283 0.008944 0.000000 0.000000 0.000000
# 4 0.000000 0.000000 0.000000 -0.087269 0.000000 0.000000
# 5 0.000000 0.000000 0.000000 0.000000 0.007802 0.000000
# 6 0.000000 0.000000 0.000000 0.000000 0.000000 0.024405
#
#
# Mechanical properties :
#
#
# Convention : Reuss Voigt Hill
#
# Bulk Modulus (GPa) = 95.12202 100.54958 97.83580
# Shear Modulus (GPa) = -307.54660 53.70524 -126.92068
#
# Velocity S-wave (km/s) = -10.98961 4.59235 -7.05981
# Velocity P-wave (km/s) = 11.12092 8.22221 5.29482
#
# Compressibility (1/GPa) = 0.01051281
#
# Stress axis : x y z
#
# Youngs Moduli (GPa) = 131.70633 156.97830 111.80971
#
# Poissons Ratio (x) = 0.40080 0.37577
# Poissons Ratio (y) = 0.33628 0.03163
# Poissons Ratio (z) = 0.44264 0.04441
#
# Static dielectric constant tensor:
#      x y z
#    x 2.317580 0.000000 0.000000 
#    y 0.000000 2.027450 0.000000 
#    z 0.000000 0.000000 2.119480 
# 
# From -- ./inp_files/17448.got.cif
#   From: 2010.05.17/outbox.cif.g08.bks.cpg/sg50_9_cif.got.tgz:17448.got - 2010.06.03 11:33:33.
