data_PCOD9397555
_publ_section_title
;
Structure prediction by ZEFSAII (Michael W. Deem and Ramdas Pophale) SiO2 
 PCOD9397555
Probable space group: P B A N
;
_chemical_formula_sum "Si O2"
_cell_formula_units_Z 48
_cell_length_a 25.982877
_cell_length_b 12.031614
_cell_length_c 6.997970
_cell_angle_alpha 90.000000
_cell_angle_beta 90.000000
_cell_angle_gamma 90.000000
_cell_volume 2187.677016
_symmetry_space_group_name_H-M "P B A N"
_symmetry_group_IT_number 50
_space_group.IT_coordinate_system_code '2'
_symmetry_cell_setting 'orthorhombic'
loop_
_space_group_symop_operation_xyz
x,y,z
1/2-x,1/2-y,z
x,1/2-y,-z
1/2-x,y,-z
-x,-y,-z
1/2+x,1/2+y,-z
-x,1/2+y,z
1/2+x,-y,z
loop_
_atom_site_type_symbol
_atom_site_label
_atom_site_fract_x
_atom_site_fract_y
_atom_site_fract_z
Si Si1 0.513198 0.424692 0.808316
Si Si2 0.175093 0.082572 0.715829
Si Si3 0.169287 0.919386 0.026955
Si Si4 0.084203 0.750000 0.000000
Si Si5 0.250000 0.250000 0.500000
Si Si6 0.393146 0.451396 0.353337
Si Si7 0.919488 0.787295 0.203162
Si Si8 0.250000 0.750000 0.000000
O O1 0.547310 0.315909 0.857890
O O2 0.551025 0.492830 0.671471
O O3 0.460702 0.376130 0.721088
O O4 0.500000 0.500000 0.000000
O O5 0.215588 0.168281 0.628833
O O6 0.140622 0.034241 0.543021
O O7 0.133392 0.150400 0.837636
O O8 0.195592 0.990219 0.859290
O O9 0.210512 0.831613 0.109058
O O10 0.122936 0.847079 0.931289
O O11 0.142299 0.995651 0.185484
O O12 0.404409 0.320829 0.322116
O O13 0.941868 0.750000 0.000000
#
# Coordination Sequence:
#
# PCOD9397555 Si02
#       8
#     8   8   8   4   2   8   8   2
#     4  11  19  34  67  97 130 178 215 261 331 394
#     4  12  26  45  65  96 133 172 225 284 343 406
#     4  10  23  43  68  91 132 172 219 282 334 407
#     4   9  18  39  60  96 130 163 218 259 316 400
#     4  12  28  44  70  98 132 170 228 296 342 404
#     4  11  23  42  65  97 136 177 216 272 341 407
#     4  12  20  39  65  97 134 172 221 275 328 401
#     4  10  24  44  70 106 120 174 244 278 350 428
#
# _framework density 21.941081000000001
#
# number of rings (size 3 to 8) (size 9 to 14) (size 15 to 20)
#    0.000    1.000    5.833    1.000    2.333    0.667 
#    0.000   10.833    0.000    0.000    0.000    0.000 
#    0.000    0.000    0.000    0.000    0.000    0.000 
#
# Total GULP energy -267779.426741 kJ/mol
# GULP energy per Si atom -5578.738057 kJ/mol
# Density = 2.189114 g / cm^3
# Si number density = 21.941081 Si / 1000 Ang^3
#
#
#
# Elastic Constant Matrix: (Units=GPa)
#
#
# Indices 1 2 3 4 5 6 
#
# 1 123.6120 43.3652 24.9059 0.0000 0.0000 0.0000
# 2 43.3652 109.5584 44.3484 0.0000 0.0000 0.0000
# 3 24.9059 44.3484 82.8129 0.0000 0.0000 0.0000
# 4 0.0000 0.0000 0.0000 21.7752 0.0000 0.0000
# 5 0.0000 0.0000 0.0000 0.0000 25.0481 0.0000
# 6 0.0000 0.0000 0.0000 0.0000 0.0000 35.3910
#
#
#
# Elastic Compliance Matrix: (Units=1/GPa)
#
#
# Indices 1 2 3 4 5 6 
#
# 1 0.009468 -0.003313 -0.001073 0.000000 0.000000 0.000000
# 2 -0.003313 0.012813 -0.005865 0.000000 0.000000 0.000000
# 3 -0.001073 -0.005865 0.015539 0.000000 0.000000 0.000000
# 4 0.000000 0.000000 0.000000 0.045924 0.000000 0.000000
# 5 0.000000 0.000000 0.000000 0.000000 0.039923 0.000000
# 6 0.000000 0.000000 0.000000 0.000000 0.000000 0.028256
#
#
# Mechanical properties :
#
#
# Convention : Reuss Voigt Hill
#
# Bulk Modulus (GPa) = 57.74644 60.13581 58.94113
# Shear Modulus (GPa) = 28.05838 30.00046 29.02942
#
# Velocity S-wave (km/s) = 3.57992 3.70174 3.64134
# Velocity P-wave (km/s) = 6.59271 6.76298 6.67838
#
# Compressibility (1/GPa) = 0.01731708
#
# Stress axis : x y z
#
# Youngs Moduli (GPa) = 105.61386 78.04404 64.35331
#
# Poissons Ratio (x) = 0.25859 0.06907
# Poissons Ratio (y) = 0.34994 0.37745
# Poissons Ratio (z) = 0.11335 0.45775
#
# Static dielectric constant tensor:
#      x y z
#    x 1.846760 0.000000 0.000000 
#    y 0.000000 1.879500 0.000000 
#    z 0.000000 0.000000 1.931080 
# 
# From -- ./inp_files/16044.got.cif
#   From: 2010.05.17/outbox.cif.g08.bks.cpg/sg50_9_cif.got.tgz:16044.got - 2010.06.03 11:33:33.
