data_PCOD9397929
_publ_section_title
;
Structure prediction by ZEFSAII (Michael W. Deem and Ramdas Pophale) SiO2 
 PCOD9397929
Probable space group: P B A N
;
_chemical_formula_sum "Si O2"
_cell_formula_units_Z 64
_cell_length_a 8.871138
_cell_length_b 17.067591
_cell_length_c 20.391946
_cell_angle_alpha 90.000000
_cell_angle_beta 90.000000
_cell_angle_gamma 90.000000
_cell_volume 3087.523236
_symmetry_space_group_name_H-M "P B A N"
_symmetry_group_IT_number 50
_space_group.IT_coordinate_system_code '2'
_symmetry_cell_setting 'orthorhombic'
loop_
_space_group_symop_operation_xyz
x,y,z
1/2-x,1/2-y,z
x,1/2-y,-z
1/2-x,y,-z
-x,-y,-z
1/2+x,1/2+y,-z
-x,1/2+y,z
1/2+x,-y,z
loop_
_atom_site_type_symbol
_atom_site_label
_atom_site_fract_x
_atom_site_fract_y
_atom_site_fract_z
Si Si1 0.425042 0.778360 0.926314
Si Si2 0.005707 0.522749 0.247212
Si Si3 0.885677 0.911038 0.133871
Si Si4 0.317868 0.162472 0.429986
Si Si5 0.885028 0.048928 0.042731
Si Si6 0.557252 0.850816 0.148346
Si Si7 0.098813 0.567263 0.539549
Si Si8 0.749847 0.519030 0.339518
O O1 0.250000 0.750000 0.921406
O O2 0.489050 0.865572 0.910193
O O3 0.507294 0.736394 0.865003
O O4 0.473683 0.750000 0.000000
O O5 0.040755 0.451379 0.197809
O O6 0.094171 0.518567 0.315734
O O7 0.020017 0.603984 0.208432
O O8 0.834838 0.519335 0.270587
O O9 0.736632 0.861100 0.149613
O O10 0.818785 0.984473 0.092512
O O11 0.250000 0.250000 0.419482
O O12 0.250000 0.136266 0.500000
O O13 0.493976 0.141896 0.442579
O O14 0.271268 0.104477 0.371404
O O15 0.983093 0.108151 0.084661
O O16 0.750000 0.084911 0.000000
O O17 0.000000 0.000000 0.000000
O O18 0.250000 0.587735 0.500000
O O19 0.163802 0.530476 0.606149
O O20 0.000000 0.500000 0.500000
#
# Coordination Sequence:
#
# PCOD9397929 Si02
#       8
#     8   8   8   8   8   8   8   8
#     4  11  27  43  66  93 130 171 218 281 362 430
#     4  11  25  41  67  98 132 173 237 288 334 411
#     4  11  24  43  61  92 127 171 214 277 340 407
#     4  11  24  43  68 107 155 185 230 302 359 402
#     4  11  22  35  63  92 117 150 210 270 328 391
#     4  11  24  42  62  90 127 168 215 279 338 408
#     4  12  20  39  75 111 142 191 247 298 352 412
#     4  12  21  42  72 101 136 187 243 284 341 427
#
# _framework density 20.728590000000001
#
# number of rings (size 3 to 8) (size 9 to 14) (size 15 to 20)
#    0.000    0.750    6.250    1.125    5.250    0.500 
#    2.250    1.250    0.000    0.000    0.000    0.000 
#    0.000    0.000    0.000    0.000    0.000    0.000 
#
# Total GULP energy -356748.781784 kJ/mol
# GULP energy per Si atom -5574.199715 kJ/mol
# Density = 2.068141 g / cm^3
# Si number density = 20.728590 Si / 1000 Ang^3
#
#
#
# Elastic Constant Matrix: (Units=GPa)
#
#
# Indices 1 2 3 4 5 6 
#
# 1 116.1041 49.1436 41.2211 0.0000 0.0000 0.0000
# 2 49.1436 92.8736 34.3505 0.0000 0.0000 0.0000
# 3 41.2211 34.3505 94.3039 0.0000 0.0000 0.0000
# 4 0.0000 0.0000 0.0000 37.8708 0.0000 0.0000
# 5 0.0000 0.0000 0.0000 0.0000 45.8154 0.0000
# 6 0.0000 0.0000 0.0000 0.0000 0.0000 30.5876
#
#
#
# Elastic Compliance Matrix: (Units=1/GPa)
#
#
# Indices 1 2 3 4 5 6 
#
# 1 0.011963 -0.005081 -0.003378 0.000000 0.000000 0.000000
# 2 -0.005081 0.014601 -0.003098 0.000000 0.000000 0.000000
# 3 -0.003378 -0.003098 0.013209 0.000000 0.000000 0.000000
# 4 0.000000 0.000000 0.000000 0.026406 0.000000 0.000000
# 5 0.000000 0.000000 0.000000 0.000000 0.021827 0.000000
# 6 0.000000 0.000000 0.000000 0.000000 0.000000 0.032693
#
#
# Mechanical properties :
#
#
# Convention : Reuss Voigt Hill
#
# Bulk Modulus (GPa) = 60.02495 61.41245 60.71870
# Shear Modulus (GPa) = 33.47485 34.75919 34.11702
#
# Velocity S-wave (km/s) = 4.02296 4.09941 4.06136
# Velocity P-wave (km/s) = 7.11332 7.21790 7.16580
#
# Compressibility (1/GPa) = 0.01665974
#
# Stress axis : x y z
#
# Youngs Moduli (GPa) = 83.59184 68.48632 75.70480
#
# Poissons Ratio (x) = 0.34795 0.25577
# Poissons Ratio (y) = 0.42469 0.23452
# Poissons Ratio (z) = 0.28241 0.21216
#
# Static dielectric constant tensor:
#      x y z
#    x 1.834150 0.000000 0.000000 
#    y 0.000000 1.832630 0.000000 
#    z 0.000000 0.000000 1.646710 
# 
# From -- ./inp_files/30726.got.cif
#   From: 2010.05.17/outbox.cif.g08.bks.cpg/sg50_16_cif.got.tgz:30726.got - 2010.06.03 11:33:33.
