data_PCOD9397881
_publ_section_title
;
Structure prediction by ZEFSAII (Michael W. Deem and Ramdas Pophale) SiO2 
 PCOD9397881
Probable space group: P B A N
;
_chemical_formula_sum "Si O2"
_cell_formula_units_Z 64
_cell_length_a 13.453445
_cell_length_b 13.630510
_cell_length_c 18.181027
_cell_angle_alpha 90.000000
_cell_angle_beta 90.000000
_cell_angle_gamma 90.000000
_cell_volume 3333.987944
_symmetry_space_group_name_H-M "P B A N"
_symmetry_group_IT_number 50
_space_group.IT_coordinate_system_code '2'
_symmetry_cell_setting 'orthorhombic'
loop_
_space_group_symop_operation_xyz
x,y,z
1/2-x,1/2-y,z
x,1/2-y,-z
1/2-x,y,-z
-x,-y,-z
1/2+x,1/2+y,-z
-x,1/2+y,z
1/2+x,-y,z
loop_
_atom_site_type_symbol
_atom_site_label
_atom_site_fract_x
_atom_site_fract_y
_atom_site_fract_z
Si Si1 0.352988 0.517965 0.646641
Si Si2 0.326154 0.607001 0.804524
Si Si3 0.396275 0.831645 0.800690
Si Si4 0.480931 0.640271 0.358239
Si Si5 0.835207 0.503607 0.436356
Si Si6 0.355295 0.983394 0.038383
Si Si7 0.508740 0.847893 0.951886
Si Si8 0.493054 0.831679 0.434743
O O1 0.359830 0.553348 0.730308
O O2 0.421788 0.424868 0.632735
O O3 0.238989 0.489923 0.632531
O O4 0.398570 0.601832 0.591097
O O5 0.364055 0.718058 0.795960
O O6 0.206652 0.610593 0.812886
O O7 0.363538 0.559182 0.879482
O O8 0.439273 0.869224 0.723724
O O9 0.472665 0.837011 0.868095
O O10 0.401705 0.592678 0.416775
O O11 0.506012 0.754221 0.368908
O O12 0.750000 0.499958 0.500000
O O13 0.914337 0.592868 0.445835
O O14 0.387247 0.096309 0.042397
O O15 0.250000 0.971237 0.000000
O O16 0.429790 0.920918 0.988747
O O17 0.507577 0.750000 0.000000
O O18 0.484390 0.750000 0.500000
#
# Coordination Sequence:
#
# PCOD9397881 Si02
#       8
#     8   8   8   8   8   8   8   8
#     4  11  23  41  63  91 129 167 208 261 318 376
#     4  11  21  38  65  92 125 166 213 260 315 371
#     4  11  21  38  65  92 125 166 213 260 315 371
#     4  11  23  41  63  91 129 167 208 261 318 376
#     4  11  24  42  65  92 124 164 212 264 320 383
#     4  11  23  40  64  93 127 166 208 259 314 370
#     4  11  23  40  64  93 127 166 208 259 314 370
#     4  11  24  42  65  92 124 164 212 264 320 383
#
# _framework density 19.19623
#
# number of rings (size 3 to 8) (size 9 to 14) (size 15 to 20)
#    0.000    1.000    5.000    2.250    0.000    4.750 
#    0.000    2.500    0.000    3.000    0.000    0.000 
#    0.000    0.000    0.000    0.000    0.000    0.000 
#
# Total GULP energy -356847.280759 kJ/mol
# GULP energy per Si atom -5575.738762 kJ/mol
# Density = 1.915254 g / cm^3
# Si number density = 19.196230 Si / 1000 Ang^3
#
#
#
# Elastic Constant Matrix: (Units=GPa)
#
#
# Indices 1 2 3 4 5 6 
#
# 1 51.4018 28.2665 2.3938 0.0000 0.0000 0.0000
# 2 28.2665 91.3776 12.5327 0.0000 0.0000 0.0000
# 3 2.3938 12.5327 91.9480 0.0000 0.0000 0.0000
# 4 0.0000 0.0000 0.0000 20.3789 0.0000 0.0000
# 5 0.0000 0.0000 0.0000 0.0000 11.1060 0.0000
# 6 0.0000 0.0000 0.0000 0.0000 0.0000 20.7903
#
#
#
# Elastic Compliance Matrix: (Units=1/GPa)
#
#
# Indices 1 2 3 4 5 6 
#
# 1 0.023456 -0.007309 0.000386 0.000000 0.000000 0.000000
# 2 -0.007309 0.013429 -0.001640 0.000000 0.000000 0.000000
# 3 0.000386 -0.001640 0.011089 0.000000 0.000000 0.000000
# 4 0.000000 0.000000 0.000000 0.049070 0.000000 0.000000
# 5 0.000000 0.000000 0.000000 0.000000 0.090042 0.000000
# 6 0.000000 0.000000 0.000000 0.000000 0.000000 0.048099
#
#
# Mechanical properties :
#
#
# Convention : Reuss Voigt Hill
#
# Bulk Modulus (GPa) = 32.41720 35.67926 34.04823
# Shear Modulus (GPa) = 19.04073 23.22400 21.13237
#
# Velocity S-wave (km/s) = 3.15286 3.48202 3.32152
# Velocity P-wave (km/s) = 5.49345 5.89855 5.69960
#
# Compressibility (1/GPa) = 0.03084782
#
# Stress axis : x y z
#
# Youngs Moduli (GPa) = 42.63353 74.46361 90.17751
#
# Poissons Ratio (x) = 0.54423 -0.03477
# Poissons Ratio (y) = 0.31159 0.14791
# Poissons Ratio (z) = -0.01644 0.12213
#
# Static dielectric constant tensor:
#      x y z
#    x 1.658970 0.000000 0.000000 
#    y 0.000000 1.654140 0.000000 
#    z 0.000000 0.000000 1.710800 
# 
# From -- ./inp_files/29547.got.cif
#   From: 2010.05.17/outbox.cif.g08.bks.cpg/sg50_15_cif.got.tgz:29547.got - 2010.06.03 11:33:33.
