data_PCOD9397599
_publ_section_title
;
Structure prediction by ZEFSAII (Michael W. Deem and Ramdas Pophale) SiO2 
 PCOD9397599
Probable space group: P B A N
;
_chemical_formula_sum "Si O2"
_cell_formula_units_Z 40
_cell_length_a 15.489571
_cell_length_b 5.691573
_cell_length_c 20.662657
_cell_angle_alpha 90.000000
_cell_angle_beta 90.000000
_cell_angle_gamma 90.000000
_cell_volume 1821.620339
_symmetry_space_group_name_H-M "P B A N"
_symmetry_group_IT_number 50
_space_group.IT_coordinate_system_code '2'
_symmetry_cell_setting 'orthorhombic'
loop_
_space_group_symop_operation_xyz
x,y,z
1/2-x,1/2-y,z
x,1/2-y,-z
1/2-x,y,-z
-x,-y,-z
1/2+x,1/2+y,-z
-x,1/2+y,z
1/2+x,-y,z
loop_
_atom_site_type_symbol
_atom_site_label
_atom_site_fract_x
_atom_site_fract_y
_atom_site_fract_z
Si Si1 0.250000 0.750000 0.500000
Si Si2 0.904958 0.556532 0.705363
Si Si3 0.655473 0.865695 0.567671
Si Si4 0.397189 0.951145 0.754626
Si Si5 0.750000 0.750000 0.000000
Si Si6 0.453203 0.750000 0.000000
Si Si7 0.833485 0.101845 0.896159
O O1 0.185503 0.619421 0.453119
O O2 0.906241 0.605244 0.628398
O O3 0.865117 0.302051 0.725805
O O4 0.001447 0.548451 0.735008
O O5 0.860859 0.798768 0.729542
O O6 0.750000 0.750000 0.583556
O O7 0.623656 0.750000 0.500000
O O8 0.381572 0.969123 0.831177
O O9 0.805588 0.592263 0.050241
O O10 0.395793 0.767882 0.063768
O O11 0.500000 0.500000 0.000000
O O12 0.750000 0.250000 0.876950
#
# Coordination Sequence:
#
# PCOD9397599 Si02
#       7
#     2   8   8   8   2   4   8
#     4   8  18  36  60 102 128 184 230 304 338 420
#     4  10  23  46  65  98 143 190 233 294 357 431
#     4   9  20  37  67 100 141 185 244 290 356 420
#     4  10  26  43  69  95 142 183 233 294 359 434
#     4  12  24  52  76 104 152 178 268 306 366 450
#     4  12  28  44  77 107 144 184 232 302 370 440
#     4  12  27  49  75 109 142 195 245 305 371 444
#
# _framework density 21.958472
#
# number of rings (size 3 to 8) (size 9 to 14) (size 15 to 20)
#    0.000    1.800    2.000    0.600   14.000    1.600 
#    0.000    4.000    0.000    0.000    0.000    0.000 
#    0.000    0.000    0.000    0.000    0.000    0.000 
#
# Total GULP energy -222746.128490 kJ/mol
# GULP energy per Si atom -5568.653212 kJ/mol
# Density = 2.190849 g / cm^3
# Si number density = 21.958472 Si / 1000 Ang^3
#
#
#
# Elastic Constant Matrix: (Units=GPa)
#
#
# Indices 1 2 3 4 5 6 
#
# 1 68.4935 17.9890 49.8726 0.0000 0.0000 0.0000
# 2 17.9890 142.8633 37.9443 0.0000 0.0000 0.0000
# 3 49.8726 37.9443 179.3192 0.0000 0.0000 0.0000
# 4 0.0000 0.0000 0.0000 -1.5549 0.0000 0.0000
# 5 0.0000 0.0000 0.0000 0.0000 53.6372 0.0000
# 6 0.0000 0.0000 0.0000 0.0000 0.0000 12.1507
#
#
#
# Elastic Compliance Matrix: (Units=1/GPa)
#
#
# Indices 1 2 3 4 5 6 
#
# 1 0.018446 -0.001017 -0.004915 0.000000 0.000000 0.000000
# 2 -0.001017 0.007473 -0.001298 0.000000 0.000000 0.000000
# 3 -0.004915 -0.001298 0.007218 0.000000 0.000000 0.000000
# 4 0.000000 0.000000 0.000000 -0.643144 0.000000 0.000000
# 5 0.000000 0.000000 0.000000 0.000000 0.018644 0.000000
# 6 0.000000 0.000000 0.000000 0.000000 0.000000 0.082300
#
#
# Mechanical properties :
#
#
# Convention : Reuss Voigt Hill
#
# Bulk Modulus (GPa) = 53.54525 66.92086 60.23306
# Shear Modulus (GPa) = -10.23798 31.83794 10.79998
#
# Velocity S-wave (km/s) = -2.16161 3.81191 2.22015
# Velocity P-wave (km/s) = 4.26704 7.06516 5.83627
#
# Compressibility (1/GPa) = 0.01867579
#
# Stress axis : x y z
#
# Youngs Moduli (GPa) = 54.21276 133.82196 138.53634
#
# Poissons Ratio (x) = 0.13613 0.68090
# Poissons Ratio (y) = 0.05515 0.17986
# Poissons Ratio (z) = 0.26645 0.17374
#
# Static dielectric constant tensor:
#      x y z
#    x 1.849770 0.000000 0.000000 
#    y 0.000000 1.884930 0.000000 
#    z 0.000000 0.000000 1.811770 
# 
# From -- ./inp_files/29635.got.cif
#   From: 2010.05.17/outbox.cif.g08.bks.cpg/sg50_15_cif.got.tgz:29635.got - 2010.06.03 11:33:33.
