data_PCOD9397347
_publ_section_title
;
Structure prediction by ZEFSAII (Michael W. Deem and Ramdas Pophale) SiO2 
 PCOD9397347
Probable space group: P B A N
;
_chemical_formula_sum "Si O2"
_cell_formula_units_Z 32
_cell_length_a 12.204732
_cell_length_b 8.823062
_cell_length_c 14.881813
_cell_angle_alpha 90.000000
_cell_angle_beta 90.000000
_cell_angle_gamma 90.000000
_cell_volume 1602.519864
_symmetry_space_group_name_H-M "P B A N"
_symmetry_group_IT_number 50
_space_group.IT_coordinate_system_code '2'
_symmetry_cell_setting 'orthorhombic'
loop_
_space_group_symop_operation_xyz
x,y,z
1/2-x,1/2-y,z
x,1/2-y,-z
1/2-x,y,-z
-x,-y,-z
1/2+x,1/2+y,-z
-x,1/2+y,z
1/2+x,-y,z
loop_
_atom_site_type_symbol
_atom_site_label
_atom_site_fract_x
_atom_site_fract_y
_atom_site_fract_z
Si Si1 0.451578 0.575916 0.207304
Si Si2 0.907734 0.477175 0.619874
Si Si3 0.551735 0.750000 0.500000
Si Si4 0.124796 0.219223 0.106157
Si Si5 0.250000 0.750000 0.708319
O O1 0.511482 0.512273 0.296475
O O2 0.407529 0.446190 0.141326
O O3 0.544004 0.668369 0.156233
O O4 0.351110 0.683907 0.235161
O O5 0.885889 0.633118 0.565791
O O6 0.799013 0.389912 0.651480
O O7 0.973875 0.358626 0.558577
O O8 0.250000 0.250000 0.132032
O O9 0.114640 0.250000 0.000000
#
# Coordination Sequence:
#
# PCOD9397347 Si02
#       5
#     8   8   4   8   4
#     4  12  23  46  70 101 139 183 229 283 354 419
#     4  11  22  43  68  98 139 180 227 289 342 421
#     4  10  22  43  67  96 138 174 235 283 346 402
#     4  11  25  44  71 102 139 177 231 287 344 415
#     4  12  24  41  75 100 138 194 230 284 357 423
#
# _framework density 19.968551999999999
#
# number of rings (size 3 to 8) (size 9 to 14) (size 15 to 20)
#    0.000    0.750    5.000    2.250    0.000    0.500 
#    0.000    1.250    0.000    0.000    0.000    0.000 
#    0.000    0.000    0.000    0.000    0.000    0.000 
#
# Total GULP energy -178942.095376 kJ/mol
# GULP energy per Si atom -5591.940480 kJ/mol
# Density = 1.992310 g / cm^3
# Si number density = 19.968552 Si / 1000 Ang^3
#
#
#
# Elastic Constant Matrix: (Units=GPa)
#
#
# Indices 1 2 3 4 5 6 
#
# 1 156.9865 81.7149 79.3975 0.0000 0.0000 0.0000
# 2 81.7149 162.2163 69.8283 0.0000 0.0000 0.0000
# 3 79.3975 69.8283 79.8718 0.0000 0.0000 0.0000
# 4 0.0000 0.0000 0.0000 31.5971 0.0000 0.0000
# 5 0.0000 0.0000 0.0000 0.0000 -57.6897 0.0000
# 6 0.0000 0.0000 0.0000 0.0000 0.0000 44.9905
#
#
#
# Elastic Compliance Matrix: (Units=1/GPa)
#
#
# Indices 1 2 3 4 5 6 
#
# 1 0.013061 -0.001588 -0.011595 0.000000 0.000000 0.000000
# 2 -0.001588 0.010078 -0.007232 0.000000 0.000000 0.000000
# 3 -0.011595 -0.007232 0.030369 0.000000 0.000000 0.000000
# 4 0.000000 0.000000 0.000000 0.031648 0.000000 0.000000
# 5 0.000000 0.000000 0.000000 0.000000 -0.017334 0.000000
# 6 0.000000 0.000000 0.000000 0.000000 0.000000 0.022227
#
#
# Mechanical properties :
#
#
# Convention : Reuss Voigt Hill
#
# Bulk Modulus (GPa) = 78.87988 95.66176 87.27082
# Shear Modulus (GPa) = 37.00865 14.98849 25.99857
#
# Velocity S-wave (km/s) = 4.30972 2.74269 3.61220
# Velocity P-wave (km/s) = 8.02202 7.61840 7.82281
#
# Compressibility (1/GPa) = 0.01267750
#
# Stress axis : x y z
#
# Youngs Moduli (GPa) = 76.56467 99.23011 32.92885
#
# Poissons Ratio (x) = 0.15759 0.38181
# Poissons Ratio (y) = 0.12159 0.23813
# Poissons Ratio (z) = 0.88776 0.71760
#
# Static dielectric constant tensor:
#      x y z
#    x 1.664860 0.000000 0.000000 
#    y 0.000000 1.562950 0.000000 
#    z 0.000000 0.000000 1.779370 
# 
# From -- ./inp_files/24432.got.cif
#   From: 2010.05.17/outbox.cif.g08.bks.cpg/sg50_13_cif.got.tgz:24432.got - 2010.06.03 11:33:33.
