data_PCOD9397612
_publ_section_title
;
Structure prediction by ZEFSAII (Michael W. Deem and Ramdas Pophale) SiO2 
 PCOD9397612
Probable space group: P B A N
;
_chemical_formula_sum "Si O2"
_cell_formula_units_Z 28
_cell_length_a 19.619297
_cell_length_b 11.227305
_cell_length_c 4.842801
_cell_angle_alpha 90.000000
_cell_angle_beta 90.000000
_cell_angle_gamma 90.000000
_cell_volume 1066.732645
_symmetry_space_group_name_H-M "P B A N"
_symmetry_group_IT_number 50
_space_group.IT_coordinate_system_code '2'
_symmetry_cell_setting 'orthorhombic'
loop_
_space_group_symop_operation_xyz
x,y,z
1/2-x,1/2-y,z
x,1/2-y,-z
1/2-x,y,-z
-x,-y,-z
1/2+x,1/2+y,-z
-x,1/2+y,z
1/2+x,-y,z
loop_
_atom_site_type_symbol
_atom_site_label
_atom_site_fract_x
_atom_site_fract_y
_atom_site_fract_z
Si Si1 0.648240 0.579435 0.677170
Si Si2 0.750000 0.750000 0.000000
Si Si3 0.650340 0.423249 0.197722
Si Si4 0.499443 0.873875 0.164954
Si Si5 0.250000 0.750000 0.500000
O O1 0.699201 0.672482 0.810319
O O2 0.666900 0.541608 0.370665
O O3 0.569806 0.622721 0.668640
O O4 0.650560 0.462571 0.878931
O O5 0.575470 0.380005 0.295594
O O6 0.703738 0.328300 0.298505
O O7 0.501150 0.750000 0.000000
O O8 0.500000 0.000000 0.000000
#
# Coordination Sequence:
#
# PCOD9397612 Si02
#       5
#     8   2   8   8   2
#     4  11  25  48  71 112 146 201 248 319 377 458
#     4  12  24  46  80 104 160 192 260 310 398 462
#     4  11  27  46  72 106 152 194 257 311 385 451
#     4  10  23  48  76 112 148 199 253 314 374 451
#     4  12  28  46  76 108 152 200 248 318 382 462
#
# _framework density 26.248377999999999
#
# number of rings (size 3 to 8) (size 9 to 14) (size 15 to 20)
#    0.000    1.143    1.429    2.571    8.000    3.429 
#    0.000    0.000    0.000    0.000    0.000    0.000 
#    0.000    0.000    0.000    0.000    0.000    0.000 
#
# Total GULP energy -157107.367393 kJ/mol
# GULP energy per Si atom -5610.977407 kJ/mol
# Density = 2.618864 g / cm^3
# Si number density = 26.248378 Si / 1000 Ang^3
#
#
#
# Elastic Constant Matrix: (Units=GPa)
#
#
# Indices 1 2 3 4 5 6 
#
# 1 210.8878 56.8431 19.7490 0.0000 0.0000 0.0000
# 2 56.8431 143.6234 30.2434 0.0000 0.0000 0.0000
# 3 19.7490 30.2434 93.5410 0.0000 0.0000 0.0000
# 4 0.0000 0.0000 0.0000 31.8561 0.0000 0.0000
# 5 0.0000 0.0000 0.0000 0.0000 32.8013 0.0000
# 6 0.0000 0.0000 0.0000 0.0000 0.0000 104.8126
#
#
#
# Elastic Compliance Matrix: (Units=1/GPa)
#
#
# Indices 1 2 3 4 5 6 
#
# 1 0.005328 -0.002008 -0.000475 0.000000 0.000000 0.000000
# 2 -0.002008 0.008228 -0.002236 0.000000 0.000000 0.000000
# 3 -0.000475 -0.002236 0.011514 0.000000 0.000000 0.000000
# 4 0.000000 0.000000 0.000000 0.031391 0.000000 0.000000
# 5 0.000000 0.000000 0.000000 0.000000 0.030487 0.000000
# 6 0.000000 0.000000 0.000000 0.000000 0.000000 0.009541
#
#
# Mechanical properties :
#
#
# Convention : Reuss Voigt Hill
#
# Bulk Modulus (GPa) = 63.98131 73.52480 68.75305
# Shear Modulus (GPa) = 44.98863 56.64179 50.81521
#
# Velocity S-wave (km/s) = 4.14449 4.65038 4.40470
# Velocity P-wave (km/s) = 6.87973 7.54365 7.21932
#
# Compressibility (1/GPa) = 0.01562956
#
# Stress axis : x y z
#
# Youngs Moduli (GPa) = 187.69630 121.52891 86.85125
#
# Poissons Ratio (x) = 0.24409 0.04129
# Poissons Ratio (y) = 0.37699 0.19423
# Poissons Ratio (z) = 0.08924 0.27178
#
# Static dielectric constant tensor:
#      x y z
#    x 2.052970 0.000000 0.000000 
#    y 0.000000 2.147580 0.000000 
#    z 0.000000 0.000000 2.087340 
# 
# From -- ./inp_files/4878.got.cif
#   From: 2010.05.17/outbox.cif.g08.bks.cpg/sg50_3_cif.got.tgz:4878.got - 2010.06.03 11:33:33.
