data_PCOD9397389
_publ_section_title
;
Structure prediction by ZEFSAII (Michael W. Deem and Ramdas Pophale) SiO2 
 PCOD9397389
Probable space group: P B A N
;
_chemical_formula_sum "Si O2"
_cell_formula_units_Z 32
_cell_length_a 12.141313
_cell_length_b 15.067970
_cell_length_c 7.086931
_cell_angle_alpha 90.000000
_cell_angle_beta 90.000000
_cell_angle_gamma 90.000000
_cell_volume 1296.518167
_symmetry_space_group_name_H-M "P B A N"
_symmetry_group_IT_number 50
_space_group.IT_coordinate_system_code '2'
_symmetry_cell_setting 'orthorhombic'
loop_
_space_group_symop_operation_xyz
x,y,z
1/2-x,1/2-y,z
x,1/2-y,-z
1/2-x,y,-z
-x,-y,-z
1/2+x,1/2+y,-z
-x,1/2+y,z
1/2+x,-y,z
loop_
_atom_site_type_symbol
_atom_site_label
_atom_site_fract_x
_atom_site_fract_y
_atom_site_fract_z
Si Si1 0.750000 0.250000 0.500000
Si Si2 0.423805 0.795069 0.209689
Si Si3 0.250000 0.250000 0.000000
Si Si4 0.951973 0.522358 0.291191
Si Si5 0.420553 0.142084 0.245949
Si Si6 0.750000 0.945080 0.500000
O O1 0.678836 0.191806 0.649001
O O2 0.500108 0.883235 0.220181
O O3 0.492154 0.715310 0.300544
O O4 0.399991 0.750000 0.000000
O O5 0.334058 0.314288 0.894274
O O6 0.819575 0.511275 0.326082
O O7 0.000000 0.500000 0.500000
O O8 0.011378 0.443301 0.177297
O O9 0.343993 0.116137 0.417752
#
# Coordination Sequence:
#
# PCOD9397389 Si02
#       6
#     2   8   2   8   8   4
#     4  12  26  50  76 102 152 226 246 346 412 474
#     4  12  27  49  73 114 158 203 277 334 407 495
#     4  12  24  46  68 114 146 210 232 324 404 448
#     4  10  24  45  75 114 151 206 266 339 401 484
#     4  11  25  46  73 108 152 195 262 330 395 483
#     4  10  22  44  76 110 138 206 258 320 414 464
#
# _framework density 24.681488999999999
#
# number of rings (size 3 to 8) (size 9 to 14) (size 15 to 20)
#    0.000    1.000    1.250    4.875    0.000   15.500 
#    4.500    0.000    0.000    0.000    0.000    0.000 
#    0.000    0.000    0.000    0.000    0.000    0.000 
#
# Total GULP energy -178387.884586 kJ/mol
# GULP energy per Si atom -5574.621393 kJ/mol
# Density = 2.462531 g / cm^3
# Si number density = 24.681489 Si / 1000 Ang^3
#
#
#
# Elastic Constant Matrix: (Units=GPa)
#
#
# Indices 1 2 3 4 5 6 
#
# 1 124.3746 53.7819 49.0135 0.0000 0.0000 0.0000
# 2 53.7819 170.9320 35.8354 0.0000 0.0000 0.0000
# 3 49.0135 35.8354 128.0691 0.0000 0.0000 0.0000
# 4 0.0000 0.0000 0.0000 34.4548 0.0000 0.0000
# 5 0.0000 0.0000 0.0000 0.0000 19.7541 0.0000
# 6 0.0000 0.0000 0.0000 0.0000 0.0000 38.2878
#
#
#
# Elastic Compliance Matrix: (Units=1/GPa)
#
#
# Indices 1 2 3 4 5 6 
#
# 1 0.010456 -0.002604 -0.003273 0.000000 0.000000 0.000000
# 2 -0.002604 0.006863 -0.000924 0.000000 0.000000 0.000000
# 3 -0.003273 -0.000924 0.009319 0.000000 0.000000 0.000000
# 4 0.000000 0.000000 0.000000 0.029024 0.000000 0.000000
# 5 0.000000 0.000000 0.000000 0.000000 0.050622 0.000000
# 6 0.000000 0.000000 0.000000 0.000000 0.000000 0.026118
#
#
# Mechanical properties :
#
#
# Convention : Reuss Voigt Hill
#
# Bulk Modulus (GPa) = 76.70348 77.84861 77.27605
# Shear Modulus (GPa) = 33.25582 37.48232 35.36907
#
# Velocity S-wave (km/s) = 3.67468 3.90120 3.78963
# Velocity P-wave (km/s) = 7.01064 7.20432 7.10814
#
# Compressibility (1/GPa) = 0.01303722
#
# Stress axis : x y z
#
# Youngs Moduli (GPa) = 95.63933 145.70458 107.30226
#
# Poissons Ratio (x) = 0.37937 0.35121
# Poissons Ratio (y) = 0.24901 0.09914
# Poissons Ratio (z) = 0.31303 0.13463
#
# Static dielectric constant tensor:
#      x y z
#    x 2.192940 0.000000 0.000000 
#    y 0.000000 1.247030 0.000000 
#    z 0.000000 0.000000 2.180640 
# 
# From -- ./inp_files/10780.got.cif
#   From: 2010.05.17/outbox.cif.g08.bks.cpg/sg50_6_cif.got.tgz:10780.got - 2010.06.03 11:33:33.
