data_PCOD9397862
_publ_section_title
;
Structure prediction by ZEFSAII (Michael W. Deem and Ramdas Pophale) SiO2 
 PCOD9397862
Probable space group: P B A N
;
_chemical_formula_sum "Si O2"
_cell_formula_units_Z 40
_cell_length_a 30.034339
_cell_length_b 7.628272
_cell_length_c 7.852463
_cell_angle_alpha 90.000000
_cell_angle_beta 90.000000
_cell_angle_gamma 90.000000
_cell_volume 1799.078640
_symmetry_space_group_name_H-M "P B A N"
_symmetry_group_IT_number 50
_space_group.IT_coordinate_system_code '2'
_symmetry_cell_setting 'orthorhombic'
loop_
_space_group_symop_operation_xyz
x,y,z
1/2-x,1/2-y,z
x,1/2-y,-z
1/2-x,y,-z
-x,-y,-z
1/2+x,1/2+y,-z
-x,1/2+y,z
1/2+x,-y,z
loop_
_atom_site_type_symbol
_atom_site_label
_atom_site_fract_x
_atom_site_fract_y
_atom_site_fract_z
Si Si1 0.452447 0.118505 0.656830
Si Si2 0.628360 0.518360 0.181317
Si Si3 0.199531 0.729879 0.792210
Si Si4 0.970882 0.956275 0.166521
Si Si5 0.138360 0.078492 0.225237
O O1 0.449553 0.250000 0.500000
O O2 0.456873 0.254759 0.814800
O O3 0.406476 0.016437 0.680123
O O4 0.495311 0.999946 0.681091
O O5 0.663522 0.379377 0.252996
O O6 0.577004 0.453081 0.194977
O O7 0.639115 0.711945 0.256609
O O8 0.633045 0.545791 0.977392
O O9 0.250000 0.750000 0.731374
O O10 0.180197 0.542613 0.733406
O O11 0.201068 0.750000 0.000000
O O12 0.000000 0.000000 0.000000
#
# Coordination Sequence:
#
# PCOD9397862 Si02
#       5
#     8   8   8   8   8
#     4  11  23  36  52  83 121 156 200 247 302 353
#     4   9  18  32  52  81 109 148 198 235 292 356
#     4   9  18  31  52  82 113 143 185 244 308 353
#     4  11  21  35  57  81 111 160 203 241 290 357
#     4   9  18  33  52  76 113 150 187 241 293 357
#
# _framework density 22.233602000000001
#
# number of rings (size 3 to 8) (size 9 to 14) (size 15 to 20)
#    0.000    2.200    2.000    1.200    2.800    2.400 
#    0.000    4.000    0.000    0.000    0.000   16.800 
#    0.000    0.000    0.000    0.000    0.000    0.000 
#
# Total GULP energy -222972.041184 kJ/mol
# GULP energy per Si atom -5574.301030 kJ/mol
# Density = 2.218300 g / cm^3
# Si number density = 22.233602 Si / 1000 Ang^3
#
#
#
# Elastic Constant Matrix: (Units=GPa)
#
#
# Indices 1 2 3 4 5 6 
#
# 1 231.9083 77.4414 18.3013 0.0000 0.0000 0.0000
# 2 77.4414 64.3352 8.3927 0.0000 0.0000 0.0000
# 3 18.3013 8.3927 54.0192 0.0000 0.0000 0.0000
# 4 0.0000 0.0000 0.0000 15.5779 0.0000 0.0000
# 5 0.0000 0.0000 0.0000 0.0000 -2.6788 0.0000
# 6 0.0000 0.0000 0.0000 0.0000 0.0000 45.1794
#
#
#
# Elastic Compliance Matrix: (Units=1/GPa)
#
#
# Indices 1 2 3 4 5 6 
#
# 1 0.007277 -0.008612 -0.001127 0.000000 0.000000 0.000000
# 2 -0.008612 0.026058 -0.001131 0.000000 0.000000 0.000000
# 3 -0.001127 -0.001131 0.019070 0.000000 0.000000 0.000000
# 4 0.000000 0.000000 0.000000 0.064194 0.000000 0.000000
# 5 0.000000 0.000000 0.000000 0.000000 -0.373301 0.000000
# 6 0.000000 0.000000 0.000000 0.000000 0.000000 0.022134
#
#
# Mechanical properties :
#
#
# Convention : Reuss Voigt Hill
#
# Bulk Modulus (GPa) = 32.61181 62.05928 47.33554
# Shear Modulus (GPa) = -24.67826 28.02418 1.67296
#
# Velocity S-wave (km/s) = -3.33521 3.55412 0.86838
# Velocity P-wave (km/s) = 0.36312 6.69443 4.72671
#
# Compressibility (1/GPa) = 0.03066374
#
# Stress axis : x y z
#
# Youngs Moduli (GPa) = 137.42047 38.37608 52.43963
#
# Poissons Ratio (x) = 0.33051 0.05912
# Poissons Ratio (y) = 1.18351 0.05929
# Poissons Ratio (z) = 0.15492 0.04339
#
# Static dielectric constant tensor:
#      x y z
#    x 1.885790 0.000000 0.000000 
#    y 0.000000 1.749870 0.000000 
#    z 0.000000 0.000000 2.018370 
# 
# From -- ./inp_files/9504.got.cif
#   From: 2010.05.17/outbox.cif.g08.bks.cpg/sg50_5_cif.got.tgz:9504.got - 2010.06.03 11:33:33.
