data_PCOD9397766
_publ_section_title
;
Structure prediction by ZEFSAII (Michael W. Deem and Ramdas Pophale) SiO2 
 PCOD9397766
Probable space group: P B A N
;
_chemical_formula_sum "Si O2"
_cell_formula_units_Z 34
_cell_length_a 5.062404
_cell_length_b 19.417350
_cell_length_c 14.353515
_cell_angle_alpha 90.000000
_cell_angle_beta 90.000000
_cell_angle_gamma 90.000000
_cell_volume 1410.928568
_symmetry_space_group_name_H-M "P B A N"
_symmetry_group_IT_number 50
_space_group.IT_coordinate_system_code '2'
_symmetry_cell_setting 'orthorhombic'
loop_
_space_group_symop_operation_xyz
x,y,z
1/2-x,1/2-y,z
x,1/2-y,-z
1/2-x,y,-z
-x,-y,-z
1/2+x,1/2+y,-z
-x,1/2+y,z
1/2+x,-y,z
loop_
_atom_site_type_symbol
_atom_site_label
_atom_site_fract_x
_atom_site_fract_y
_atom_site_fract_z
Si Si1 0.250000 0.250000 0.708661
Si Si2 0.416476 0.348317 0.857625
Si Si3 0.008800 0.844386 0.434790
Si Si4 0.664326 0.047763 0.280502
Si Si5 0.750000 0.547776 0.000000
Si Si6 0.250000 0.750000 0.000000
O O1 0.225477 0.311434 0.782857
O O2 0.040524 0.217391 0.638231
O O3 0.620118 0.395598 0.800030
O O4 0.243097 0.401687 0.913690
O O5 0.567362 0.297035 0.930324
O O6 0.750000 0.854061 0.500000
O O7 0.090927 0.911415 0.375149
O O8 0.250000 0.828270 0.500000
O O9 0.951131 0.013902 0.274563
O O10 0.500000 0.500000 0.000000
#
# Coordination Sequence:
#
# PCOD9397766 Si02
#       6
#     4   8   8   8   4   2
#     4  10  25  45  70 102 150 194 244 305 371 444
#     4  11  25  45  71 109 148 195 247 304 373 436
#     4  11  25  45  72 107 143 188 243 303 369 438
#     4  11  25  46  73 104 144 189 240 300 365 438
#     4  12  25  45  74 107 149 196 250 306 364 444
#     4  12  26  46  80 114 156 198 256 316 372 450
#
# _framework density 24.097605000000001
#
# number of rings (size 3 to 8) (size 9 to 14) (size 15 to 20)
#    0.000    0.941    0.000    5.294    0.000   14.118 
#    0.000    0.000    0.000    0.000    0.000    0.000 
#    0.000    0.000    0.000    0.000    0.000    0.000 
#
# Total GULP energy -190331.772568 kJ/mol
# GULP energy per Si atom -5597.993311 kJ/mol
# Density = 2.404276 g / cm^3
# Si number density = 24.097605 Si / 1000 Ang^3
#
#
#
# Elastic Constant Matrix: (Units=GPa)
#
#
# Indices 1 2 3 4 5 6 
#
# 1 99.8030 42.6115 51.3813 0.0000 0.0000 0.0000
# 2 42.6115 141.0564 85.6389 0.0000 0.0000 0.0000
# 3 51.3813 85.6389 179.9779 0.0000 0.0000 0.0000
# 4 0.0000 0.0000 0.0000 19.6217 0.0000 0.0000
# 5 0.0000 0.0000 0.0000 0.0000 11.2364 0.0000
# 6 0.0000 0.0000 0.0000 0.0000 0.0000 3.3537
#
#
#
# Elastic Compliance Matrix: (Units=1/GPa)
#
#
# Indices 1 2 3 4 5 6 
#
# 1 0.012218 -0.002212 -0.002435 0.000000 0.000000 0.000000
# 2 -0.002212 0.010370 -0.004303 0.000000 0.000000 0.000000
# 3 -0.002435 -0.004303 0.008299 0.000000 0.000000 0.000000
# 4 0.000000 0.000000 0.000000 0.050964 0.000000 0.000000
# 5 0.000000 0.000000 0.000000 0.000000 0.088997 0.000000
# 6 0.000000 0.000000 0.000000 0.000000 0.000000 0.298180
#
#
# Mechanical properties :
#
#
# Convention : Reuss Voigt Hill
#
# Bulk Modulus (GPa) = 77.00613 86.67786 81.84199
# Shear Modulus (GPa) = 10.17797 22.92272 16.55034
#
# Velocity S-wave (km/s) = 2.05738 3.08757 2.62354
# Velocity P-wave (km/s) = 6.13751 6.98272 6.57371
#
# Compressibility (1/GPa) = 0.01298598
#
# Stress axis : x y z
#
# Youngs Moduli (GPa) = 81.84559 96.43193 120.49783
#
# Poissons Ratio (x) = 0.21334 0.29346
# Poissons Ratio (y) = 0.18107 0.51847
# Poissons Ratio (z) = 0.19933 0.41492
#
# Static dielectric constant tensor:
#      x y z
#    x 1.401310 0.000000 0.000000 
#    y 0.000000 1.972870 0.000000 
#    z 0.000000 0.000000 1.624990 
# 
# From -- ./inp_files/23737.got.cif
#   From: 2010.05.17/outbox.cif.g08.bks.cpg/sg50_12_cif.got.tgz:23737.got - 2010.06.03 11:33:33.
