data_PCOD9397113
_publ_section_title
;
Structure prediction by ZEFSAII (Michael W. Deem and Ramdas Pophale) SiO2 
 PCOD9397113
Probable space group: P B A N
;
_chemical_formula_sum "Si O2"
_cell_formula_units_Z 34
_cell_length_a 4.959376
_cell_length_b 10.845095
_cell_length_c 23.813254
_cell_angle_alpha 90.000000
_cell_angle_beta 90.000000
_cell_angle_gamma 90.000000
_cell_volume 1280.793577
_symmetry_space_group_name_H-M "P B A N"
_symmetry_group_IT_number 50
_space_group.IT_coordinate_system_code '2'
_symmetry_cell_setting 'orthorhombic'
loop_
_space_group_symop_operation_xyz
x,y,z
1/2-x,1/2-y,z
x,1/2-y,-z
1/2-x,y,-z
-x,-y,-z
1/2+x,1/2+y,-z
-x,1/2+y,z
1/2+x,-y,z
loop_
_atom_site_type_symbol
_atom_site_label
_atom_site_fract_x
_atom_site_fract_y
_atom_site_fract_z
Si Si1 0.419858 0.590177 0.675504
Si Si2 0.453190 0.584336 0.910950
Si Si3 0.238522 0.919207 0.436224
Si Si4 0.250000 0.250000 0.000000
Si Si5 0.564411 0.587320 0.789950
O O1 0.636973 0.480343 0.677688
O O2 0.395791 0.651234 0.614384
O O3 0.490595 0.660391 0.733011
O O4 0.148113 0.536473 0.913558
O O5 0.506446 0.646241 0.850177
O O6 0.557236 0.668695 0.960616
O O7 0.250000 0.874815 0.500000
O O8 0.424386 0.043811 0.431895
O O9 0.863783 0.531897 0.789301
#
# Coordination Sequence:
#
# PCOD9397113 Si02
#       5
#     8   8   8   2   8
#     4   8  12  18  30  46  65  96 135 175 220 265
#     4  10  22  38  55  78 105 132 168 214 262 321
#     4   8  12  16  22  36  60  89 125 171 213 254
#     4  12  24  38  60  80 104 138 168 210 278 332
#     4   8  14  26  42  59  82 111 146 192 235 280
#
# _framework density 26.546043000000001
#
# number of rings (size 3 to 8) (size 9 to 14) (size 15 to 20)
#    0.000    3.294    0.000    0.706    0.000    1.882 
#    0.000    0.000    0.000    0.000    0.000    0.000 
#    0.000    0.000    0.000    0.000    0.000    0.000 
#
# Total GULP energy -189612.136837 kJ/mol
# GULP energy per Si atom -5576.827554 kJ/mol
# Density = 2.648562 g / cm^3
# Si number density = 26.546043 Si / 1000 Ang^3
#
#
#
# Elastic Constant Matrix: (Units=GPa)
#
#
# Indices 1 2 3 4 5 6 
#
# 1 132.0800 24.3121 21.9936 0.0000 0.0000 0.0000
# 2 24.3121 34.9340 15.3936 0.0000 0.0000 0.0000
# 3 21.9936 15.3936 271.7869 0.0000 0.0000 0.0000
# 4 0.0000 0.0000 0.0000 -109.2956 0.0000 0.0000
# 5 0.0000 0.0000 0.0000 0.0000 48.7827 0.0000
# 6 0.0000 0.0000 0.0000 0.0000 0.0000 15.1573
#
#
#
# Elastic Compliance Matrix: (Units=1/GPa)
#
#
# Indices 1 2 3 4 5 6 
#
# 1 0.008720 -0.005905 -0.000371 0.000000 0.000000 0.000000
# 2 -0.005905 0.033357 -0.001411 0.000000 0.000000 0.000000
# 3 -0.000371 -0.001411 0.003789 0.000000 0.000000 0.000000
# 4 0.000000 0.000000 0.000000 -0.009150 0.000000 0.000000
# 5 0.000000 0.000000 0.000000 0.000000 0.020499 0.000000
# 6 0.000000 0.000000 0.000000 0.000000 0.000000 0.065975
#
#
# Mechanical properties :
#
#
# Convention : Reuss Voigt Hill
#
# Bulk Modulus (GPa) = 32.79670 62.46661 47.63165
# Shear Modulus (GPa) = 33.61809 16.06899 24.84354
#
# Velocity S-wave (km/s) = 3.56252 2.46301 3.06251
# Velocity P-wave (km/s) = 5.41328 5.62770 5.52153
#
# Compressibility (1/GPa) = 0.03049088
#
# Stress axis : x y z
#
# Youngs Moduli (GPa) = 114.67998 29.97884 263.89874
#
# Poissons Ratio (x) = 0.17703 0.09796
# Poissons Ratio (y) = 0.67719 0.37248
# Poissons Ratio (z) = 0.04257 0.04231
#
# Static dielectric constant tensor:
#      x y z
#    x 1.956260 0.000000 0.000000 
#    y 0.000000 2.012740 0.000000 
#    z 0.000000 0.000000 2.325350 
# 
# From -- ./inp_files/31977.got.cif
#   From: 2010.05.17/outbox.cif.g08.bks.cpg/sg50_16_cif.got.tgz:31977.got - 2010.06.03 11:33:33.
