data_PCOD9397527
_publ_section_title
;
Structure prediction by ZEFSAII (Michael W. Deem and Ramdas Pophale) SiO2 
 PCOD9397527
Probable space group: P B A N
;
_chemical_formula_sum "Si O2"
_cell_formula_units_Z 58
_cell_length_a 17.155546
_cell_length_b 19.331506
_cell_length_c 8.372351
_cell_angle_alpha 90.000000
_cell_angle_beta 90.000000
_cell_angle_gamma 90.000000
_cell_volume 2776.627755
_symmetry_space_group_name_H-M "P B A N"
_symmetry_group_IT_number 50
_space_group.IT_coordinate_system_code '2'
_symmetry_cell_setting 'orthorhombic'
loop_
_space_group_symop_operation_xyz
x,y,z
1/2-x,1/2-y,z
x,1/2-y,-z
1/2-x,y,-z
-x,-y,-z
1/2+x,1/2+y,-z
-x,1/2+y,z
1/2+x,-y,z
loop_
_atom_site_type_symbol
_atom_site_label
_atom_site_fract_x
_atom_site_fract_y
_atom_site_fract_z
Si Si1 0.250000 0.750000 0.000000
Si Si2 0.599038 0.425104 0.830280
Si Si3 0.546724 0.645376 0.355615
Si Si4 0.469036 0.201130 0.714193
Si Si5 0.806725 0.577716 0.781568
Si Si6 0.861375 0.587670 0.141306
Si Si7 0.763687 0.430876 0.680276
Si Si8 0.376631 0.843996 0.156892
O O1 0.305776 0.798435 0.098864
O O2 0.524762 0.394744 0.732567
O O3 0.605354 0.509542 0.830303
O O4 0.682122 0.402996 0.751188
O O5 0.598332 0.394501 0.010755
O O6 0.563318 0.721246 0.280964
O O7 0.527302 0.667194 0.537306
O O8 0.626138 0.600947 0.339913
O O9 0.422318 0.145757 0.815832
O O10 0.554313 0.204261 0.788119
O O11 0.718218 0.603891 0.759999
O O12 0.790142 0.496213 0.783030
O O13 0.838477 0.594743 0.956611
O O14 0.750000 0.453360 0.500000
O O15 0.839081 0.382930 0.692668
#
# Coordination Sequence:
#
# PCOD9397527 Si02
#       8
#     2   8   8   8   8   8   8   8
#     4  12  24  40  70 100 128 182 228 268 336 400
#     4  11  22  42  69  96 132 167 221 274 330 391
#     4  11  26  45  64  96 137 179 219 276 337 400
#     4  11  27  44  64  97 137 176 225 272 333 404
#     4  10  23  42  69  98 129 170 224 272 335 396
#     4  10  23  43  68 101 129 169 223 285 325 394
#     4  11  23  40  65 101 133 167 214 275 336 399
#     4  12  23  43  68  97 132 178 222 270 328 406
#
# _framework density 20.888648
#
# number of rings (size 3 to 8) (size 9 to 14) (size 15 to 20)
#    0.000    1.103    2.759    2.483    5.793    3.862 
#    0.000    2.759    0.000    0.000    0.000    0.000 
#    0.000    0.000    0.000    0.000    0.000    0.000 
#
# Total GULP energy -323706.315151 kJ/mol
# GULP energy per Si atom -5581.143365 kJ/mol
# Density = 2.084110 g / cm^3
# Si number density = 20.888648 Si / 1000 Ang^3
#
#
#
# Elastic Constant Matrix: (Units=GPa)
#
#
# Indices 1 2 3 4 5 6 
#
# 1 73.6140 24.7901 9.2925 0.0000 0.0000 0.0000
# 2 24.7901 57.2777 1.9551 0.0000 0.0000 0.0000
# 3 9.2925 1.9551 52.2486 0.0000 0.0000 0.0000
# 4 0.0000 0.0000 0.0000 24.3963 0.0000 0.0000
# 5 0.0000 0.0000 0.0000 0.0000 29.1187 0.0000
# 6 0.0000 0.0000 0.0000 0.0000 0.0000-1743.4672
#
#
#
# Elastic Compliance Matrix: (Units=1/GPa)
#
#
# Indices 1 2 3 4 5 6 
#
# 1 0.016256 -0.006946 -0.002631 0.000000 0.000000 0.000000
# 2 -0.006946 0.020449 0.000470 0.000000 0.000000 0.000000
# 3 -0.002631 0.000470 0.019590 0.000000 0.000000 0.000000
# 4 0.000000 0.000000 0.000000 0.040990 0.000000 0.000000
# 5 0.000000 0.000000 0.000000 0.000000 0.034342 0.000000
# 6 0.000000 0.000000 0.000000 0.000000 0.000000 -0.000574
#
#
# Mechanical properties :
#
#
# Convention : Reuss Voigt Hill
#
# Bulk Modulus (GPa) = 26.26011 28.35732 27.30872
# Shear Modulus (GPa) = 30.87194 -328.18360 -148.65583
#
# Velocity S-wave (km/s) = 3.84855 -12.54799 -8.44514
# Velocity P-wave (km/s) = 5.68747 14.01182 9.05494
#
# Compressibility (1/GPa) = 0.03808056
#
# Stress axis : x y z
#
# Youngs Moduli (GPa) = 61.51756 48.90246 51.04743
#
# Poissons Ratio (x) = 0.33966 0.13431
# Poissons Ratio (y) = 0.42728 -0.02400
# Poissons Ratio (z) = 0.16186 -0.02299
#
# Static dielectric constant tensor:
#      x y z
#    x 1.757420 0.000000 0.000000 
#    y 0.000000 2.368240 0.000000 
#    z 0.000000 0.000000 1.755840 
# 
# From -- ./inp_files/14488.got.cif
#   From: 2010.05.17/outbox.cif.g08.bks.cpg/sg50_8_cif.got.tgz:14488.got - 2010.06.03 11:33:33.
