data_PCOD9397229
_publ_section_title
;
Structure prediction by ZEFSAII (Michael W. Deem and Ramdas Pophale) SiO2 
 PCOD9397229
Probable space group: P B A N
;
_chemical_formula_sum "Si O2"
_cell_formula_units_Z 64
_cell_length_a 18.736423
_cell_length_b 11.957057
_cell_length_c 15.112543
_cell_angle_alpha 90.000000
_cell_angle_beta 90.000000
_cell_angle_gamma 90.000000
_cell_volume 3385.700454
_symmetry_space_group_name_H-M "P B A N"
_symmetry_group_IT_number 50
_space_group.IT_coordinate_system_code '2'
_symmetry_cell_setting 'orthorhombic'
loop_
_space_group_symop_operation_xyz
x,y,z
1/2-x,1/2-y,z
x,1/2-y,-z
1/2-x,y,-z
-x,-y,-z
1/2+x,1/2+y,-z
-x,1/2+y,z
1/2+x,-y,z
loop_
_atom_site_type_symbol
_atom_site_label
_atom_site_fract_x
_atom_site_fract_y
_atom_site_fract_z
Si Si1 0.065678 0.904594 0.676656
Si Si2 0.817171 0.688826 0.266041
Si Si3 0.901249 0.896222 0.188651
Si Si4 0.244911 0.433455 0.096977
Si Si5 0.332523 0.882807 0.485233
Si Si6 0.084628 0.008938 0.360648
Si Si7 0.311312 0.681489 0.092305
Si Si8 0.447659 0.677449 0.212374
O O1 0.132850 0.898547 0.611061
O O2 0.049481 0.791857 0.731436
O O3 0.084048 0.002093 0.745413
O O4 0.992899 0.935504 0.624428
O O5 0.750000 0.750000 0.311642
O O6 0.869351 0.788349 0.238054
O O7 0.785324 0.630409 0.176851
O O8 0.859232 0.599788 0.324233
O O9 0.839098 0.935598 0.122027
O O10 0.979717 0.854809 0.160928
O O11 0.281913 0.555202 0.087101
O O12 0.250000 0.379767 0.000000
O O13 0.335419 0.750000 0.500000
O O14 0.250000 0.917848 0.500000
O O15 0.381857 0.947234 0.555460
O O16 0.071283 0.919144 0.282772
O O17 0.250000 0.750000 0.143653
O O18 0.384373 0.684897 0.143226
O O19 0.319871 0.750000 0.000000
#
# Coordination Sequence:
#
# PCOD9397229 Si02
#       8
#     8   8   8   8   8   8   8   8
#     4  11  23  42  67  94 129 176 215 267 342 388
#     4  10  22  40  67  90 125 172 225 263 323 396
#     4  10  24  42  65  95 128 169 226 266 326 398
#     4  11  22  42  65  92 128 176 219 272 326 385
#     4  11  25  41  64 101 132 163 218 278 330 398
#     4  11  22  43  67  92 133 169 219 272 328 397
#     4  11  22  38  63  97 134 170 217 268 331 388
#     4  11  22  41  67  97 126 175 220 275 330 391
#
# _framework density 18.903030000000001
#
# number of rings (size 3 to 8) (size 9 to 14) (size 15 to 20)
#    0.000    1.250    5.000    1.125    3.500    3.250 
#    2.250    1.250    0.000    0.000    0.000    0.000 
#    0.000    0.000    0.000    0.000    0.000    0.000 
#
# Total GULP energy -357022.349995 kJ/mol
# GULP energy per Si atom -5578.474219 kJ/mol
# Density = 1.886001 g / cm^3
# Si number density = 18.903030 Si / 1000 Ang^3
#
#
#
# Elastic Constant Matrix: (Units=GPa)
#
#
# Indices 1 2 3 4 5 6 
#
# 1 170.0341 45.9153 51.2542 0.0000 0.0000 0.0000
# 2 45.9153 110.1793 22.5807 0.0000 0.0000 0.0000
# 3 51.2542 22.5807 57.3282 0.0000 0.0000 0.0000
# 4 0.0000 0.0000 0.0000 -3.2202 0.0000 0.0000
# 5 0.0000 0.0000 0.0000 0.0000 67.9407 0.0000
# 6 0.0000 0.0000 0.0000 0.0000 0.0000 59.2906
#
#
#
# Elastic Compliance Matrix: (Units=1/GPa)
#
#
# Indices 1 2 3 4 5 6 
#
# 1 0.008498 -0.002159 -0.006747 0.000000 0.000000 0.000000
# 2 -0.002159 0.010421 -0.002175 0.000000 0.000000 0.000000
# 3 -0.006747 -0.002175 0.024333 0.000000 0.000000 0.000000
# 4 0.000000 0.000000 0.000000 -0.310541 0.000000 0.000000
# 5 0.000000 0.000000 0.000000 0.000000 0.014719 0.000000
# 6 0.000000 0.000000 0.000000 0.000000 0.000000 0.016866
#
#
# Mechanical properties :
#
#
# Convention : Reuss Voigt Hill
#
# Bulk Modulus (GPa) = 47.41546 64.11576 55.76561
# Shear Modulus (GPa) = -24.21164 39.32167 7.55501
#
# Velocity S-wave (km/s) = -3.58276 4.56584 2.00135
# Velocity P-wave (km/s) = 2.83251 7.86052 5.90808
#
# Compressibility (1/GPa) = 0.02109017
#
# Stress axis : x y z
#
# Youngs Moduli (GPa) = 117.67555 95.95640 41.09712
#
# Poissons Ratio (x) = 0.20712 0.27730
# Poissons Ratio (y) = 0.25401 0.08939
# Poissons Ratio (z) = 0.79400 0.20870
#
# Static dielectric constant tensor:
#      x y z
#    x 1.659380 0.000000 0.000000 
#    y 0.000000 1.662950 0.000000 
#    z 0.000000 0.000000 1.635960 
# 
# From -- ./inp_files/27001.got.cif
#   From: 2010.05.17/outbox.cif.g08.bks.cpg/sg50_14_cif.got.tgz:27001.got - 2010.06.03 11:33:33.
