data_PCOD9397739
_publ_section_title
;
Structure prediction by ZEFSAII (Michael W. Deem and Ramdas Pophale) SiO2 
 PCOD9397739
Probable space group: P B A N
;
_chemical_formula_sum "Si O2"
_cell_formula_units_Z 40
_cell_length_a 10.389147
_cell_length_b 9.325398
_cell_length_c 15.192124
_cell_angle_alpha 90.000000
_cell_angle_beta 90.000000
_cell_angle_gamma 90.000000
_cell_volume 1471.857496
_symmetry_space_group_name_H-M "P B A N"
_symmetry_group_IT_number 50
_space_group.IT_coordinate_system_code '2'
_symmetry_cell_setting 'orthorhombic'
loop_
_space_group_symop_operation_xyz
x,y,z
1/2-x,1/2-y,z
x,1/2-y,-z
1/2-x,y,-z
-x,-y,-z
1/2+x,1/2+y,-z
-x,1/2+y,z
1/2+x,-y,z
loop_
_atom_site_type_symbol
_atom_site_label
_atom_site_fract_x
_atom_site_fract_y
_atom_site_fract_z
Si Si1 0.471955 0.665039 0.769030
Si Si2 0.930311 0.156070 0.588451
Si Si3 0.152896 0.395210 0.206830
Si Si4 0.125591 0.562648 0.052868
Si Si5 0.279075 0.080074 0.388523
O O1 0.676483 0.467510 0.576745
O O2 0.420314 0.739826 0.677420
O O3 0.476320 0.492577 0.772389
O O4 0.610404 0.735453 0.779578
O O5 0.924936 0.250000 0.500000
O O6 0.069672 0.079205 0.590941
O O7 0.093301 0.677738 0.132576
O O8 0.233474 0.457157 0.285453
O O9 0.182794 0.429533 0.108649
O O10 0.250000 0.608391 0.000000
O O11 0.000000 0.500000 0.000000
O O12 0.250000 0.250000 0.403069
#
# Coordination Sequence:
#
# PCOD9397739 Si02
#       5
#     8   8   8   8   8
#     4   9  23  50  82 121 168 229 284 360 444 522
#     4  11  28  59  90 132 176 237 298 369 454 542
#     4   9  23  48  81 118 171 219 286 358 443 519
#     4  10  24  48  78 119 161 223 288 354 439 532
#     4  11  28  55  89 127 174 229 291 364 444 532
#
# _framework density 27.176545000000001
#
# number of rings (size 3 to 8) (size 9 to 14) (size 15 to 20)
#    1.200    0.800    0.000    0.000   11.200    9.200 
#    7.200    6.000    0.000    0.000    0.000    0.000 
#    0.000    0.000    0.000    0.000    0.000    0.000 
#
# Total GULP energy -222730.247645 kJ/mol
# GULP energy per Si atom -5568.256191 kJ/mol
# Density = 2.711469 g / cm^3
# Si number density = 27.176545 Si / 1000 Ang^3
#
#
#
# Elastic Constant Matrix: (Units=GPa)
#
#
# Indices 1 2 3 4 5 6 
#
# 1 178.3595 57.5951 97.5583 0.0000 0.0000 0.0000
# 2 57.5951 104.6725 54.9013 0.0000 0.0000 0.0000
# 3 97.5583 54.9013 230.4018 0.0000 0.0000 0.0000
# 4 0.0000 0.0000 0.0000 41.4446 0.0000 0.0000
# 5 0.0000 0.0000 0.0000 0.0000 55.1219 0.0000
# 6 0.0000 0.0000 0.0000 0.0000 0.0000 40.1770
#
#
#
# Elastic Compliance Matrix: (Units=1/GPa)
#
#
# Indices 1 2 3 4 5 6 
#
# 1 0.008054 -0.003020 -0.002690 0.000000 0.000000 0.000000
# 2 -0.003020 0.012051 -0.001593 0.000000 0.000000 0.000000
# 3 -0.002690 -0.001593 0.005859 0.000000 0.000000 0.000000
# 4 0.000000 0.000000 0.000000 0.024129 0.000000 0.000000
# 5 0.000000 0.000000 0.000000 0.000000 0.018142 0.000000
# 6 0.000000 0.000000 0.000000 0.000000 0.000000 0.024890
#
#
# Mechanical properties :
#
#
# Convention : Reuss Voigt Hill
#
# Bulk Modulus (GPa) = 88.05414 103.72704 95.89059
# Shear Modulus (GPa) = 44.83680 47.57399 46.20539
#
# Velocity S-wave (km/s) = 4.06622 4.18850 4.12781
# Velocity P-wave (km/s) = 7.38354 7.85125 7.62098
#
# Compressibility (1/GPa) = 0.01135665
#
# Stress axis : x y z
#
# Youngs Moduli (GPa) = 124.16921 82.98176 170.67929
#
# Poissons Ratio (x) = 0.25063 0.45920
# Poissons Ratio (y) = 0.37502 0.27184
# Poissons Ratio (z) = 0.33406 0.13216
#
# Static dielectric constant tensor:
#      x y z
#    x 2.206720 0.000000 0.000000 
#    y 0.000000 2.257780 0.000000 
#    z 0.000000 0.000000 3.201350 
# 
# From -- ./inp_files/25786.got.cif
#   From: 2010.05.17/outbox.cif.g08.bks.cpg/sg50_13_cif.got.tgz:25786.got - 2010.06.03 11:33:33.
