data_PCOD9397169
_publ_section_title
;
Structure prediction by ZEFSAII (Michael W. Deem and Ramdas Pophale) SiO2 
 PCOD9397169
Probable space group: P B A N
;
_chemical_formula_sum "Si O2"
_cell_formula_units_Z 40
_cell_length_a 25.207243
_cell_length_b 10.345790
_cell_length_c 6.744724
_cell_angle_alpha 90.000000
_cell_angle_beta 90.000000
_cell_angle_gamma 90.000000
_cell_volume 1758.948765
_symmetry_space_group_name_H-M "P B A N"
_symmetry_group_IT_number 50
_space_group.IT_coordinate_system_code '2'
_symmetry_cell_setting 'orthorhombic'
loop_
_space_group_symop_operation_xyz
x,y,z
1/2-x,1/2-y,z
x,1/2-y,-z
1/2-x,y,-z
-x,-y,-z
1/2+x,1/2+y,-z
-x,1/2+y,z
1/2+x,-y,z
loop_
_atom_site_type_symbol
_atom_site_label
_atom_site_fract_x
_atom_site_fract_y
_atom_site_fract_z
Si Si1 0.048876 0.654628 0.313861
Si Si2 0.795324 0.931420 0.332264
Si Si3 0.250000 0.750000 0.000000
Si Si4 0.915120 0.872702 0.368490
Si Si5 0.535057 0.750000 0.000000
Si Si6 0.167457 0.713607 0.271210
Si Si7 0.750000 0.750000 0.000000
O O1 0.041634 0.750000 0.500000
O O2 0.055683 0.509428 0.396980
O O3 0.106021 0.694206 0.218860
O O4 0.003488 0.670827 0.148943
O O5 0.750000 0.921040 0.500000
O O6 0.853363 0.895646 0.413815
O O7 0.803009 0.076782 0.255913
O O8 0.783204 0.839820 0.147610
O O9 0.204824 0.690293 0.852614
O O10 0.931199 0.750000 0.500000
O O11 0.928161 0.836509 0.141234
O O12 0.168326 0.750000 0.500000
#
# Coordination Sequence:
#
# PCOD9397169 Si02
#       7
#     8   8   2   8   4   8   2
#     4  10  24  45  67  93 129 172 217 271 329 384
#     4  11  23  41  63  91 130 170 212 263 318 381
#     4  12  18  32  60  94 128 164 210 264 320 390
#     4  11  25  43  66  97 130 169 217 267 324 389
#     4  12  24  42  68  96 128 168 218 274 322 380
#     4  10  22  39  62  93 127 167 214 264 325 387
#     4  12  22  36  60  90 124 172 214 254 312 376
#
# _framework density 22.740856999999998
#
# number of rings (size 3 to 8) (size 9 to 14) (size 15 to 20)
#    0.000    1.200    0.000    6.000    0.000    4.800 
#    0.000   10.000    0.000    0.000    0.000    0.000 
#    0.000    0.000    0.000    0.000    0.000    0.000 
#
# Total GULP energy -223421.283503 kJ/mol
# GULP energy per Si atom -5585.532088 kJ/mol
# Density = 2.268910 g / cm^3
# Si number density = 22.740857 Si / 1000 Ang^3
#
#
#
# Elastic Constant Matrix: (Units=GPa)
#
#
# Indices 1 2 3 4 5 6 
#
# 1 172.0502 23.3695 42.7432 0.0000 0.0000 0.0000
# 2 23.3695 148.9501 48.7268 0.0000 0.0000 0.0000
# 3 42.7432 48.7268 112.0476 0.0000 0.0000 0.0000
# 4 0.0000 0.0000 0.0000 34.9286 0.0000 0.0000
# 5 0.0000 0.0000 0.0000 0.0000 16.7490 0.0000
# 6 0.0000 0.0000 0.0000 0.0000 0.0000 -15.1824
#
#
#
# Elastic Compliance Matrix: (Units=1/GPa)
#
#
# Indices 1 2 3 4 5 6 
#
# 1 0.006428 -0.000241 -0.002348 0.000000 0.000000 0.000000
# 2 -0.000241 0.007836 -0.003316 0.000000 0.000000 0.000000
# 3 -0.002348 -0.003316 0.011262 0.000000 0.000000 0.000000
# 4 0.000000 0.000000 0.000000 0.028630 0.000000 0.000000
# 5 0.000000 0.000000 0.000000 0.000000 0.059705 0.000000
# 6 0.000000 0.000000 0.000000 0.000000 0.000000 -0.065866
#
#
# Mechanical properties :
#
#
# Convention : Reuss Voigt Hill
#
# Bulk Modulus (GPa) = 72.89456 73.63632 73.26544
# Shear Modulus (GPa) = 77.66809 28.51296 53.09053
#
# Velocity S-wave (km/s) = 5.85044 3.54477 4.83700
# Velocity P-wave (km/s) = 8.81822 7.01462 7.96762
#
# Compressibility (1/GPa) = 0.01371845
#
# Stress axis : x y z
#
# Youngs Moduli (GPa) = 155.56587 127.61325 88.79142
#
# Poissons Ratio (x) = 0.03070 0.20844
# Poissons Ratio (y) = 0.03743 0.29443
# Poissons Ratio (z) = 0.36520 0.42316
#
# Static dielectric constant tensor:
#      x y z
#    x 1.877380 0.000000 0.000000 
#    y 0.000000 2.078340 0.000000 
#    z 0.000000 0.000000 1.883430 
# 
# From -- ./inp_files/6479.got.cif
#   From: 2010.05.17/outbox.cif.g08.bks.cpg/sg50_4_cif.got.tgz:6479.got - 2010.06.03 11:33:33.
