data_PCOD9397884
_publ_section_title
;
Structure prediction by ZEFSAII (Michael W. Deem and Ramdas Pophale) SiO2 
 PCOD9397884
Probable space group: P B A N
;
_chemical_formula_sum "Si O2"
_cell_formula_units_Z 48
_cell_length_a 14.767261
_cell_length_b 7.760469
_cell_length_c 17.792204
_cell_angle_alpha 90.000000
_cell_angle_beta 90.000000
_cell_angle_gamma 90.000000
_cell_volume 2039.002079
_symmetry_space_group_name_H-M "P B A N"
_symmetry_group_IT_number 50
_space_group.IT_coordinate_system_code '2'
_symmetry_cell_setting 'orthorhombic'
loop_
_space_group_symop_operation_xyz
x,y,z
1/2-x,1/2-y,z
x,1/2-y,-z
1/2-x,y,-z
-x,-y,-z
1/2+x,1/2+y,-z
-x,1/2+y,z
1/2+x,-y,z
loop_
_atom_site_type_symbol
_atom_site_label
_atom_site_fract_x
_atom_site_fract_y
_atom_site_fract_z
Si Si1 0.770530 0.543356 0.416294
Si Si2 0.461134 0.364254 0.925427
Si Si3 0.923314 0.886581 0.687325
Si Si4 0.125969 0.982887 0.704603
Si Si5 0.619850 0.555075 0.849120
Si Si6 0.694427 0.076123 0.872729
O O1 0.750000 0.750000 0.416518
O O2 0.750000 0.480373 0.500000
O O3 0.872460 0.535513 0.384710
O O4 0.704876 0.454492 0.355770
O O5 0.558316 0.430325 0.899606
O O6 0.424979 0.239902 0.860662
O O7 0.387883 0.519250 0.926195
O O8 0.459945 0.250000 0.000000
O O9 0.891533 0.689647 0.700368
O O10 0.890314 0.989141 0.761727
O O11 0.030937 0.896644 0.683638
O O12 0.155193 0.923780 0.787953
O O13 0.723089 0.558626 0.873872
O O14 0.750000 0.250000 0.889379
#
# Coordination Sequence:
#
# PCOD9397884 Si02
#       6
#     8   8   8   8   8   8
#     4   9  20  39  64  98 141 188 239 297 360 426
#     4  12  27  48  72 105 145 185 228 300 369 433
#     4  11  21  38  67  99 135 187 239 291 358 425
#     4  11  23  39  66 100 140 181 239 295 353 426
#     4  12  23  43  70 100 137 185 238 288 358 432
#     4  12  26  42  71 104 138 186 245 295 355 434
#
# _framework density 23.540925999999999
#
# number of rings (size 3 to 8) (size 9 to 14) (size 15 to 20)
#    0.000    0.833    5.000    2.000    2.333    2.000 
#    0.000    0.833    0.000    3.500    0.000    0.000 
#    0.000    0.000    0.000    0.000    0.000    0.000 
#
# Total GULP energy -268705.182768 kJ/mol
# GULP energy per Si atom -5598.024641 kJ/mol
# Density = 2.348735 g / cm^3
# Si number density = 23.540926 Si / 1000 Ang^3
#
#
#
# Elastic Constant Matrix: (Units=GPa)
#
#
# Indices 1 2 3 4 5 6 
#
# 1 147.9437 25.3905 32.1674 0.0000 0.0000 0.0000
# 2 25.3905 74.4367 30.6537 0.0000 0.0000 0.0000
# 3 32.1674 30.6537 108.6958 0.0000 0.0000 0.0000
# 4 0.0000 0.0000 0.0000 14.9254 0.0000 0.0000
# 5 0.0000 0.0000 0.0000 0.0000 21.2315 0.0000
# 6 0.0000 0.0000 0.0000 0.0000 0.0000 40.2740
#
#
#
# Elastic Compliance Matrix: (Units=1/GPa)
#
#
# Indices 1 2 3 4 5 6 
#
# 1 0.007442 -0.001846 -0.001682 0.000000 0.000000 0.000000
# 2 -0.001846 0.015657 -0.003869 0.000000 0.000000 0.000000
# 3 -0.001682 -0.003869 0.010789 0.000000 0.000000 0.000000
# 4 0.000000 0.000000 0.000000 0.067000 0.000000 0.000000
# 5 0.000000 0.000000 0.000000 0.000000 0.047100 0.000000
# 6 0.000000 0.000000 0.000000 0.000000 0.000000 0.024830
#
#
# Mechanical properties :
#
#
# Convention : Reuss Voigt Hill
#
# Bulk Modulus (GPa) = 52.37217 56.38883 54.38050
# Shear Modulus (GPa) = 25.77635 31.47714 28.62675
#
# Velocity S-wave (km/s) = 3.31261 3.66064 3.49096
# Velocity P-wave (km/s) = 6.07674 6.47090 6.27691
#
# Compressibility (1/GPa) = 0.01909411
#
# Stress axis : x y z
#
# Youngs Moduli (GPa) = 134.37640 63.86809 92.68795
#
# Poissons Ratio (x) = 0.11789 0.15588
# Poissons Ratio (y) = 0.24804 0.35864
# Poissons Ratio (z) = 0.22599 0.24713
#
# Static dielectric constant tensor:
#      x y z
#    x 1.846690 0.000000 0.000000 
#    y 0.000000 2.002260 0.000000 
#    z 0.000000 0.000000 1.879310 
# 
# From -- ./inp_files/28701.got.cif
#   From: 2010.05.17/outbox.cif.g08.bks.cpg/sg50_15_cif.got.tgz:28701.got - 2010.06.03 11:33:33.
