data_PCOD9397519
_publ_section_title
;
Structure prediction by ZEFSAII (Michael W. Deem and Ramdas Pophale) SiO2 
 PCOD9397519
Probable space group: P B A N
;
_chemical_formula_sum "Si O2"
_cell_formula_units_Z 48
_cell_length_a 10.846913
_cell_length_b 23.734021
_cell_length_c 7.932216
_cell_angle_alpha 90.000000
_cell_angle_beta 90.000000
_cell_angle_gamma 90.000000
_cell_volume 2042.076516
_symmetry_space_group_name_H-M "P B A N"
_symmetry_group_IT_number 50
_space_group.IT_coordinate_system_code '2'
_symmetry_cell_setting 'orthorhombic'
loop_
_space_group_symop_operation_xyz
x,y,z
1/2-x,1/2-y,z
x,1/2-y,-z
1/2-x,y,-z
-x,-y,-z
1/2+x,1/2+y,-z
-x,1/2+y,z
1/2+x,-y,z
loop_
_atom_site_type_symbol
_atom_site_label
_atom_site_fract_x
_atom_site_fract_y
_atom_site_fract_z
Si Si1 0.070332 0.230058 0.680192
Si Si2 0.446798 0.070038 0.686920
Si Si3 0.963496 0.440819 0.302329
Si Si4 0.203744 0.122534 0.809578
Si Si5 0.927812 0.173601 0.148886
Si Si6 0.160405 0.833039 0.235310
O O1 0.114253 0.250000 0.500000
O O2 0.336993 0.314642 0.759987
O O3 0.032696 0.282660 0.796527
O O4 0.941306 0.196299 0.649034
O O5 0.503341 0.066641 0.499783
O O6 0.311361 0.097629 0.692368
O O7 0.528328 0.111262 0.802218
O O8 0.440323 0.005289 0.744019
O O9 0.082142 0.415758 0.207336
O O10 0.849457 0.399898 0.263375
O O11 0.250000 0.121357 0.000000
O O12 0.800298 0.186320 0.246300
O O13 0.891443 0.178425 0.953477
#
# Coordination Sequence:
#
# PCOD9397519 Si02
#       6
#     8   8   8   8   8   8
#     4  11  24  44  69  98 136 179 228 282 335 407
#     4  11  24  43  68  97 138 178 225 282 339 408
#     4  10  24  44  67  99 134 178 230 280 339 403
#     4  11  25  46  70 101 139 179 230 283 343 412
#     4  11  23  41  67  99 137 181 222 285 337 399
#     4  10  23  42  66 101 134 176 233 279 339 396
#
# _framework density 23.505483999999999
#
# number of rings (size 3 to 8) (size 9 to 14) (size 15 to 20)
#    0.000    1.333    0.000    5.500    2.333    8.000 
#    0.000    6.667    0.000    0.000    0.000    0.000 
#    0.000    0.000    0.000    0.000    0.000    0.000 
#
# Total GULP energy -269006.431639 kJ/mol
# GULP energy per Si atom -5604.300659 kJ/mol
# Density = 2.345198 g / cm^3
# Si number density = 23.505484 Si / 1000 Ang^3
#
#
#
# Elastic Constant Matrix: (Units=GPa)
#
#
# Indices 1 2 3 4 5 6 
#
# 1 105.1224 30.4595 13.3574 0.0000 0.0000 0.0000
# 2 30.4595 163.9718 31.3777 0.0000 0.0000 0.0000
# 3 13.3574 31.3777 64.4275 0.0000 0.0000 0.0000
# 4 0.0000 0.0000 0.0000 23.9103 0.0000 0.0000
# 5 0.0000 0.0000 0.0000 0.0000 28.4143 0.0000
# 6 0.0000 0.0000 0.0000 0.0000 0.0000 9.9551
#
#
#
# Elastic Compliance Matrix: (Units=1/GPa)
#
#
# Indices 1 2 3 4 5 6 
#
# 1 0.010153 -0.001636 -0.001308 0.000000 0.000000 0.000000
# 2 -0.001636 0.006989 -0.003065 0.000000 0.000000 0.000000
# 3 -0.001308 -0.003065 0.017285 0.000000 0.000000 0.000000
# 4 0.000000 0.000000 0.000000 0.041823 0.000000 0.000000
# 5 0.000000 0.000000 0.000000 0.000000 0.035194 0.000000
# 6 0.000000 0.000000 0.000000 0.000000 0.000000 0.100451
#
#
# Mechanical properties :
#
#
# Convention : Reuss Voigt Hill
#
# Bulk Modulus (GPa) = 44.62365 53.76789 49.19577
# Shear Modulus (GPa) = 21.60929 29.67774 25.64352
#
# Velocity S-wave (km/s) = 3.03533 3.55715 3.30655
# Velocity P-wave (km/s) = 5.59553 6.30835 5.96260
#
# Compressibility (1/GPa) = 0.02240964
#
# Stress axis : x y z
#
# Youngs Moduli (GPa) = 98.49405 143.08401 57.85323
#
# Poissons Ratio (x) = 0.23403 0.07569
# Poissons Ratio (y) = 0.16110 0.17730
# Poissons Ratio (z) = 0.12886 0.43850
#
# Static dielectric constant tensor:
#      x y z
#    x 1.896170 0.000000 0.000000 
#    y 0.000000 1.887730 0.000000 
#    z 0.000000 0.000000 1.881070 
# 
# From -- ./inp_files/11518.got.cif
#   From: 2010.05.17/outbox.cif.g08.bks.cpg/sg50_6_cif.got.tgz:11518.got - 2010.06.03 11:33:33.
