data_PCOD9397749
_publ_section_title
;
Structure prediction by ZEFSAII (Michael W. Deem and Ramdas Pophale) SiO2 
 PCOD9397749
Probable space group: P B A N
;
_chemical_formula_sum "Si O2"
_cell_formula_units_Z 34
_cell_length_a 9.047233
_cell_length_b 14.240214
_cell_length_c 11.817369
_cell_angle_alpha 90.000000
_cell_angle_beta 90.000000
_cell_angle_gamma 90.000000
_cell_volume 1522.485229
_symmetry_space_group_name_H-M "P B A N"
_symmetry_group_IT_number 50
_space_group.IT_coordinate_system_code '2'
_symmetry_cell_setting 'orthorhombic'
loop_
_space_group_symop_operation_xyz
x,y,z
1/2-x,1/2-y,z
x,1/2-y,-z
1/2-x,y,-z
-x,-y,-z
1/2+x,1/2+y,-z
-x,1/2+y,z
1/2+x,-y,z
loop_
_atom_site_type_symbol
_atom_site_label
_atom_site_fract_x
_atom_site_fract_y
_atom_site_fract_z
Si Si1 0.513460 0.887647 0.479059
Si Si2 0.750000 0.250000 0.500000
Si Si3 0.582857 0.224611 0.868073
Si Si4 0.576390 0.881731 0.733819
Si Si5 0.398471 0.431286 0.238068
O O1 0.366349 0.826955 0.451449
O O2 0.577914 0.856034 0.599768
O O3 0.599415 0.883928 0.362435
O O4 0.500000 0.000000 0.500000
O O5 0.750000 0.250000 0.828886
O O6 0.472650 0.291661 0.801561
O O7 0.517352 0.122053 0.840481
O O8 0.577702 0.250000 0.000000
O O9 0.726466 0.921451 0.788829
O O10 0.451666 0.962013 0.748533
#
# Coordination Sequence:
#
# PCOD9397749 Si02
#       5
#     8   2   8   8   8
#     4  10  25  38  69 103 145 181 235 277 349 432
#     4  12  24  40  66  98 138 212 210 296 348 404
#     4  11  26  46  67  93 130 176 233 288 342 414
#     4  11  24  42  69 100 138 177 223 283 344 414
#     4  11  24  42  69 100 138 177 223 283 344 414
#
# _framework density 22.331910000000001
#
# number of rings (size 3 to 8) (size 9 to 14) (size 15 to 20)
#    0.000    1.176    0.000    4.235   19.765    2.824 
#    0.000    3.529    0.000    0.000    0.000    0.000 
#    0.000    0.000    0.000    0.000    0.000    0.000 
#
# Total GULP energy -189598.993008 kJ/mol
# GULP energy per Si atom -5576.440971 kJ/mol
# Density = 2.228108 g / cm^3
# Si number density = 22.331910 Si / 1000 Ang^3
#
#
#
# Elastic Constant Matrix: (Units=GPa)
#
#
# Indices 1 2 3 4 5 6 
#
# 1 77.2357 -0.7412 -10.4090 0.0000 0.0000 0.0000
# 2 -0.7412 82.4324 5.9275 0.0000 0.0000 0.0000
# 3 -10.4090 5.9275 49.5857 0.0000 0.0000 0.0000
# 4 0.0000 0.0000 0.0000 26.7097 0.0000 0.0000
# 5 0.0000 0.0000 0.0000 0.0000 9.1436 0.0000
# 6 0.0000 0.0000 0.0000 0.0000 0.0000 43.0154
#
#
#
# Elastic Compliance Matrix: (Units=1/GPa)
#
#
# Indices 1 2 3 4 5 6 
#
# 1 0.013325 -0.000082 0.002807 0.000000 0.000000 0.000000
# 2 -0.000082 0.012237 -0.001480 0.000000 0.000000 0.000000
# 3 0.002807 -0.001480 0.020933 0.000000 0.000000 0.000000
# 4 0.000000 0.000000 0.000000 0.037440 0.000000 0.000000
# 5 0.000000 0.000000 0.000000 0.000000 0.109366 0.000000
# 6 0.000000 0.000000 0.000000 0.000000 0.000000 0.023247
#
#
# Mechanical properties :
#
#
# Convention : Reuss Voigt Hill
#
# Bulk Modulus (GPa) = 20.41451 22.08985 21.25218
# Shear Modulus (GPa) = 21.70261 30.07216 25.88739
#
# Velocity S-wave (km/s) = 3.12079 3.67359 3.40841
# Velocity P-wave (km/s) = 4.70606 5.28268 5.00269
#
# Compressibility (1/GPa) = 0.04898477
#
# Stress axis : x y z
#
# Youngs Moduli (GPa) = 75.04757 81.72045 47.77082
#
# Poissons Ratio (x) = 0.00670 -0.13409
# Poissons Ratio (y) = 0.00616 0.07070
# Poissons Ratio (z) = -0.21066 0.12095
#
# Static dielectric constant tensor:
#      x y z
#    x 1.887920 0.000000 0.000000 
#    y 0.000000 1.786880 0.000000 
#    z 0.000000 0.000000 1.826610 
# 
# From -- ./inp_files/18510.got.cif
#   From: 2010.05.17/outbox.cif.g08.bks.cpg/sg50_10_cif.got.tgz:18510.got - 2010.06.03 11:33:33.
