data_PCOD9397788
_publ_section_title
;
Structure prediction by ZEFSAII (Michael W. Deem and Ramdas Pophale) SiO2 
 PCOD9397788
Probable space group: P B A N
;
_chemical_formula_sum "Si O2"
_cell_formula_units_Z 32
_cell_length_a 16.181222
_cell_length_b 16.673755
_cell_length_c 5.760642
_cell_angle_alpha 90.000000
_cell_angle_beta 90.000000
_cell_angle_gamma 90.000000
_cell_volume 1554.231185
_symmetry_space_group_name_H-M "P B A N"
_symmetry_group_IT_number 50
_space_group.IT_coordinate_system_code '2'
_symmetry_cell_setting 'orthorhombic'
loop_
_space_group_symop_operation_xyz
x,y,z
1/2-x,1/2-y,z
x,1/2-y,-z
1/2-x,y,-z
-x,-y,-z
1/2+x,1/2+y,-z
-x,1/2+y,z
1/2+x,-y,z
loop_
_atom_site_type_symbol
_atom_site_label
_atom_site_fract_x
_atom_site_fract_y
_atom_site_fract_z
Si Si1 0.046618 0.985659 0.754097
Si Si2 0.104130 0.803342 0.788522
Si Si3 0.458384 0.250000 0.500000
Si Si4 0.250000 0.250000 0.000000
Si Si5 0.250000 0.750000 0.500000
Si Si6 0.668448 0.625374 0.350654
O O1 0.073242 0.893753 0.784638
O O2 0.124045 0.046885 0.746416
O O3 0.000000 0.000000 0.500000
O O4 0.000000 0.000000 0.000000
O O5 0.185037 0.805551 0.630392
O O6 0.023596 0.751988 0.708670
O O7 0.134685 0.750000 0.000000
O O8 0.399894 0.327072 0.498635
O O9 0.304757 0.190846 0.158049
O O10 0.750000 0.607291 0.500000
#
# Coordination Sequence:
#
# PCOD9397788 Si02
#       6
#     8   8   4   2   2   8
#     4  12  29  50  76 114 152 199 262 322 390 461
#     4  11  25  47  77 102 150 200 257 315 385 467
#     4  11  21  43  73 102 142 194 249 303 379 465
#     4  12  26  44  72 110 150 206 246 312 394 468
#     4  10  26  48  70 106 138 206 256 308 374 450
#     4  12  26  45  72 109 156 197 253 320 388 466
#
# _framework density 20.588958000000002
#
# number of rings (size 3 to 8) (size 9 to 14) (size 15 to 20)
#    0.000    0.500    5.000    1.875   14.000    0.000 
#    4.500    0.000    0.000    0.000    0.000    0.000 
#    0.000    0.000    0.000    0.000    0.000    0.000 
#
# Total GULP energy -178282.759828 kJ/mol
# GULP energy per Si atom -5571.336245 kJ/mol
# Density = 2.054210 g / cm^3
# Si number density = 20.588958 Si / 1000 Ang^3
#
#
#
# Elastic Constant Matrix: (Units=GPa)
#
#
# Indices 1 2 3 4 5 6 
#
# 1 156.9051 51.5749 59.5801 0.0000 0.0000 0.0000
# 2 51.5749 123.9604 47.4410 0.0000 0.0000 0.0000
# 3 59.5801 47.4410 109.1525 0.0000 0.0000 0.0000
# 4 0.0000 0.0000 0.0000 21.4677 0.0000 0.0000
# 5 0.0000 0.0000 0.0000 0.0000 -26.8774 0.0000
# 6 0.0000 0.0000 0.0000 0.0000 0.0000 39.8733
#
#
#
# Elastic Compliance Matrix: (Units=1/GPa)
#
#
# Indices 1 2 3 4 5 6 
#
# 1 0.008474 -0.002106 -0.003710 0.000000 0.000000 0.000000
# 2 -0.002106 0.010200 -0.003284 0.000000 0.000000 0.000000
# 3 -0.003710 -0.003284 0.012614 0.000000 0.000000 0.000000
# 4 0.000000 0.000000 0.000000 0.046582 0.000000 0.000000
# 5 0.000000 0.000000 0.000000 0.000000 -0.037206 0.000000
# 6 0.000000 0.000000 0.000000 0.000000 0.000000 0.025079
#
#
# Mechanical properties :
#
#
# Convention : Reuss Voigt Hill
#
# Bulk Modulus (GPa) = 76.40384 78.57889 77.49136
# Shear Modulus (GPa) = 56.62118 22.32087 39.47102
#
# Velocity S-wave (km/s) = 5.24980 3.29617 4.38322
# Velocity P-wave (km/s) = 8.59866 7.26187 7.95838
#
# Compressibility (1/GPa) = 0.01308835
#
# Stress axis : x y z
#
# Youngs Moduli (GPa) = 118.00254 98.03943 79.27679
#
# Poissons Ratio (x) = 0.20645 0.29415
# Poissons Ratio (y) = 0.24849 0.26033
# Poissons Ratio (z) = 0.43784 0.32194
#
# Static dielectric constant tensor:
#      x y z
#    x 1.711390 0.000000 0.000000 
#    y 0.000000 1.657460 0.000000 
#    z 0.000000 0.000000 1.818940 
# 
# From -- ./inp_files/3005.got.cif
#   From: 2010.05.17/outbox.cif.g08.bks.cpg/sg50_2_cif.got.tgz:3005.got - 2010.06.03 11:33:33.
