data_PCOD9397258
_publ_section_title
;
Structure prediction by ZEFSAII (Michael W. Deem and Ramdas Pophale) SiO2 
 PCOD9397258
Probable space group: P B A N
;
_chemical_formula_sum "Si O2"
_cell_formula_units_Z 40
_cell_length_a 13.817046
_cell_length_b 9.099677
_cell_length_c 14.300853
_cell_angle_alpha 90.000000
_cell_angle_beta 90.000000
_cell_angle_gamma 90.000000
_cell_volume 1798.055625
_symmetry_space_group_name_H-M "P B A N"
_symmetry_group_IT_number 50
_space_group.IT_coordinate_system_code '2'
_symmetry_cell_setting 'orthorhombic'
loop_
_space_group_symop_operation_xyz
x,y,z
1/2-x,1/2-y,z
x,1/2-y,-z
1/2-x,y,-z
-x,-y,-z
1/2+x,1/2+y,-z
-x,1/2+y,z
1/2+x,-y,z
loop_
_atom_site_type_symbol
_atom_site_label
_atom_site_fract_x
_atom_site_fract_y
_atom_site_fract_z
Si Si1 0.683450 0.459048 0.202461
Si Si2 0.053609 0.388200 0.066164
Si Si3 0.641071 0.604614 0.389715
Si Si4 0.875381 0.940251 0.591211
Si Si5 0.394436 0.629886 0.229561
O O1 0.645656 0.528945 0.107685
O O2 0.632914 0.548063 0.285794
O O3 0.647081 0.295148 0.226630
O O4 0.799683 0.464492 0.199949
O O5 0.980249 0.365031 0.153990
O O6 0.074788 0.250000 0.000000
O O7 0.000000 0.500000 0.000000
O O8 0.603860 0.522560 0.482699
O O9 0.758312 0.581876 0.400836
O O10 0.597678 0.769439 0.392232
O O11 0.913329 0.056403 0.667854
#
# Coordination Sequence:
#
# PCOD9397258 Si02
#       5
#     8   8   8   8   8
#     4  10  22  41  65  94 124 166 206 259 316 379
#     4  12  26  46  65  90 125 165 211 268 323 372
#     4   8  15  30  56  91 128 162 204 246 307 371
#     4   8  15  30  56  91 128 164 199 252 303 372
#     4  10  22  41  65  92 127 163 207 259 320 372
#
# _framework density 22.246252999999999
#
# number of rings (size 3 to 8) (size 9 to 14) (size 15 to 20)
#    0.000    2.400    2.000    1.200    2.800    1.600 
#    0.000    6.000    0.000    0.000    0.000    0.000 
#    0.000    0.000    0.000    0.000    0.000    0.000 
#
# Total GULP energy -222769.781227 kJ/mol
# GULP energy per Si atom -5569.244531 kJ/mol
# Density = 2.219562 g / cm^3
# Si number density = 22.246253 Si / 1000 Ang^3
#
#
#
# Elastic Constant Matrix: (Units=GPa)
#
#
# Indices 1 2 3 4 5 6 
#
# 1 55.1499 -7.0204 21.3534 0.0000 0.0000 0.0000
# 2 -7.0204 54.8829 44.8104 0.0000 0.0000 0.0000
# 3 21.3534 44.8104 141.3082 0.0000 0.0000 0.0000
# 4 0.0000 0.0000 0.0000 48.3932 0.0000 0.0000
# 5 0.0000 0.0000 0.0000 0.0000 28.5455 0.0000
# 6 0.0000 0.0000 0.0000 0.0000 0.0000 18.0540
#
#
#
# Elastic Compliance Matrix: (Units=1/GPa)
#
#
# Indices 1 2 3 4 5 6 
#
# 1 0.021166 0.007177 -0.005474 0.000000 0.000000 0.000000
# 2 0.007177 0.027020 -0.009653 0.000000 0.000000 0.000000
# 3 -0.005474 -0.009653 0.010965 0.000000 0.000000 0.000000
# 4 0.000000 0.000000 0.000000 0.020664 0.000000 0.000000
# 5 0.000000 0.000000 0.000000 0.000000 0.035032 0.000000
# 6 0.000000 0.000000 0.000000 0.000000 0.000000 0.055389
#
#
# Mechanical properties :
#
#
# Convention : Reuss Voigt Hill
#
# Bulk Modulus (GPa) = 23.12124 41.06976 32.09550
# Shear Modulus (GPa) = 24.93110 31.81171 28.37140
#
# Velocity S-wave (km/s) = 3.35130 3.78561 3.57506
# Velocity P-wave (km/s) = 5.03893 6.13264 5.61249
#
# Compressibility (1/GPa) = 0.04325027
#
# Stress axis : x y z
#
# Youngs Moduli (GPa) = 47.24653 37.00965 91.19937
#
# Poissons Ratio (x) = -0.26562 0.49925
# Poissons Ratio (y) = -0.33909 0.88034
# Poissons Ratio (z) = 0.25864 0.35725
#
# Static dielectric constant tensor:
#      x y z
#    x 1.777220 0.000000 0.000000 
#    y 0.000000 1.698640 0.000000 
#    z 0.000000 0.000000 1.793540 
# 
# From -- ./inp_files/26283.got.cif
#   From: 2010.05.17/outbox.cif.g08.bks.cpg/sg50_14_cif.got.tgz:26283.got - 2010.06.03 11:33:33.
