data_PCOD9397593
_publ_section_title
;
Structure prediction by ZEFSAII (Michael W. Deem and Ramdas Pophale) SiO2 
 PCOD9397593
Probable space group: P B A N
;
_chemical_formula_sum "Si O2"
_cell_formula_units_Z 56
_cell_length_a 12.044161
_cell_length_b 14.423565
_cell_length_c 14.183532
_cell_angle_alpha 90.000000
_cell_angle_beta 90.000000
_cell_angle_gamma 90.000000
_cell_volume 2463.959478
_symmetry_space_group_name_H-M "P B A N"
_symmetry_group_IT_number 50
_space_group.IT_coordinate_system_code '2'
_symmetry_cell_setting 'orthorhombic'
loop_
_space_group_symop_operation_xyz
x,y,z
1/2-x,1/2-y,z
x,1/2-y,-z
1/2-x,y,-z
-x,-y,-z
1/2+x,1/2+y,-z
-x,1/2+y,z
1/2+x,-y,z
loop_
_atom_site_type_symbol
_atom_site_label
_atom_site_fract_x
_atom_site_fract_y
_atom_site_fract_z
Si Si1 0.220216 0.141618 0.608806
Si Si2 0.028231 0.774174 0.799287
Si Si3 0.623399 0.220649 0.398987
Si Si4 0.887972 0.562091 0.245319
Si Si5 0.861029 0.090976 0.063727
Si Si6 0.492127 0.545336 0.398553
Si Si7 0.999122 0.425253 0.116593
O O1 0.250000 0.250000 0.621609
O O2 0.250000 0.117674 0.500000
O O3 0.285027 0.081987 0.686939
O O4 0.092027 0.116304 0.617747
O O5 0.067693 0.765271 0.691852
O O6 0.123045 0.823996 0.863434
O O7 0.924306 0.843134 0.803173
O O8 0.992857 0.672540 0.832216
O O9 0.750000 0.250000 0.399579
O O10 0.571967 0.250000 0.500000
O O11 0.615741 0.109821 0.391778
O O12 0.984831 0.531119 0.318401
O O13 0.898105 0.481828 0.167474
O O14 0.893477 0.993190 0.114804
O O15 0.750000 0.092660 0.000000
O O16 0.961841 0.098180 0.988960
O O17 0.500000 0.500000 0.500000
#
# Coordination Sequence:
#
# PCOD9397593 Si02
#       7
#     8   8   8   8   8   8   8
#     4  11  25  42  67  94 137 199 254 303 371 452
#     4  11  23  44  74 104 148 194 240 310 379 448
#     4  11  26  43  67 105 149 189 243 305 365 440
#     4  11  24  43  67 101 140 189 245 301 372 448
#     4  10  24  44  75 106 139 182 244 306 374 448
#     4  12  24  43  68  95 143 193 251 308 370 438
#     4  10  23  45  70 104 145 183 237 309 371 450
#
# _framework density 22.727646
#
# number of rings (size 3 to 8) (size 9 to 14) (size 15 to 20)
#    0.000    1.143    2.857    2.143    4.000    6.286 
#    0.000    0.000    0.000    7.714    0.000    0.000 
#    0.000    0.000    0.000    0.000    0.000    0.000 
#
# Total GULP energy -313014.318342 kJ/mol
# GULP energy per Si atom -5589.541399 kJ/mol
# Density = 2.267592 g / cm^3
# Si number density = 22.727646 Si / 1000 Ang^3
#
#
#
# Elastic Constant Matrix: (Units=GPa)
#
#
# Indices 1 2 3 4 5 6 
#
# 1 74.4312 35.0574 18.7732 0.0000 0.0000 0.0000
# 2 35.0574 153.4939 50.5628 0.0000 0.0000 0.0000
# 3 18.7732 50.5628 141.8024 0.0000 0.0000 0.0000
# 4 0.0000 0.0000 0.0000 61.4865 0.0000 0.0000
# 5 0.0000 0.0000 0.0000 0.0000 33.0156 0.0000
# 6 0.0000 0.0000 0.0000 0.0000 0.0000 23.0927
#
#
#
# Elastic Compliance Matrix: (Units=1/GPa)
#
#
# Indices 1 2 3 4 5 6 
#
# 1 0.015150 -0.003172 -0.000875 0.000000 0.000000 0.000000
# 2 -0.003172 0.008046 -0.002449 0.000000 0.000000 0.000000
# 3 -0.000875 -0.002449 0.008041 0.000000 0.000000 0.000000
# 4 0.000000 0.000000 0.000000 0.016264 0.000000 0.000000
# 5 0.000000 0.000000 0.000000 0.000000 0.030289 0.000000
# 6 0.000000 0.000000 0.000000 0.000000 0.000000 0.043304
#
#
# Mechanical properties :
#
#
# Convention : Reuss Voigt Hill
#
# Bulk Modulus (GPa) = 54.80763 64.27937 59.54350
# Shear Modulus (GPa) = 35.67179 41.20790 38.43984
#
# Velocity S-wave (km/s) = 3.96603 4.26269 4.11703
# Velocity P-wave (km/s) = 6.71862 7.25060 6.98967
#
# Compressibility (1/GPa) = 0.01824563
#
# Stress axis : x y z
#
# Youngs Moduli (GPa) = 66.00713 124.28288 124.36054
#
# Poissons Ratio (x) = 0.39423 0.10877
# Poissons Ratio (y) = 0.20938 0.30457
# Poissons Ratio (z) = 0.05773 0.30438
#
# Static dielectric constant tensor:
#      x y z
#    x 1.835010 0.000000 0.000000 
#    y 0.000000 1.908230 0.000000 
#    z 0.000000 0.000000 1.897290 
# 
# From -- ./inp_files/25931.got.cif
#   From: 2010.05.17/outbox.cif.g08.bks.cpg/sg50_13_cif.got.tgz:25931.got - 2010.06.03 11:33:33.
