data_PCOD9397457
_publ_section_title
;
Structure prediction by ZEFSAII (Michael W. Deem and Ramdas Pophale) SiO2 
 PCOD9397457
Probable space group: P B A N
;
_chemical_formula_sum "Si O2"
_cell_formula_units_Z 48
_cell_length_a 21.082742
_cell_length_b 22.947646
_cell_length_c 5.290809
_cell_angle_alpha 90.000000
_cell_angle_beta 90.000000
_cell_angle_gamma 90.000000
_cell_volume 2559.689691
_symmetry_space_group_name_H-M "P B A N"
_symmetry_group_IT_number 50
_space_group.IT_coordinate_system_code '2'
_symmetry_cell_setting 'orthorhombic'
loop_
_space_group_symop_operation_xyz
x,y,z
1/2-x,1/2-y,z
x,1/2-y,-z
1/2-x,y,-z
-x,-y,-z
1/2+x,1/2+y,-z
-x,1/2+y,z
1/2+x,-y,z
loop_
_atom_site_type_symbol
_atom_site_label
_atom_site_fract_x
_atom_site_fract_y
_atom_site_fract_z
Si Si1 0.397943 0.856462 0.404674
Si Si2 0.324463 0.522607 0.564828
Si Si3 0.994471 0.402160 0.992136
Si Si4 0.522207 0.287988 0.745900
Si Si5 0.895325 0.995074 0.920604
Si Si6 0.276888 0.684698 0.759626
O O1 0.356990 0.913733 0.451959
O O2 0.461967 0.875037 0.260116
O O3 0.412453 0.816889 0.645890
O O4 0.352129 0.817404 0.232250
O O5 0.250000 0.523207 0.500000
O O6 0.358482 0.487579 0.340259
O O7 0.347264 0.500646 0.841647
O O8 0.054783 0.442876 0.952418
O O9 0.012342 0.348065 0.172318
O O10 0.938796 0.445821 0.090938
O O11 0.500373 0.250000 0.500000
O O12 0.525143 0.250000 0.000000
O O13 0.250000 0.750000 0.763027
O O14 0.250000 0.660287 0.500000
O O15 0.250000 0.651244 0.000000
#
# Coordination Sequence:
#
# PCOD9397457 Si02
#       6
#     8   8   8   8   8   8
#     4  11  24  39  60  82 123 166 217 254 300 350
#     4  11  23  40  62  91 122 159 203 260 313 368
#     4  10  23  40  63  90 116 163 214 258 319 354
#     4  12  25  37  57  87 127 163 207 252 306 354
#     4  10  23  40  66  86 120 157 210 261 310 380
#     4  10  24  36  49  69 103 156 216 248 278 323
#
# _framework density 18.752274
#
# number of rings (size 3 to 8) (size 9 to 14) (size 15 to 20)
#    0.000    1.333    3.333    1.000    7.000    6.000 
#    0.000    0.000    0.000    0.000    0.000    0.000 
#    0.000   10.000    0.000    0.000    0.000    0.000 
#
# Total GULP energy -267643.749769 kJ/mol
# GULP energy per Si atom -5575.911454 kJ/mol
# Density = 1.870959 g / cm^3
# Si number density = 18.752274 Si / 1000 Ang^3
#
#
#
# Elastic Constant Matrix: (Units=GPa)
#
#
# Indices 1 2 3 4 5 6 
#
# 1 68.3525 38.6997 17.2353 0.0000 0.0000 0.0000
# 2 38.6997 102.0617 37.2215 0.0000 0.0000 0.0000
# 3 17.2353 37.2215 107.6575 0.0000 0.0000 0.0000
# 4 0.0000 0.0000 0.0000 15.3522 0.0000 0.0000
# 5 0.0000 0.0000 0.0000 0.0000 24.8053 0.0000
# 6 0.0000 0.0000 0.0000 0.0000 0.0000 32.8983
#
#
#
# Elastic Compliance Matrix: (Units=1/GPa)
#
#
# Indices 1 2 3 4 5 6 
#
# 1 0.018666 -0.006852 -0.000619 0.000000 0.000000 0.000000
# 2 -0.006852 0.013727 -0.003649 0.000000 0.000000 0.000000
# 3 -0.000619 -0.003649 0.010649 0.000000 0.000000 0.000000
# 4 0.000000 0.000000 0.000000 0.065137 0.000000 0.000000
# 5 0.000000 0.000000 0.000000 0.000000 0.040314 0.000000
# 6 0.000000 0.000000 0.000000 0.000000 0.000000 0.030397
#
#
# Mechanical properties :
#
#
# Convention : Reuss Voigt Hill
#
# Bulk Modulus (GPa) = 48.07293 51.59830 49.83562
# Shear Modulus (GPa) = 24.03113 26.93885 25.48499
#
# Velocity S-wave (km/s) = 3.58369 3.79432 3.69051
# Velocity P-wave (km/s) = 6.54334 6.83895 6.69278
#
# Compressibility (1/GPa) = 0.02080173
#
# Stress axis : x y z
#
# Youngs Moduli (GPa) = 53.57477 72.85018 93.90139
#
# Poissons Ratio (x) = 0.49915 0.05816
# Poissons Ratio (y) = 0.36708 0.34265
# Poissons Ratio (z) = 0.03318 0.26583
#
# Static dielectric constant tensor:
#      x y z
#    x 1.659930 0.000000 0.000000 
#    y 0.000000 1.655180 0.000000 
#    z 0.000000 0.000000 1.763660 
# 
# From -- ./inp_files/4530.got.cif
#   From: 2010.05.17/outbox.cif.g08.bks.cpg/sg50_3_cif.got.tgz:4530.got - 2010.06.03 11:33:33.
