data_PCOD9397942
_publ_section_title
;
Structure prediction by ZEFSAII (Michael W. Deem and Ramdas Pophale) SiO2 
 PCOD9397942
Probable space group: P B A N
;
_chemical_formula_sum "Si O2"
_cell_formula_units_Z 48
_cell_length_a 8.787557
_cell_length_b 26.073014
_cell_length_c 11.153965
_cell_angle_alpha 90.000000
_cell_angle_beta 90.000000
_cell_angle_gamma 90.000000
_cell_volume 2555.575231
_symmetry_space_group_name_H-M "P B A N"
_symmetry_group_IT_number 50
_space_group.IT_coordinate_system_code '2'
_symmetry_cell_setting 'orthorhombic'
loop_
_space_group_symop_operation_xyz
x,y,z
1/2-x,1/2-y,z
x,1/2-y,-z
1/2-x,y,-z
-x,-y,-z
1/2+x,1/2+y,-z
-x,1/2+y,z
1/2+x,-y,z
loop_
_atom_site_type_symbol
_atom_site_label
_atom_site_fract_x
_atom_site_fract_y
_atom_site_fract_z
Si Si1 0.116052 0.079409 0.744050
Si Si2 0.441292 0.203527 0.648740
Si Si3 0.928871 0.055484 0.979493
Si Si4 0.117705 0.524026 0.407461
Si Si5 0.425075 0.314721 0.622967
Si Si6 0.032883 0.396021 0.780632
O O1 0.052113 0.127346 0.666910
O O2 0.285085 0.095809 0.783469
O O3 0.995500 0.071736 0.850937
O O4 0.150192 0.025864 0.675624
O O5 0.482923 0.261775 0.683029
O O6 0.257800 0.194650 0.635808
O O7 0.486136 0.190397 0.512314
O O8 0.501132 0.161427 0.739167
O O9 0.750000 0.050655 0.000000
O O10 0.980220 0.092302 0.086154
O O11 0.000000 0.000000 0.000000
O O12 0.250000 0.541974 0.500000
O O13 0.000000 0.500000 0.500000
O O14 0.046116 0.566388 0.318208
#
# Coordination Sequence:
#
# PCOD9397942 Si02
#       6
#     8   8   8   8   8   8
#     4  11  22  38  61  87 119 155 199 242 295 349
#     4   8  15  31  56  91 119 150 188 242 295 340
#     4  12  26  42  59  81 113 160 201 246 296 354
#     4  12  24  35  54  89 124 154 186 236 297 359
#     4   8  15  30  58  89 121 148 189 242 294 341
#     4  11  22  39  60  86 120 156 196 245 291 355
#
# _framework density 18.782464000000001
#
# number of rings (size 3 to 8) (size 9 to 14) (size 15 to 20)
#    0.000    1.667    3.333    3.500    4.667    0.000 
#    0.000    0.833    0.000    6.000    0.000    0.000 
#    0.000    0.000    0.000    0.000    0.000    0.000 
#
# Total GULP energy -267242.116180 kJ/mol
# GULP energy per Si atom -5567.544087 kJ/mol
# Density = 1.873971 g / cm^3
# Si number density = 18.782464 Si / 1000 Ang^3
#
#
#
# Elastic Constant Matrix: (Units=GPa)
#
#
# Indices 1 2 3 4 5 6 
#
# 1 63.7146 6.5448 18.2527 0.0000 0.0000 0.0000
# 2 6.5448 121.8263 29.2499 0.0000 0.0000 0.0000
# 3 18.2527 29.2499 65.6294 0.0000 0.0000 0.0000
# 4 0.0000 0.0000 0.0000 26.8357 0.0000 0.0000
# 5 0.0000 0.0000 0.0000 0.0000 34.4868 0.0000
# 6 0.0000 0.0000 0.0000 0.0000 0.0000 16.7064
#
#
#
# Elastic Compliance Matrix: (Units=1/GPa)
#
#
# Indices 1 2 3 4 5 6 
#
# 1 0.017060 0.000249 -0.004856 0.000000 0.000000 0.000000
# 2 0.000249 0.009196 -0.004168 0.000000 0.000000 0.000000
# 3 -0.004856 -0.004168 0.018445 0.000000 0.000000 0.000000
# 4 0.000000 0.000000 0.000000 0.037264 0.000000 0.000000
# 5 0.000000 0.000000 0.000000 0.000000 0.028997 0.000000
# 6 0.000000 0.000000 0.000000 0.000000 0.000000 0.059857
#
#
# Mechanical properties :
#
#
# Convention : Reuss Voigt Hill
#
# Bulk Modulus (GPa) = 36.82885 39.91834 38.37360
# Shear Modulus (GPa) = 25.32689 28.74729 27.03709
#
# Velocity S-wave (km/s) = 3.67609 3.91645 3.79817
# Velocity P-wave (km/s) = 6.13749 6.46147 6.30156
#
# Compressibility (1/GPa) = 0.02715263
#
# Stress axis : x y z
#
# Youngs Moduli (GPa) = 58.61495 108.74698 54.21497
#
# Poissons Ratio (x) = -0.02712 0.26327
# Poissons Ratio (y) = -0.01462 0.22595
# Poissons Ratio (z) = 0.28463 0.45323
#
# Static dielectric constant tensor:
#      x y z
#    x 1.813160 0.000000 0.000000 
#    y 0.000000 1.912820 0.000000 
#    z 0.000000 0.000000 1.667940 
# 
# From -- ./inp_files/19210.got.cif
#   From: 2010.05.17/outbox.cif.g08.bks.cpg/sg50_10_cif.got.tgz:19210.got - 2010.06.03 11:33:33.
