data_PCOD9397055
_publ_section_title
;
Structure prediction by ZEFSAII (Michael W. Deem and Ramdas Pophale) SiO2 
 PCOD9397055
Probable space group: P B A N
;
_chemical_formula_sum "Si O2"
_cell_formula_units_Z 32
_cell_length_a 20.348991
_cell_length_b 9.169168
_cell_length_c 7.405830
_cell_angle_alpha 90.000000
_cell_angle_beta 90.000000
_cell_angle_gamma 90.000000
_cell_volume 1381.804327
_symmetry_space_group_name_H-M "P B A N"
_symmetry_group_IT_number 50
_space_group.IT_coordinate_system_code '2'
_symmetry_cell_setting 'orthorhombic'
loop_
_space_group_symop_operation_xyz
x,y,z
1/2-x,1/2-y,z
x,1/2-y,-z
1/2-x,y,-z
-x,-y,-z
1/2+x,1/2+y,-z
-x,1/2+y,z
1/2+x,-y,z
loop_
_atom_site_type_symbol
_atom_site_label
_atom_site_fract_x
_atom_site_fract_y
_atom_site_fract_z
Si Si1 0.750000 0.250000 0.000000
Si Si2 0.789046 0.530655 0.223117
Si Si3 0.540055 0.856646 0.673245
Si Si4 0.401567 0.904467 0.556361
Si Si5 0.129853 0.250000 0.000000
Si Si6 0.750000 0.750000 0.500000
O O1 0.723010 0.370620 0.856913
O O2 0.848498 0.511169 0.363607
O O3 0.821768 0.622072 0.062317
O O4 0.736436 0.624965 0.339756
O O5 0.548425 0.750000 0.500000
O O6 0.461517 0.872964 0.695266
O O7 0.565657 0.015108 0.613544
O O8 0.581929 0.797691 0.837935
O O9 0.372457 0.750000 0.500000
#
# Coordination Sequence:
#
# PCOD9397055 Si02
#       6
#     2   8   8   8   4   2
#     4  12  32  46  64 112 144 166 264 320 358 396
#     4  12  27  47  72 102 137 190 237 308 354 415
#     4  10  21  44  66 110 141 180 224 275 344 458
#     4  10  23  41  70 100 147 177 222 282 362 422
#     4  12  24  44  78 100 142 186 238 276 360 444
#     4  12  28  52  80  92 138 202 264 290 352 436
#
# _framework density 23.158128999999999
#
# number of rings (size 3 to 8) (size 9 to 14) (size 15 to 20)
#    0.000    1.000    2.500    3.000    7.000    2.000 
#    0.000    0.000    0.000    0.000    0.000    0.000 
#    0.000    0.000    0.000    0.000    0.000    0.000 
#
# Total GULP energy -178208.466787 kJ/mol
# GULP energy per Si atom -5569.014587 kJ/mol
# Density = 2.310542 g / cm^3
# Si number density = 23.158129 Si / 1000 Ang^3
#
#
#
# Elastic Constant Matrix: (Units=GPa)
#
#
# Indices 1 2 3 4 5 6 
#
# 1 49.2784 24.6914 41.0050 0.0000 0.0000 0.0000
# 2 24.6914 132.1810 29.1149 0.0000 0.0000 0.0000
# 3 41.0050 29.1149 107.6725 0.0000 0.0000 0.0000
# 4 0.0000 0.0000 0.0000 56.5784 0.0000 0.0000
# 5 0.0000 0.0000 0.0000 0.0000 14.1034 0.0000
# 6 0.0000 0.0000 0.0000 0.0000 0.0000 1.9139
#
#
#
# Elastic Compliance Matrix: (Units=1/GPa)
#
#
# Indices 1 2 3 4 5 6 
#
# 1 0.031081 -0.003401 -0.010917 0.000000 0.000000 0.000000
# 2 -0.003401 0.008417 -0.000981 0.000000 0.000000 0.000000
# 3 -0.010917 -0.000981 0.013710 0.000000 0.000000 0.000000
# 4 0.000000 0.000000 0.000000 0.017675 0.000000 0.000000
# 5 0.000000 0.000000 0.000000 0.000000 0.070905 0.000000
# 6 0.000000 0.000000 0.000000 0.000000 0.000000 0.522501
#
#
# Mechanical properties :
#
#
# Convention : Reuss Voigt Hill
#
# Bulk Modulus (GPa) = 44.22760 53.19495 48.71127
# Shear Modulus (GPa) = 7.11822 27.47383 17.29602
#
# Velocity S-wave (km/s) = 1.75511 3.44809 2.73585
# Velocity P-wave (km/s) = 4.82149 6.23479 5.57312
#
# Compressibility (1/GPa) = 0.02261032
#
# Stress axis : x y z
#
# Youngs Moduli (GPa) = 32.17375 118.81081 72.93906
#
# Poissons Ratio (x) = 0.40412 0.79627
# Poissons Ratio (y) = 0.10943 0.07152
# Poissons Ratio (z) = 0.35124 0.11650
#
# Static dielectric constant tensor:
#      x y z
#    x 1.938070 0.000000 0.000000 
#    y 0.000000 1.951920 0.000000 
#    z 0.000000 0.000000 1.909130 
# 
# From -- ./inp_files/15755.got.cif
#   From: 2010.05.17/outbox.cif.g08.bks.cpg/sg50_8_cif.got.tgz:15755.got - 2010.06.03 11:33:33.
