data_PCOD9397595
_publ_section_title
;
Structure prediction by ZEFSAII (Michael W. Deem and Ramdas Pophale) SiO2 
 PCOD9397595
Probable space group: P B A N
;
_chemical_formula_sum "Si O2"
_cell_formula_units_Z 40
_cell_length_a 8.706912
_cell_length_b 12.457318
_cell_length_c 17.108361
_cell_angle_alpha 90.000000
_cell_angle_beta 90.000000
_cell_angle_gamma 90.000000
_cell_volume 1855.654468
_symmetry_space_group_name_H-M "P B A N"
_symmetry_group_IT_number 50
_space_group.IT_coordinate_system_code '2'
_symmetry_cell_setting 'orthorhombic'
loop_
_space_group_symop_operation_xyz
x,y,z
1/2-x,1/2-y,z
x,1/2-y,-z
1/2-x,y,-z
-x,-y,-z
1/2+x,1/2+y,-z
-x,1/2+y,z
1/2+x,-y,z
loop_
_atom_site_type_symbol
_atom_site_label
_atom_site_fract_x
_atom_site_fract_y
_atom_site_fract_z
Si Si1 0.750000 0.750000 0.886809
Si Si2 0.327826 0.007824 0.686580
Si Si3 0.250000 0.750000 0.500000
Si Si4 0.503562 0.412979 0.069101
Si Si5 0.939630 0.914839 0.205167
Si Si6 0.250000 0.750000 0.000000
Si Si7 0.071471 0.565677 0.426198
O O1 0.654997 0.654513 0.928277
O O2 0.890563 0.691666 0.840801
O O3 0.419864 0.913554 0.732586
O O4 0.222706 0.986456 0.611247
O O5 0.215498 0.060512 0.747881
O O6 0.460457 0.077884 0.647864
O O7 0.134127 0.678341 0.452041
O O8 0.526594 0.485225 0.146880
O O9 0.640702 0.328612 0.051054
O O10 0.500000 0.500000 0.000000
O O11 0.000000 0.500000 0.500000
#
# Coordination Sequence:
#
# PCOD9397595 Si02
#       7
#     4   8   2   8   8   2   8
#     4  12  26  47  76 102 143 196 244 288 369 432
#     4  10  23  45  72  99 156 181 224 313 352 416
#     4  12  24  40  80 102 132 196 240 284 360 430
#     4  12  27  49  72 104 144 186 244 298 345 421
#     4  11  24  46  67 109 142 188 236 298 357 423
#     4  12  28  42  74 102 132 194 234 292 356 404
#     4  11  22  46  70 106 142 185 240 293 348 432
#
# _framework density 21.555736
#
# number of rings (size 3 to 8) (size 9 to 14) (size 15 to 20)
#    0.000    0.800    4.000    2.400    2.800    4.400 
#    0.000    1.000    0.000    0.000    0.000    0.000 
#    0.000    0.000    0.000    0.000    0.000    0.000 
#
# Total GULP energy -223103.675012 kJ/mol
# GULP energy per Si atom -5577.591875 kJ/mol
# Density = 2.150667 g / cm^3
# Si number density = 21.555736 Si / 1000 Ang^3
#
#
#
# Elastic Constant Matrix: (Units=GPa)
#
#
# Indices 1 2 3 4 5 6 
#
# 1 107.8993 34.9273 47.8057 0.0000 0.0000 0.0000
# 2 34.9273 100.9553 49.7406 0.0000 0.0000 0.0000
# 3 47.8057 49.7406 108.2467 0.0000 0.0000 0.0000
# 4 0.0000 0.0000 0.0000 28.0925 0.0000 0.0000
# 5 0.0000 0.0000 0.0000 0.0000 -685.6002 0.0000
# 6 0.0000 0.0000 0.0000 0.0000 0.0000 47.8954
#
#
#
# Elastic Compliance Matrix: (Units=1/GPa)
#
#
# Indices 1 2 3 4 5 6 
#
# 1 0.011815 -0.001961 -0.004317 0.000000 0.000000 0.000000
# 2 -0.001961 0.013130 -0.005167 0.000000 0.000000 0.000000
# 3 -0.004317 -0.005167 0.013519 0.000000 0.000000 0.000000
# 4 0.000000 0.000000 0.000000 0.035597 0.000000 0.000000
# 5 0.000000 0.000000 0.000000 0.000000 -0.001459 0.000000
# 6 0.000000 0.000000 0.000000 0.000000 0.000000 0.020879
#
#
# Mechanical properties :
#
#
# Convention : Reuss Voigt Hill
#
# Bulk Modulus (GPa) = 64.20989 64.67206 64.44097
# Shear Modulus (GPa) = 41.13104 -109.61397 -34.24147
#
# Velocity S-wave (km/s) = 4.37295 -7.13875 -3.98993
# Velocity P-wave (km/s) = 7.43972 6.15481 2.95531
#
# Compressibility (1/GPa) = 0.01557392
#
# Stress axis : x y z
#
# Youngs Moduli (GPa) = 84.63592 76.16358 73.96886
#
# Poissons Ratio (x) = 0.14933 0.31933
# Poissons Ratio (y) = 0.16594 0.38222
# Poissons Ratio (z) = 0.36538 0.39356
#
# Static dielectric constant tensor:
#      x y z
#    x 1.796410 0.000000 0.000000 
#    y 0.000000 1.759590 0.000000 
#    z 0.000000 0.000000 1.908830 
# 
# From -- ./inp_files/24770.got.cif
#   From: 2010.05.17/outbox.cif.g08.bks.cpg/sg50_13_cif.got.tgz:24770.got - 2010.06.03 11:33:33.
