data_PCOD9397602
_publ_section_title
;
Structure prediction by ZEFSAII (Michael W. Deem and Ramdas Pophale) SiO2 
 PCOD9397602
Probable space group: P B A N
;
_chemical_formula_sum "Si O2"
_cell_formula_units_Z 40
_cell_length_a 14.672458
_cell_length_b 9.342046
_cell_length_c 12.733233
_cell_angle_alpha 90.000000
_cell_angle_beta 90.000000
_cell_angle_gamma 90.000000
_cell_volume 1745.354148
_symmetry_space_group_name_H-M "P B A N"
_symmetry_group_IT_number 50
_space_group.IT_coordinate_system_code '2'
_symmetry_cell_setting 'orthorhombic'
loop_
_space_group_symop_operation_xyz
x,y,z
1/2-x,1/2-y,z
x,1/2-y,-z
1/2-x,y,-z
-x,-y,-z
1/2+x,1/2+y,-z
-x,1/2+y,z
1/2+x,-y,z
loop_
_atom_site_type_symbol
_atom_site_label
_atom_site_fract_x
_atom_site_fract_y
_atom_site_fract_z
Si Si1 0.737145 0.914235 0.309635
Si Si2 0.165698 0.674748 0.824996
Si Si3 0.029000 0.374630 0.075570
Si Si4 0.060347 0.392856 0.566933
Si Si5 0.908050 0.057450 0.275555
O O1 0.750000 0.750000 0.274743
O O2 0.663549 0.923404 0.401610
O O3 0.698161 0.021333 0.218966
O O4 0.837371 0.965820 0.344049
O O5 0.250000 0.750000 0.884019
O O6 0.068623 0.677974 0.881328
O O7 0.144913 0.792128 0.735362
O O8 0.080631 0.455362 0.171983
O O9 0.071148 0.250000 0.000000
O O10 0.000000 0.500000 0.000000
O O11 0.055360 0.250000 0.500000
O O12 0.000000 0.500000 0.500000
O O13 0.005454 0.399596 0.678099
#
# Coordination Sequence:
#
# PCOD9397602 Si02
#       5
#     8   8   8   8   8
#     4  11  25  44  74 104 147 196 250 313 389 461
#     4  10  23  46  69 100 144 200 244 312 384 460
#     4  12  25  43  75 105 146 198 259 316 389 467
#     4  12  26  44  74 107 144 194 252 315 389 471
#     4  11  25  47  72 102 154 195 244 321 389 464
#
# _framework density 22.917985999999999
#
# number of rings (size 3 to 8) (size 9 to 14) (size 15 to 20)
#    0.000    0.800    4.000    2.400    5.600    3.200 
#    0.000    1.000    0.000    0.000    0.000    0.000 
#    0.000    0.000    0.000    0.000    0.000    0.000 
#
# Total GULP energy -223019.418756 kJ/mol
# GULP energy per Si atom -5575.485469 kJ/mol
# Density = 2.286582 g / cm^3
# Si number density = 22.917986 Si / 1000 Ang^3
#
#
#
# Elastic Constant Matrix: (Units=GPa)
#
#
# Indices 1 2 3 4 5 6 
#
# 1 129.2646 35.3904 34.2092 0.0000 0.0000 0.0000
# 2 35.3904 139.6266 48.8633 0.0000 0.0000 0.0000
# 3 34.2092 48.8633 88.7111 0.0000 0.0000 0.0000
# 4 0.0000 0.0000 0.0000 31.0242 0.0000 0.0000
# 5 0.0000 0.0000 0.0000 0.0000 476.1490 0.0000
# 6 0.0000 0.0000 0.0000 0.0000 0.0000 38.9327
#
#
#
# Elastic Compliance Matrix: (Units=1/GPa)
#
#
# Indices 1 2 3 4 5 6 
#
# 1 0.008799 -0.001292 -0.002682 0.000000 0.000000 0.000000
# 2 -0.001292 0.009062 -0.004493 0.000000 0.000000 0.000000
# 3 -0.002682 -0.004493 0.014782 0.000000 0.000000 0.000000
# 4 0.000000 0.000000 0.000000 0.032233 0.000000 0.000000
# 5 0.000000 0.000000 0.000000 0.000000 0.002100 0.000000
# 6 0.000000 0.000000 0.000000 0.000000 0.000000 0.025685
#
#
# Mechanical properties :
#
#
# Convention : Reuss Voigt Hill
#
# Bulk Modulus (GPa) = 63.65647 66.05868 64.85758
# Shear Modulus (GPa) = 43.54213 125.16382 84.35298
#
# Velocity S-wave (km/s) = 4.36353 7.39813 6.07341
# Velocity P-wave (km/s) = 7.29542 10.09272 8.80586
#
# Compressibility (1/GPa) = 0.01570932
#
# Stress axis : x y z
#
# Youngs Moduli (GPa) = 113.64336 110.35294 67.65166
#
# Poissons Ratio (x) = 0.14256 0.18142
# Poissons Ratio (y) = 0.14681 0.30397
# Poissons Ratio (z) = 0.30476 0.49584
#
# Static dielectric constant tensor:
#      x y z
#    x 1.928450 0.000000 0.000000 
#    y 0.000000 2.025410 0.000000 
#    z 0.000000 0.000000 1.854210 
# 
# From -- ./inp_files/26298.got.cif
#   From: 2010.05.17/outbox.cif.g08.bks.cpg/sg50_14_cif.got.tgz:26298.got - 2010.06.03 11:33:33.
