data_PCOD9397724
_publ_section_title
;
Structure prediction by ZEFSAII (Michael W. Deem and Ramdas Pophale) SiO2 
 PCOD9397724
Probable space group: P B A N
;
_chemical_formula_sum "Si O2"
_cell_formula_units_Z 30
_cell_length_a 10.814021
_cell_length_b 9.826359
_cell_length_c 13.539266
_cell_angle_alpha 90.000000
_cell_angle_beta 90.000000
_cell_angle_gamma 90.000000
_cell_volume 1438.715611
_symmetry_space_group_name_H-M "P B A N"
_symmetry_group_IT_number 50
_space_group.IT_coordinate_system_code '2'
_symmetry_cell_setting 'orthorhombic'
loop_
_space_group_symop_operation_xyz
x,y,z
1/2-x,1/2-y,z
x,1/2-y,-z
1/2-x,y,-z
-x,-y,-z
1/2+x,1/2+y,-z
-x,1/2+y,z
1/2+x,-y,z
loop_
_atom_site_type_symbol
_atom_site_label
_atom_site_fract_x
_atom_site_fract_y
_atom_site_fract_z
Si Si1 0.250000 0.250000 0.665151
Si Si2 0.897902 0.901716 0.167489
Si Si3 0.994387 0.867567 0.568418
Si Si4 0.111090 0.696346 0.223609
Si Si5 0.250000 0.250000 0.000000
O O1 0.188500 0.139289 0.738587
O O2 0.144568 0.323781 0.600991
O O3 0.023704 0.820970 0.191498
O O4 0.909015 0.063203 0.156633
O O5 0.834632 0.840250 0.071123
O O6 0.047241 0.750000 0.500000
O O7 0.069562 0.862361 0.669809
O O8 0.000000 0.000000 0.500000
O O9 0.250000 0.750000 0.224690
#
# Coordination Sequence:
#
# PCOD9397724 Si02
#       5
#     4   8   8   8   2
#     4   9  21  41  67  90 142 182 221 291 345 395
#     4  10  24  46  72  99 137 179 227 282 361 411
#     4  11  23  40  64  98 134 186 242 280 329 394
#     4  11  26  45  69 101 145 185 227 287 357 408
#     4  10  24  48  82 100 134 176 232 286 344 438
#
# _framework density 20.851932999999999
#
# number of rings (size 3 to 8) (size 9 to 14) (size 15 to 20)
#    0.000    1.600    0.000    3.600   14.933    1.600 
#    0.000    0.000    0.000    0.000    0.000    0.000 
#    0.000    0.000    0.000    0.000    0.000    0.000 
#
# Total GULP energy -167691.691844 kJ/mol
# GULP energy per Si atom -5589.723061 kJ/mol
# Density = 2.080447 g / cm^3
# Si number density = 20.851933 Si / 1000 Ang^3
#
#
#
# Elastic Constant Matrix: (Units=GPa)
#
#
# Indices 1 2 3 4 5 6 
#
# 1 123.9129 52.0404 50.8279 0.0000 0.0000 0.0000
# 2 52.0404 148.9291 37.0622 0.0000 0.0000 0.0000
# 3 50.8279 37.0622 106.7022 0.0000 0.0000 0.0000
# 4 0.0000 0.0000 0.0000 69.0670 0.0000 0.0000
# 5 0.0000 0.0000 0.0000 0.0000 40.8593 0.0000
# 6 0.0000 0.0000 0.0000 0.0000 0.0000 3.4781
#
#
#
# Elastic Compliance Matrix: (Units=1/GPa)
#
#
# Indices 1 2 3 4 5 6 
#
# 1 0.010988 -0.002777 -0.004269 0.000000 0.000000 0.000000
# 2 -0.002777 0.008052 -0.001474 0.000000 0.000000 0.000000
# 3 -0.004269 -0.001474 0.011918 0.000000 0.000000 0.000000
# 4 0.000000 0.000000 0.000000 0.014479 0.000000 0.000000
# 5 0.000000 0.000000 0.000000 0.000000 0.024474 0.000000
# 6 0.000000 0.000000 0.000000 0.000000 0.000000 0.287510
#
#
# Mechanical properties :
#
#
# Convention : Reuss Voigt Hill
#
# Bulk Modulus (GPa) = 71.85764 73.26726 72.56245
# Shear Modulus (GPa) = 13.18914 38.65514 25.92214
#
# Velocity S-wave (km/s) = 2.51771 4.31024 3.52966
# Velocity P-wave (km/s) = 6.55649 7.74494 7.17536
#
# Compressibility (1/GPa) = 0.01391640
#
# Stress axis : x y z
#
# Youngs Moduli (GPa) = 91.01048 124.19661 83.90941
#
# Poissons Ratio (x) = 0.34489 0.35825
# Poissons Ratio (y) = 0.25273 0.12367
# Poissons Ratio (z) = 0.38857 0.18305
#
# Static dielectric constant tensor:
#      x y z
#    x 1.783470 0.000000 0.000000 
#    y 0.000000 1.814500 0.000000 
#    z 0.000000 0.000000 1.708950 
# 
# From -- ./inp_files/24358.got.cif
#   From: 2010.05.17/outbox.cif.g08.bks.cpg/sg50_13_cif.got.tgz:24358.got - 2010.06.03 11:33:33.
