data_PCOD9397359
_publ_section_title
;
Structure prediction by ZEFSAII (Michael W. Deem and Ramdas Pophale) SiO2 
 PCOD9397359
Probable space group: P B A N
;
_chemical_formula_sum "Si O2"
_cell_formula_units_Z 40
_cell_length_a 5.128899
_cell_length_b 18.231155
_cell_length_c 18.967983
_cell_angle_alpha 90.000000
_cell_angle_beta 90.000000
_cell_angle_gamma 90.000000
_cell_volume 1773.615527
_symmetry_space_group_name_H-M "P B A N"
_symmetry_group_IT_number 50
_space_group.IT_coordinate_system_code '2'
_symmetry_cell_setting 'orthorhombic'
loop_
_space_group_symop_operation_xyz
x,y,z
1/2-x,1/2-y,z
x,1/2-y,-z
1/2-x,y,-z
-x,-y,-z
1/2+x,1/2+y,-z
-x,1/2+y,z
1/2+x,-y,z
loop_
_atom_site_type_symbol
_atom_site_label
_atom_site_fract_x
_atom_site_fract_y
_atom_site_fract_z
Si Si1 0.250000 0.076979 0.000000
Si Si2 0.128824 0.446133 0.650596
Si Si3 0.250000 0.053162 0.500000
Si Si4 0.646853 0.828441 0.228221
Si Si5 0.580349 0.543483 0.152701
Si Si6 0.250000 0.750000 0.874163
Si Si7 0.250000 0.658624 0.000000
O O1 0.108936 0.041633 0.932285
O O2 0.501102 0.118321 0.967248
O O3 0.377049 0.500927 0.656757
O O4 0.196464 0.408155 0.574588
O O5 0.088398 0.382795 0.707855
O O6 0.500000 0.000000 0.500000
O O7 0.750000 0.750000 0.254525
O O8 0.852263 0.877040 0.183335
O O9 0.420733 0.802173 0.174992
O O10 0.304190 0.513088 0.176590
O O11 0.111371 0.700677 0.934729
#
# Coordination Sequence:
#
# PCOD9397359 Si02
#       7
#     4   8   4   8   8   4   4
#     4  12  22  44  65  92 118 159 224 294 352 405
#     4  10  22  43  71 104 137 177 220 271 328 400
#     4   8  16  36  69 102 133 172 220 258 312 396
#     4  12  27  43  66  96 136 178 225 280 340 408
#     4  12  26  44  66  92 127 167 218 286 353 412
#     4  11  26  42  64  88 131 178 232 278 347 416
#     4  11  24  43  67  88 121 175 231 288 347 415
#
# _framework density 22.552800999999999
#
# number of rings (size 3 to 8) (size 9 to 14) (size 15 to 20)
#    0.000    1.000    2.000    4.200    5.600    0.800 
#    0.000    0.500    0.000    0.000    0.000    0.000 
#    0.000    0.000    0.000    0.000    0.000    0.000 
#
# Total GULP energy -223095.727457 kJ/mol
# GULP energy per Si atom -5577.393186 kJ/mol
# Density = 2.250147 g / cm^3
# Si number density = 22.552801 Si / 1000 Ang^3
#
#
#
# Elastic Constant Matrix: (Units=GPa)
#
#
# Indices 1 2 3 4 5 6 
#
# 1 102.0318 18.9029 11.6296 0.0000 0.0000 0.0000
# 2 18.9029 114.5320 49.9957 0.0000 0.0000 0.0000
# 3 11.6296 49.9957 147.4509 0.0000 0.0000 0.0000
# 4 0.0000 0.0000 0.0000 29.9268 0.0000 0.0000
# 5 0.0000 0.0000 0.0000 0.0000 26.3258 0.0000
# 6 0.0000 0.0000 0.0000 0.0000 0.0000 25.9237
#
#
#
# Elastic Compliance Matrix: (Units=1/GPa)
#
#
# Indices 1 2 3 4 5 6 
#
# 1 0.010119 -0.001551 -0.000272 0.000000 0.000000 0.000000
# 2 -0.001551 0.010486 -0.003433 0.000000 0.000000 0.000000
# 3 -0.000272 -0.003433 0.007967 0.000000 0.000000 0.000000
# 4 0.000000 0.000000 0.000000 0.033415 0.000000 0.000000
# 5 0.000000 0.000000 0.000000 0.000000 0.037986 0.000000
# 6 0.000000 0.000000 0.000000 0.000000 0.000000 0.038575
#
#
# Mechanical properties :
#
#
# Convention : Reuss Voigt Hill
#
# Bulk Modulus (GPa) = 55.37245 58.34125 56.85685
# Shear Modulus (GPa) = 32.24130 35.33435 33.78782
#
# Velocity S-wave (km/s) = 3.78510 3.96250 3.87481
# Velocity P-wave (km/s) = 6.61122 6.84544 6.72935
#
# Compressibility (1/GPa) = 0.01805952
#
# Stress axis : x y z
#
# Youngs Moduli (GPa) = 98.82116 95.36682 125.51133
#
# Poissons Ratio (x) = 0.14795 0.03415
# Poissons Ratio (y) = 0.15331 0.43089
# Poissons Ratio (z) = 0.02689 0.32740
#
# Static dielectric constant tensor:
#      x y z
#    x 1.905310 0.000000 0.000000 
#    y 0.000000 2.010330 0.000000 
#    z 0.000000 0.000000 1.951890 
# 
# From -- ./inp_files/30335.got.cif
#   From: 2010.05.17/outbox.cif.g08.bks.cpg/sg50_16_cif.got.tgz:30335.got - 2010.06.03 11:33:33.
