data_PCOD9397170
_publ_section_title
;
Structure prediction by ZEFSAII (Michael W. Deem and Ramdas Pophale) SiO2 
 PCOD9397170
Probable space group: P B A N
;
_chemical_formula_sum "Si O2"
_cell_formula_units_Z 26
_cell_length_a 5.353242
_cell_length_b 17.708303
_cell_length_c 11.725627
_cell_angle_alpha 90.000000
_cell_angle_beta 90.000000
_cell_angle_gamma 90.000000
_cell_volume 1111.552285
_symmetry_space_group_name_H-M "P B A N"
_symmetry_group_IT_number 50
_space_group.IT_coordinate_system_code '2'
_symmetry_cell_setting 'orthorhombic'
loop_
_space_group_symop_operation_xyz
x,y,z
1/2-x,1/2-y,z
x,1/2-y,-z
1/2-x,y,-z
-x,-y,-z
1/2+x,1/2+y,-z
-x,1/2+y,z
1/2+x,-y,z
loop_
_atom_site_type_symbol
_atom_site_label
_atom_site_fract_x
_atom_site_fract_y
_atom_site_fract_z
Si Si1 0.250000 0.750000 0.500000
Si Si2 0.498910 0.217788 0.128048
Si Si3 0.979650 0.545785 0.825204
Si Si4 0.508010 0.397347 0.567676
O O1 0.418660 0.691810 0.427347
O O2 0.250000 0.250000 0.185989
O O3 0.495505 0.128100 0.119601
O O4 0.750000 0.250000 0.182792
O O5 0.497741 0.250000 0.000000
O O6 0.222037 0.496116 0.853575
O O7 0.985964 0.564485 0.690032
O O8 0.750000 0.429417 0.500000
O O9 0.250000 0.402985 0.500000
#
# Coordination Sequence:
#
# PCOD9397170 Si02
#       4
#     2   8   8   8
#     4   8  22  36  58  96 124 188 228 280 298 392
#     4  10  23  46  72  99 127 177 231 284 342 413
#     4  12  26  43  68 104 142 180 226 285 351 411
#     4  10  22  39  62  93 136 184 230 272 327 387
#
# _framework density 23.390713000000002
#
# number of rings (size 3 to 8) (size 9 to 14) (size 15 to 20)
#    0.923    0.615    0.000    4.154    2.154    6.154 
#    0.000   18.462    0.000    0.000    0.000    0.000 
#    0.000    0.000    0.000    0.000    0.000    0.000 
#
# Total GULP energy -145466.223640 kJ/mol
# GULP energy per Si atom -5594.854755 kJ/mol
# Density = 2.333748 g / cm^3
# Si number density = 23.390713 Si / 1000 Ang^3
#
#
#
# Elastic Constant Matrix: (Units=GPa)
#
#
# Indices 1 2 3 4 5 6 
#
# 1 244.2604 87.1954 24.3270 0.0000 0.0000 0.0000
# 2 87.1954 213.2609 23.3599 0.0000 0.0000 0.0000
# 3 24.3270 23.3599 77.1502 0.0000 0.0000 0.0000
# 4 0.0000 0.0000 0.0000 59.6830 0.0000 0.0000
# 5 0.0000 0.0000 0.0000 0.0000 -14.1435 0.0000
# 6 0.0000 0.0000 0.0000 0.0000 0.0000 14.4937
#
#
#
# Elastic Compliance Matrix: (Units=1/GPa)
#
#
# Indices 1 2 3 4 5 6 
#
# 1 0.004862 -0.001882 -0.000963 0.000000 0.000000 0.000000
# 2 -0.001882 0.005579 -0.001096 0.000000 0.000000 0.000000
# 3 -0.000963 -0.001096 0.013597 0.000000 0.000000 0.000000
# 4 0.000000 0.000000 0.000000 0.016755 0.000000 0.000000
# 5 0.000000 0.000000 0.000000 0.000000 -0.070704 0.000000
# 6 0.000000 0.000000 0.000000 0.000000 0.000000 0.068995
#
#
# Mechanical properties :
#
#
# Convention : Reuss Voigt Hill
#
# Bulk Modulus (GPa) = 61.89798 89.38178 75.63988
# Shear Modulus (GPa) = 95.50787 38.65927 67.08357
#
# Velocity S-wave (km/s) = 6.39689 4.06983 5.36114
# Velocity P-wave (km/s) = 9.00446 7.77046 8.41013
#
# Compressibility (1/GPa) = 0.01615562
#
# Stress axis : x y z
#
# Youngs Moduli (GPa) = 205.68214 179.25202 73.54489
#
# Poissons Ratio (x) = 0.33742 0.07083
# Poissons Ratio (y) = 0.38717 0.08058
# Poissons Ratio (z) = 0.19809 0.19639
#
# Static dielectric constant tensor:
#      x y z
#    x 1.858680 0.000000 0.000000 
#    y 0.000000 1.864080 0.000000 
#    z 0.000000 0.000000 96.270260 
# 
# From -- ./inp_files/23571.got.cif
#   From: 2010.05.17/outbox.cif.g08.bks.cpg/sg50_12_cif.got.tgz:23571.got - 2010.06.03 11:33:33.
