data_PCOD9397940
_publ_section_title
;
Structure prediction by ZEFSAII (Michael W. Deem and Ramdas Pophale) SiO2 
 PCOD9397940
Probable space group: P B A N
;
_chemical_formula_sum "Si O2"
_cell_formula_units_Z 48
_cell_length_a 9.804243
_cell_length_b 27.036343
_cell_length_c 8.570407
_cell_angle_alpha 90.000000
_cell_angle_beta 90.000000
_cell_angle_gamma 90.000000
_cell_volume 2271.765296
_symmetry_space_group_name_H-M "P B A N"
_symmetry_group_IT_number 50
_space_group.IT_coordinate_system_code '2'
_symmetry_cell_setting 'orthorhombic'
loop_
_space_group_symop_operation_xyz
x,y,z
1/2-x,1/2-y,z
x,1/2-y,-z
1/2-x,y,-z
-x,-y,-z
1/2+x,1/2+y,-z
-x,1/2+y,z
1/2+x,-y,z
loop_
_atom_site_type_symbol
_atom_site_label
_atom_site_fract_x
_atom_site_fract_y
_atom_site_fract_z
Si Si1 0.799386 0.857590 0.331862
Si Si2 0.750000 0.750000 0.251237
Si Si3 0.023373 0.250000 0.000000
Si Si4 0.131812 0.000478 0.387700
Si Si5 0.554252 0.141986 0.116209
Si Si6 0.054764 0.088067 0.182405
Si Si7 0.728828 0.105866 0.668827
O O1 0.750000 0.875846 0.500000
O O2 0.792051 0.798562 0.339812
O O3 0.687513 0.878548 0.211606
O O4 0.947939 0.867284 0.259759
O O5 0.876982 0.736010 0.141867
O O6 0.954253 0.198295 0.949000
O O7 0.250000 0.021595 0.500000
O O8 0.100697 0.033012 0.234219
O O9 0.191479 0.946831 0.340967
O O10 0.000000 0.000000 0.500000
O O11 0.702444 0.133816 0.188120
O O12 0.507279 0.102589 0.984923
O O13 0.930986 0.099726 0.300809
O O14 0.750000 0.130285 0.500000
#
# Coordination Sequence:
#
# PCOD9397940 Si02
#       7
#     8   4   4   8   8   8   8
#     4  11  22  37  66  99 132 176 226 282 334 404
#     4   9  17  36  62  96 132 168 218 282 330 388
#     4   9  18  40  65  92 138 171 221 280 346 395
#     4  11  23  44  69 101 139 188 223 282 351 405
#     4  11  24  42  69  99 134 186 230 285 345 410
#     4  12  23  41  66 100 136 177 229 274 346 409
#     4  11  24  44  67  98 138 179 228 289 342 415
#
# _framework density 21.128944000000001
#
# number of rings (size 3 to 8) (size 9 to 14) (size 15 to 20)
#    0.000    1.167    5.000    2.750    2.333    0.667 
#    0.000    3.333    0.000    1.000    0.000    0.000 
#    0.000    0.000    0.000    0.000    0.000    0.000 
#
# Total GULP energy -267791.146302 kJ/mol
# GULP energy per Si atom -5578.982215 kJ/mol
# Density = 2.108085 g / cm^3
# Si number density = 21.128944 Si / 1000 Ang^3
#
#
#
# Elastic Constant Matrix: (Units=GPa)
#
#
# Indices 1 2 3 4 5 6 
#
# 1 79.6946 2.2146 -13.1527 0.0000 0.0000 0.0000
# 2 2.2146 82.1361 11.0957 0.0000 0.0000 0.0000
# 3 -13.1527 11.0957 81.6425 0.0000 0.0000 0.0000
# 4 0.0000 0.0000 0.0000 13.5268 0.0000 0.0000
# 5 0.0000 0.0000 0.0000 0.0000 41.4525 0.0000
# 6 0.0000 0.0000 0.0000 0.0000 0.0000 21.5715
#
#
#
# Elastic Compliance Matrix: (Units=1/GPa)
#
#
# Indices 1 2 3 4 5 6 
#
# 1 0.012924 -0.000641 0.002169 0.000000 0.000000 0.000000
# 2 -0.000641 0.012434 -0.001793 0.000000 0.000000 0.000000
# 3 0.002169 -0.001793 0.012842 0.000000 0.000000 0.000000
# 4 0.000000 0.000000 0.000000 0.073927 0.000000 0.000000
# 5 0.000000 0.000000 0.000000 0.000000 0.024124 0.000000
# 6 0.000000 0.000000 0.000000 0.000000 0.000000 0.046357
#
#
# Mechanical properties :
#
#
# Convention : Reuss Voigt Hill
#
# Bulk Modulus (GPa) = 26.54716 27.08760 26.81738
# Shear Modulus (GPa) = 25.54984 31.53120 28.54052
#
# Velocity S-wave (km/s) = 3.48118 3.86725 3.67928
# Velocity P-wave (km/s) = 5.36188 5.72615 5.54701
#
# Compressibility (1/GPa) = 0.03766881
#
# Stress axis : x y z
#
# Youngs Moduli (GPa) = 77.37699 80.42167 77.87129
#
# Poissons Ratio (x) = 0.05159 -0.16892
# Poissons Ratio (y) = 0.04964 0.13964
# Poissons Ratio (z) = -0.16785 0.14422
#
# Static dielectric constant tensor:
#      x y z
#    x 1.754340 0.000000 0.000000 
#    y 0.000000 1.761930 0.000000 
#    z 0.000000 0.000000 1.797800 
# 
# From -- ./inp_files/10149.got.cif
#   From: 2010.05.17/outbox.cif.g08.bks.cpg/sg50_6_cif.got.tgz:10149.got - 2010.06.03 11:33:33.
