data_PCOD9397383
_publ_section_title
;
Structure prediction by ZEFSAII (Michael W. Deem and Ramdas Pophale) SiO2 
 PCOD9397383
Probable space group: P B A N
;
_chemical_formula_sum "Si O2"
_cell_formula_units_Z 44
_cell_length_a 17.414221
_cell_length_b 9.688862
_cell_length_c 13.362788
_cell_angle_alpha 90.000000
_cell_angle_beta 90.000000
_cell_angle_gamma 90.000000
_cell_volume 2254.622830
_symmetry_space_group_name_H-M "P B A N"
_symmetry_group_IT_number 50
_space_group.IT_coordinate_system_code '2'
_symmetry_cell_setting 'orthorhombic'
loop_
_space_group_symop_operation_xyz
x,y,z
1/2-x,1/2-y,z
x,1/2-y,-z
1/2-x,y,-z
-x,-y,-z
1/2+x,1/2+y,-z
-x,1/2+y,z
1/2+x,-y,z
loop_
_atom_site_type_symbol
_atom_site_label
_atom_site_fract_x
_atom_site_fract_y
_atom_site_fract_z
Si Si1 0.986272 0.250000 0.000000
Si Si2 0.770564 0.091003 0.618880
Si Si3 0.053269 0.495321 0.130391
Si Si4 0.933319 0.727196 0.391742
Si Si5 0.947831 0.053573 0.678736
Si Si6 0.688147 0.641800 0.248819
O O1 0.034645 0.131436 0.944279
O O2 0.943436 0.351708 0.919850
O O3 0.750000 0.250000 0.643360
O O4 0.750000 0.074606 0.500000
O O5 0.858103 0.076309 0.658414
O O6 0.725817 0.969495 0.676467
O O7 0.133906 0.450517 0.178398
O O8 0.983466 0.486087 0.212229
O O9 0.898746 0.750000 0.500000
O O10 0.966635 0.576100 0.389163
O O11 0.869161 0.758462 0.309983
O O12 0.004182 0.821255 0.362924
O O13 0.750000 0.750000 0.203708
#
# Coordination Sequence:
#
# PCOD9397383 Si02
#       6
#     4   8   8   8   8   8
#     4  10  22  44  73  97 122 156 216 282 340 414
#     4  11  26  40  61  93 140 183 220 263 314 378
#     4  10  23  42  72  96 125 164 218 271 346 395
#     4  11  23  36  61  91 130 175 224 259 300 376
#     4  11  23  40  63  94 129 173 218 266 318 387
#     4  11  23  41  64  94 131 175 212 271 326 393
#
# _framework density 19.515460000000001
#
# number of rings (size 3 to 8) (size 9 to 14) (size 15 to 20)
#    0.000    1.273    1.818    3.818   10.182    0.000 
#    0.000    0.455    0.000    1.091    0.000    0.000 
#    0.000    0.000    0.000    0.000    0.000    0.000 
#
# Total GULP energy -245048.424631 kJ/mol
# GULP energy per Si atom -5569.282378 kJ/mol
# Density = 1.947104 g / cm^3
# Si number density = 19.515460 Si / 1000 Ang^3
#
#
#
# Elastic Constant Matrix: (Units=GPa)
#
#
# Indices 1 2 3 4 5 6 
#
# 1 122.3520 53.0358 38.0040 0.0000 0.0000 0.0000
# 2 53.0358 163.6370 23.8221 0.0000 0.0000 0.0000
# 3 38.0040 23.8221 65.9493 0.0000 0.0000 0.0000
# 4 0.0000 0.0000 0.0000 39.1404 0.0000 0.0000
# 5 0.0000 0.0000 0.0000 0.0000 28.7789 0.0000
# 6 0.0000 0.0000 0.0000 0.0000 0.0000 23.1452
#
#
#
# Elastic Compliance Matrix: (Units=1/GPa)
#
#
# Indices 1 2 3 4 5 6 
#
# 1 0.011052 -0.002802 -0.005356 0.000000 0.000000 0.000000
# 2 -0.002802 0.007161 -0.000972 0.000000 0.000000 0.000000
# 3 -0.005356 -0.000972 0.018601 0.000000 0.000000 0.000000
# 4 0.000000 0.000000 0.000000 0.025549 0.000000 0.000000
# 5 0.000000 0.000000 0.000000 0.000000 0.034748 0.000000
# 6 0.000000 0.000000 0.000000 0.000000 0.000000 0.043205
#
#
# Mechanical properties :
#
#
# Convention : Reuss Voigt Hill
#
# Bulk Modulus (GPa) = 53.90114 64.62910 59.26512
# Shear Modulus (GPa) = 30.34713 34.01800 32.18257
#
# Velocity S-wave (km/s) = 3.94767 4.17961 4.06529
# Velocity P-wave (km/s) = 6.96121 7.51538 7.24360
#
# Compressibility (1/GPa) = 0.01855248
#
# Stress axis : x y z
#
# Youngs Moduli (GPa) = 90.48534 139.65028 53.76087
#
# Poissons Ratio (x) = 0.39131 0.28796
# Poissons Ratio (y) = 0.25355 0.05225
# Poissons Ratio (z) = 0.48467 0.13572
#
# Static dielectric constant tensor:
#      x y z
#    x 1.701370 0.000000 0.000000 
#    y 0.000000 1.682250 0.000000 
#    z 0.000000 0.000000 1.747630 
# 
# From -- ./inp_files/24894.got.cif
#   From: 2010.05.17/outbox.cif.g08.bks.cpg/sg50_13_cif.got.tgz:24894.got - 2010.06.03 11:33:33.
