data_PCOD9397462
_publ_section_title
;
Structure prediction by ZEFSAII (Michael W. Deem and Ramdas Pophale) SiO2 
 PCOD9397462
Probable space group: P B A N
;
_chemical_formula_sum "Si O2"
_cell_formula_units_Z 24
_cell_length_a 14.519259
_cell_length_b 5.245665
_cell_length_c 13.856594
_cell_angle_alpha 90.000000
_cell_angle_beta 90.000000
_cell_angle_gamma 90.000000
_cell_volume 1055.362107
_symmetry_space_group_name_H-M "P B A N"
_symmetry_group_IT_number 50
_space_group.IT_coordinate_system_code '2'
_symmetry_cell_setting 'orthorhombic'
loop_
_space_group_symop_operation_xyz
x,y,z
1/2-x,1/2-y,z
x,1/2-y,-z
1/2-x,y,-z
-x,-y,-z
1/2+x,1/2+y,-z
-x,1/2+y,z
1/2+x,-y,z
loop_
_atom_site_type_symbol
_atom_site_label
_atom_site_fract_x
_atom_site_fract_y
_atom_site_fract_z
Si Si1 0.948551 0.267295 0.384268
Si Si2 0.189931 0.508281 0.759800
Si Si3 0.896447 0.997760 0.956606
O O1 0.941826 0.250000 0.500000
O O2 0.858287 0.390089 0.337381
O O3 0.026847 0.476800 0.355273
O O4 0.250000 0.250000 0.750269
O O5 0.111688 0.478250 0.841929
O O6 0.250000 0.750000 0.793065
O O7 0.853704 0.250000 0.000000
O O8 0.850530 0.750000 0.000000
O O9 0.000000 0.000000 0.000000
#
# Coordination Sequence:
#
# PCOD9397462 Si02
#       3
#     8   8   8
#     4  10  23  44  72  99 131 180 232 277 334 422
#     4  12  26  42  68 105 140 176 226 295 357 409
#     4  10  23  40  64  94 130 189 229 275 333 416
#
# _framework density 22.741009999999999
#
# number of rings (size 3 to 8) (size 9 to 14) (size 15 to 20)
#    0.000    1.333    0.000    4.000    9.333    4.667 
#    0.000    1.667    0.000    0.000    0.000    0.000 
#    0.000    0.000    0.000    0.000    0.000    0.000 
#
# Total GULP energy -133921.459891 kJ/mol
# GULP energy per Si atom -5580.060829 kJ/mol
# Density = 2.268925 g / cm^3
# Si number density = 22.741010 Si / 1000 Ang^3
#
#
#
# Elastic Constant Matrix: (Units=GPa)
#
#
# Indices 1 2 3 4 5 6 
#
# 1 115.0971 36.7039 44.9267 0.0000 0.0000 0.0000
# 2 36.7039 208.1168 59.0297 0.0000 0.0000 0.0000
# 3 44.9267 59.0297 86.3452 0.0000 0.0000 0.0000
# 4 0.0000 0.0000 0.0000 26.7319 0.0000 0.0000
# 5 0.0000 0.0000 0.0000 0.0000 -4.3929 0.0000
# 6 0.0000 0.0000 0.0000 0.0000 0.0000 9.5993
#
#
#
# Elastic Compliance Matrix: (Units=1/GPa)
#
#
# Indices 1 2 3 4 5 6 
#
# 1 0.010928 -0.000390 -0.005419 0.000000 0.000000 0.000000
# 2 -0.000390 0.005975 -0.003882 0.000000 0.000000 0.000000
# 3 -0.005419 -0.003882 0.017055 0.000000 0.000000 0.000000
# 4 0.000000 0.000000 0.000000 0.037408 0.000000 0.000000
# 5 0.000000 0.000000 0.000000 0.000000 -0.227638 0.000000
# 6 0.000000 0.000000 0.000000 0.000000 0.000000 0.104174
#
#
# Mechanical properties :
#
#
# Convention : Reuss Voigt Hill
#
# Bulk Modulus (GPa) = 68.60840 76.76443 72.68641
# Shear Modulus (GPa) = -179.48438 24.31424 -77.58507
#
# Velocity S-wave (km/s) = -8.89364 3.27338 -5.84730
# Velocity P-wave (km/s) = 8.67337 6.93656 3.68181
#
# Compressibility (1/GPa) = 0.01457548
#
# Stress axis : x y z
#
# Youngs Moduli (GPa) = 91.50715 167.37005 58.63440
#
# Poissons Ratio (x) = 0.06531 0.31776
# Poissons Ratio (y) = 0.03570 0.22760
# Poissons Ratio (z) = 0.49591 0.64967
#
# Static dielectric constant tensor:
#      x y z
#    x 1.871600 0.000000 0.000000 
#    y 0.000000 1.876530 0.000000 
#    z 0.000000 0.000000 1.846370 
# 
# From -- ./inp_files/26107.got.cif
#   From: 2010.05.17/outbox.cif.g08.bks.cpg/sg50_14_cif.got.tgz:26107.got - 2010.06.03 11:33:33.
