data_PCOD9397754
_publ_section_title
;
Structure prediction by ZEFSAII (Michael W. Deem and Ramdas Pophale) SiO2 
 PCOD9397754
Probable space group: P B A N
;
_chemical_formula_sum "Si O2"
_cell_formula_units_Z 64
_cell_length_a 25.513131
_cell_length_b 22.646750
_cell_length_c 5.140855
_cell_angle_alpha 90.000000
_cell_angle_beta 90.000000
_cell_angle_gamma 90.000000
_cell_volume 2970.332037
_symmetry_space_group_name_H-M "P B A N"
_symmetry_group_IT_number 50
_space_group.IT_coordinate_system_code '2'
_symmetry_cell_setting 'orthorhombic'
loop_
_space_group_symop_operation_xyz
x,y,z
1/2-x,1/2-y,z
x,1/2-y,-z
1/2-x,y,-z
-x,-y,-z
1/2+x,1/2+y,-z
-x,1/2+y,z
1/2+x,-y,z
loop_
_atom_site_type_symbol
_atom_site_label
_atom_site_fract_x
_atom_site_fract_y
_atom_site_fract_z
Si Si1 0.618757 0.589175 0.521649
Si Si2 0.403902 0.212072 0.758989
Si Si3 0.018509 0.663304 0.132514
Si Si4 0.633586 0.288309 0.241181
Si Si5 0.905301 0.029019 0.782625
Si Si6 0.000836 0.410527 0.369401
Si Si7 0.649362 0.422020 0.279568
Si Si8 0.214981 0.036597 0.752237
O O1 0.622053 0.649801 0.680868
O O2 0.616274 0.536037 0.730323
O O3 0.563320 0.585740 0.369059
O O4 0.664011 0.575744 0.314405
O O5 0.401450 0.250000 0.500000
O O6 0.464894 0.198585 0.820205
O O7 0.382230 0.250000 0.000000
O O8 0.071647 0.697798 0.194162
O O9 0.014417 0.610598 0.343022
O O10 0.016952 0.639040 0.839238
O O11 0.639608 0.250000 0.500000
O O12 0.659860 0.352902 0.250639
O O13 0.652943 0.250000 0.000000
O O14 0.875660 0.067588 0.563014
O O15 0.966878 0.033343 0.718256
O O16 0.891493 0.055851 0.059833
O O17 0.696377 0.468179 0.237516
O O18 0.250000 0.043492 0.500000
O O19 0.250000 0.051834 0.000000
#
# Coordination Sequence:
#
# PCOD9397754 Si02
#       8
#     8   8   8   8   8   8   8   8
#     4  10  25  40  68 100 128 176 226 266 337 410
#     4  11  23  40  59  89 136 180 216 262 314 385
#     4  11  21  36  55  88 132 187 231 244 299 369
#     4  12  22  35  59  89 132 181 228 264 297 368
#     4  11  20  39  61  94 136 174 215 268 318 397
#     4  11  20  36  59  91 137 174 209 269 316 379
#     4  11  23  41  64  95 133 172 222 269 334 391
#     4  11  25  47  73  97 124 162 217 293 356 407
#
# _framework density 21.546415
#
# number of rings (size 3 to 8) (size 9 to 14) (size 15 to 20)
#    0.000    1.000    2.500    5.625    0.000    9.000 
#    0.000    6.250    0.000    2.625    0.000    5.250 
#    0.000    0.000    0.000    0.000    0.000    0.000 
#
# Total GULP energy -358105.978242 kJ/mol
# GULP energy per Si atom -5595.405910 kJ/mol
# Density = 2.149737 g / cm^3
# Si number density = 21.546415 Si / 1000 Ang^3
#
#
#
# Elastic Constant Matrix: (Units=GPa)
#
#
# Indices 1 2 3 4 5 6 
#
# 1 47.2301 0.1183 26.2263 0.0000 0.0000 0.0000
# 2 0.1183 118.8946 33.9562 0.0000 0.0000 0.0000
# 3 26.2263 33.9562 122.4093 0.0000 0.0000 0.0000
# 4 0.0000 0.0000 0.0000 30.9020 0.0000 0.0000
# 5 0.0000 0.0000 0.0000 0.0000 28.7787 0.0000
# 6 0.0000 0.0000 0.0000 0.0000 0.0000 147.8528
#
#
#
# Elastic Compliance Matrix: (Units=1/GPa)
#
#
# Indices 1 2 3 4 5 6 
#
# 1 0.024305 0.001589 -0.005648 0.000000 0.000000 0.000000
# 2 0.001589 0.009238 -0.002903 0.000000 0.000000 0.000000
# 3 -0.005648 -0.002903 0.010185 0.000000 0.000000 0.000000
# 4 0.000000 0.000000 0.000000 0.032360 0.000000 0.000000
# 5 0.000000 0.000000 0.000000 0.000000 0.034748 0.000000
# 6 0.000000 0.000000 0.000000 0.000000 0.000000 0.006763
#
#
# Mechanical properties :
#
#
# Convention : Reuss Voigt Hill
#
# Bulk Modulus (GPa) = 33.55295 45.45951 39.50623
# Shear Modulus (GPa) = 35.34580 56.72225 46.03403
#
# Velocity S-wave (km/s) = 4.05464 5.13642 4.62725
# Velocity P-wave (km/s) = 6.12588 7.50475 6.85009
#
# Compressibility (1/GPa) = 0.02980363
#
# Stress axis : x y z
#
# Youngs Moduli (GPa) = 41.14327 108.24424 98.18579
#
# Poissons Ratio (x) = -0.17199 0.55457
# Poissons Ratio (y) = -0.06537 0.28505
# Poissons Ratio (z) = 0.23239 0.31425
#
# Static dielectric constant tensor:
#      x y z
#    x 1.759040 0.000000 0.000000 
#    y 0.000000 0.597560 0.000000 
#    z 0.000000 0.000000 1.751900 
# 
# From -- ./inp_files/6803.got.cif
#   From: 2010.05.17/outbox.cif.g08.bks.cpg/sg50_4_cif.got.tgz:6803.got - 2010.06.03 11:33:33.
