data_PCOD9397363
_publ_section_title
;
Structure prediction by ZEFSAII (Michael W. Deem and Ramdas Pophale) SiO2 
 PCOD9397363
Probable space group: P B A N
;
_chemical_formula_sum "Si O2"
_cell_formula_units_Z 48
_cell_length_a 8.741695
_cell_length_b 15.574816
_cell_length_c 17.622041
_cell_angle_alpha 90.000000
_cell_angle_beta 90.000000
_cell_angle_gamma 90.000000
_cell_volume 2399.246013
_symmetry_space_group_name_H-M "P B A N"
_symmetry_group_IT_number 50
_space_group.IT_coordinate_system_code '2'
_symmetry_cell_setting 'orthorhombic'
loop_
_space_group_symop_operation_xyz
x,y,z
1/2-x,1/2-y,z
x,1/2-y,-z
1/2-x,y,-z
-x,-y,-z
1/2+x,1/2+y,-z
-x,1/2+y,z
1/2+x,-y,z
loop_
_atom_site_type_symbol
_atom_site_label
_atom_site_fract_x
_atom_site_fract_y
_atom_site_fract_z
Si Si1 0.421650 0.216341 0.586480
Si Si2 0.750000 0.250000 0.335979
Si Si3 0.676285 0.876951 0.923227
Si Si4 0.726003 0.419970 0.239272
Si Si5 0.609503 0.591029 0.709822
Si Si6 0.341695 0.951537 0.922438
Si Si7 0.750000 0.750000 0.800688
O O1 0.250000 0.250000 0.607641
O O2 0.432839 0.250000 0.500000
O O3 0.586498 0.245418 0.620622
O O4 0.413721 0.119008 0.621549
O O5 0.765498 0.335521 0.286344
O O6 0.518053 0.927823 0.934572
O O7 0.649161 0.806623 0.858763
O O8 0.803027 0.949082 0.902787
O O9 0.750000 0.840860 0.000000
O O10 0.790389 0.506933 0.277046
O O11 0.545749 0.430004 0.246710
O O12 0.780165 0.406523 0.153216
O O13 0.669225 0.677932 0.750310
O O14 0.250000 0.931683 0.000000
#
# Coordination Sequence:
#
# PCOD9397363 Si02
#       7
#     8   4   8   8   8   8   4
#     4  10  22  43  73 101 139 179 218 271 348 414
#     4  10  25  44  71 100 144 174 238 290 343 414
#     4  11  24  41  63  90 128 175 224 285 341 411
#     4  11  25  42  69 101 133 179 236 282 349 403
#     4  11  25  42  72  99 135 181 221 287 339 415
#     4  11  23  40  66  89 133 175 227 285 342 400
#     4  12  25  40  67  92 132 172 230 276 349 396
#
# _framework density 20.006284999999998
#
# number of rings (size 3 to 8) (size 9 to 14) (size 15 to 20)
#    0.000    1.167    2.500    3.500    9.333    0.000 
#    0.000    1.250    3.667    0.000    0.000    0.000 
#    0.000    0.000    0.000    0.000    0.000    0.000 
#
# Total GULP energy -267237.523902 kJ/mol
# GULP energy per Si atom -5567.448415 kJ/mol
# Density = 1.996075 g / cm^3
# Si number density = 20.006285 Si / 1000 Ang^3
#
#
#
# Elastic Constant Matrix: (Units=GPa)
#
#
# Indices 1 2 3 4 5 6 
#
# 1 130.1084 76.0274 54.5596 0.0000 0.0000 0.0000
# 2 76.0274 135.0488 62.6595 0.0000 0.0000 0.0000
# 3 54.5596 62.6595 142.9672 0.0000 0.0000 0.0000
# 4 0.0000 0.0000 0.0000 13.9717 0.0000 0.0000
# 5 0.0000 0.0000 0.0000 0.0000 6.9837 0.0000
# 6 0.0000 0.0000 0.0000 0.0000 0.0000 24.3000
#
#
#
# Elastic Compliance Matrix: (Units=1/GPa)
#
#
# Indices 1 2 3 4 5 6 
#
# 1 0.011899 -0.005764 -0.002015 0.000000 0.000000 0.000000
# 2 -0.005764 0.012087 -0.003098 0.000000 0.000000 0.000000
# 3 -0.002015 -0.003098 0.009121 0.000000 0.000000 0.000000
# 4 0.000000 0.000000 0.000000 0.071573 0.000000 0.000000
# 5 0.000000 0.000000 0.000000 0.000000 0.143190 0.000000
# 6 0.000000 0.000000 0.000000 0.000000 0.000000 0.041152
#
#
# Mechanical properties :
#
#
# Convention : Reuss Voigt Hill
#
# Bulk Modulus (GPa) = 88.07329 88.29082 88.18206
# Shear Modulus (GPa) = 15.89523 23.37628 19.63576
#
# Velocity S-wave (km/s) = 2.82177 3.42196 3.13626
# Velocity P-wave (km/s) = 7.39830 7.73566 7.56886
#
# Compressibility (1/GPa) = 0.01135418
#
# Stress axis : x y z
#
# Youngs Moduli (GPa) = 84.04260 82.73469 109.63496
#
# Poissons Ratio (x) = 0.47686 0.22088
# Poissons Ratio (y) = 0.48440 0.33963
# Poissons Ratio (z) = 0.16932 0.25630
#
# Static dielectric constant tensor:
#      x y z
#    x 1.724200 0.000000 0.000000 
#    y 0.000000 1.600650 0.000000 
#    z 0.000000 0.000000 1.823910 
# 
# From -- ./inp_files/28772.got.cif
#   From: 2010.05.17/outbox.cif.g08.bks.cpg/sg50_15_cif.got.tgz:28772.got - 2010.06.03 11:33:33.
