data_PCOD9397872
_publ_section_title
;
Structure prediction by ZEFSAII (Michael W. Deem and Ramdas Pophale) SiO2 
 PCOD9397872
Probable space group: P B A N
;
_chemical_formula_sum "Si O2"
_cell_formula_units_Z 48
_cell_length_a 17.660950
_cell_length_b 13.406392
_cell_length_c 8.280987
_cell_angle_alpha 90.000000
_cell_angle_beta 90.000000
_cell_angle_gamma 90.000000
_cell_volume 1960.686135
_symmetry_space_group_name_H-M "P B A N"
_symmetry_group_IT_number 50
_space_group.IT_coordinate_system_code '2'
_symmetry_cell_setting 'orthorhombic'
loop_
_space_group_symop_operation_xyz
x,y,z
1/2-x,1/2-y,z
x,1/2-y,-z
1/2-x,y,-z
-x,-y,-z
1/2+x,1/2+y,-z
-x,1/2+y,z
1/2+x,-y,z
loop_
_atom_site_type_symbol
_atom_site_label
_atom_site_fract_x
_atom_site_fract_y
_atom_site_fract_z
Si Si1 0.330582 0.498151 0.842425
Si Si2 0.142733 0.616499 0.837129
Si Si3 0.463830 0.365282 0.379500
Si Si4 0.867897 0.305389 0.669463
Si Si5 0.800635 0.929625 0.661207
Si Si6 0.517682 0.917345 0.738622
O O1 0.337837 0.583126 0.700825
O O2 0.261189 0.426017 0.803275
O O3 0.407235 0.435169 0.839284
O O4 0.329407 0.563337 0.002999
O O5 0.165086 0.728841 0.800146
O O6 0.167043 0.542765 0.689751
O O7 0.051736 0.620364 0.843416
O O8 0.540148 0.311028 0.318076
O O9 0.375072 0.359261 0.329012
O O10 0.487419 0.476935 0.327029
O O11 0.463070 0.358354 0.574503
O O12 0.851864 0.250000 0.500000
O O13 0.750000 0.916379 0.500000
#
# Coordination Sequence:
#
# PCOD9397872 Si02
#       6
#     8   8   8   8   8   8
#     4  11  22  36  57  89 124 157 197 253 314 375
#     4  11  22  36  57  89 124 157 197 253 314 375
#     4   9  18  34  58  84 111 153 212 254 292 355
#     4  11  21  37  60  85 117 161 201 252 307 370
#     4  11  21  37  60  85 117 161 201 252 307 370
#     4   9  17  34  58  82 113 153 210 252 290 355
#
# _framework density 24.481224999999998
#
# number of rings (size 3 to 8) (size 9 to 14) (size 15 to 20)
#    0.000    1.667    3.333    2.500    0.000    0.667 
#    0.000    3.333    0.000    3.500    0.000    0.000 
#    0.000   16.000    0.000    0.000    0.000    0.000 
#
# Total GULP energy -267860.669898 kJ/mol
# GULP energy per Si atom -5580.430623 kJ/mol
# Density = 2.442551 g / cm^3
# Si number density = 24.481225 Si / 1000 Ang^3
#
#
#
# Elastic Constant Matrix: (Units=GPa)
#
#
# Indices 1 2 3 4 5 6 
#
# 1 180.4103 8.5893 46.1676 0.0000 0.0000 0.0000
# 2 8.5893 16.2195 6.4326 0.0000 0.0000 0.0000
# 3 46.1676 6.4326 106.0744 0.0000 0.0000 0.0000
# 4 0.0000 0.0000 0.0000 16.4380 0.0000 0.0000
# 5 0.0000 0.0000 0.0000 0.0000 24.6315 0.0000
# 6 0.0000 0.0000 0.0000 0.0000 0.0000 20.6694
#
#
#
# Elastic Compliance Matrix: (Units=1/GPa)
#
#
# Indices 1 2 3 4 5 6 
#
# 1 0.006321 -0.002312 -0.002611 0.000000 0.000000 0.000000
# 2 -0.002312 0.064019 -0.002876 0.000000 0.000000 0.000000
# 3 -0.002611 -0.002876 0.010738 0.000000 0.000000 0.000000
# 4 0.000000 0.000000 0.000000 0.060835 0.000000 0.000000
# 5 0.000000 0.000000 0.000000 0.000000 0.040598 0.000000
# 6 0.000000 0.000000 0.000000 0.000000 0.000000 0.048381
#
#
# Mechanical properties :
#
#
# Convention : Reuss Voigt Hill
#
# Bulk Modulus (GPa) = 15.27175 47.23148 31.25162
# Shear Modulus (GPa) = 18.63468 28.44875 23.54171
#
# Velocity S-wave (km/s) = 2.76195 3.41260 3.10437
# Velocity P-wave (km/s) = 4.05251 5.90446 5.06387
#
# Compressibility (1/GPa) = 0.06548038
#
# Stress axis : x y z
#
# Youngs Moduli (GPa) = 158.19885 15.62035 93.12577
#
# Poissons Ratio (x) = 0.03611 0.24315
# Poissons Ratio (y) = 0.36575 0.26783
# Poissons Ratio (z) = 0.41306 0.04492
#
# Static dielectric constant tensor:
#      x y z
#    x 2.005140 0.000000 0.000000 
#    y 0.000000 1.965070 0.000000 
#    z 0.000000 0.000000 2.001860 
# 
# From -- ./inp_files/14356.got.cif
#   From: 2010.05.17/outbox.cif.g08.bks.cpg/sg50_8_cif.got.tgz:14356.got - 2010.06.03 11:33:33.
