data_PCOD9397792
_publ_section_title
;
Structure prediction by ZEFSAII (Michael W. Deem and Ramdas Pophale) SiO2 
 PCOD9397792
Probable space group: P B A N
;
_chemical_formula_sum "Si O2"
_cell_formula_units_Z 30
_cell_length_a 9.974593
_cell_length_b 26.477224
_cell_length_c 5.478797
_cell_angle_alpha 90.000000
_cell_angle_beta 90.000000
_cell_angle_gamma 90.000000
_cell_volume 1446.947730
_symmetry_space_group_name_H-M "P B A N"
_symmetry_group_IT_number 50
_space_group.IT_coordinate_system_code '2'
_symmetry_cell_setting 'orthorhombic'
loop_
_space_group_symop_operation_xyz
x,y,z
1/2-x,1/2-y,z
x,1/2-y,-z
1/2-x,y,-z
-x,-y,-z
1/2+x,1/2+y,-z
-x,1/2+y,z
1/2+x,-y,z
loop_
_atom_site_type_symbol
_atom_site_label
_atom_site_fract_x
_atom_site_fract_y
_atom_site_fract_z
Si Si1 0.122782 0.489096 0.823812
Si Si2 0.632686 0.339164 0.202185
Si Si3 0.250000 0.750000 0.500000
Si Si4 0.334274 0.374212 0.251763
Si Si5 0.250000 0.930823 0.500000
O O1 0.126290 0.433211 0.712422
O O2 0.142520 0.532600 0.625298
O O3 0.250000 0.492917 0.000000
O O4 0.000000 0.500000 0.000000
O O5 0.656324 0.288529 0.355035
O O6 0.472234 0.344979 0.184384
O O7 0.676317 0.392294 0.321201
O O8 0.750000 0.333476 0.000000
O O9 0.250000 0.359287 0.500000
O O10 0.250000 0.371498 0.000000
#
# Coordination Sequence:
#
# PCOD9397792 Si02
#       5
#     8   8   2   8   4
#     4  11  23  37  58  96 143 195 238 282 332 416
#     4  11  25  46  74 103 133 184 242 298 361 435
#     4  10  26  48  86  94 132 164 248 298 366 426
#     4  11  26  44  69 105 152 190 232 295 362 426
#     4  11  22  37  68  98 138 187 242 287 334 414
#
# _framework density 20.7333
#
# number of rings (size 3 to 8) (size 9 to 14) (size 15 to 20)
#    0.000    1.067    1.333    4.400   14.933    2.133 
#    0.000    0.667    0.000    0.000    0.000    0.000 
#    0.000    0.000    0.000    0.000    0.000    0.000 
#
# Total GULP energy -167292.538166 kJ/mol
# GULP energy per Si atom -5576.417939 kJ/mol
# Density = 2.068611 g / cm^3
# Si number density = 20.733300 Si / 1000 Ang^3
#
#
#
# Elastic Constant Matrix: (Units=GPa)
#
#
# Indices 1 2 3 4 5 6 
#
# 1 195.0360 67.9335 74.8217 0.0000 0.0000 0.0000
# 2 67.9335 142.8052 54.2434 0.0000 0.0000 0.0000
# 3 74.8217 54.2434 109.8558 0.0000 0.0000 0.0000
# 4 0.0000 0.0000 0.0000 68.4483 0.0000 0.0000
# 5 0.0000 0.0000 0.0000 0.0000 36.3479 0.0000
# 6 0.0000 0.0000 0.0000 0.0000 0.0000 53.7388
#
#
#
# Elastic Compliance Matrix: (Units=1/GPa)
#
#
# Indices 1 2 3 4 5 6 
#
# 1 0.007364 -0.001967 -0.004044 0.000000 0.000000 0.000000
# 2 -0.001967 0.009144 -0.003176 0.000000 0.000000 0.000000
# 3 -0.004044 -0.003176 0.013425 0.000000 0.000000 0.000000
# 4 0.000000 0.000000 0.000000 0.014610 0.000000 0.000000
# 5 0.000000 0.000000 0.000000 0.000000 0.027512 0.000000
# 6 0.000000 0.000000 0.000000 0.000000 0.000000 0.018609
#
#
# Mechanical properties :
#
#
# Convention : Reuss Voigt Hill
#
# Bulk Modulus (GPa) = 86.50411 93.52159 90.01285
# Shear Modulus (GPa) = 44.29068 48.42022 46.35545
#
# Velocity S-wave (km/s) = 4.62693 4.83782 4.73355
# Velocity P-wave (km/s) = 8.38794 8.74133 8.56646
#
# Compressibility (1/GPa) = 0.01156014
#
# Stress axis : x y z
#
# Youngs Moduli (GPa) = 135.79861 109.35613 74.48570
#
# Poissons Ratio (x) = 0.21509 0.30124
# Poissons Ratio (y) = 0.26710 0.23654
# Poissons Ratio (z) = 0.54921 0.34728
#
# Static dielectric constant tensor:
#      x y z
#    x 1.760110 0.000000 0.000000 
#    y 0.000000 1.690110 0.000000 
#    z 0.000000 0.000000 1.795390 
# 
# From -- ./inp_files/1154.got.cif
#   From: 2010.05.17/outbox.cif.g08.bks.cpg/sg50_1_cif.got.tgz:1154.got - 2010.06.03 11:33:33.
