data_PCOD9397499
_publ_section_title
;
Structure prediction by ZEFSAII (Michael W. Deem and Ramdas Pophale) SiO2 
 PCOD9397499
Probable space group: P B A N
;
_chemical_formula_sum "Si O2"
_cell_formula_units_Z 54
_cell_length_a 13.783484
_cell_length_b 13.697003
_cell_length_c 12.532246
_cell_angle_alpha 90.000000
_cell_angle_beta 90.000000
_cell_angle_gamma 90.000000
_cell_volume 2365.993072
_symmetry_space_group_name_H-M "P B A N"
_symmetry_group_IT_number 50
_space_group.IT_coordinate_system_code '2'
_symmetry_cell_setting 'orthorhombic'
loop_
_space_group_symop_operation_xyz
x,y,z
1/2-x,1/2-y,z
x,1/2-y,-z
1/2-x,y,-z
-x,-y,-z
1/2+x,1/2+y,-z
-x,1/2+y,z
1/2+x,-y,z
loop_
_atom_site_type_symbol
_atom_site_label
_atom_site_fract_x
_atom_site_fract_y
_atom_site_fract_z
Si Si1 0.915096 0.574048 0.625752
Si Si2 0.648395 0.286599 0.688238
Si Si3 0.330910 0.060541 0.913665
Si Si4 0.996317 0.637196 0.413196
Si Si5 0.474915 0.597939 0.159303
Si Si6 0.282544 0.362007 0.310144
Si Si7 0.750000 0.250000 0.500000
Si Si8 0.933488 0.750000 0.000000
O O1 0.970073 0.645766 0.540671
O O2 0.801336 0.593457 0.615893
O O3 0.951511 0.467146 0.596887
O O4 0.940801 0.584243 0.752168
O O5 0.750000 0.250000 0.737160
O O6 0.568353 0.206079 0.656543
O O7 0.609543 0.368617 0.762083
O O8 0.685690 0.318996 0.572344
O O9 0.285132 0.075350 0.797827
O O10 0.367774 0.168006 0.945583
O O11 0.426582 0.992009 0.903733
O O12 0.250000 0.027603 0.000000
O O13 0.890713 0.637273 0.357778
O O14 0.503456 0.687522 0.083446
O O15 0.250000 0.250000 0.289743
#
# Coordination Sequence:
#
# PCOD9397499 Si02
#       8
#     8   8   8   8   8   8   2   4
#     4  11  25  43  72 108 151 199 248 317 379 467
#     4  10  23  41  70 104 144 200 244 299 370 457
#     4  12  26  48  76 107 145 198 256 318 395 463
#     4  11  24  45  71 110 159 199 257 305 382 468
#     4  12  26  46  75 108 148 193 259 318 386 457
#     4  12  25  45  75 110 150 199 256 316 382 457
#     4   8  20  40  64  98 138 200 242 276 376 450
#     4  12  27  50  75 104 146 198 250 321 387 456
#
# _framework density 22.823398000000001
#
# number of rings (size 3 to 8) (size 9 to 14) (size 15 to 20)
#    0.444    0.296    1.481    6.444    2.074    3.556 
#    2.667    0.000    0.000    0.000    0.000    0.000 
#    0.000    0.000    0.000    0.000    0.000    0.000 
#
# Total GULP energy -301465.197405 kJ/mol
# GULP energy per Si atom -5582.688841 kJ/mol
# Density = 2.277145 g / cm^3
# Si number density = 22.823398 Si / 1000 Ang^3
#
#
#
# Elastic Constant Matrix: (Units=GPa)
#
#
# Indices 1 2 3 4 5 6 
#
# 1 166.5148 45.1771 42.9181 0.0000 0.0000 0.0000
# 2 45.1771 85.8712 34.4929 0.0000 0.0000 0.0000
# 3 42.9181 34.4929 103.3336 0.0000 0.0000 0.0000
# 4 0.0000 0.0000 0.0000 50.4301 0.0000 0.0000
# 5 0.0000 0.0000 0.0000 0.0000 49.8597 0.0000
# 6 0.0000 0.0000 0.0000 0.0000 0.0000 15.1242
#
#
#
# Elastic Compliance Matrix: (Units=1/GPa)
#
#
# Indices 1 2 3 4 5 6 
#
# 1 0.007359 -0.003053 -0.002037 0.000000 0.000000 0.000000
# 2 -0.003053 0.014715 -0.003644 0.000000 0.000000 0.000000
# 3 -0.002037 -0.003644 0.011740 0.000000 0.000000 0.000000
# 4 0.000000 0.000000 0.000000 0.019829 0.000000 0.000000
# 5 0.000000 0.000000 0.000000 0.000000 0.020056 0.000000
# 6 0.000000 0.000000 0.000000 0.000000 0.000000 0.066119
#
#
# Mechanical properties :
#
#
# Convention : Reuss Voigt Hill
#
# Bulk Modulus (GPa) = 61.17923 66.76617 63.97270
# Shear Modulus (GPa) = 30.72453 38.62491 34.67472
#
# Velocity S-wave (km/s) = 3.67302 4.11827 3.90200
# Velocity P-wave (km/s) = 6.69715 7.20627 6.95637
#
# Compressibility (1/GPa) = 0.01634542
#
# Stress axis : x y z
#
# Youngs Moduli (GPa) = 135.88936 67.95631 85.17978
#
# Poissons Ratio (x) = 0.20749 0.17353
# Poissons Ratio (y) = 0.41490 0.31039
# Poissons Ratio (z) = 0.27684 0.24762
#
# Static dielectric constant tensor:
#      x y z
#    x 1.943900 0.000000 0.000000 
#    y 0.000000 1.854360 0.000000 
#    z 0.000000 0.000000 1.978780 
# 
# From -- ./inp_files/26530.got.cif
#   From: 2010.05.17/outbox.cif.g08.bks.cpg/sg50_14_cif.got.tgz:26530.got - 2010.06.03 11:33:33.
