data_PCOD9397293
_publ_section_title
;
Structure prediction by ZEFSAII (Michael W. Deem and Ramdas Pophale) SiO2 
 PCOD9397293
Probable space group: P B A N
;
_chemical_formula_sum "Si O2"
_cell_formula_units_Z 54
_cell_length_a 13.373371
_cell_length_b 11.545062
_cell_length_c 15.479311
_cell_angle_alpha 90.000000
_cell_angle_beta 90.000000
_cell_angle_gamma 90.000000
_cell_volume 2389.949852
_symmetry_space_group_name_H-M "P B A N"
_symmetry_group_IT_number 50
_space_group.IT_coordinate_system_code '2'
_symmetry_cell_setting 'orthorhombic'
loop_
_space_group_symop_operation_xyz
x,y,z
1/2-x,1/2-y,z
x,1/2-y,-z
1/2-x,y,-z
-x,-y,-z
1/2+x,1/2+y,-z
-x,1/2+y,z
1/2+x,-y,z
loop_
_atom_site_type_symbol
_atom_site_label
_atom_site_fract_x
_atom_site_fract_y
_atom_site_fract_z
Si Si1 0.991533 0.874403 0.050113
Si Si2 0.297780 0.133046 0.168160
Si Si3 0.606248 0.443845 0.472455
Si Si4 0.901577 0.204808 0.630783
Si Si5 0.250000 0.750000 0.222725
Si Si6 0.290468 0.920501 0.903245
Si Si7 0.366609 0.340785 0.636220
Si Si8 0.750000 0.750000 0.500000
O O1 0.100052 0.866274 0.094762
O O2 0.899949 0.889328 0.116409
O O3 0.977500 0.750000 0.000000
O O4 0.000000 0.000000 0.000000
O O5 0.250000 0.250000 0.135662
O O6 0.319200 0.142933 0.270140
O O7 0.212756 0.042255 0.143042
O O8 0.500000 0.500000 0.500000
O O9 0.645587 0.381060 0.558918
O O10 0.595438 0.335681 0.406951
O O11 0.661642 0.550579 0.426116
O O12 0.835608 0.203563 0.715531
O O13 0.014584 0.165634 0.647349
O O14 0.215599 0.651589 0.157056
O O15 0.250000 0.926367 0.000000
O O16 0.333603 0.231273 0.577461
#
# Coordination Sequence:
#
# PCOD9397293 Si02
#       8
#     8   8   8   8   4   8   8   2
#     4  12  26  49  82 113 152 211 252 320 399 468
#     4  12  27  49  73 112 149 196 259 317 377 462
#     4   9  19  39  66  92 132 181 227 292 362 424
#     4  10  22  42  64 101 136 182 241 295 365 444
#     4  12  25  43  68 104 144 186 236 311 373 446
#     4  12  26  47  73 106 149 193 250 309 383 460
#     4  11  23  44  67 101 139 190 244 308 367 453
#     4  12  24  44  68  96 138 184 240 296 396 436
#
# _framework density 22.594615000000001
#
# number of rings (size 3 to 8) (size 9 to 14) (size 15 to 20)
#    0.000    0.889    2.222    5.556    0.000    3.556 
#   13.333    0.000    0.000    0.000    0.000    0.000 
#    0.000    0.000    0.000    0.000    0.000    0.000 
#
# Total GULP energy -301165.267751 kJ/mol
# GULP energy per Si atom -5577.134588 kJ/mol
# Density = 2.254319 g / cm^3
# Si number density = 22.594615 Si / 1000 Ang^3
#
#
#
# Elastic Constant Matrix: (Units=GPa)
#
#
# Indices 1 2 3 4 5 6 
#
# 1 84.8463 -0.0687 38.6031 0.0000 0.0000 0.0000
# 2 -0.0687 113.3209 27.3370 0.0000 0.0000 0.0000
# 3 38.6031 27.3370 138.8357 0.0000 0.0000 0.0000
# 4 0.0000 0.0000 0.0000 28.5730 0.0000 0.0000
# 5 0.0000 0.0000 0.0000 0.0000 164.2355 0.0000
# 6 0.0000 0.0000 0.0000 0.0000 0.0000 32.1787
#
#
#
# Elastic Compliance Matrix: (Units=1/GPa)
#
#
# Indices 1 2 3 4 5 6 
#
# 1 0.013593 0.000966 -0.003970 0.000000 0.000000 0.000000
# 2 0.000966 0.009333 -0.002106 0.000000 0.000000 0.000000
# 3 -0.003970 -0.002106 0.008721 0.000000 0.000000 0.000000
# 4 0.000000 0.000000 0.000000 0.034998 0.000000 0.000000
# 5 0.000000 0.000000 0.000000 0.000000 0.006089 0.000000
# 6 0.000000 0.000000 0.000000 0.000000 0.000000 0.031077
#
#
# Mechanical properties :
#
#
# Convention : Reuss Voigt Hill
#
# Bulk Modulus (GPa) = 46.66972 52.08288 49.37630
# Shear Modulus (GPa) = 41.26321 63.07286 52.16803
#
# Velocity S-wave (km/s) = 4.27809 5.28920 4.81028
# Velocity P-wave (km/s) = 6.71586 7.77186 7.26308
#
# Compressibility (1/GPa) = 0.02142717
#
# Stress axis : x y z
#
# Youngs Moduli (GPa) = 73.56774 107.14453 114.66244
#
# Poissons Ratio (x) = -0.10349 0.45517
# Poissons Ratio (y) = -0.07106 0.24151
# Poissons Ratio (z) = 0.29204 0.22568
#
# Static dielectric constant tensor:
#      x y z
#    x 1.923160 0.000000 0.000000 
#    y 0.000000 2.177110 0.000000 
#    z 0.000000 0.000000 1.813540 
# 
# From -- ./inp_files/26534.got.cif
#   From: 2010.05.17/outbox.cif.g08.bks.cpg/sg50_14_cif.got.tgz:26534.got - 2010.06.03 11:33:33.
