data_PCOD9397699
_publ_section_title
;
Structure prediction by ZEFSAII (Michael W. Deem and Ramdas Pophale) SiO2 
 PCOD9397699
Probable space group: P B A N
;
_chemical_formula_sum "Si O2"
_cell_formula_units_Z 44
_cell_length_a 30.941896
_cell_length_b 12.667567
_cell_length_c 5.092747
_cell_angle_alpha 90.000000
_cell_angle_beta 90.000000
_cell_angle_gamma 90.000000
_cell_volume 1996.145682
_symmetry_space_group_name_H-M "P B A N"
_symmetry_group_IT_number 50
_space_group.IT_coordinate_system_code '2'
_symmetry_cell_setting 'orthorhombic'
loop_
_space_group_symop_operation_xyz
x,y,z
1/2-x,1/2-y,z
x,1/2-y,-z
1/2-x,y,-z
-x,-y,-z
1/2+x,1/2+y,-z
-x,1/2+y,z
1/2+x,-y,z
loop_
_atom_site_type_symbol
_atom_site_label
_atom_site_fract_x
_atom_site_fract_y
_atom_site_fract_z
Si Si1 0.318986 0.750000 0.500000
Si Si2 0.250000 0.572682 0.500000
Si Si3 0.657242 0.858367 0.133584
Si Si4 0.376188 0.750000 0.000000
Si Si5 0.907079 0.472232 0.983093
Si Si6 0.903019 0.750000 0.500000
Si Si7 0.750000 0.570033 0.000000
Si Si8 0.451702 0.044371 0.509260
O O1 0.289130 0.650382 0.426000
O O2 0.346933 0.779554 0.248452
O O3 0.237853 0.501771 0.250203
O O4 0.633305 0.838277 0.408000
O O5 0.637626 0.963446 0.008051
O O6 0.640788 0.750000 0.000000
O O7 0.708514 0.865288 0.104306
O O8 0.402742 0.647086 0.076733
O O9 0.937600 0.534562 0.186960
O O10 0.924116 0.472290 0.688448
O O11 0.938557 0.661765 0.595002
O O12 0.500000 0.000000 0.500000
#
# Coordination Sequence:
#
# PCOD9397699 Si02
#       8
#     4   4   8   4   8   4   4   8
#     4  11  22  40  65  88 129 184 221 276 343 406
#     4  11  24  42  59  94 132 172 235 287 338 384
#     4  11  23  44  66  94 136 183 234 276 350 399
#     4  12  24  41  68  98 132 174 222 274 348 403
#     4  11  24  42  68 100 137 175 224 284 344 418
#     4  10  24  44  74  96 143 184 225 289 355 426
#     4  12  27  39  66  98 134 179 240 300 325 414
#     4  11  24  44  70 102 133 177 226 278 352 425
#
# _framework density 22.042480999999999
#
# number of rings (size 3 to 8) (size 9 to 14) (size 15 to 20)
#    0.000    0.909    1.818    5.182    2.545    4.364 
#    0.000    0.000    0.000    0.000    0.000    0.000 
#    0.000    0.000    0.000    0.000    0.000    0.000 
#
# Total GULP energy -245079.113915 kJ/mol
# GULP energy per Si atom -5569.979862 kJ/mol
# Density = 2.199231 g / cm^3
# Si number density = 22.042481 Si / 1000 Ang^3
#
#
#
# Elastic Constant Matrix: (Units=GPa)
#
#
# Indices 1 2 3 4 5 6 
#
# 1 113.3660 33.8594 8.0518 0.0000 0.0000 0.0000
# 2 33.8594 107.7444 -1.9209 0.0000 0.0000 0.0000
# 3 8.0518 -1.9209 69.4081 0.0000 0.0000 0.0000
# 4 0.0000 0.0000 0.0000 25.3730 0.0000 0.0000
# 5 0.0000 0.0000 0.0000 0.0000 37.3520 0.0000
# 6 0.0000 0.0000 0.0000 0.0000 0.0000 19.3650
#
#
#
# Elastic Compliance Matrix: (Units=1/GPa)
#
#
# Indices 1 2 3 4 5 6 
#
# 1 0.009838 -0.003114 -0.001227 0.000000 0.000000 0.000000
# 2 -0.003114 0.010271 0.000645 0.000000 0.000000 0.000000
# 3 -0.001227 0.000645 0.014568 0.000000 0.000000 0.000000
# 4 0.000000 0.000000 0.000000 0.039412 0.000000 0.000000
# 5 0.000000 0.000000 0.000000 0.000000 0.026772 0.000000
# 6 0.000000 0.000000 0.000000 0.000000 0.000000 0.051639
#
#
# Mechanical properties :
#
#
# Convention : Reuss Voigt Hill
#
# Bulk Modulus (GPa) = 36.64891 41.16658 38.90774
# Shear Modulus (GPa) = 29.58803 33.11990 31.35397
#
# Velocity S-wave (km/s) = 3.66774 3.88048 3.77561
# Velocity P-wave (km/s) = 5.88209 6.22849 6.05777
#
# Compressibility (1/GPa) = 0.02728594
#
# Stress axis : x y z
#
# Youngs Moduli (GPa) = 101.64558 97.35967 68.64457
#
# Poissons Ratio (x) = 0.30314 0.08426
# Poissons Ratio (y) = 0.31648 -0.04431
# Poissons Ratio (z) = 0.12477 -0.06284
#
# Static dielectric constant tensor:
#      x y z
#    x 1.800600 0.000000 0.000000 
#    y 0.000000 1.813400 0.000000 
#    z 0.000000 0.000000 2.236760 
# 
# From -- ./inp_files/6590.got.cif
#   From: 2010.05.17/outbox.cif.g08.bks.cpg/sg50_4_cif.got.tgz:6590.got - 2010.06.03 11:33:33.
