data_PCOD9397613
_publ_section_title
;
Structure prediction by ZEFSAII (Michael W. Deem and Ramdas Pophale) SiO2 
 PCOD9397613
Probable space group: P B A N
;
_chemical_formula_sum "Si O2"
_cell_formula_units_Z 36
_cell_length_a 9.890690
_cell_length_b 9.099290
_cell_length_c 19.189566
_cell_angle_alpha 90.000000
_cell_angle_beta 90.000000
_cell_angle_gamma 90.000000
_cell_volume 1727.027485
_symmetry_space_group_name_H-M "P B A N"
_symmetry_group_IT_number 50
_space_group.IT_coordinate_system_code '2'
_symmetry_cell_setting 'orthorhombic'
loop_
_space_group_symop_operation_xyz
x,y,z
1/2-x,1/2-y,z
x,1/2-y,-z
1/2-x,y,-z
-x,-y,-z
1/2+x,1/2+y,-z
-x,1/2+y,z
1/2+x,-y,z
loop_
_atom_site_type_symbol
_atom_site_label
_atom_site_fract_x
_atom_site_fract_y
_atom_site_fract_z
Si Si1 0.103812 0.176667 0.298501
Si Si2 0.374349 0.645581 0.366989
Si Si3 0.448035 0.458447 0.923929
Si Si4 0.597875 0.232383 0.829967
Si Si5 0.750000 0.250000 0.500000
Si Si6 0.250000 0.250000 0.000000
O O1 0.250000 0.250000 0.286789
O O2 0.015210 0.272320 0.352691
O O3 0.840270 0.352699 0.449425
O O4 0.121820 0.011127 0.328057
O O5 0.250000 0.750000 0.342037
O O6 0.511247 0.810924 0.229034
O O7 0.549941 0.376639 0.871709
O O8 0.397855 0.602642 0.885961
O O9 0.500000 0.500000 0.000000
O O10 0.333258 0.346464 0.945841
O O11 0.750000 0.250000 0.803375
#
# Coordination Sequence:
#
# PCOD9397613 Si02
#       6
#     8   8   8   8   2   2
#     4  12  26  45  75 108 149 193 245 304 361 438
#     4  10  23  49  72 108 148 190 238 298 366 438
#     4  12  25  46  72 101 141 184 242 303 366 427
#     4  12  28  46  71 103 143 194 241 295 365 433
#     4   8  24  48  80 104 152 188 242 296 368 448
#     4  12  24  44  68 100 132 172 232 302 360 428
#
# _framework density 20.845065999999999
#
# number of rings (size 3 to 8) (size 9 to 14) (size 15 to 20)
#    0.667    0.000    2.222    4.667    1.556    5.333 
#    0.000    0.000    0.000    0.000    0.000    0.000 
#    0.000    0.000    0.000    0.000    0.000    0.000 
#
# Total GULP energy -200998.765527 kJ/mol
# GULP energy per Si atom -5583.299042 kJ/mol
# Density = 2.079762 g / cm^3
# Si number density = 20.845066 Si / 1000 Ang^3
#
#
#
# Elastic Constant Matrix: (Units=GPa)
#
#
# Indices 1 2 3 4 5 6 
#
# 1 152.8026 52.7038 55.4324 0.0000 0.0000 0.0000
# 2 52.7038 128.6198 42.2559 0.0000 0.0000 0.0000
# 3 55.4324 42.2559 154.5034 0.0000 0.0000 0.0000
# 4 0.0000 0.0000 0.0000 36.0068 0.0000 0.0000
# 5 0.0000 0.0000 0.0000 0.0000 62.9017 0.0000
# 6 0.0000 0.0000 0.0000 0.0000 0.0000 48.5535
#
#
#
# Elastic Compliance Matrix: (Units=1/GPa)
#
#
# Indices 1 2 3 4 5 6 
#
# 1 0.008273 -0.002653 -0.002243 0.000000 0.000000 0.000000
# 2 -0.002653 0.009393 -0.001617 0.000000 0.000000 0.000000
# 3 -0.002243 -0.001617 0.007719 0.000000 0.000000 0.000000
# 4 0.000000 0.000000 0.000000 0.027772 0.000000 0.000000
# 5 0.000000 0.000000 0.000000 0.000000 0.015898 0.000000
# 6 0.000000 0.000000 0.000000 0.000000 0.000000 0.020596
#
#
# Mechanical properties :
#
#
# Convention : Reuss Voigt Hill
#
# Bulk Modulus (GPa) = 80.90747 81.85666 81.38207
# Shear Modulus (GPa) = 46.81758 48.52798 47.67278
#
# Velocity S-wave (km/s) = 4.74432 4.83020 4.78745
# Velocity P-wave (km/s) = 8.30117 8.39417 8.34780
#
# Compressibility (1/GPa) = 0.01235980
#
# Stress axis : x y z
#
# Youngs Moduli (GPa) = 120.87411 106.45849 129.54724
#
# Poissons Ratio (x) = 0.28246 0.29051
# Poissons Ratio (y) = 0.32071 0.20949
# Poissons Ratio (z) = 0.27107 0.17215
#
# Static dielectric constant tensor:
#      x y z
#    x 1.731570 0.000000 0.000000 
#    y 0.000000 1.778090 0.000000 
#    z 0.000000 0.000000 1.445150 
# 
# From -- ./inp_files/30551.got.cif
#   From: 2010.05.17/outbox.cif.g08.bks.cpg/sg50_16_cif.got.tgz:30551.got - 2010.06.03 11:33:33.
