data_PCOD9397024
_publ_section_title
;
Structure prediction by ZEFSAII (Michael W. Deem and Ramdas Pophale) SiO2 
 PCOD9397024
Probable space group: P B A N
;
_chemical_formula_sum "Si O2"
_cell_formula_units_Z 20
_cell_length_a 16.051966
_cell_length_b 5.177571
_cell_length_c 9.875836
_cell_angle_alpha 90.000000
_cell_angle_beta 90.000000
_cell_angle_gamma 90.000000
_cell_volume 820.782642
_symmetry_space_group_name_H-M "P B A N"
_symmetry_group_IT_number 50
_space_group.IT_coordinate_system_code '2'
_symmetry_cell_setting 'orthorhombic'
loop_
_space_group_symop_operation_xyz
x,y,z
1/2-x,1/2-y,z
x,1/2-y,-z
1/2-x,y,-z
-x,-y,-z
1/2+x,1/2+y,-z
-x,1/2+y,z
1/2+x,-y,z
loop_
_atom_site_type_symbol
_atom_site_label
_atom_site_fract_x
_atom_site_fract_y
_atom_site_fract_z
Si Si1 0.436278 0.250000 0.000000
Si Si2 0.303967 0.003032 0.785710
Si Si3 0.036906 0.980379 0.348832
O O1 0.365504 0.385691 0.099683
O O2 0.500000 0.500000 0.000000
O O3 0.250000 0.250000 0.743842
O O4 0.250000 0.750000 0.822547
O O5 0.366405 0.926793 0.663341
O O6 0.986847 0.749892 0.281635
O O7 0.000000 0.000000 0.500000
#
# Coordination Sequence:
#
# PCOD9397024 Si02
#       3
#     4   8   8
#     4  12  25  44  71  98 134 190 238 282 355 446
#     4  12  25  43  68 104 142 179 232 304 363 417
#     4  10  21  42  67  94 134 184 233 280 344 435
#
# _framework density 24.366986000000001
#
# number of rings (size 3 to 8) (size 9 to 14) (size 15 to 20)
#    0.000    0.800    0.000    7.800    0.000    1.600 
#    0.000   24.000    0.000    0.000    0.000    0.000 
#    0.000    0.000    0.000    0.000    0.000    0.000 
#
# Total GULP energy -111339.380824 kJ/mol
# GULP energy per Si atom -5566.969041 kJ/mol
# Density = 2.431153 g / cm^3
# Si number density = 24.366986 Si / 1000 Ang^3
#
#
#
# Elastic Constant Matrix: (Units=GPa)
#
#
# Indices 1 2 3 4 5 6 
#
# 1 191.4827 77.4560 67.9729 0.0000 0.0000 0.0000
# 2 77.4560 240.9417 42.4756 0.0000 0.0000 0.0000
# 3 67.9729 42.4756 80.9850 0.0000 0.0000 0.0000
# 4 0.0000 0.0000 0.0000 -50.6988 0.0000 0.0000
# 5 0.0000 0.0000 0.0000 0.0000 27.7667 0.0000
# 6 0.0000 0.0000 0.0000 0.0000 0.0000 77.8432
#
#
#
# Elastic Compliance Matrix: (Units=1/GPa)
#
#
# Indices 1 2 3 4 5 6 
#
# 1 0.007909 -0.001512 -0.005845 0.000000 0.000000 0.000000
# 2 -0.001512 0.004862 -0.001281 0.000000 0.000000 0.000000
# 3 -0.005845 -0.001281 0.017926 0.000000 0.000000 0.000000
# 4 0.000000 0.000000 0.000000 -0.019724 0.000000 0.000000
# 5 0.000000 0.000000 0.000000 0.000000 0.036014 0.000000
# 6 0.000000 0.000000 0.000000 0.000000 0.000000 0.012846
#
#
# Mechanical properties :
#
#
# Convention : Reuss Voigt Hill
#
# Bulk Modulus (GPa) = 74.51272 98.80203 86.65737
# Shear Modulus (GPa) = 61.28668 32.68253 46.98460
#
# Velocity S-wave (km/s) = 5.02057 3.66630 4.39590
# Velocity P-wave (km/s) = 8.01585 7.65231 7.83619
#
# Compressibility (1/GPa) = 0.01342053
#
# Stress axis : x y z
#
# Youngs Moduli (GPa) = 126.43860 205.66333 55.78520
#
# Poissons Ratio (x) = 0.31098 0.32607
# Poissons Ratio (y) = 0.19118 0.07147
# Poissons Ratio (z) = 0.73905 0.26347
#
# Static dielectric constant tensor:
#      x y z
#    x 1.929070 0.000000 0.000000 
#    y 0.000000 2.006170 0.000000 
#    z 0.000000 0.000000 1.855230 
# 
# From -- ./inp_files/20609.got.cif
#   From: 2010.05.17/outbox.cif.g08.bks.cpg/sg50_11_cif.got.tgz:20609.got - 2010.06.03 11:33:33.
