data_PCOD9397264
_publ_section_title
;
Structure prediction by ZEFSAII (Michael W. Deem and Ramdas Pophale) SiO2 
 PCOD9397264
Probable space group: P B A N
;
_chemical_formula_sum "Si O2"
_cell_formula_units_Z 56
_cell_length_a 13.915587
_cell_length_b 15.224569
_cell_length_c 12.242540
_cell_angle_alpha 90.000000
_cell_angle_beta 90.000000
_cell_angle_gamma 90.000000
_cell_volume 2593.690010
_symmetry_space_group_name_H-M "P B A N"
_symmetry_group_IT_number 50
_space_group.IT_coordinate_system_code '2'
_symmetry_cell_setting 'orthorhombic'
loop_
_space_group_symop_operation_xyz
x,y,z
1/2-x,1/2-y,z
x,1/2-y,-z
1/2-x,y,-z
-x,-y,-z
1/2+x,1/2+y,-z
-x,1/2+y,z
1/2+x,-y,z
loop_
_atom_site_type_symbol
_atom_site_label
_atom_site_fract_x
_atom_site_fract_y
_atom_site_fract_z
Si Si1 0.350732 0.897035 0.971279
Si Si2 0.545585 0.108273 0.807903
Si Si3 0.860356 0.012526 0.386819
Si Si4 0.681002 0.669544 0.282308
Si Si5 0.837112 0.931228 0.827847
Si Si6 0.040261 0.695365 0.777605
Si Si7 0.354257 0.945475 0.629785
O O1 0.423093 0.842451 0.894207
O O2 0.326090 0.985122 0.904611
O O3 0.250000 0.851177 0.000000
O O4 0.396844 0.921303 0.086171
O O5 0.568456 0.041777 0.709394
O O6 0.436584 0.116317 0.851140
O O7 0.575488 0.204904 0.769837
O O8 0.761145 0.067548 0.373095
O O9 0.891819 0.033476 0.509349
O O10 0.835063 0.909668 0.369151
O O11 0.750000 0.750000 0.320658
O O12 0.742792 0.626809 0.183409
O O13 0.574441 0.694403 0.242400
O O14 0.858999 0.969944 0.707454
O O15 0.089991 0.633327 0.687430
#
# Coordination Sequence:
#
# PCOD9397264 Si02
#       7
#     8   8   8   8   8   8   8
#     4  11  24  42  65  95 130 171 220 278 340 409
#     4  12  23  39  65  96 132 175 221 275 341 410
#     4  10  22  41  69  94 133 180 221 280 336 406
#     4  11  22  44  68  95 135 176 233 287 338 398
#     4  10  22  41  66  90 128 174 226 278 333 402
#     4  11  24  41  67  99 137 175 219 282 336 406
#     4   9  21  42  64  97 131 173 222 271 340 396
#
# _framework density 21.590861
#
# number of rings (size 3 to 8) (size 9 to 14) (size 15 to 20)
#    0.000    1.429    1.429    5.143    0.000    6.857 
#    0.000    7.143    3.143    0.000    0.000    0.000 
#    0.000    0.000    0.000    0.000    0.000    0.000 
#
# Total GULP energy -312661.142347 kJ/mol
# GULP energy per Si atom -5583.234685 kJ/mol
# Density = 2.154172 g / cm^3
# Si number density = 21.590861 Si / 1000 Ang^3
#
#
#
# Elastic Constant Matrix: (Units=GPa)
#
#
# Indices 1 2 3 4 5 6 
#
# 1 102.4309 11.1146 46.1551 0.0000 0.0000 0.0000
# 2 11.1146 105.0102 30.8313 0.0000 0.0000 0.0000
# 3 46.1551 30.8313 121.7862 0.0000 0.0000 0.0000
# 4 0.0000 0.0000 0.0000 -0.6345 0.0000 0.0000
# 5 0.0000 0.0000 0.0000 0.0000 -67.6417 0.0000
# 6 0.0000 0.0000 0.0000 0.0000 0.0000 32.5837
#
#
#
# Elastic Compliance Matrix: (Units=1/GPa)
#
#
# Indices 1 2 3 4 5 6 
#
# 1 0.011774 0.000069 -0.004480 0.000000 0.000000 0.000000
# 2 0.000069 0.010288 -0.002631 0.000000 0.000000 0.000000
# 3 -0.004480 -0.002631 0.010575 0.000000 0.000000 0.000000
# 4 0.000000 0.000000 0.000000 -1.576097 0.000000 0.000000
# 5 0.000000 0.000000 0.000000 0.000000 -0.014784 0.000000
# 6 0.000000 0.000000 0.000000 0.000000 0.000000 0.030690
#
#
# Mechanical properties :
#
#
# Convention : Reuss Voigt Hill
#
# Bulk Modulus (GPa) = 53.89645 56.15879 55.02762
# Shear Modulus (GPa) = -3.31722 8.93658 2.80968
#
# Velocity S-wave (km/s) = -1.24086 2.03667 1.14200
# Velocity P-wave (km/s) = 4.79206 5.62118 5.22310
#
# Compressibility (1/GPa) = 0.01855410
#
# Stress axis : x y z
#
# Youngs Moduli (GPa) = 84.93548 97.20117 94.56488
#
# Poissons Ratio (x) = -0.00671 0.42360
# Poissons Ratio (y) = -0.00586 0.24877
# Poissons Ratio (z) = 0.38047 0.25570
#
# Static dielectric constant tensor:
#      x y z
#    x 1.963620 0.000000 0.000000 
#    y 0.000000 1.787550 0.000000 
#    z 0.000000 0.000000 1.761890 
# 
# From -- ./inp_files/21180.got.cif
#   From: 2010.05.17/outbox.cif.g08.bks.cpg/sg50_11_cif.got.tgz:21180.got - 2010.06.03 11:33:33.
