data_PCOD9397775
_publ_section_title
;
Structure prediction by ZEFSAII (Michael W. Deem and Ramdas Pophale) SiO2 
 PCOD9397775
Probable space group: P B A N
;
_chemical_formula_sum "Si O2"
_cell_formula_units_Z 40
_cell_length_a 7.675600
_cell_length_b 16.197550
_cell_length_c 12.997779
_cell_angle_alpha 90.000000
_cell_angle_beta 90.000000
_cell_angle_gamma 90.000000
_cell_volume 1615.960764
_symmetry_space_group_name_H-M "P B A N"
_symmetry_group_IT_number 50
_space_group.IT_coordinate_system_code '2'
_symmetry_cell_setting 'orthorhombic'
loop_
_space_group_symop_operation_xyz
x,y,z
1/2-x,1/2-y,z
x,1/2-y,-z
1/2-x,y,-z
-x,-y,-z
1/2+x,1/2+y,-z
-x,1/2+y,z
1/2+x,-y,z
loop_
_atom_site_type_symbol
_atom_site_label
_atom_site_fract_x
_atom_site_fract_y
_atom_site_fract_z
Si Si1 0.942307 0.088328 0.541327
Si Si2 0.091200 0.312234 0.633625
Si Si3 0.280851 0.093343 0.817828
Si Si4 0.837741 0.414521 0.888629
Si Si5 0.058033 0.671254 0.754841
O O1 0.750000 0.101425 0.500000
O O2 0.952346 0.103678 0.662375
O O3 0.048846 0.156413 0.478591
O O4 0.000000 0.000000 0.500000
O O5 0.250000 0.250000 0.634908
O O6 0.139675 0.390946 0.704084
O O7 0.948223 0.257819 0.693903
O O8 0.454410 0.102850 0.888143
O O9 0.119300 0.157754 0.821998
O O10 0.196976 0.004271 0.837752
O O11 0.722323 0.349879 0.824524
O O12 0.750000 0.417732 0.000000
#
# Coordination Sequence:
#
# PCOD9397775 Si02
#       5
#     8   8   8   8   8
#     4  12  28  43  73 108 146 196 248 303 371 456
#     4  10  25  47  71 102 149 191 235 298 365 437
#     4  11  24  42  72 102 137 186 238 298 368 434
#     4  12  25  44  75 103 140 185 245 309 364 431
#     4  11  26  45  70 101 143 191 237 303 361 435
#
# _framework density 24.753074999999999
#
# number of rings (size 3 to 8) (size 9 to 14) (size 15 to 20)
#    0.000    0.800    2.000    3.600    8.400    6.400 
#    0.000    2.000    4.400    0.000    0.000    0.000 
#    0.000    0.000    0.000    0.000    0.000    0.000 
#
# Total GULP energy -224039.977514 kJ/mol
# GULP energy per Si atom -5600.999438 kJ/mol
# Density = 2.469674 g / cm^3
# Si number density = 24.753075 Si / 1000 Ang^3
#
#
#
# Elastic Constant Matrix: (Units=GPa)
#
#
# Indices 1 2 3 4 5 6 
#
# 1 143.8343 19.8243 18.8694 0.0000 0.0000 0.0000
# 2 19.8243 99.5973 46.0431 0.0000 0.0000 0.0000
# 3 18.8694 46.0431 99.9349 0.0000 0.0000 0.0000
# 4 0.0000 0.0000 0.0000 20.4088 0.0000 0.0000
# 5 0.0000 0.0000 0.0000 0.0000 35.0701 0.0000
# 6 0.0000 0.0000 0.0000 0.0000 0.0000 32.2870
#
#
#
# Elastic Compliance Matrix: (Units=1/GPa)
#
#
# Indices 1 2 3 4 5 6 
#
# 1 0.007210 -0.001024 -0.000890 0.000000 0.000000 0.000000
# 2 -0.001024 0.012903 -0.005752 0.000000 0.000000 0.000000
# 3 -0.000890 -0.005752 0.012824 0.000000 0.000000 0.000000
# 4 0.000000 0.000000 0.000000 0.048998 0.000000 0.000000
# 5 0.000000 0.000000 0.000000 0.000000 0.028514 0.000000
# 6 0.000000 0.000000 0.000000 0.000000 0.000000 0.030972
#
#
# Mechanical properties :
#
#
# Convention : Reuss Voigt Hill
#
# Bulk Modulus (GPa) = 56.79363 56.98223 56.88793
# Shear Modulus (GPa) = 30.74611 34.79516 32.77064
#
# Velocity S-wave (km/s) = 3.52819 3.75332 3.64249
# Velocity P-wave (km/s) = 6.29216 6.46943 6.38141
#
# Compressibility (1/GPa) = 0.01760761
#
# Stress axis : x y z
#
# Youngs Moduli (GPa) = 138.69089 77.50056 77.97623
#
# Poissons Ratio (x) = 0.07935 0.06938
# Poissons Ratio (y) = 0.14200 0.44848
# Poissons Ratio (z) = 0.12339 0.44575
#
# Static dielectric constant tensor:
#      x y z
#    x 0.636990 0.000000 0.000000 
#    y 0.000000 1.973240 0.000000 
#    z 0.000000 0.000000 2.000350 
# 
# From -- ./inp_files/18692.got.cif
#   From: 2010.05.17/outbox.cif.g08.bks.cpg/sg50_10_cif.got.tgz:18692.got - 2010.06.03 11:33:33.
