data_PCOD9397504
_publ_section_title
;
Structure prediction by ZEFSAII (Michael W. Deem and Ramdas Pophale) SiO2 
 PCOD9397504
Probable space group: P B A N
;
_chemical_formula_sum "Si O2"
_cell_formula_units_Z 40
_cell_length_a 14.173816
_cell_length_b 13.698632
_cell_length_c 8.729406
_cell_angle_alpha 90.000000
_cell_angle_beta 90.000000
_cell_angle_gamma 90.000000
_cell_volume 1694.917962
_symmetry_space_group_name_H-M "P B A N"
_symmetry_group_IT_number 50
_space_group.IT_coordinate_system_code '2'
_symmetry_cell_setting 'orthorhombic'
loop_
_space_group_symop_operation_xyz
x,y,z
1/2-x,1/2-y,z
x,1/2-y,-z
1/2-x,y,-z
-x,-y,-z
1/2+x,1/2+y,-z
-x,1/2+y,z
1/2+x,-y,z
loop_
_atom_site_type_symbol
_atom_site_label
_atom_site_fract_x
_atom_site_fract_y
_atom_site_fract_z
Si Si1 0.750000 0.021649 0.000000
Si Si2 0.065645 0.610741 0.861933
Si Si3 0.853355 0.279635 0.675578
Si Si4 0.391215 0.494026 0.742956
Si Si5 0.060043 0.250000 0.000000
Si Si6 0.356214 0.289169 0.657605
O O1 0.830000 0.079279 0.906373
O O2 0.681731 0.969031 0.881172
O O3 0.075369 0.704523 0.753610
O O4 0.999304 0.528452 0.789414
O O5 0.007447 0.654533 0.004403
O O6 0.750000 0.250000 0.738873
O O7 0.852462 0.250000 0.500000
O O8 0.872984 0.394581 0.695997
O O9 0.365017 0.405912 0.631194
O O10 0.111560 0.238735 0.833902
O O11 0.250000 0.250000 0.655056
O O12 0.404273 0.250000 0.500000
#
# Coordination Sequence:
#
# PCOD9397504 Si02
#       6
#     4   8   8   8   4   8
#     4  12  24  47  75 108 156 194 263 328 383 490
#     4  11  25  45  75 111 151 202 257 327 393 469
#     4  11  25  49  77 112 157 209 260 326 404 469
#     4  11  26  46  76 115 148 206 263 320 400 470
#     4  10  23  41  78 110 150 202 260 318 392 470
#     4  10  24  47  75 114 160 211 262 328 395 470
#
# _framework density 23.599962999999999
#
# number of rings (size 3 to 8) (size 9 to 14) (size 15 to 20)
#    0.000    1.200    2.000    2.100    5.600    9.600 
#    3.600    0.000    0.000    0.000    0.000    0.000 
#    0.000    0.000    0.000    0.000    0.000    0.000 
#
# Total GULP energy -223027.266862 kJ/mol
# GULP energy per Si atom -5575.681672 kJ/mol
# Density = 2.354625 g / cm^3
# Si number density = 23.599963 Si / 1000 Ang^3
#
#
#
# Elastic Constant Matrix: (Units=GPa)
#
#
# Indices 1 2 3 4 5 6 
#
# 1 161.5679 65.3363 41.1713 0.0000 0.0000 0.0000
# 2 65.3363 208.8228 57.2196 0.0000 0.0000 0.0000
# 3 41.1713 57.2196 108.8759 0.0000 0.0000 0.0000
# 4 0.0000 0.0000 0.0000 75.7014 0.0000 0.0000
# 5 0.0000 0.0000 0.0000 0.0000 22.1670 0.0000
# 6 0.0000 0.0000 0.0000 0.0000 0.0000 39.9529
#
#
#
# Elastic Compliance Matrix: (Units=1/GPa)
#
#
# Indices 1 2 3 4 5 6 
#
# 1 0.007390 -0.001807 -0.001845 0.000000 0.000000 0.000000
# 2 -0.001807 0.006036 -0.002489 0.000000 0.000000 0.000000
# 3 -0.001845 -0.002489 0.011191 0.000000 0.000000 0.000000
# 4 0.000000 0.000000 0.000000 0.013210 0.000000 0.000000
# 5 0.000000 0.000000 0.000000 0.000000 0.045112 0.000000
# 6 0.000000 0.000000 0.000000 0.000000 0.000000 0.025029
#
#
# Mechanical properties :
#
#
# Convention : Reuss Voigt Hill
#
# Bulk Modulus (GPa) = 81.06885 89.63566 85.35226
# Shear Modulus (GPa) = 40.20541 48.60021 44.40281
#
# Velocity S-wave (km/s) = 4.13197 4.54291 4.34231
# Velocity P-wave (km/s) = 7.56241 8.09822 7.83490
#
# Compressibility (1/GPa) = 0.01233519
#
# Stress axis : x y z
#
# Youngs Moduli (GPa) = 135.31603 165.67169 89.36068
#
# Poissons Ratio (x) = 0.29931 0.16488
# Poissons Ratio (y) = 0.24447 0.22242
# Poissons Ratio (z) = 0.24967 0.41237
#
# Static dielectric constant tensor:
#      x y z
#    x 2.036750 0.000000 0.000000 
#    y 0.000000 1.918570 0.000000 
#    z 0.000000 0.000000 1.983390 
# 
# From -- ./inp_files/12607.got.cif
#   From: 2010.05.17/outbox.cif.g08.bks.cpg/sg50_7_cif.got.tgz:12607.got - 2010.06.03 11:33:33.
