data_PCOD9397821
_publ_section_title
;
Structure prediction by ZEFSAII (Michael W. Deem and Ramdas Pophale) SiO2 
 PCOD9397821
Probable space group: P B A N
;
_chemical_formula_sum "Si O2"
_cell_formula_units_Z 48
_cell_length_a 8.878457
_cell_length_b 17.548601
_cell_length_c 15.502217
_cell_angle_alpha 90.000000
_cell_angle_beta 90.000000
_cell_angle_gamma 90.000000
_cell_volume 2415.315159
_symmetry_space_group_name_H-M "P B A N"
_symmetry_group_IT_number 50
_space_group.IT_coordinate_system_code '2'
_symmetry_cell_setting 'orthorhombic'
loop_
_space_group_symop_operation_xyz
x,y,z
1/2-x,1/2-y,z
x,1/2-y,-z
1/2-x,y,-z
-x,-y,-z
1/2+x,1/2+y,-z
-x,1/2+y,z
1/2+x,-y,z
loop_
_atom_site_type_symbol
_atom_site_label
_atom_site_fract_x
_atom_site_fract_y
_atom_site_fract_z
Si Si1 0.718505 0.438666 0.600473
Si Si2 0.693424 0.828907 0.216240
Si Si3 0.098510 0.435978 0.314418
Si Si4 0.040867 0.019406 0.147881
Si Si5 0.359095 0.681079 0.727451
Si Si6 0.728935 0.106369 0.907998
O O1 0.750000 0.430344 0.500000
O O2 0.545718 0.423913 0.625421
O O3 0.769474 0.521635 0.633782
O O4 0.820493 0.382969 0.657861
O O5 0.750000 0.750000 0.172471
O O6 0.829571 0.860042 0.274866
O O7 0.645905 0.906011 0.164105
O O8 0.538350 0.808237 0.265924
O O9 0.039052 0.490579 0.236372
O O10 0.911252 0.048474 0.085133
O O11 0.131193 0.946961 0.115372
O O12 0.250000 0.750000 0.703917
O O13 0.308047 0.656351 0.824275
O O14 0.750000 0.146081 0.000000
#
# Coordination Sequence:
#
# PCOD9397821 Si02
#       6
#     8   8   8   8   8   8
#     4  12  23  38  65  94 124 171 223 270 318 387
#     4  11  22  37  66  95 124 174 215 261 336 394
#     4  12  19  41  63  93 129 164 217 271 323 387
#     4  11  19  39  63  90 128 162 214 269 322 381
#     4  11  23  42  62  89 132 173 216 267 333 391
#     4  11  22  37  64  94 121 168 220 267 319 388
#
# _framework density 19.873182
#
# number of rings (size 3 to 8) (size 9 to 14) (size 15 to 20)
#    0.000    0.667    8.333    2.000    0.000    0.667 
#    0.000    0.000    0.000    4.000    0.000    0.000 
#    0.000    0.000    0.000    0.000    0.000    0.000 
#
# Total GULP energy -267787.161096 kJ/mol
# GULP energy per Si atom -5578.899190 kJ/mol
# Density = 1.982795 g / cm^3
# Si number density = 19.873182 Si / 1000 Ang^3
#
#
#
# Elastic Constant Matrix: (Units=GPa)
#
#
# Indices 1 2 3 4 5 6 
#
# 1 74.5251 -1.9050 15.6480 0.0000 0.0000 0.0000
# 2 -1.9050 63.4130 22.0175 0.0000 0.0000 0.0000
# 3 15.6480 22.0175 113.3268 0.0000 0.0000 0.0000
# 4 0.0000 0.0000 0.0000 -3.5123 0.0000 0.0000
# 5 0.0000 0.0000 0.0000 0.0000 14.8354 0.0000
# 6 0.0000 0.0000 0.0000 0.0000 0.0000 34.6711
#
#
#
# Elastic Compliance Matrix: (Units=1/GPa)
#
#
# Indices 1 2 3 4 5 6 
#
# 1 0.013898 0.001162 -0.002145 0.000000 0.000000 0.000000
# 2 0.001162 0.017008 -0.003465 0.000000 0.000000 0.000000
# 3 -0.002145 -0.003465 0.009793 0.000000 0.000000 0.000000
# 4 0.000000 0.000000 0.000000 -0.284716 0.000000 0.000000
# 5 0.000000 0.000000 0.000000 0.000000 0.067406 0.000000
# 6 0.000000 0.000000 0.000000 0.000000 0.000000 0.028842
#
#
# Mechanical properties :
#
#
# Convention : Reuss Voigt Hill
#
# Bulk Modulus (GPa) = 31.44213 35.86511 33.65362
# Shear Modulus (GPa) = -38.97961 23.56582 -7.70690
#
# Velocity S-wave (km/s) = -4.43359 3.44729 -1.97141
# Velocity P-wave (km/s) = 3.21765 5.82506 3.43351
#
# Compressibility (1/GPa) = 0.03180446
#
# Stress axis : x y z
#
# Youngs Moduli (GPa) = 71.95093 58.79744 102.11021
#
# Poissons Ratio (x) = -0.06834 0.21901
# Poissons Ratio (y) = -0.08362 0.35379
# Poissons Ratio (z) = 0.15433 0.20372
#
# Static dielectric constant tensor:
#      x y z
#    x 1.733410 0.000000 0.000000 
#    y 0.000000 1.726410 0.000000 
#    z 0.000000 0.000000 1.696950 
# 
# From -- ./inp_files/25031.got.cif
#   From: 2010.05.17/outbox.cif.g08.bks.cpg/sg50_13_cif.got.tgz:25031.got - 2010.06.03 11:33:33.
