data_PCOD9397236
_publ_section_title
;
Structure prediction by ZEFSAII (Michael W. Deem and Ramdas Pophale) SiO2 
 PCOD9397236
Probable space group: P B A N
;
_chemical_formula_sum "Si O2"
_cell_formula_units_Z 40
_cell_length_a 9.216652
_cell_length_b 16.503241
_cell_length_c 11.717371
_cell_angle_alpha 90.000000
_cell_angle_beta 90.000000
_cell_angle_gamma 90.000000
_cell_volume 1782.266371
_symmetry_space_group_name_H-M "P B A N"
_symmetry_group_IT_number 50
_space_group.IT_coordinate_system_code '2'
_symmetry_cell_setting 'orthorhombic'
loop_
_space_group_symop_operation_xyz
x,y,z
1/2-x,1/2-y,z
x,1/2-y,-z
1/2-x,y,-z
-x,-y,-z
1/2+x,1/2+y,-z
-x,1/2+y,z
1/2+x,-y,z
loop_
_atom_site_type_symbol
_atom_site_label
_atom_site_fract_x
_atom_site_fract_y
_atom_site_fract_z
Si Si1 0.624666 0.186977 0.312376
Si Si2 0.429587 0.410753 0.499678
Si Si3 0.388758 0.090784 0.926351
Si Si4 0.876833 0.410528 0.092302
Si Si5 0.615369 0.803320 0.287156
O O1 0.750000 0.250000 0.353937
O O2 0.524318 0.139661 0.405642
O O3 0.674828 0.126210 0.212442
O O4 0.509421 0.243432 0.248647
O O5 0.250000 0.416568 0.500000
O O6 0.500000 0.500000 0.500000
O O7 0.450669 0.360238 0.384296
O O8 0.342353 0.143020 0.819205
O O9 0.439051 0.001501 0.884305
O O10 0.250000 0.074267 0.000000
O O11 0.498749 0.131024 0.015707
O O12 0.750000 0.411248 0.000000
O O13 0.750000 0.750000 0.331813
#
# Coordination Sequence:
#
# PCOD9397236 Si02
#       5
#     8   8   8   8   8
#     4  12  27  45  75 110 149 193 247 315 392 458
#     4  12  29  52  77 105 145 200 262 318 380 465
#     4  10  22  40  69 100 142 195 249 295 371 452
#     4  10  22  44  67 104 149 193 245 308 363 460
#     4  12  25  45  71 103 149 191 239 319 382 449
#
# _framework density 22.443334
#
# number of rings (size 3 to 8) (size 9 to 14) (size 15 to 20)
#    0.000    0.800    2.000    4.200    2.800    5.600 
#    7.200    0.000    0.000    0.000    0.000    0.000 
#    0.000    0.000    0.000    0.000    0.000    0.000 
#
# Total GULP energy -222928.485095 kJ/mol
# GULP energy per Si atom -5573.212127 kJ/mol
# Density = 2.239225 g / cm^3
# Si number density = 22.443334 Si / 1000 Ang^3
#
#
#
# Elastic Constant Matrix: (Units=GPa)
#
#
# Indices 1 2 3 4 5 6 
#
# 1 109.6812 29.5737 29.6495 0.0000 0.0000 0.0000
# 2 29.5737 112.9243 64.5640 0.0000 0.0000 0.0000
# 3 29.6495 64.5640 132.8268 0.0000 0.0000 0.0000
# 4 0.0000 0.0000 0.0000 61.2471 0.0000 0.0000
# 5 0.0000 0.0000 0.0000 0.0000 33.3242 0.0000
# 6 0.0000 0.0000 0.0000 0.0000 0.0000 36.6018
#
#
#
# Elastic Compliance Matrix: (Units=1/GPa)
#
#
# Indices 1 2 3 4 5 6 
#
# 1 0.009976 -0.001855 -0.001325 0.000000 0.000000 0.000000
# 2 -0.001855 0.012609 -0.005715 0.000000 0.000000 0.000000
# 3 -0.001325 -0.005715 0.010602 0.000000 0.000000 0.000000
# 4 0.000000 0.000000 0.000000 0.016327 0.000000 0.000000
# 5 0.000000 0.000000 0.000000 0.000000 0.030008 0.000000
# 6 0.000000 0.000000 0.000000 0.000000 0.000000 0.027321
#
#
# Mechanical properties :
#
#
# Convention : Reuss Voigt Hill
#
# Bulk Modulus (GPa) = 64.94764 67.00073 65.97419
# Shear Modulus (GPa) = 38.53119 41.67760 40.10440
#
# Velocity S-wave (km/s) = 4.14795 4.31398 4.23178
# Velocity P-wave (km/s) = 7.20708 7.39811 7.30322
#
# Compressibility (1/GPa) = 0.01539702
#
# Stress axis : x y z
#
# Youngs Moduli (GPa) = 100.24370 79.31077 94.32013
#
# Poissons Ratio (x) = 0.14711 0.12499
# Poissons Ratio (y) = 0.18594 0.53901
# Poissons Ratio (z) = 0.13284 0.45324
#
# Static dielectric constant tensor:
#      x y z
#    x 1.841080 0.000000 0.000000 
#    y 0.000000 1.864730 0.000000 
#    z 0.000000 0.000000 1.808130 
# 
# From -- ./inp_files/18720.got.cif
#   From: 2010.05.17/outbox.cif.g08.bks.cpg/sg50_10_cif.got.tgz:18720.got - 2010.06.03 11:33:33.
