data_PCOD9397976
_publ_section_title
;
Structure prediction by ZEFSAII (Michael W. Deem and Ramdas Pophale) SiO2 
 PCOD9397976
Probable space group: P B A N
;
_chemical_formula_sum "Si O2"
_cell_formula_units_Z 40
_cell_length_a 17.427725
_cell_length_b 7.172386
_cell_length_c 12.237472
_cell_angle_alpha 90.000000
_cell_angle_beta 90.000000
_cell_angle_gamma 90.000000
_cell_volume 1529.664063
_symmetry_space_group_name_H-M "P B A N"
_symmetry_group_IT_number 50
_space_group.IT_coordinate_system_code '2'
_symmetry_cell_setting 'orthorhombic'
loop_
_space_group_symop_operation_xyz
x,y,z
1/2-x,1/2-y,z
x,1/2-y,-z
1/2-x,y,-z
-x,-y,-z
1/2+x,1/2+y,-z
-x,1/2+y,z
1/2+x,-y,z
loop_
_atom_site_type_symbol
_atom_site_label
_atom_site_fract_x
_atom_site_fract_y
_atom_site_fract_z
Si Si1 0.894678 0.533115 0.211231
Si Si2 0.839777 0.475023 0.982546
Si Si3 0.789756 0.053907 0.613844
Si Si4 0.913312 0.537035 0.528556
Si Si5 0.926221 0.096750 0.233794
O O1 0.817686 0.572345 0.284244
O O2 0.900682 0.309295 0.222900
O O3 0.980456 0.602277 0.239833
O O4 0.881687 0.570992 0.084092
O O5 0.885342 0.505304 0.868856
O O6 0.843283 0.250000 0.000000
O O7 0.750000 0.522985 0.000000
O O8 0.750000 0.250000 0.644691
O O9 0.750000 0.980530 0.500000
O O10 0.871334 0.090210 0.559091
O O11 0.895171 0.750000 0.500000
O O12 0.897285 0.496203 0.654499
O O13 0.000000 0.500000 0.500000
#
# Coordination Sequence:
#
# PCOD9397976 Si02
#       5
#     8   8   8   8   8
#     4  11  23  40  69 100 130 182 238 293 359 442
#     4   9  21  38  65  99 132 177 235 292 357 435
#     4  11  25  40  68  99 138 185 233 297 373 439
#     4  12  26  44  71 108 144 191 248 302 374 462
#     4  11  22  40  67  98 137 178 230 297 353 430
#
# _framework density 26.149533000000002
#
# number of rings (size 3 to 8) (size 9 to 14) (size 15 to 20)
#    0.000    1.200    2.000    4.200   11.200    0.400 
#    0.000    0.000    0.000    2.400    0.000    0.000 
#    0.000    0.000    0.000    0.000    0.000    0.000 
#
# Total GULP energy -223534.049042 kJ/mol
# GULP energy per Si atom -5588.351226 kJ/mol
# Density = 2.609001 g / cm^3
# Si number density = 26.149533 Si / 1000 Ang^3
#
#
#
# Elastic Constant Matrix: (Units=GPa)
#
#
# Indices 1 2 3 4 5 6 
#
# 1 120.3515 9.5344 44.8402 0.0000 0.0000 0.0000
# 2 9.5344 84.6786 20.8746 0.0000 0.0000 0.0000
# 3 44.8402 20.8746 235.4757 0.0000 0.0000 0.0000
# 4 0.0000 0.0000 0.0000 24.4853 0.0000 0.0000
# 5 0.0000 0.0000 0.0000 0.0000 52.7759 0.0000
# 6 0.0000 0.0000 0.0000 0.0000 0.0000 28.7364
#
#
#
# Elastic Compliance Matrix: (Units=1/GPa)
#
#
# Indices 1 2 3 4 5 6 
#
# 1 0.008973 -0.000602 -0.001655 0.000000 0.000000 0.000000
# 2 -0.000602 0.012114 -0.000959 0.000000 0.000000 0.000000
# 3 -0.001655 -0.000959 0.004647 0.000000 0.000000 0.000000
# 4 0.000000 0.000000 0.000000 0.040841 0.000000 0.000000
# 5 0.000000 0.000000 0.000000 0.000000 0.018948 0.000000
# 6 0.000000 0.000000 0.000000 0.000000 0.000000 0.034799
#
#
# Mechanical properties :
#
#
# Convention : Reuss Voigt Hill
#
# Bulk Modulus (GPa) = 51.81236 65.66712 58.73974
# Shear Modulus (GPa) = 37.54061 45.54997 41.54529
#
# Velocity S-wave (km/s) = 3.79306 4.17814 3.99025
# Velocity P-wave (km/s) = 6.24820 6.96006 6.61371
#
# Compressibility (1/GPa) = 0.01930042
#
# Stress axis : x y z
#
# Youngs Moduli (GPa) = 111.43969 82.55164 215.19384
#
# Poissons Ratio (x) = 0.04972 0.35623
# Poissons Ratio (y) = 0.06712 0.20641
# Poissons Ratio (z) = 0.18447 0.07918
#
# Static dielectric constant tensor:
#      x y z
#    x 2.188360 0.000000 0.000000 
#    y 0.000000 2.672200 0.000000 
#    z 0.000000 0.000000 2.064580 
# 
# From -- ./inp_files/21607.got.cif
#   From: 2010.05.17/outbox.cif.g08.bks.cpg/sg50_11_cif.got.tgz:21607.got - 2010.06.03 11:33:33.
