data_PCOD9397550
_publ_section_title
;
Structure prediction by ZEFSAII (Michael W. Deem and Ramdas Pophale) SiO2 
 PCOD9397550
Probable space group: P B A N
;
_chemical_formula_sum "Si O2"
_cell_formula_units_Z 44
_cell_length_a 8.749072
_cell_length_b 16.003156
_cell_length_c 13.923688
_cell_angle_alpha 90.000000
_cell_angle_beta 90.000000
_cell_angle_gamma 90.000000
_cell_volume 1949.494043
_symmetry_space_group_name_H-M "P B A N"
_symmetry_group_IT_number 50
_space_group.IT_coordinate_system_code '2'
_symmetry_cell_setting 'orthorhombic'
loop_
_space_group_symop_operation_xyz
x,y,z
1/2-x,1/2-y,z
x,1/2-y,-z
1/2-x,y,-z
-x,-y,-z
1/2+x,1/2+y,-z
-x,1/2+y,z
1/2+x,-y,z
loop_
_atom_site_type_symbol
_atom_site_label
_atom_site_fract_x
_atom_site_fract_y
_atom_site_fract_z
Si Si1 0.196658 0.419573 0.190199
Si Si2 0.250000 0.250000 0.873114
Si Si3 0.270390 0.883769 0.607331
Si Si4 0.028138 0.025591 0.315974
Si Si5 0.942892 0.175325 0.069181
Si Si6 0.750000 0.474385 0.000000
Si Si7 0.750000 0.250000 0.239734
O O1 0.152975 0.322707 0.177296
O O2 0.338323 0.422975 0.264059
O O3 0.248468 0.469601 0.095005
O O4 0.057133 0.470603 0.235273
O O5 0.376518 0.190700 0.921347
O O6 0.250000 0.851014 0.500000
O O7 0.323239 0.816335 0.686314
O O8 0.103931 0.918307 0.638646
O O9 0.387761 0.961521 0.612177
O O10 0.857782 0.194305 0.169648
O O11 0.898131 0.250000 0.000000
O O12 0.891367 0.089739 0.018872
#
# Coordination Sequence:
#
# PCOD9397550 Si02
#       7
#     8   4   8   8   8   4   4
#     4  11  25  42  64  95 131 184 219 274 318 396
#     4  12  27  40  58  98 131 168 225 278 322 362
#     4  11  23  42  69 100 128 167 220 278 335 397
#     4  10  23  43  67  93 131 174 216 270 340 389
#     4  12  25  43  65  92 131 179 220 270 320 385
#     4  12  25  43  68  88 136 184 240 251 315 396
#     4  12  22  44  70  92 130 174 222 266 332 392
#
# _framework density 22.569958
#
# number of rings (size 3 to 8) (size 9 to 14) (size 15 to 20)
#    0.000    0.727    1.818    6.545    5.091    1.455 
#    0.000    0.000    0.000    0.000    0.000   14.000 
#    0.000    0.000    0.000    0.000    0.000    0.000 
#
# Total GULP energy -245946.383667 kJ/mol
# GULP energy per Si atom -5589.690538 kJ/mol
# Density = 2.251859 g / cm^3
# Si number density = 22.569958 Si / 1000 Ang^3
#
#
#
# Elastic Constant Matrix: (Units=GPa)
#
#
# Indices 1 2 3 4 5 6 
#
# 1 90.4414 11.2990 7.1666 0.0000 0.0000 0.0000
# 2 11.2990 125.7614 31.9839 0.0000 0.0000 0.0000
# 3 7.1666 31.9839 119.1336 0.0000 0.0000 0.0000
# 4 0.0000 0.0000 0.0000 28.0933 0.0000 0.0000
# 5 0.0000 0.0000 0.0000 0.0000 11.0249 0.0000
# 6 0.0000 0.0000 0.0000 0.0000 0.0000 5.7856
#
#
#
# Elastic Compliance Matrix: (Units=1/GPa)
#
#
# Indices 1 2 3 4 5 6 
#
# 1 0.011203 -0.000896 -0.000433 0.000000 0.000000 0.000000
# 2 -0.000896 0.008606 -0.002257 0.000000 0.000000 0.000000
# 3 -0.000433 -0.002257 0.009026 0.000000 0.000000 0.000000
# 4 0.000000 0.000000 0.000000 0.035596 0.000000 0.000000
# 5 0.000000 0.000000 0.000000 0.000000 0.090703 0.000000
# 6 0.000000 0.000000 0.000000 0.000000 0.000000 0.172842
#
#
# Mechanical properties :
#
#
# Convention : Reuss Voigt Hill
#
# Bulk Modulus (GPa) = 46.16243 48.47059 47.31651
# Shear Modulus (GPa) = 14.60410 27.97324 21.28867
#
# Velocity S-wave (km/s) = 2.54650 3.52433 3.07454
# Velocity P-wave (km/s) = 5.39848 6.17119 5.79772
#
# Compressibility (1/GPa) = 0.02166264
#
# Stress axis : x y z
#
# Youngs Moduli (GPa) = 89.26022 116.19820 110.79331
#
# Poissons Ratio (x) = 0.10415 0.04801
# Poissons Ratio (y) = 0.08001 0.25001
# Poissons Ratio (z) = 0.03868 0.26221
#
# Static dielectric constant tensor:
#      x y z
#    x 1.884240 0.000000 0.000000 
#    y 0.000000 1.844580 0.000000 
#    z 0.000000 0.000000 2.282930 
# 
# From -- ./inp_files/24917.got.cif
#   From: 2010.05.17/outbox.cif.g08.bks.cpg/sg50_13_cif.got.tgz:24917.got - 2010.06.03 11:33:33.
