data_PCOD9397310
_publ_section_title
;
Structure prediction by ZEFSAII (Michael W. Deem and Ramdas Pophale) SiO2 
 PCOD9397310
Probable space group: P B A N
;
_chemical_formula_sum "Si O2"
_cell_formula_units_Z 38
_cell_length_a 12.488181
_cell_length_b 9.506160
_cell_length_c 15.108662
_cell_angle_alpha 90.000000
_cell_angle_beta 90.000000
_cell_angle_gamma 90.000000
_cell_volume 1793.619471
_symmetry_space_group_name_H-M "P B A N"
_symmetry_group_IT_number 50
_space_group.IT_coordinate_system_code '2'
_symmetry_cell_setting 'orthorhombic'
loop_
_space_group_symop_operation_xyz
x,y,z
1/2-x,1/2-y,z
x,1/2-y,-z
1/2-x,y,-z
-x,-y,-z
1/2+x,1/2+y,-z
-x,1/2+y,z
1/2+x,-y,z
loop_
_atom_site_type_symbol
_atom_site_label
_atom_site_fract_x
_atom_site_fract_y
_atom_site_fract_z
Si Si1 0.185669 0.393890 0.579288
Si Si2 0.351420 0.846848 0.670207
Si Si3 0.986625 0.250000 0.500000
Si Si4 0.869386 0.772024 0.895413
Si Si5 0.581215 0.400174 0.865229
Si Si6 0.750000 0.250000 0.000000
O O1 0.250000 0.250000 0.594636
O O2 0.250000 0.469318 0.500000
O O3 0.182375 0.491175 0.662456
O O4 0.068110 0.361256 0.543726
O O5 0.250000 0.750000 0.660828
O O6 0.423451 0.812285 0.583939
O O7 0.394944 0.835608 0.768499
O O8 0.750000 0.750000 0.855686
O O9 0.960127 0.655281 0.876899
O O10 0.909953 0.929964 0.872040
O O11 0.857707 0.750000 0.000000
O O12 0.668344 0.338870 0.936418
#
# Coordination Sequence:
#
# PCOD9397310 Si02
#       6
#     8   8   4   8   8   2
#     4   9  21  44  67  94 134 188 231 294 358 424
#     4  12  25  42  67 105 137 193 237 299 360 442
#     4  10  22  42  68 100 140 184 234 300 362 426
#     4  11  26  50  78 108 143 197 244 309 373 449
#     4  12  28  46  76 109 150 193 253 304 378 440
#     4  12  24  52  72 106 152 196 242 318 360 446
#
# _framework density 21.186211
#
# number of rings (size 3 to 8) (size 9 to 14) (size 15 to 20)
#    0.000    1.263    2.105    4.105    5.895    2.526 
#    3.789    0.000    0.000    0.000    0.000    0.000 
#    0.000    0.000    0.000    0.000    0.000    0.000 
#
# Total GULP energy -211920.913375 kJ/mol
# GULP energy per Si atom -5576.866141 kJ/mol
# Density = 2.113799 g / cm^3
# Si number density = 21.186211 Si / 1000 Ang^3
#
#
#
# Elastic Constant Matrix: (Units=GPa)
#
#
# Indices 1 2 3 4 5 6 
#
# 1 165.7844 77.7196 49.9469 0.0000 0.0000 0.0000
# 2 77.7196 105.0393 31.2757 0.0000 0.0000 0.0000
# 3 49.9469 31.2757 105.4377 0.0000 0.0000 0.0000
# 4 0.0000 0.0000 0.0000 39.2418 0.0000 0.0000
# 5 0.0000 0.0000 0.0000 0.0000 13.9930 0.0000
# 6 0.0000 0.0000 0.0000 0.0000 0.0000 24.6306
#
#
#
# Elastic Compliance Matrix: (Units=1/GPa)
#
#
# Indices 1 2 3 4 5 6 
#
# 1 0.009920 -0.006516 -0.002766 0.000000 0.000000 0.000000
# 2 -0.006516 0.014723 -0.001280 0.000000 0.000000 0.000000
# 3 -0.002766 -0.001280 0.011175 0.000000 0.000000 0.000000
# 4 0.000000 0.000000 0.000000 0.025483 0.000000 0.000000
# 5 0.000000 0.000000 0.000000 0.000000 0.071464 0.000000
# 6 0.000000 0.000000 0.000000 0.000000 0.000000 0.040600
#
#
# Mechanical properties :
#
#
# Convention : Reuss Voigt Hill
#
# Bulk Modulus (GPa) = 68.06651 77.12732 72.59692
# Shear Modulus (GPa) = 25.07664 30.06101 27.56882
#
# Velocity S-wave (km/s) = 3.44413 3.77091 3.61122
# Velocity P-wave (km/s) = 6.92918 7.44602 7.19224
#
# Compressibility (1/GPa) = 0.01469151
#
# Stress axis : x y z
#
# Youngs Moduli (GPa) = 100.80381 67.92084 89.48921
#
# Poissons Ratio (x) = 0.44260 0.24756
# Poissons Ratio (y) = 0.65688 0.11458
# Poissons Ratio (z) = 0.27886 0.08696
#
# Static dielectric constant tensor:
#      x y z
#    x 1.830440 0.000000 0.000000 
#    y 0.000000 2.110150 0.000000 
#    z 0.000000 0.000000 1.562910 
# 
# From -- ./inp_files/29087.got.cif
#   From: 2010.05.17/outbox.cif.g08.bks.cpg/sg50_15_cif.got.tgz:29087.got - 2010.06.03 11:33:33.
