data_PCOD9397795
_publ_section_title
;
Structure prediction by ZEFSAII (Michael W. Deem and Ramdas Pophale) SiO2 
 PCOD9397795
Probable space group: P B A N
;
_chemical_formula_sum "Si O2"
_cell_formula_units_Z 26
_cell_length_a 5.308899
_cell_length_b 26.516235
_cell_length_c 7.867803
_cell_angle_alpha 90.000000
_cell_angle_beta 90.000000
_cell_angle_gamma 90.000000
_cell_volume 1107.566470
_symmetry_space_group_name_H-M "P B A N"
_symmetry_group_IT_number 50
_space_group.IT_coordinate_system_code '2'
_symmetry_cell_setting 'orthorhombic'
loop_
_space_group_symop_operation_xyz
x,y,z
1/2-x,1/2-y,z
x,1/2-y,-z
1/2-x,y,-z
-x,-y,-z
1/2+x,1/2+y,-z
-x,1/2+y,z
1/2+x,-y,z
loop_
_atom_site_type_symbol
_atom_site_label
_atom_site_fract_x
_atom_site_fract_y
_atom_site_fract_z
Si Si1 0.750000 0.577897 0.000000
Si Si2 0.966477 0.967243 0.694203
Si Si3 0.250000 0.880680 0.500000
Si Si4 0.250000 0.250000 0.000000
Si Si5 0.559325 0.337856 0.841767
O O1 0.543196 0.548484 0.892317
O O2 0.875393 0.614636 0.863085
O O3 0.041596 0.919039 0.579789
O O4 0.192800 0.007228 0.670288
O O5 0.173901 0.845346 0.342842
O O6 0.413960 0.286250 0.879868
O O7 0.750000 0.342181 0.000000
#
# Coordination Sequence:
#
# PCOD9397795 Si02
#       5
#     4   8   4   2   8
#     4  11  24  45  76 110 154 216 254 317 386 443
#     4  12  26  45  73 115 164 212 272 320 366 454
#     4  12  26  48  81 112 156 208 252 323 398 450
#     4  10  26  52  86 106 144 190 254 324 400 478
#     4  11  24  51  79 109 151 192 253 321 394 478
#
# _framework density 23.474886000000001
#
# number of rings (size 3 to 8) (size 9 to 14) (size 15 to 20)
#    0.000    0.615    3.077    4.154    0.000    3.692 
#    0.000    4.615    0.000    0.000    0.000    0.000 
#    0.000    0.000    0.000    0.000    0.000    0.000 
#
# Total GULP energy -145520.217078 kJ/mol
# GULP energy per Si atom -5596.931426 kJ/mol
# Density = 2.342146 g / cm^3
# Si number density = 23.474886 Si / 1000 Ang^3
#
#
#
# Elastic Constant Matrix: (Units=GPa)
#
#
# Indices 1 2 3 4 5 6 
#
# 1 128.0442 66.0615 71.8014 0.0000 0.0000 0.0000
# 2 66.0615 142.1162 99.3816 0.0000 0.0000 0.0000
# 3 71.8014 99.3816 220.0317 0.0000 0.0000 0.0000
# 4 0.0000 0.0000 0.0000 24.9088 0.0000 0.0000
# 5 0.0000 0.0000 0.0000 0.0000 49.0155 0.0000
# 6 0.0000 0.0000 0.0000 0.0000 0.0000 71.7921
#
#
#
# Elastic Compliance Matrix: (Units=1/GPa)
#
#
# Indices 1 2 3 4 5 6 
#
# 1 0.010755 -0.003720 -0.001829 0.000000 0.000000 0.000000
# 2 -0.003720 0.011572 -0.004013 0.000000 0.000000 0.000000
# 3 -0.001829 -0.004013 0.006954 0.000000 0.000000 0.000000
# 4 0.000000 0.000000 0.000000 0.040147 0.000000 0.000000
# 5 0.000000 0.000000 0.000000 0.000000 0.020402 0.000000
# 6 0.000000 0.000000 0.000000 0.000000 0.000000 0.013929
#
#
# Mechanical properties :
#
#
# Convention : Reuss Voigt Hill
#
# Bulk Modulus (GPa) = 98.45732 107.18680 102.82206
# Shear Modulus (GPa) = 39.59834 46.00644 42.80239
#
# Velocity S-wave (km/s) = 4.11157 4.43178 4.27468
# Velocity P-wave (km/s) = 8.03571 8.48215 8.26195
#
# Compressibility (1/GPa) = 0.01015669
#
# Stress axis : x y z
#
# Youngs Moduli (GPa) = 92.98092 86.41697 143.79892
#
# Poissons Ratio (x) = 0.32148 0.26305
# Poissons Ratio (y) = 0.34590 0.57702
# Poissons Ratio (z) = 0.17009 0.34676
#
# Static dielectric constant tensor:
#      x y z
#    x 1.945040 0.000000 0.000000 
#    y 0.000000 1.878650 0.000000 
#    z 0.000000 0.000000 1.951070 
# 
# From -- ./inp_files/7770.got.cif
#   From: 2010.05.17/outbox.cif.g08.bks.cpg/sg50_4_cif.got.tgz:7770.got - 2010.06.03 11:33:33.
