data_PCOD9397890
_publ_section_title
;
Structure prediction by ZEFSAII (Michael W. Deem and Ramdas Pophale) SiO2 
 PCOD9397890
Probable space group: P B A N
;
_chemical_formula_sum "Si O2"
_cell_formula_units_Z 34
_cell_length_a 21.840984
_cell_length_b 8.256709
_cell_length_c 9.345781
_cell_angle_alpha 90.000000
_cell_angle_beta 90.000000
_cell_angle_gamma 90.000000
_cell_volume 1685.368138
_symmetry_space_group_name_H-M "P B A N"
_symmetry_group_IT_number 50
_space_group.IT_coordinate_system_code '2'
_symmetry_cell_setting 'orthorhombic'
loop_
_space_group_symop_operation_xyz
x,y,z
1/2-x,1/2-y,z
x,1/2-y,-z
1/2-x,y,-z
-x,-y,-z
1/2+x,1/2+y,-z
-x,1/2+y,z
1/2+x,-y,z
loop_
_atom_site_type_symbol
_atom_site_label
_atom_site_fract_x
_atom_site_fract_y
_atom_site_fract_z
Si Si1 0.139124 0.610991 0.673410
Si Si2 0.564255 0.568866 0.447235
Si Si3 0.750000 0.250000 0.500000
Si Si4 0.556844 0.108787 0.826062
Si Si5 0.084567 0.096669 0.094697
O O1 0.110162 0.549173 0.526443
O O2 0.205381 0.660802 0.615077
O O3 0.096199 0.748960 0.749790
O O4 0.131517 0.461887 0.784316
O O5 0.572234 0.750000 0.500000
O O6 0.500000 0.500000 0.500000
O O7 0.567097 0.543742 0.278725
O O8 0.483275 0.133040 0.838955
O O9 0.576665 0.053688 0.983704
O O10 0.103459 0.250000 0.000000
#
# Coordination Sequence:
#
# PCOD9397890 Si02
#       5
#     8   8   2   8   8
#     4  12  24  45  70  98 142 184 237 285 335 419
#     4  12  23  37  66 106 142 178 220 287 362 420
#     4  12  28  48  72 100 128 200 260 282 332 404
#     4  11  21  39  65 106 144 177 216 278 359 427
#     4  11  23  38  67 107 142 172 213 284 363 423
#
# _framework density 20.173632000000001
#
# number of rings (size 3 to 8) (size 9 to 14) (size 15 to 20)
#    0.000    0.471    4.706    6.353    0.000    0.000 
#    0.000    2.941    0.000    1.412    0.000    0.000 
#    0.000    0.000    0.000    0.000    0.000    0.000 
#
# Total GULP energy -189739.721336 kJ/mol
# GULP energy per Si atom -5580.580039 kJ/mol
# Density = 2.012772 g / cm^3
# Si number density = 20.173632 Si / 1000 Ang^3
#
#
#
# Elastic Constant Matrix: (Units=GPa)
#
#
# Indices 1 2 3 4 5 6 
#
# 1 125.7332 42.0093 50.2476 0.0000 0.0000 0.0000
# 2 42.0093 101.9990 37.5262 0.0000 0.0000 0.0000
# 3 50.2476 37.5262 146.0346 0.0000 0.0000 0.0000
# 4 0.0000 0.0000 0.0000 57.5370 0.0000 0.0000
# 5 0.0000 0.0000 0.0000 0.0000 17.2443 0.0000
# 6 0.0000 0.0000 0.0000 0.0000 0.0000 18.7670
#
#
#
# Elastic Compliance Matrix: (Units=1/GPa)
#
#
# Indices 1 2 3 4 5 6 
#
# 1 0.010073 -0.003174 -0.002650 0.000000 0.000000 0.000000
# 2 -0.003174 0.011828 -0.001947 0.000000 0.000000 0.000000
# 3 -0.002650 -0.001947 0.008260 0.000000 0.000000 0.000000
# 4 0.000000 0.000000 0.000000 0.017380 0.000000 0.000000
# 5 0.000000 0.000000 0.000000 0.000000 0.057990 0.000000
# 6 0.000000 0.000000 0.000000 0.000000 0.000000 0.053285
#
#
# Mechanical properties :
#
#
# Convention : Reuss Voigt Hill
#
# Bulk Modulus (GPa) = 68.40916 70.37033 69.38974
# Shear Modulus (GPa) = 27.89699 34.97524 31.43611
#
# Velocity S-wave (km/s) = 3.72270 4.16830 3.95178
# Velocity P-wave (km/s) = 7.24305 7.62393 7.43593
#
# Compressibility (1/GPa) = 0.01461793
#
# Stress axis : x y z
#
# Youngs Moduli (GPa) = 99.27675 84.54872 121.06479
#
# Poissons Ratio (x) = 0.26832 0.32087
# Poissons Ratio (y) = 0.31506 0.23575
# Poissons Ratio (z) = 0.26312 0.16465
#
# Static dielectric constant tensor:
#      x y z
#    x 1.986000 0.000000 0.000000 
#    y 0.000000 1.798230 0.000000 
#    z 0.000000 0.000000 1.742180 
# 
# From -- ./inp_files/9247.got.cif
#   From: 2010.05.17/outbox.cif.g08.bks.cpg/sg50_5_cif.got.tgz:9247.got - 2010.06.03 11:33:33.
