data_PCOD9397974
_publ_section_title
;
Structure prediction by ZEFSAII (Michael W. Deem and Ramdas Pophale) SiO2 
 PCOD9397974
Probable space group: P B A N
;
_chemical_formula_sum "Si O2"
_cell_formula_units_Z 60
_cell_length_a 11.552369
_cell_length_b 21.066222
_cell_length_c 11.142489
_cell_angle_alpha 90.000000
_cell_angle_beta 90.000000
_cell_angle_gamma 90.000000
_cell_volume 2711.689272
_symmetry_space_group_name_H-M "P B A N"
_symmetry_group_IT_number 50
_space_group.IT_coordinate_system_code '2'
_symmetry_cell_setting 'orthorhombic'
loop_
_space_group_symop_operation_xyz
x,y,z
1/2-x,1/2-y,z
x,1/2-y,-z
1/2-x,y,-z
-x,-y,-z
1/2+x,1/2+y,-z
-x,1/2+y,z
1/2+x,-y,z
loop_
_atom_site_type_symbol
_atom_site_label
_atom_site_fract_x
_atom_site_fract_y
_atom_site_fract_z
Si Si1 0.621805 0.277993 0.126373
Si Si2 0.441806 0.588152 0.949969
Si Si3 0.750000 0.750000 0.267609
Si Si4 0.314419 0.381100 0.166401
Si Si5 0.999897 0.723854 0.634679
Si Si6 0.919997 0.549381 0.846625
Si Si7 0.532466 0.077825 0.392972
Si Si8 0.354896 0.452534 0.412827
O O1 0.750000 0.250000 0.138352
O O2 0.629538 0.352900 0.098658
O O3 0.554018 0.260848 0.249644
O O4 0.569983 0.250000 0.000000
O O5 0.572504 0.602439 0.907682
O O6 0.403533 0.521357 0.895639
O O7 0.463589 0.577973 0.091569
O O8 0.704493 0.806992 0.185773
O O9 0.860405 0.774427 0.344182
O O10 0.193619 0.410575 0.125696
O O11 0.339577 0.413087 0.293903
O O12 0.023742 0.750000 0.500000
O O13 0.046961 0.651646 0.636028
O O14 0.942834 0.550808 0.705647
O O15 0.472249 0.069848 0.521911
O O16 0.637207 0.028013 0.388557
O O17 0.250000 0.437909 0.500000
#
# Coordination Sequence:
#
# PCOD9397974 Si02
#       8
#     8   8   4   8   8   8   8   8
#     4  11  27  52  73  98 140 197 242 286 359 436
#     4  11  25  46  71  98 141 179 236 294 354 421
#     4  12  23  40  73 104 147 190 219 294 365 438
#     4  12  23  42  67 106 136 179 229 289 359 420
#     4  12  25  45  72 106 144 184 241 296 355 428
#     4  11  23  43  69 103 135 176 230 297 352 423
#     4  11  23  40  66  96 134 180 225 279 346 418
#     4  11  22  40  64  94 137 178 225 278 350 415
#
# _framework density 22.126429999999999
#
# number of rings (size 3 to 8) (size 9 to 14) (size 15 to 20)
#    0.000    0.667    5.333    2.200    0.000    1.333 
#   12.000    1.000    0.000    0.000    0.000    0.000 
#    0.000    0.000    0.000    0.000    0.000    0.000 
#
# Total GULP energy -335415.045357 kJ/mol
# GULP energy per Si atom -5590.250756 kJ/mol
# Density = 2.207607 g / cm^3
# Si number density = 22.126430 Si / 1000 Ang^3
#
#
#
# Elastic Constant Matrix: (Units=GPa)
#
#
# Indices 1 2 3 4 5 6 
#
# 1 43.7571 2.7918 13.8196 0.0000 0.0000 0.0000
# 2 2.7918 130.4701 9.8889 0.0000 0.0000 0.0000
# 3 13.8196 9.8889 95.1231 0.0000 0.0000 0.0000
# 4 0.0000 0.0000 0.0000 76.3939 0.0000 0.0000
# 5 0.0000 0.0000 0.0000 0.0000 -7.7895 0.0000
# 6 0.0000 0.0000 0.0000 0.0000 0.0000 37.8637
#
#
#
# Elastic Compliance Matrix: (Units=1/GPa)
#
#
# Indices 1 2 3 4 5 6 
#
# 1 0.023961 -0.000251 -0.003455 0.000000 0.000000 0.000000
# 2 -0.000251 0.007728 -0.000767 0.000000 0.000000 0.000000
# 3 -0.003455 -0.000767 0.011094 0.000000 0.000000 0.000000
# 4 0.000000 0.000000 0.000000 0.013090 0.000000 0.000000
# 5 0.000000 0.000000 0.000000 0.000000 -0.128378 0.000000
# 6 0.000000 0.000000 0.000000 0.000000 0.000000 0.026411
#
#
# Mechanical properties :
#
#
# Convention : Reuss Voigt Hill
#
# Bulk Modulus (GPa) = 29.55299 35.81678 32.68488
# Shear Modulus (GPa) = -193.27284 37.48362 -77.89461
#
# Velocity S-wave (km/s) = -9.35622 4.12037 -5.93976
# Velocity P-wave (km/s) = 10.16529 6.23370 5.67777
#
# Compressibility (1/GPa) = 0.03383753
#
# Stress axis : x y z
#
# Youngs Moduli (GPa) = 41.73524 129.39808 90.13584
#
# Poissons Ratio (x) = 0.03246 0.31141
# Poissons Ratio (y) = 0.01047 0.06913
# Poissons Ratio (z) = 0.14419 0.09924
#
# Static dielectric constant tensor:
#      x y z
#    x 1.777820 0.000000 0.000000 
#    y 0.000000 1.818170 0.000000 
#    z 0.000000 0.000000 1.815130 
# 
# From -- ./inp_files/20417.got.cif
#   From: 2010.05.17/outbox.cif.g08.bks.cpg/sg50_11_cif.got.tgz:20417.got - 2010.06.03 11:33:33.
