data_PCOD9397397
_publ_section_title
;
Structure prediction by ZEFSAII (Michael W. Deem and Ramdas Pophale) SiO2 
 PCOD9397397
Probable space group: P B A N
;
_chemical_formula_sum "Si O2"
_cell_formula_units_Z 18
_cell_length_a 9.314068
_cell_length_b 15.707310
_cell_length_c 4.887345
_cell_angle_alpha 90.000000
_cell_angle_beta 90.000000
_cell_angle_gamma 90.000000
_cell_volume 715.013459
_symmetry_space_group_name_H-M "P B A N"
_symmetry_group_IT_number 50
_space_group.IT_coordinate_system_code '2'
_symmetry_cell_setting 'orthorhombic'
loop_
_space_group_symop_operation_xyz
x,y,z
1/2-x,1/2-y,z
x,1/2-y,-z
1/2-x,y,-z
-x,-y,-z
1/2+x,1/2+y,-z
-x,1/2+y,z
1/2+x,-y,z
loop_
_atom_site_type_symbol
_atom_site_label
_atom_site_fract_x
_atom_site_fract_y
_atom_site_fract_z
Si Si1 0.543645 0.885913 0.755988
Si Si2 0.750000 0.750000 0.000000
Si Si3 0.369760 0.920725 0.261465
O O1 0.648862 0.810878 0.824745
O O2 0.504146 0.887022 0.437871
O O3 0.616298 0.978481 0.796463
O O4 0.403727 0.881507 0.961367
O O5 0.250000 0.909850 0.500000
#
# Coordination Sequence:
#
# PCOD9397397 Si02
#       3
#     8   2   8
#     4  10  25  40  69 101 137 179 230 284 363 405
#     4  12  28  46  66 110 144 176 228 324 352 422
#     4  10  22  45  69  98 131 188 235 279 336 449
#
# _framework density 25.174354000000001
#
# number of rings (size 3 to 8) (size 9 to 14) (size 15 to 20)
#    0.000    1.778    0.000    1.333   18.667    3.556 
#    0.000    6.667    0.000    0.000    0.000    0.000 
#    0.000    0.000    0.000    0.000    0.000    0.000 
#
# Total GULP energy -100446.674706 kJ/mol
# GULP energy per Si atom -5580.370817 kJ/mol
# Density = 2.511706 g / cm^3
# Si number density = 25.174354 Si / 1000 Ang^3
#
#
#
# Elastic Constant Matrix: (Units=GPa)
#
#
# Indices 1 2 3 4 5 6 
#
# 1 68.1306 46.7013 51.6526 0.0000 0.0000 0.0000
# 2 46.7013 120.8403 53.6482 0.0000 0.0000 0.0000
# 3 51.6526 53.6482 205.5284 0.0000 0.0000 0.0000
# 4 0.0000 0.0000 0.0000 -4.9911 0.0000 0.0000
# 5 0.0000 0.0000 0.0000 0.0000 -4.5999 0.0000
# 6 0.0000 0.0000 0.0000 0.0000 0.0000 5857.6168
#
#
#
# Elastic Compliance Matrix: (Units=1/GPa)
#
#
# Indices 1 2 3 4 5 6 
#
# 1 0.022311 -0.006937 -0.003796 0.000000 0.000000 0.000000
# 2 -0.006937 0.011517 -0.001263 0.000000 0.000000 0.000000
# 3 -0.003796 -0.001263 0.006149 0.000000 0.000000 0.000000
# 4 0.000000 0.000000 0.000000 -0.200356 0.000000 0.000000
# 5 0.000000 0.000000 0.000000 0.000000 -0.217395 0.000000
# 6 0.000000 0.000000 0.000000 0.000000 0.000000 0.000171
#
#
# Mechanical properties :
#
#
# Convention : Reuss Voigt Hill
#
# Bulk Modulus (GPa) = 62.56001 77.61149 70.08575
# Shear Modulus (GPa) = -14.35619 1185.77164 585.70772
#
# Velocity S-wave (km/s) = -2.39062 21.72662 15.26976
# Velocity P-wave (km/s) = 4.15747 25.69614 18.40619
#
# Compressibility (1/GPa) = 0.01598465
#
# Stress axis : x y z
#
# Youngs Moduli (GPa) = 44.82087 86.82794 162.62224
#
# Poissons Ratio (x) = 0.60234 0.61737
# Poissons Ratio (y) = 0.31093 0.20536
# Poissons Ratio (z) = 0.17016 0.10965
#
# Static dielectric constant tensor:
#      x y z
#    x 2.659650 0.000000 0.000000 
#    y 0.000000 1.885390 0.000000 
#    z 0.000000 0.000000 1.918810 
# 
# From -- ./inp_files/636.got.cif
#   From: 2010.05.17/outbox.cif.g08.bks.cpg/sg50_1_cif.got.tgz:636.got - 2010.06.03 11:33:33.
