data_PCOD9397645
_publ_section_title
;
Structure prediction by ZEFSAII (Michael W. Deem and Ramdas Pophale) SiO2 
 PCOD9397645
Probable space group: P B A N
;
_chemical_formula_sum "Si O2"
_cell_formula_units_Z 28
_cell_length_a 14.015597
_cell_length_b 17.050788
_cell_length_c 5.569482
_cell_angle_alpha 90.000000
_cell_angle_beta 90.000000
_cell_angle_gamma 90.000000
_cell_volume 1330.977950
_symmetry_space_group_name_H-M "P B A N"
_symmetry_group_IT_number 50
_space_group.IT_coordinate_system_code '2'
_symmetry_cell_setting 'orthorhombic'
loop_
_space_group_symop_operation_xyz
x,y,z
1/2-x,1/2-y,z
x,1/2-y,-z
1/2-x,y,-z
-x,-y,-z
1/2+x,1/2+y,-z
-x,1/2+y,z
1/2+x,-y,z
loop_
_atom_site_type_symbol
_atom_site_label
_atom_site_fract_x
_atom_site_fract_y
_atom_site_fract_z
Si Si1 0.486614 0.168608 0.123640
Si Si2 0.693549 0.934783 0.741845
Si Si3 0.160466 0.609732 0.177946
Si Si4 0.622124 0.250000 0.500000
O O1 0.399255 0.117925 0.216243
O O2 0.554801 0.196122 0.336844
O O3 0.453524 0.250000 0.000000
O O4 0.557578 0.121191 0.947589
O O5 0.750000 0.909448 0.500000
O O6 0.663649 0.025371 0.696542
O O7 0.750000 0.931636 0.000000
O O8 0.174195 0.687547 0.333582
O O9 0.250000 0.608883 0.000000
#
# Coordination Sequence:
#
# PCOD9397645 Si02
#       4
#     8   8   8   4
#     4  10  24  45  68 102 136 182 235 293 355 415
#     4  11  27  47  71 103 140 188 239 287 352 421
#     4  10  24  44  67 103 139 183 233 290 360 423
#     4  10  24  41  71  98 140 178 235 288 359 414
#
# _framework density 21.037161000000001
#
# number of rings (size 3 to 8) (size 9 to 14) (size 15 to 20)
#    0.000    1.714    0.000    0.857   16.000    8.000 
#    0.000    0.000    0.000    0.000    0.000    0.000 
#    0.000    0.000    0.000    0.000    0.000    0.000 
#
# Total GULP energy -156455.332057 kJ/mol
# GULP energy per Si atom -5587.690431 kJ/mol
# Density = 2.098928 g / cm^3
# Si number density = 21.037161 Si / 1000 Ang^3
#
#
#
# Elastic Constant Matrix: (Units=GPa)
#
#
# Indices 1 2 3 4 5 6 
#
# 1 121.6175 75.3676 43.8104 0.0000 0.0000 0.0000
# 2 75.3676 111.6784 23.9129 0.0000 0.0000 0.0000
# 3 43.8104 23.9129 80.3074 0.0000 0.0000 0.0000
# 4 0.0000 0.0000 0.0000 -31.3053 0.0000 0.0000
# 5 0.0000 0.0000 0.0000 0.0000 22.9846 0.0000
# 6 0.0000 0.0000 0.0000 0.0000 0.0000 66.9710
#
#
#
# Elastic Compliance Matrix: (Units=1/GPa)
#
#
# Indices 1 2 3 4 5 6 
#
# 1 0.016510 -0.009841 -0.006076 0.000000 0.000000 0.000000
# 2 -0.009841 0.015430 0.000774 0.000000 0.000000 0.000000
# 3 -0.006076 0.000774 0.015537 0.000000 0.000000 0.000000
# 4 0.000000 0.000000 0.000000 -0.031943 0.000000 0.000000
# 5 0.000000 0.000000 0.000000 0.000000 0.043507 0.000000
# 6 0.000000 0.000000 0.000000 0.000000 0.000000 0.014932
#
#
# Mechanical properties :
#
#
# Convention : Reuss Voigt Hill
#
# Bulk Modulus (GPa) = 58.17416 66.64280 62.40848
# Shear Modulus (GPa) = 45.45939 23.09754 34.27846
#
# Velocity S-wave (km/s) = 4.65360 3.31711 4.04099
# Velocity P-wave (km/s) = 7.52248 6.81310 7.17656
#
# Compressibility (1/GPa) = 0.01718976
#
# Stress axis : x y z
#
# Youngs Moduli (GPa) = 60.56991 64.81000 64.36425
#
# Poissons Ratio (x) = 0.63778 0.39110
# Poissons Ratio (y) = 0.59605 -0.04982
# Poissons Ratio (z) = 0.36805 -0.05016
#
# Static dielectric constant tensor:
#      x y z
#    x 1.735650 0.000000 0.000000 
#    y 0.000000 1.751080 0.000000 
#    z 0.000000 0.000000 1.813830 
# 
# From -- ./inp_files/2923.got.cif
#   From: 2010.05.17/outbox.cif.g08.bks.cpg/sg50_2_cif.got.tgz:2923.got - 2010.06.03 11:33:33.
