data_PCOD9397012
_publ_section_title
;
Structure prediction by ZEFSAII (Michael W. Deem and Ramdas Pophale) SiO2 
 PCOD9397012
Probable space group: P B A N
;
_chemical_formula_sum "Si O2"
_cell_formula_units_Z 64
_cell_length_a 21.996327
_cell_length_b 15.212348
_cell_length_c 9.117012
_cell_angle_alpha 90.000000
_cell_angle_beta 90.000000
_cell_angle_gamma 90.000000
_cell_volume 3050.696091
_symmetry_space_group_name_H-M "P B A N"
_symmetry_group_IT_number 50
_space_group.IT_coordinate_system_code '2'
_symmetry_cell_setting 'orthorhombic'
loop_
_space_group_symop_operation_xyz
x,y,z
1/2-x,1/2-y,z
x,1/2-y,-z
1/2-x,y,-z
-x,-y,-z
1/2+x,1/2+y,-z
-x,1/2+y,z
1/2+x,-y,z
loop_
_atom_site_type_symbol
_atom_site_label
_atom_site_fract_x
_atom_site_fract_y
_atom_site_fract_z
Si Si1 0.355351 0.333726 0.303425
Si Si2 0.473106 0.393887 0.662048
Si Si3 0.514615 0.772941 0.169938
Si Si4 0.743176 0.348558 0.743248
Si Si5 0.646978 0.151666 0.509093
Si Si6 0.970948 0.089293 0.361813
Si Si7 0.335930 0.361039 0.650608
Si Si8 0.263513 0.042006 0.836669
O O1 0.421991 0.309776 0.239092
O O2 0.345252 0.358930 0.474712
O O3 0.322864 0.238272 0.295894
O O4 0.326191 0.412896 0.212789
O O5 0.504583 0.317120 0.750955
O O6 0.484579 0.375849 0.490007
O O7 0.493271 0.493495 0.684659
O O8 0.402611 0.388151 0.706153
O O9 0.467743 0.847294 0.222817
O O10 0.520359 0.750000 0.000000
O O11 0.750000 0.250000 0.809198
O O12 0.800572 0.352118 0.631973
O O13 0.682773 0.358126 0.642662
O O14 0.740827 0.436577 0.837181
O O15 0.619534 0.250000 0.500000
O O16 0.593945 0.085614 0.555229
O O17 0.285062 0.423860 0.716066
O O18 0.250000 0.074855 0.000000
#
# Coordination Sequence:
#
# PCOD9397012 Si02
#       8
#     8   8   8   8   8   8   8   8
#     4  10  23  40  63  90 124 168 214 257 321 383
#     4  10  22  37  65  93 123 166 216 269 318 374
#     4  11  24  42  64  91 137 177 207 268 337 392
#     4   9  21  40  61  92 125 166 203 264 326 373
#     4   9  18  35  66  91 116 154 214 269 308 366
#     4  11  21  38  67  99 121 161 225 271 312 388
#     4  10  21  42  63  90 123 164 212 270 312 381
#     4  12  26  36  61  96 127 165 214 264 322 395
#
# _framework density 20.978818
#
# number of rings (size 3 to 8) (size 9 to 14) (size 15 to 20)
#    0.000    1.750    1.250    3.375    8.750    2.250 
#    0.000    0.000   16.500    0.000    0.000    0.000 
#    0.000    0.000    0.000    0.000    0.000    0.000 
#
# Total GULP energy -356887.593211 kJ/mol
# GULP energy per Si atom -5576.368644 kJ/mol
# Density = 2.093107 g / cm^3
# Si number density = 20.978818 Si / 1000 Ang^3
#
#
#
# Elastic Constant Matrix: (Units=GPa)
#
#
# Indices 1 2 3 4 5 6 
#
# 1 55.1002 6.3245 8.2418 0.0000 0.0000 0.0000
# 2 6.3245 115.7584 61.7111 0.0000 0.0000 0.0000
# 3 8.2418 61.7111 98.0631 0.0000 0.0000 0.0000
# 4 0.0000 0.0000 0.0000 16.1905 0.0000 0.0000
# 5 0.0000 0.0000 0.0000 0.0000 8.6072 0.0000
# 6 0.0000 0.0000 0.0000 0.0000 0.0000 12.5823
#
#
#
# Elastic Compliance Matrix: (Units=1/GPa)
#
#
# Indices 1 2 3 4 5 6 
#
# 1 0.018385 -0.000272 -0.001374 0.000000 0.000000 0.000000
# 2 -0.000272 0.013004 -0.008161 0.000000 0.000000 0.000000
# 3 -0.001374 -0.008161 0.015448 0.000000 0.000000 0.000000
# 4 0.000000 0.000000 0.000000 0.061764 0.000000 0.000000
# 5 0.000000 0.000000 0.000000 0.000000 0.116182 0.000000
# 6 0.000000 0.000000 0.000000 0.000000 0.000000 0.079477
#
#
# Mechanical properties :
#
#
# Convention : Reuss Voigt Hill
#
# Bulk Modulus (GPa) = 36.73132 46.83071 41.78102
# Shear Modulus (GPa) = 15.01732 20.31897 17.66814
#
# Velocity S-wave (km/s) = 2.67841 3.11552 2.90520
# Velocity P-wave (km/s) = 5.20691 5.94250 5.58683
#
# Compressibility (1/GPa) = 0.02722472
#
# Stress axis : x y z
#
# Youngs Moduli (GPa) = 54.39070 76.89985 64.73159
#
# Poissons Ratio (x) = 0.02091 0.08895
# Poissons Ratio (y) = 0.01479 0.52824
# Poissons Ratio (z) = 0.07474 0.62754
#
# Static dielectric constant tensor:
#      x y z
#    x 1.783920 0.000000 0.000000 
#    y 0.000000 1.803480 0.000000 
#    z 0.000000 0.000000 1.727540 
# 
# From -- ./inp_files/16117.got.cif
#   From: 2010.05.17/outbox.cif.g08.bks.cpg/sg50_9_cif.got.tgz:16117.got - 2010.06.03 11:33:33.
