data_PCOD9397928
_publ_section_title
;
Structure prediction by ZEFSAII (Michael W. Deem and Ramdas Pophale) SiO2 
 PCOD9397928
Probable space group: P B A N
;
_chemical_formula_sum "Si O2"
_cell_formula_units_Z 64
_cell_length_a 8.646708
_cell_length_b 17.364156
_cell_length_c 20.062623
_cell_angle_alpha 90.000000
_cell_angle_beta 90.000000
_cell_angle_gamma 90.000000
_cell_volume 3012.258124
_symmetry_space_group_name_H-M "P B A N"
_symmetry_group_IT_number 50
_space_group.IT_coordinate_system_code '2'
_symmetry_cell_setting 'orthorhombic'
loop_
_space_group_symop_operation_xyz
x,y,z
1/2-x,1/2-y,z
x,1/2-y,-z
1/2-x,y,-z
-x,-y,-z
1/2+x,1/2+y,-z
-x,1/2+y,z
1/2+x,-y,z
loop_
_atom_site_type_symbol
_atom_site_label
_atom_site_fract_x
_atom_site_fract_y
_atom_site_fract_z
Si Si1 0.431696 0.771243 0.075443
Si Si2 0.071256 0.496093 0.243000
Si Si3 0.933139 0.856123 0.155009
Si Si4 0.308984 0.161839 0.426687
Si Si5 0.886052 0.048396 0.954518
Si Si6 0.597579 0.909880 0.132368
Si Si7 0.899580 0.433527 0.459009
Si Si8 0.829964 0.534271 0.335427
O O1 0.250000 0.750000 0.078743
O O2 0.507428 0.729174 0.140351
O O3 0.491323 0.857834 0.085313
O O4 0.484325 0.750000 0.000000
O O5 0.020023 0.410915 0.217126
O O6 0.248005 0.485944 0.265245
O O7 0.020825 0.555381 0.186372
O O8 0.005609 0.529699 0.311955
O O9 0.747721 0.861675 0.154239
O O10 0.014276 0.894765 0.090199
O O11 0.250000 0.250000 0.419021
O O12 0.250000 0.137225 0.500000
O O13 0.487737 0.135099 0.433757
O O14 0.235050 0.112262 0.366961
O O15 0.823361 0.983231 0.903981
O O16 0.750000 0.081780 0.000000
O O17 0.000000 0.000000 0.000000
O O18 0.750000 0.406341 0.500000
O O19 0.824839 0.474090 0.394907
O O20 0.000000 0.500000 0.500000
#
# Coordination Sequence:
#
# PCOD9397928 Si02
#       8
#     8   8   8   8   8   8   8   8
#     4  11  27  43  66  93 130 170 218 281 366 436
#     4  11  25  41  67  98 132 173 237 288 333 414
#     4  11  24  42  63  90 127 171 213 278 341 404
#     4  11  24  43  68 107 155 186 229 303 361 403
#     4  11  22  35  63  92 117 150 210 269 328 391
#     4  11  24  43  60  92 127 168 215 278 338 412
#     4  12  20  39  75 111 142 190 248 299 352 415
#     4  12  21  42  72 101 136 186 242 281 343 426
#
# _framework density 21.246517999999998
#
# number of rings (size 3 to 8) (size 9 to 14) (size 15 to 20)
#    0.000    0.750    6.250    1.125    5.250    0.500 
#    2.250    1.250    0.000    0.000    0.000    0.000 
#    0.000    0.000    0.000    0.000    0.000    0.000 
#
# Total GULP energy -356586.371368 kJ/mol
# GULP energy per Si atom -5571.662053 kJ/mol
# Density = 2.119816 g / cm^3
# Si number density = 21.246518 Si / 1000 Ang^3
#
#
#
# Elastic Constant Matrix: (Units=GPa)
#
#
# Indices 1 2 3 4 5 6 
#
# 1 93.1334 50.4619 27.4198 0.0000 0.0000 0.0000
# 2 50.4619 93.2710 33.4567 0.0000 0.0000 0.0000
# 3 27.4198 33.4567 87.9095 0.0000 0.0000 0.0000
# 4 0.0000 0.0000 0.0000 19.2460 0.0000 0.0000
# 5 0.0000 0.0000 0.0000 0.0000 48.6811 0.0000
# 6 0.0000 0.0000 0.0000 0.0000 0.0000 27.8402
#
#
#
# Elastic Compliance Matrix: (Units=1/GPa)
#
#
# Indices 1 2 3 4 5 6 
#
# 1 0.015459 -0.007683 -0.001898 0.000000 0.000000 0.000000
# 2 -0.007683 0.016235 -0.003782 0.000000 0.000000 0.000000
# 3 -0.001898 -0.003782 0.013407 0.000000 0.000000 0.000000
# 4 0.000000 0.000000 0.000000 0.051959 0.000000 0.000000
# 5 0.000000 0.000000 0.000000 0.000000 0.020542 0.000000
# 6 0.000000 0.000000 0.000000 0.000000 0.000000 0.035919
#
#
# Mechanical properties :
#
#
# Convention : Reuss Voigt Hill
#
# Bulk Modulus (GPa) = 54.42343 55.22119 54.82231
# Shear Modulus (GPa) = 26.82822 30.01849 28.42335
#
# Velocity S-wave (km/s) = 3.55732 3.76289 3.66155
# Velocity P-wave (km/s) = 6.52254 6.70270 6.61324
#
# Compressibility (1/GPa) = 0.01837444
#
# Stress axis : x y z
#
# Youngs Moduli (GPa) = 64.68819 61.59622 74.58928
#
# Poissons Ratio (x) = 0.47323 0.14156
# Poissons Ratio (y) = 0.49699 0.28212
# Poissons Ratio (z) = 0.12277 0.23297
#
# Static dielectric constant tensor:
#      x y z
#    x 1.800500 0.000000 0.000000 
#    y 0.000000 1.856190 0.000000 
#    z 0.000000 0.000000 1.832600 
# 
# From -- ./inp_files/30725.got.cif
#   From: 2010.05.17/outbox.cif.g08.bks.cpg/sg50_16_cif.got.tgz:30725.got - 2010.06.03 11:33:33.
