data_PCOD9397476
_publ_section_title
;
Structure prediction by ZEFSAII (Michael W. Deem and Ramdas Pophale) SiO2 
 PCOD9397476
Probable space group: P B A N
;
_chemical_formula_sum "Si O2"
_cell_formula_units_Z 32
_cell_length_a 13.304422
_cell_length_b 10.150636
_cell_length_c 10.398032
_cell_angle_alpha 90.000000
_cell_angle_beta 90.000000
_cell_angle_gamma 90.000000
_cell_volume 1404.237012
_symmetry_space_group_name_H-M "P B A N"
_symmetry_group_IT_number 50
_space_group.IT_coordinate_system_code '2'
_symmetry_cell_setting 'orthorhombic'
loop_
_space_group_symop_operation_xyz
x,y,z
1/2-x,1/2-y,z
x,1/2-y,-z
1/2-x,y,-z
-x,-y,-z
1/2+x,1/2+y,-z
-x,1/2+y,z
1/2+x,-y,z
loop_
_atom_site_type_symbol
_atom_site_label
_atom_site_fract_x
_atom_site_fract_y
_atom_site_fract_z
Si Si1 0.603797 0.874654 0.088972
Si Si2 0.252518 0.474778 0.713095
Si Si3 0.095581 0.407339 0.490096
Si Si4 0.621315 0.372691 0.096503
O O1 0.693950 0.884987 0.187094
O O2 0.492591 0.866183 0.152957
O O3 0.611798 0.750000 0.000000
O O4 0.614814 0.001615 0.997639
O O5 0.172271 0.471320 0.595650
O O6 0.352381 0.419731 0.648716
O O7 0.293999 0.599954 0.795427
O O8 0.077779 0.250000 0.500000
O O9 0.000000 0.500000 0.500000
O O10 0.636464 0.250000 0.000000
#
# Coordination Sequence:
#
# PCOD9397476 Si02
#       4
#     8   8   8   8
#     4  10  23  40  70 103 148 190 236 294 368 439
#     4  11  23  45  77 107 142 201 250 296 371 464
#     4  11  27  51  76 108 145 194 255 320 376 441
#     4  10  23  44  66 108 151 188 234 303 363 431
#
# _framework density 22.788176
#
# number of rings (size 3 to 8) (size 9 to 14) (size 15 to 20)
#    0.000    1.500    0.000    3.750    7.000    3.000 
#   18.000    1.250    0.000    1.500    0.000    0.000 
#    0.000    0.000    0.000    0.000    0.000    0.000 
#
# Total GULP energy -178664.137864 kJ/mol
# GULP energy per Si atom -5583.254308 kJ/mol
# Density = 2.273631 g / cm^3
# Si number density = 22.788176 Si / 1000 Ang^3
#
#
#
# Elastic Constant Matrix: (Units=GPa)
#
#
# Indices 1 2 3 4 5 6 
#
# 1 187.4738 80.0168 74.8009 0.0000 0.0000 0.0000
# 2 80.0168 181.9380 64.2243 0.0000 0.0000 0.0000
# 3 74.8009 64.2243 89.3904 0.0000 0.0000 0.0000
# 4 0.0000 0.0000 0.0000 32.1831 0.0000 0.0000
# 5 0.0000 0.0000 0.0000 0.0000 39.7709 0.0000
# 6 0.0000 0.0000 0.0000 0.0000 0.0000 18.7220
#
#
#
# Elastic Compliance Matrix: (Units=1/GPa)
#
#
# Indices 1 2 3 4 5 6 
#
# 1 0.008347 -0.001615 -0.005825 0.000000 0.000000 0.000000
# 2 -0.001615 0.007677 -0.004164 0.000000 0.000000 0.000000
# 3 -0.005825 -0.004164 0.019052 0.000000 0.000000 0.000000
# 4 0.000000 0.000000 0.000000 0.031072 0.000000 0.000000
# 5 0.000000 0.000000 0.000000 0.000000 0.025144 0.000000
# 6 0.000000 0.000000 0.000000 0.000000 0.000000 0.053413
#
#
# Mechanical properties :
#
#
# Convention : Reuss Voigt Hill
#
# Bulk Modulus (GPa) = 84.25131 99.65404 91.95268
# Shear Modulus (GPa) = 29.09187 34.11920 31.60554
#
# Velocity S-wave (km/s) = 3.57686 3.87361 3.72819
# Velocity P-wave (km/s) = 7.35597 7.98949 7.67927
#
# Compressibility (1/GPa) = 0.01186925
#
# Stress axis : x y z
#
# Youngs Moduli (GPa) = 119.79735 130.26667 52.48664
#
# Poissons Ratio (x) = 0.21040 0.30571
# Poissons Ratio (y) = 0.19349 0.21855
# Poissons Ratio (z) = 0.69777 0.54241
#
# Static dielectric constant tensor:
#      x y z
#    x 1.928360 0.000000 0.000000 
#    y 0.000000 1.977290 0.000000 
#    z 0.000000 0.000000 1.881910 
# 
# From -- ./inp_files/12212.got.cif
#   From: 2010.05.17/outbox.cif.g08.bks.cpg/sg50_7_cif.got.tgz:12212.got - 2010.06.03 11:33:33.
