data_PCOD9397122
_publ_section_title
;
Structure prediction by ZEFSAII (Michael W. Deem and Ramdas Pophale) SiO2 
 PCOD9397122
Probable space group: P B A N
;
_chemical_formula_sum "Si O2"
_cell_formula_units_Z 28
_cell_length_a 12.163090
_cell_length_b 5.272002
_cell_length_c 18.402266
_cell_angle_alpha 90.000000
_cell_angle_beta 90.000000
_cell_angle_gamma 90.000000
_cell_volume 1180.023865
_symmetry_space_group_name_H-M "P B A N"
_symmetry_group_IT_number 50
_space_group.IT_coordinate_system_code '2'
_symmetry_cell_setting 'orthorhombic'
loop_
_space_group_symop_operation_xyz
x,y,z
1/2-x,1/2-y,z
x,1/2-y,-z
1/2-x,y,-z
-x,-y,-z
1/2+x,1/2+y,-z
-x,1/2+y,z
1/2+x,-y,z
loop_
_atom_site_type_symbol
_atom_site_label
_atom_site_fract_x
_atom_site_fract_y
_atom_site_fract_z
Si Si1 0.750000 0.250000 0.648743
Si Si2 0.571262 0.225792 0.079719
Si Si3 0.450813 0.989433 0.581833
Si Si4 0.576457 0.125404 0.768722
O O1 0.675575 0.424234 0.595897
O O2 0.665785 0.120188 0.704625
O O3 0.470205 0.433348 0.081863
O O4 0.631344 0.324273 0.152146
O O5 0.623073 0.250000 0.000000
O O6 0.480605 0.257684 0.614306
O O7 0.500000 0.000000 0.500000
O O8 0.496172 0.371396 0.765858
#
# Coordination Sequence:
#
# PCOD9397122 Si02
#       4
#     4   8   8   8
#     4  12  24  41  69  94 126 168 198 256 324 366
#     4   8  14  28  51  77 114 163 206 251 302 351
#     4  10  24  45  66  94 123 154 201 248 301 377
#     4  10  22  38  58  92 128 162 212 258 306 374
#
# _framework density 23.728331000000001
#
# number of rings (size 3 to 8) (size 9 to 14) (size 15 to 20)
#    0.000    2.286    0.000    1.714    0.000    6.857 
#    0.000    6.429    0.000    0.000    0.000   20.000 
#    0.000    0.000    0.000    0.000    0.000    0.000 
#
# Total GULP energy -155953.239931 kJ/mol
# GULP energy per Si atom -5569.758569 kJ/mol
# Density = 2.367432 g / cm^3
# Si number density = 23.728331 Si / 1000 Ang^3
#
#
#
# Elastic Constant Matrix: (Units=GPa)
#
#
# Indices 1 2 3 4 5 6 
#
# 1 100.8019 26.4440 52.5029 0.0000 0.0000 0.0000
# 2 26.4440 163.7391 12.2130 0.0000 0.0000 0.0000
# 3 52.5029 12.2130 195.7992 0.0000 0.0000 0.0000
# 4 0.0000 0.0000 0.0000 22.8868 0.0000 0.0000
# 5 0.0000 0.0000 0.0000 0.0000 -0.2568 0.0000
# 6 0.0000 0.0000 0.0000 0.0000 0.0000 15.7803
#
#
#
# Elastic Compliance Matrix: (Units=1/GPa)
#
#
# Indices 1 2 3 4 5 6 
#
# 1 0.011986 -0.001704 -0.003108 0.000000 0.000000 0.000000
# 2 -0.001704 0.006378 0.000059 0.000000 0.000000 0.000000
# 3 -0.003108 0.000059 0.005937 0.000000 0.000000 0.000000
# 4 0.000000 0.000000 0.000000 0.043693 0.000000 0.000000
# 5 0.000000 0.000000 0.000000 0.000000 -3.893583 0.000000
# 6 0.000000 0.000000 0.000000 0.000000 0.000000 0.063370
#
#
# Mechanical properties :
#
#
# Convention : Reuss Voigt Hill
#
# Bulk Modulus (GPa) = 67.58661 71.40668 69.49664
# Shear Modulus (GPa) = -1.33412 32.29407 15.47997
#
# Velocity S-wave (km/s) = -0.75065 3.69316 2.55695
# Velocity P-wave (km/s) = 5.27201 6.95304 6.17004
#
# Compressibility (1/GPa) = 0.01479583
#
# Stress axis : x y z
#
# Youngs Moduli (GPa) = 83.42969 156.78739 168.43742
#
# Poissons Ratio (x) = 0.26716 0.52346
# Poissons Ratio (y) = 0.14216 -0.00995
# Poissons Ratio (z) = 0.25928 -0.00926
#
# Static dielectric constant tensor:
#      x y z
#    x 1.921250 0.000000 0.000000 
#    y 0.000000 1.916590 0.000000 
#    z 0.000000 0.000000 1.693150 
# 
# From -- ./inp_files/30772.got.cif
#   From: 2010.05.17/outbox.cif.g08.bks.cpg/sg50_16_cif.got.tgz:30772.got - 2010.06.03 11:33:33.
