data_PCOD9397784
_publ_section_title
;
Structure prediction by ZEFSAII (Michael W. Deem and Ramdas Pophale) SiO2 
 PCOD9397784
Probable space group: P B A N
;
_chemical_formula_sum "Si O2"
_cell_formula_units_Z 46
_cell_length_a 22.903803
_cell_length_b 7.897881
_cell_length_c 11.789979
_cell_angle_alpha 90.000000
_cell_angle_beta 90.000000
_cell_angle_gamma 90.000000
_cell_volume 2132.707111
_symmetry_space_group_name_H-M "P B A N"
_symmetry_group_IT_number 50
_space_group.IT_coordinate_system_code '2'
_symmetry_cell_setting 'orthorhombic'
loop_
_space_group_symop_operation_xyz
x,y,z
1/2-x,1/2-y,z
x,1/2-y,-z
1/2-x,y,-z
-x,-y,-z
1/2+x,1/2+y,-z
-x,1/2+y,z
1/2+x,-y,z
loop_
_atom_site_type_symbol
_atom_site_label
_atom_site_fract_x
_atom_site_fract_y
_atom_site_fract_z
Si Si1 0.369910 0.611526 0.412267
Si Si2 0.068148 0.344127 0.257316
Si Si3 0.597167 0.750000 0.500000
Si Si4 0.392878 0.750000 0.000000
Si Si5 0.946400 0.025465 0.808055
Si Si6 0.750000 0.750000 0.000000
Si Si7 0.750000 0.250000 0.313604
Si Si8 0.819602 0.496085 0.840430
O O1 0.395259 0.750000 0.500000
O O2 0.368644 0.422349 0.465865
O O3 0.408731 0.598850 0.297922
O O4 0.305627 0.679464 0.381270
O O5 0.060241 0.294696 0.388552
O O6 0.130595 0.429061 0.240818
O O7 0.014757 0.458576 0.218448
O O8 0.068485 0.171958 0.184873
O O9 0.430625 0.628175 0.079820
O O10 0.351908 0.861711 0.079956
O O11 0.709965 0.635310 0.080509
O O12 0.771889 0.098083 0.234431
#
# Coordination Sequence:
#
# PCOD9397784 Si02
#       8
#     8   8   4   4   8   2   4   8
#     4  11  25  47  73 108 143 194 244 305 367 443
#     4  11  26  46  70 109 140 188 240 300 363 442
#     4  10  26  44  75 106 148 187 244 302 368 442
#     4  12  24  48  72 102 143 193 234 298 362 434
#     4  11  26  44  73 106 145 186 242 294 371 436
#     4  12  28  40  72 102 142 194 244 302 360 440
#     4  12  25  47  74 102 146 191 245 302 368 442
#     4  12  26  45  73 103 144 191 242 299 362 437
#
# _framework density 21.568830999999999
#
# number of rings (size 3 to 8) (size 9 to 14) (size 15 to 20)
#    0.000    0.696    1.739    4.435    8.522    4.870 
#    0.000    5.217    0.000    0.000    0.000    0.000 
#    0.000    0.000    0.000    0.000    0.000    0.000 
#
# Total GULP energy -257592.055452 kJ/mol
# GULP energy per Si atom -5599.827292 kJ/mol
# Density = 2.151974 g / cm^3
# Si number density = 21.568831 Si / 1000 Ang^3
#
#
#
# Elastic Constant Matrix: (Units=GPa)
#
#
# Indices 1 2 3 4 5 6 
#
# 1 62.5532 -2.8125 3.7480 0.0000 0.0000 0.0000
# 2 -2.8125 84.9013 19.6563 0.0000 0.0000 0.0000
# 3 3.7480 19.6563 77.2584 0.0000 0.0000 0.0000
# 4 0.0000 0.0000 0.0000 50.2856 0.0000 0.0000
# 5 0.0000 0.0000 0.0000 0.0000 3.4449 0.0000
# 6 0.0000 0.0000 0.0000 0.0000 0.0000 35.6279
#
#
#
# Elastic Compliance Matrix: (Units=1/GPa)
#
#
# Indices 1 2 3 4 5 6 
#
# 1 0.016079 0.000758 -0.000973 0.000000 0.000000 0.000000
# 2 0.000758 0.012551 -0.003230 0.000000 0.000000 0.000000
# 3 -0.000973 -0.003230 0.013813 0.000000 0.000000 0.000000
# 4 0.000000 0.000000 0.000000 0.019886 0.000000 0.000000
# 5 0.000000 0.000000 0.000000 0.000000 0.290281 0.000000
# 6 0.000000 0.000000 0.000000 0.000000 0.000000 0.028068
#
#
# Mechanical properties :
#
#
# Convention : Reuss Voigt Hill
#
# Bulk Modulus (GPa) = 28.12742 29.54406 28.83574
# Shear Modulus (GPa) = 12.51819 31.47976 21.99897
#
# Velocity S-wave (km/s) = 2.41173 3.82449 3.19712
# Velocity P-wave (km/s) = 4.56337 5.76451 5.19875
#
# Compressibility (1/GPa) = 0.03555250
#
# Stress axis : x y z
#
# Youngs Moduli (GPa) = 62.19387 79.67284 72.39773
#
# Poissons Ratio (x) = -0.06038 0.07043
# Poissons Ratio (y) = -0.04713 0.23385
# Poissons Ratio (z) = 0.06050 0.25735
#
# Static dielectric constant tensor:
#      x y z
#    x 1.732260 0.000000 0.000000 
#    y 0.000000 1.601400 0.000000 
#    z 0.000000 0.000000 1.870540 
# 
# From -- ./inp_files/22811.got.cif
#   From: 2010.05.17/outbox.cif.g08.bks.cpg/sg50_12_cif.got.tgz:22811.got - 2010.06.03 11:33:33.
