data_PCOD9397640
_publ_section_title
;
Structure prediction by ZEFSAII (Michael W. Deem and Ramdas Pophale) SiO2 
 PCOD9397640
Probable space group: P B A N
;
_chemical_formula_sum "Si O2"
_cell_formula_units_Z 32
_cell_length_a 10.463630
_cell_length_b 22.591030
_cell_length_c 6.113161
_cell_angle_alpha 90.000000
_cell_angle_beta 90.000000
_cell_angle_gamma 90.000000
_cell_volume 1445.054546
_symmetry_space_group_name_H-M "P B A N"
_symmetry_group_IT_number 50
_space_group.IT_coordinate_system_code '2'
_symmetry_cell_setting 'orthorhombic'
loop_
_space_group_symop_operation_xyz
x,y,z
1/2-x,1/2-y,z
x,1/2-y,-z
1/2-x,y,-z
-x,-y,-z
1/2+x,1/2+y,-z
-x,1/2+y,z
1/2+x,-y,z
loop_
_atom_site_type_symbol
_atom_site_label
_atom_site_fract_x
_atom_site_fract_y
_atom_site_fract_z
Si Si1 0.363529 0.655863 0.671547
Si Si2 0.250000 0.250000 0.000000
Si Si3 0.357709 0.157456 0.680849
Si Si4 0.250000 0.060417 0.000000
Si Si5 0.376440 0.518254 0.649584
Si Si6 0.750000 0.250000 0.000000
O O1 0.250000 0.662458 0.500000
O O2 0.504318 0.664119 0.573658
O O3 0.371326 0.586268 0.733730
O O4 0.335144 0.704701 0.855746
O O5 0.337404 0.210617 0.846834
O O6 0.250000 0.158452 0.500000
O O7 0.330967 0.100134 0.830452
O O8 0.350758 0.023144 0.142360
O O9 0.250000 0.511348 0.500000
O O10 0.500000 0.500000 0.500000
#
# Coordination Sequence:
#
# PCOD9397640 Si02
#       6
#     8   2   8   4   8   2
#     4  11  26  44  66  96 135 178 222 279 341 412
#     4  10  24  40  70  96 122 170 226 280 334 396
#     4  11  24  44  68  97 131 172 225 283 342 410
#     4  11  23  41  70 101 133 175 224 282 350 419
#     4  11  24  43  68 101 138 178 227 288 354 423
#     4  12  26  44  66  96 136 184 234 276 342 430
#
# _framework density 22.144494000000002
#
# number of rings (size 3 to 8) (size 9 to 14) (size 15 to 20)
#    0.000    1.000    0.000    6.000    0.000   16.000 
#    0.000    0.000    0.000    0.000    0.000    0.000 
#    0.000    0.000    0.000    0.000    0.000    0.000 
#
# Total GULP energy -178885.978046 kJ/mol
# GULP energy per Si atom -5590.186814 kJ/mol
# Density = 2.209409 g / cm^3
# Si number density = 22.144494 Si / 1000 Ang^3
#
#
#
# Elastic Constant Matrix: (Units=GPa)
#
#
# Indices 1 2 3 4 5 6 
#
# 1 215.5842 54.2130 72.8028 0.0000 0.0000 0.0000
# 2 54.2130 167.9512 77.8036 0.0000 0.0000 0.0000
# 3 72.8028 77.8036 112.2232 0.0000 0.0000 0.0000
# 4 0.0000 0.0000 0.0000 73.8016 0.0000 0.0000
# 5 0.0000 0.0000 0.0000 0.0000 38.0348 0.0000
# 6 0.0000 0.0000 0.0000 0.0000 0.0000 12.7881
#
#
#
# Elastic Compliance Matrix: (Units=1/GPa)
#
#
# Indices 1 2 3 4 5 6 
#
# 1 0.005944 -0.000195 -0.003721 0.000000 0.000000 0.000000
# 2 -0.000195 0.008778 -0.005959 0.000000 0.000000 0.000000
# 3 -0.003721 -0.005959 0.015456 0.000000 0.000000 0.000000
# 4 0.000000 0.000000 0.000000 0.013550 0.000000 0.000000
# 5 0.000000 0.000000 0.000000 0.000000 0.026292 0.000000
# 6 0.000000 0.000000 0.000000 0.000000 0.000000 0.078198
#
#
# Mechanical properties :
#
#
# Convention : Reuss Voigt Hill
#
# Bulk Modulus (GPa) = 95.89616 100.59969 98.24792
# Shear Modulus (GPa) = 29.16425 44.32084 36.74255
#
# Velocity S-wave (km/s) = 3.63298 4.47860 4.07777
# Velocity P-wave (km/s) = 7.81005 8.50124 8.16297
#
# Compressibility (1/GPa) = 0.01042795
#
# Stress axis : x y z
#
# Youngs Moduli (GPa) = 168.23199 113.92741 64.69963
#
# Poissons Ratio (x) = 0.02221 0.24075
# Poissons Ratio (y) = 0.03280 0.38554
# Poissons Ratio (z) = 0.62599 0.67888
#
# Static dielectric constant tensor:
#      x y z
#    x 1.811080 0.000000 0.000000 
#    y 0.000000 1.881930 0.000000 
#    z 0.000000 0.000000 1.808310 
# 
# From -- ./inp_files/2080.got.cif
#   From: 2010.05.17/outbox.cif.g08.bks.cpg/sg50_2_cif.got.tgz:2080.got - 2010.06.03 11:33:33.
