data_PCOD9397958
_publ_section_title
;
Structure prediction by ZEFSAII (Michael W. Deem and Ramdas Pophale) SiO2 
 PCOD9397958
Probable space group: P B A N
;
_chemical_formula_sum "Si O2"
_cell_formula_units_Z 48
_cell_length_a 8.380193
_cell_length_b 13.143813
_cell_length_c 19.400899
_cell_angle_alpha 90.000000
_cell_angle_beta 90.000000
_cell_angle_gamma 90.000000
_cell_volume 2136.964203
_symmetry_space_group_name_H-M "P B A N"
_symmetry_group_IT_number 50
_space_group.IT_coordinate_system_code '2'
_symmetry_cell_setting 'orthorhombic'
loop_
_space_group_symop_operation_xyz
x,y,z
1/2-x,1/2-y,z
x,1/2-y,-z
1/2-x,y,-z
-x,-y,-z
1/2+x,1/2+y,-z
-x,1/2+y,z
1/2+x,-y,z
loop_
_atom_site_type_symbol
_atom_site_label
_atom_site_fract_x
_atom_site_fract_y
_atom_site_fract_z
Si Si1 0.087042 0.794197 0.650450
Si Si2 0.885968 0.517942 0.358635
Si Si3 0.375798 0.549720 0.052291
Si Si4 0.325384 0.363101 0.876096
Si Si5 0.509899 0.750000 0.500000
Si Si6 0.250000 0.435573 0.500000
Si Si7 0.601489 0.868916 0.715504
O O1 0.250000 0.750000 0.679926
O O2 0.079740 0.763779 0.570789
O O3 0.044814 0.912117 0.645684
O O4 0.943575 0.744360 0.693456
O O5 0.827086 0.500433 0.437362
O O6 0.742979 0.584005 0.328594
O O7 0.940183 0.427319 0.309387
O O8 0.284791 0.456911 0.093643
O O9 0.492630 0.622336 0.095936
O O10 0.250000 0.601421 0.000000
O O11 0.500000 0.500000 0.000000
O O12 0.250000 0.250000 0.891063
O O13 0.347277 0.375991 0.794331
O O14 0.612872 0.648011 0.484171
#
# Coordination Sequence:
#
# PCOD9397958 Si02
#       7
#     8   8   8   8   4   4   8
#     4  11  22  39  59  87 120 167 219 283 344 409
#     4  11  23  40  61  87 127 169 222 288 345 415
#     4   9  21  43  71 107 144 177 233 287 334 417
#     4  11  23  43  72 104 146 196 231 284 355 420
#     4   9  17  36  60  82 116 156 218 282 346 406
#     4   9  18  36  60  84 115 164 216 281 358 404
#     4  12  24  41  63  95 130 175 227 278 342 419
#
# _framework density 22.461769
#
# number of rings (size 3 to 8) (size 9 to 14) (size 15 to 20)
#    0.000    1.500    1.667    3.750    0.000    3.667 
#    3.000    7.500    0.000    0.000    0.000    0.000 
#    0.000    0.000    0.000    0.000    0.000    0.000 
#
# Total GULP energy -267577.561014 kJ/mol
# GULP energy per Si atom -5574.532521 kJ/mol
# Density = 2.241064 g / cm^3
# Si number density = 22.461769 Si / 1000 Ang^3
#
#
#
# Elastic Constant Matrix: (Units=GPa)
#
#
# Indices 1 2 3 4 5 6 
#
# 1 129.1573 59.0209 35.3806 0.0000 0.0000 0.0000
# 2 59.0209 97.4789 42.4485 0.0000 0.0000 0.0000
# 3 35.3806 42.4485 119.2484 0.0000 0.0000 0.0000
# 4 0.0000 0.0000 0.0000 11.2661 0.0000 0.0000
# 5 0.0000 0.0000 0.0000 0.0000 87.3671 0.0000
# 6 0.0000 0.0000 0.0000 0.0000 0.0000 49.0360
#
#
#
# Elastic Compliance Matrix: (Units=1/GPa)
#
#
# Indices 1 2 3 4 5 6 
#
# 1 0.010812 -0.006094 -0.001039 0.000000 0.000000 0.000000
# 2 -0.006094 0.015575 -0.003736 0.000000 0.000000 0.000000
# 3 -0.001039 -0.003736 0.010024 0.000000 0.000000 0.000000
# 4 0.000000 0.000000 0.000000 0.088762 0.000000 0.000000
# 5 0.000000 0.000000 0.000000 0.000000 0.011446 0.000000
# 6 0.000000 0.000000 0.000000 0.000000 0.000000 0.020393
#
#
# Mechanical properties :
#
#
# Convention : Reuss Voigt Hill
#
# Bulk Modulus (GPa) = 68.14994 68.84272 68.49633
# Shear Modulus (GPa) = 27.22708 43.46949 35.34828
#
# Velocity S-wave (km/s) = 3.48537 4.40394 3.97130
# Velocity P-wave (km/s) = 6.82667 7.52163 7.18256
#
# Compressibility (1/GPa) = 0.01467353
#
# Stress axis : x y z
#
# Youngs Moduli (GPa) = 92.49192 64.20394 99.76081
#
# Poissons Ratio (x) = 0.39126 0.10361
# Poissons Ratio (y) = 0.56364 0.37273
# Poissons Ratio (z) = 0.09606 0.23988
#
# Static dielectric constant tensor:
#      x y z
#    x 1.902830 0.000000 0.000000 
#    y 0.000000 2.010190 0.000000 
#    z 0.000000 0.000000 1.818990 
# 
# From -- ./inp_files/28758.got.cif
#   From: 2010.05.17/outbox.cif.g08.bks.cpg/sg50_15_cif.got.tgz:28758.got - 2010.06.03 11:33:33.
