data_PCOD9397987
_publ_section_title
;
Structure prediction by ZEFSAII (Michael W. Deem and Ramdas Pophale) SiO2 
 PCOD9397987
Probable space group: P B A N
;
_chemical_formula_sum "Si O2"
_cell_formula_units_Z 34
_cell_length_a 8.094290
_cell_length_b 15.782603
_cell_length_c 11.545581
_cell_angle_alpha 90.000000
_cell_angle_beta 90.000000
_cell_angle_gamma 90.000000
_cell_volume 1474.936030
_symmetry_space_group_name_H-M "P B A N"
_symmetry_group_IT_number 50
_space_group.IT_coordinate_system_code '2'
_symmetry_cell_setting 'orthorhombic'
loop_
_space_group_symop_operation_xyz
x,y,z
1/2-x,1/2-y,z
x,1/2-y,-z
1/2-x,y,-z
-x,-y,-z
1/2+x,1/2+y,-z
-x,1/2+y,z
1/2+x,-y,z
loop_
_atom_site_type_symbol
_atom_site_label
_atom_site_fract_x
_atom_site_fract_y
_atom_site_fract_z
Si Si1 0.338695 0.410477 0.883092
Si Si2 0.309538 0.847444 0.378289
Si Si3 0.201568 0.151082 0.369055
Si Si4 0.250000 0.750000 0.000000
Si Si5 0.776442 0.098439 0.857303
O O1 0.274401 0.383556 0.754142
O O2 0.532982 0.393255 0.892439
O O3 0.310478 0.511525 0.889166
O O4 0.250000 0.374635 0.000000
O O5 0.250000 0.750000 0.370486
O O6 0.250000 0.880858 0.500000
O O7 0.504178 0.854620 0.363071
O O8 0.221161 0.898421 0.279324
O O9 0.250000 0.250000 0.370417
O O10 0.250000 0.117902 0.500000
O O11 0.319135 0.680516 0.908160
#
# Coordination Sequence:
#
# PCOD9397987 Si02
#       5
#     8   8   8   2   8
#     4  12  27  45  73 104 148 183 239 299 362 422
#     4  11  22  41  69 100 138 187 240 294 355 425
#     4  11  24  44  70 106 146 190 244 297 360 433
#     4  12  28  44  76  96 146 188 246 274 360 424
#     4  12  26  47  71 105 144 191 236 297 362 430
#
# _framework density 23.051848
#
# number of rings (size 3 to 8) (size 9 to 14) (size 15 to 20)
#    0.000    0.471    2.353    7.765    3.294    1.412 
#    0.000    4.706    0.000    0.000    0.000    0.000 
#    0.000    0.000    0.000    0.000    0.000    0.000 
#
# Total GULP energy -189725.614551 kJ/mol
# GULP energy per Si atom -5580.165134 kJ/mol
# Density = 2.299938 g / cm^3
# Si number density = 23.051848 Si / 1000 Ang^3
#
#
#
# Elastic Constant Matrix: (Units=GPa)
#
#
# Indices 1 2 3 4 5 6 
#
# 1 150.7174 13.4540 48.4456 0.0000 0.0000 0.0000
# 2 13.4540 73.4645 47.2813 0.0000 0.0000 0.0000
# 3 48.4456 47.2813 225.3746 0.0000 0.0000 0.0000
# 4 0.0000 0.0000 0.0000 75.3035 0.0000 0.0000
# 5 0.0000 0.0000 0.0000 0.0000 54.9856 0.0000
# 6 0.0000 0.0000 0.0000 0.0000 0.0000 17.0221
#
#
#
# Elastic Compliance Matrix: (Units=1/GPa)
#
#
# Indices 1 2 3 4 5 6 
#
# 1 0.007136 -0.000370 -0.001456 0.000000 0.000000 0.000000
# 2 -0.000370 0.015756 -0.003226 0.000000 0.000000 0.000000
# 3 -0.001456 -0.003226 0.005427 0.000000 0.000000 0.000000
# 4 0.000000 0.000000 0.000000 0.013280 0.000000 0.000000
# 5 0.000000 0.000000 0.000000 0.000000 0.018187 0.000000
# 6 0.000000 0.000000 0.000000 0.000000 0.000000 0.058747
#
#
# Mechanical properties :
#
#
# Convention : Reuss Voigt Hill
#
# Bulk Modulus (GPa) = 54.89978 74.21313 64.55645
# Shear Modulus (GPa) = 37.11738 52.15395 44.63566
#
# Velocity S-wave (km/s) = 4.01704 4.76170 4.40513
# Velocity P-wave (km/s) = 6.73669 7.90541 7.34434
#
# Compressibility (1/GPa) = 0.01821501
#
# Stress axis : x y z
#
# Youngs Moduli (GPa) = 140.13333 63.46817 184.26710
#
# Poissons Ratio (x) = 0.02345 0.26837
# Poissons Ratio (y) = 0.05178 0.59445
# Poissons Ratio (z) = 0.20409 0.20475
#
# Static dielectric constant tensor:
#      x y z
#    x 1.741320 0.000000 0.000000 
#    y 0.000000 1.877220 0.000000 
#    z 0.000000 0.000000 1.961390 
# 
# From -- ./inp_files/18539.got.cif
#   From: 2010.05.17/outbox.cif.g08.bks.cpg/sg50_10_cif.got.tgz:18539.got - 2010.06.03 11:33:33.
