data_PCOD9397447
_publ_section_title
;
Structure prediction by ZEFSAII (Michael W. Deem and Ramdas Pophale) SiO2 
 PCOD9397447
Probable space group: P B A N
;
_chemical_formula_sum "Si O2"
_cell_formula_units_Z 64
_cell_length_a 9.403366
_cell_length_b 14.372808
_cell_length_c 22.581028
_cell_angle_alpha 90.000000
_cell_angle_beta 90.000000
_cell_angle_gamma 90.000000
_cell_volume 3051.888576
_symmetry_space_group_name_H-M "P B A N"
_symmetry_group_IT_number 50
_space_group.IT_coordinate_system_code '2'
_symmetry_cell_setting 'orthorhombic'
loop_
_space_group_symop_operation_xyz
x,y,z
1/2-x,1/2-y,z
x,1/2-y,-z
1/2-x,y,-z
-x,-y,-z
1/2+x,1/2+y,-z
-x,1/2+y,z
1/2+x,-y,z
loop_
_atom_site_type_symbol
_atom_site_label
_atom_site_fract_x
_atom_site_fract_y
_atom_site_fract_z
Si Si1 0.582021 0.536071 0.845566
Si Si2 0.163253 0.999878 0.764532
Si Si3 0.103185 0.129282 0.527907
Si Si4 0.585450 0.083332 0.312107
Si Si5 0.896781 0.365609 0.074913
Si Si6 0.472665 0.956830 0.409748
Si Si7 0.593512 0.244144 0.607728
Si Si8 0.435478 0.645993 0.940187
O O1 0.454860 0.558442 0.799973
O O2 0.732073 0.546512 0.812899
O O3 0.555282 0.431267 0.871276
O O4 0.557375 0.599853 0.901860
O O5 0.277869 0.942194 0.726712
O O6 0.062221 0.063673 0.723050
O O7 0.250000 0.157208 0.500000
O O8 0.015079 0.088069 0.472826
O O9 0.020990 0.209156 0.563566
O O10 0.130123 0.041577 0.571741
O O11 0.592092 0.187586 0.336216
O O12 0.582336 0.013282 0.368641
O O13 0.726814 0.384466 0.073169
O O14 0.927411 0.255238 0.077183
O O15 0.956599 0.382423 0.008751
O O16 0.428676 0.863364 0.376065
O O17 0.750000 0.250000 0.579343
#
# Coordination Sequence:
#
# PCOD9397447 Si02
#       8
#     8   8   8   8   8   8   8   8
#     4  11  19  39  62  91 121 167 212 264 323 379
#     4  10  23  40  63  86 124 167 218 272 318 360
#     4  10  24  41  65 101 138 165 195 258 326 386
#     4  10  23  45  63  90 127 167 218 270 315 367
#     4   9  18  34  59  92 126 162 212 249 327 391
#     4  10  23  39  67  93 125 171 201 251 319 377
#     4  11  24  41  69  98 127 165 218 258 312 400
#     4   9  18  34  59  91 127 166 201 263 312 405
#
# _framework density 20.97062
#
# number of rings (size 3 to 8) (size 9 to 14) (size 15 to 20)
#    0.000    2.000    1.250    2.250    8.750    1.500 
#    0.000   10.625    0.000    1.500    0.000    0.000 
#    0.000    0.000    0.000    0.000    0.000    0.000 
#
# Total GULP energy -356603.926821 kJ/mol
# GULP energy per Si atom -5571.936357 kJ/mol
# Density = 2.092289 g / cm^3
# Si number density = 20.970620 Si / 1000 Ang^3
#
#
#
# Elastic Constant Matrix: (Units=GPa)
#
#
# Indices 1 2 3 4 5 6 
#
# 1 112.5176 32.2789 37.1071 0.0000 0.0000 0.0000
# 2 32.2789 117.6080 29.5203 0.0000 0.0000 0.0000
# 3 37.1071 29.5203 81.0566 0.0000 0.0000 0.0000
# 4 0.0000 0.0000 0.0000 -5.9366 0.0000 0.0000
# 5 0.0000 0.0000 0.0000 0.0000 46.5868 0.0000
# 6 0.0000 0.0000 0.0000 0.0000 0.0000 14.4149
#
#
#
# Elastic Compliance Matrix: (Units=1/GPa)
#
#
# Indices 1 2 3 4 5 6 
#
# 1 0.010842 -0.001904 -0.004270 0.000000 0.000000 0.000000
# 2 -0.001904 0.009693 -0.002658 0.000000 0.000000 0.000000
# 3 -0.004270 -0.002658 0.015260 0.000000 0.000000 0.000000
# 4 0.000000 0.000000 0.000000 -0.168447 0.000000 0.000000
# 5 0.000000 0.000000 0.000000 0.000000 0.021465 0.000000
# 6 0.000000 0.000000 0.000000 0.000000 0.000000 0.069373
#
#
# Mechanical properties :
#
#
# Convention : Reuss Voigt Hill
#
# Bulk Modulus (GPa) = 55.15718 56.55496 55.85607
# Shear Modulus (GPa) = -276.14160 25.16475 -125.48842
#
# Velocity S-wave (km/s) = -11.48765 3.46786 -7.74403
# Velocity P-wave (km/s) = 12.23093 6.56216 7.29841
#
# Compressibility (1/GPa) = 0.01813001
#
# Stress axis : x y z
#
# Youngs Moduli (GPa) = 92.23511 103.17104 65.53092
#
# Poissons Ratio (x) = 0.19643 0.27981
# Poissons Ratio (y) = 0.17561 0.17421
# Poissons Ratio (z) = 0.39384 0.27427
#
# Static dielectric constant tensor:
#      x y z
#    x 1.766950 0.000000 0.000000 
#    y 0.000000 1.752330 0.000000 
#    z 0.000000 0.000000 1.819520 
# 
# From -- ./inp_files/31604.got.cif
#   From: 2010.05.17/outbox.cif.g08.bks.cpg/sg50_16_cif.got.tgz:31604.got - 2010.06.03 11:33:33.
