data_PCOD9397679
_publ_section_title
;
Structure prediction by ZEFSAII (Michael W. Deem and Ramdas Pophale) SiO2 
 PCOD9397679
Probable space group: P B A N
;
_chemical_formula_sum "Si O2"
_cell_formula_units_Z 42
_cell_length_a 13.172638
_cell_length_b 13.905913
_cell_length_c 11.591867
_cell_angle_alpha 90.000000
_cell_angle_beta 90.000000
_cell_angle_gamma 90.000000
_cell_volume 2123.369890
_symmetry_space_group_name_H-M "P B A N"
_symmetry_group_IT_number 50
_space_group.IT_coordinate_system_code '2'
_symmetry_cell_setting 'orthorhombic'
loop_
_space_group_symop_operation_xyz
x,y,z
1/2-x,1/2-y,z
x,1/2-y,-z
1/2-x,y,-z
-x,-y,-z
1/2+x,1/2+y,-z
-x,1/2+y,z
1/2+x,-y,z
loop_
_atom_site_type_symbol
_atom_site_label
_atom_site_fract_x
_atom_site_fract_y
_atom_site_fract_z
Si Si1 0.822039 0.581750 0.611155
Si Si2 0.250000 0.250000 0.000000
Si Si3 0.359752 0.800449 0.108654
Si Si4 0.664950 0.893659 0.183655
Si Si5 0.049117 0.250000 0.500000
Si Si6 0.750000 0.034239 0.000000
Si Si7 0.455621 0.891705 0.320210
O O1 0.750000 0.558447 0.500000
O O2 0.750188 0.609124 0.717717
O O3 0.883030 0.679554 0.579967
O O4 0.892672 0.488697 0.645625
O O5 0.321923 0.307538 0.090518
O O6 0.250000 0.750000 0.118672
O O7 0.402323 0.815826 0.234193
O O8 0.415392 0.750000 0.000000
O O9 0.336430 0.905559 0.062414
O O10 0.559528 0.911537 0.249339
O O11 0.693351 0.980280 0.100736
O O12 0.984259 0.328445 0.569213
#
# Coordination Sequence:
#
# PCOD9397679 Si02
#       7
#     8   2   8   8   4   4   8
#     4  12  26  47  71  96 144 185 230 297 348 408
#     4  10  24  44  64 112 136 188 222 294 348 422
#     4   9  21  41  65  93 137 176 213 277 349 398
#     4  11  23  41  71  96 140 172 235 275 347 414
#     4  12  27  44  69 100 134 182 235 286 349 408
#     4   9  19  43  63  94 130 178 211 275 345 399
#     4  12  26  43  72 102 132 186 236 284 347 424
#
# _framework density 19.779878
#
# number of rings (size 3 to 8) (size 9 to 14) (size 15 to 20)
#    0.000    1.333    3.810    2.000    1.333    5.333 
#    0.000    0.000    0.000    0.000    0.000    0.000 
#    0.000    0.000    0.000    0.000    0.000    0.000 
#
# Total GULP energy -233825.829293 kJ/mol
# GULP energy per Si atom -5567.281650 kJ/mol
# Density = 1.973486 g / cm^3
# Si number density = 19.779878 Si / 1000 Ang^3
#
#
#
# Elastic Constant Matrix: (Units=GPa)
#
#
# Indices 1 2 3 4 5 6 
#
# 1 80.4292 44.5080 57.5034 0.0000 0.0000 0.0000
# 2 44.5080 88.7873 43.0492 0.0000 0.0000 0.0000
# 3 57.5034 43.0492 127.9484 0.0000 0.0000 0.0000
# 4 0.0000 0.0000 0.0000 89.3282 0.0000 0.0000
# 5 0.0000 0.0000 0.0000 0.0000 -241.2572 0.0000
# 6 0.0000 0.0000 0.0000 0.0000 0.0000 23.6828
#
#
#
# Elastic Compliance Matrix: (Units=1/GPa)
#
#
# Indices 1 2 3 4 5 6 
#
# 1 0.021708 -0.007351 -0.007283 0.000000 0.000000 0.000000
# 2 -0.007351 0.015948 -0.002062 0.000000 0.000000 0.000000
# 3 -0.007283 -0.002062 0.011783 0.000000 0.000000 0.000000
# 4 0.000000 0.000000 0.000000 0.011195 0.000000 0.000000
# 5 0.000000 0.000000 0.000000 0.000000 -0.004145 0.000000
# 6 0.000000 0.000000 0.000000 0.000000 0.000000 0.042225
#
#
# Mechanical properties :
#
#
# Convention : Reuss Voigt Hill
#
# Bulk Modulus (GPa) = 62.31832 65.25400 63.78616
# Shear Modulus (GPa) = 36.37603 -15.50897 10.43353
#
# Velocity S-wave (km/s) = 4.29306 -2.80318 2.29919
# Velocity P-wave (km/s) = 7.49320 4.75233 6.27426
#
# Compressibility (1/GPa) = 0.01604664
#
# Stress axis : x y z
#
# Youngs Moduli (GPa) = 46.06572 62.70558 84.87104
#
# Poissons Ratio (x) = 0.46094 0.61811
# Poissons Ratio (y) = 0.33862 0.17500
# Poissons Ratio (z) = 0.33549 0.12930
#
# Static dielectric constant tensor:
#      x y z
#    x 1.604340 0.000000 0.000000 
#    y 0.000000 1.740890 0.000000 
#    z 0.000000 0.000000 1.721450 
# 
# From -- ./inp_files/12646.got.cif
#   From: 2010.05.17/outbox.cif.g08.bks.cpg/sg50_7_cif.got.tgz:12646.got - 2010.06.03 11:33:33.
