data_PCOD9397307
_publ_section_title
;
Structure prediction by ZEFSAII (Michael W. Deem and Ramdas Pophale) SiO2 
 PCOD9397307
Probable space group: P B A N
;
_chemical_formula_sum "Si O2"
_cell_formula_units_Z 56
_cell_length_a 14.284203
_cell_length_b 8.989196
_cell_length_c 21.341388
_cell_angle_alpha 90.000000
_cell_angle_beta 90.000000
_cell_angle_gamma 90.000000
_cell_volume 2740.308924
_symmetry_space_group_name_H-M "P B A N"
_symmetry_group_IT_number 50
_space_group.IT_coordinate_system_code '2'
_symmetry_cell_setting 'orthorhombic'
loop_
_space_group_symop_operation_xyz
x,y,z
1/2-x,1/2-y,z
x,1/2-y,-z
1/2-x,y,-z
-x,-y,-z
1/2+x,1/2+y,-z
-x,1/2+y,z
1/2+x,-y,z
loop_
_atom_site_type_symbol
_atom_site_label
_atom_site_fract_x
_atom_site_fract_y
_atom_site_fract_z
Si Si1 0.478001 0.013891 0.755520
Si Si2 0.383003 0.126472 0.144799
Si Si3 0.675071 0.531526 0.849590
Si Si4 0.501260 0.767085 0.667402
Si Si5 0.646535 0.184334 0.435033
Si Si6 0.045585 0.881583 0.045757
Si Si7 0.647988 0.823922 0.435376
O O1 0.377076 0.972739 0.786223
O O2 0.491515 0.183216 0.733985
O O3 0.555390 0.963150 0.805068
O O4 0.498116 0.936534 0.689407
O O5 0.350577 0.294263 0.158140
O O6 0.286608 0.031746 0.138649
O O7 0.455721 0.157194 0.088440
O O8 0.623130 0.452092 0.907993
O O9 0.411315 0.752770 0.623438
O O10 0.587612 0.725022 0.623961
O O11 0.750000 0.250000 0.429894
O O12 0.606953 0.250000 0.500000
O O13 0.649342 0.003986 0.438607
O O14 0.079902 0.750000 0.000000
O O15 0.000000 0.000000 0.000000
O O16 0.750000 0.750000 0.427957
O O17 0.611266 0.750000 0.500000
#
# Coordination Sequence:
#
# PCOD9397307 Si02
#       7
#     8   8   8   8   8   8   8
#     4  11  24  42  63  96 128 168 217 277 318 380
#     4  10  22  42  68  92 130 175 216 258 323 386
#     4  10  22  42  67  95 128 178 213 257 325 382
#     4  12  25  41  66  93 127 168 222 270 330 392
#     4  11  25  42  64  94 131 168 211 275 340 398
#     4  11  22  41  66  99 137 166 209 269 312 371
#     4  11  25  42  65  93 128 171 215 272 336 400
#
# _framework density 20.435652000000001
#
# number of rings (size 3 to 8) (size 9 to 14) (size 15 to 20)
#    0.000    1.143    4.286    2.143    4.000    4.000 
#    0.000    2.857    0.000    0.000    0.000    0.000 
#    0.000    0.000    0.000    0.000    0.000    0.000 
#
# Total GULP energy -312051.362685 kJ/mol
# GULP energy per Si atom -5572.345762 kJ/mol
# Density = 2.038914 g / cm^3
# Si number density = 20.435652 Si / 1000 Ang^3
#
#
#
# Elastic Constant Matrix: (Units=GPa)
#
#
# Indices 1 2 3 4 5 6 
#
# 1 124.7280 25.5744 47.6798 0.0000 0.0000 0.0000
# 2 25.5744 67.0807 32.8771 0.0000 0.0000 0.0000
# 3 47.6798 32.8771 95.7226 0.0000 0.0000 0.0000
# 4 0.0000 0.0000 0.0000 41.9754 0.0000 0.0000
# 5 0.0000 0.0000 0.0000 0.0000 15.8026 0.0000
# 6 0.0000 0.0000 0.0000 0.0000 0.0000 24.6954
#
#
#
# Elastic Compliance Matrix: (Units=1/GPa)
#
#
# Indices 1 2 3 4 5 6 
#
# 1 0.010054 -0.001658 -0.004439 0.000000 0.000000 0.000000
# 2 -0.001658 0.018198 -0.005425 0.000000 0.000000 0.000000
# 3 -0.004439 -0.005425 0.014521 0.000000 0.000000 0.000000
# 4 0.000000 0.000000 0.000000 0.023823 0.000000 0.000000
# 5 0.000000 0.000000 0.000000 0.000000 0.063281 0.000000
# 6 0.000000 0.000000 0.000000 0.000000 0.000000 0.040493
#
#
# Mechanical properties :
#
#
# Convention : Reuss Voigt Hill
#
# Bulk Modulus (GPa) = 50.68127 55.53267 53.10697
# Shear Modulus (GPa) = 25.00129 28.58801 26.79465
#
# Velocity S-wave (km/s) = 3.50153 3.74428 3.62494
# Velocity P-wave (km/s) = 6.41887 6.77689 6.60031
#
# Compressibility (1/GPa) = 0.01973116
#
# Stress axis : x y z
#
# Youngs Moduli (GPa) = 99.46195 54.95078 68.86617
#
# Poissons Ratio (x) = 0.09109 0.30567
# Poissons Ratio (y) = 0.16488 0.37358
# Poissons Ratio (z) = 0.44147 0.29809
#
# Static dielectric constant tensor:
#      x y z
#    x 1.723790 0.000000 0.000000 
#    y 0.000000 1.787460 0.000000 
#    z 0.000000 0.000000 1.780740 
# 
# From -- ./inp_files/30658.got.cif
#   From: 2010.05.17/outbox.cif.g08.bks.cpg/sg50_16_cif.got.tgz:30658.got - 2010.06.03 11:33:33.
