data_PCOD9397448
_publ_section_title
;
Structure prediction by ZEFSAII (Michael W. Deem and Ramdas Pophale) SiO2 
 PCOD9397448
Probable space group: P B A N
;
_chemical_formula_sum "Si O2"
_cell_formula_units_Z 28
_cell_length_a 11.368648
_cell_length_b 16.268361
_cell_length_c 7.908551
_cell_angle_alpha 90.000000
_cell_angle_beta 90.000000
_cell_angle_gamma 90.000000
_cell_volume 1462.680732
_symmetry_space_group_name_H-M "P B A N"
_symmetry_group_IT_number 50
_space_group.IT_coordinate_system_code '2'
_symmetry_cell_setting 'orthorhombic'
loop_
_space_group_symop_operation_xyz
x,y,z
1/2-x,1/2-y,z
x,1/2-y,-z
1/2-x,y,-z
-x,-y,-z
1/2+x,1/2+y,-z
-x,1/2+y,z
1/2+x,-y,z
loop_
_atom_site_type_symbol
_atom_site_label
_atom_site_fract_x
_atom_site_fract_y
_atom_site_fract_z
Si Si1 0.750000 0.900631 0.500000
Si Si2 0.543933 0.688053 0.654260
Si Si3 0.250000 0.614853 0.000000
Si Si4 0.835309 0.058648 0.353591
Si Si5 0.049566 0.750000 0.000000
O O1 0.660157 0.963037 0.594122
O O2 0.674466 0.846063 0.373994
O O3 0.517532 0.750000 0.500000
O O4 0.453540 0.611241 0.649440
O O5 0.524351 0.732304 0.832545
O O6 0.224494 0.565202 0.170291
O O7 0.137387 0.673323 0.970484
O O8 0.750000 0.095121 0.500000
#
# Coordination Sequence:
#
# PCOD9397448 Si02
#       5
#     4   8   4   8   4
#     4  10  23  40  55  86 124 158 194 240 295 356
#     4  11  21  40  60  84 119 158 198 243 291 353
#     4   9  16  36  58  92 115 146 198 252 295 348
#     4   9  20  36  60  87 116 153 194 246 295 347
#     4   9  20  34  61  88 116 148 203 251 292 342
#
# _framework density 19.142931999999998
#
# number of rings (size 3 to 8) (size 9 to 14) (size 15 to 20)
#    0.857    1.429    0.000    3.000    0.000    2.857 
#    5.143    4.286    0.000    0.000    0.000    0.000 
#    0.000    0.000    0.000    0.000    0.000    0.000 
#
# Total GULP energy -156085.242251 kJ/mol
# GULP energy per Si atom -5574.472938 kJ/mol
# Density = 1.909936 g / cm^3
# Si number density = 19.142932 Si / 1000 Ang^3
#
#
#
# Elastic Constant Matrix: (Units=GPa)
#
#
# Indices 1 2 3 4 5 6 
#
# 1 60.0453 29.8057 49.5760 0.0000 0.0000 0.0000
# 2 29.8057 65.3581 58.3964 0.0000 0.0000 0.0000
# 3 49.5760 58.3964 164.8467 0.0000 0.0000 0.0000
# 4 0.0000 0.0000 0.0000 -62.4738 0.0000 0.0000
# 5 0.0000 0.0000 0.0000 0.0000 27.3849 0.0000
# 6 0.0000 0.0000 0.0000 0.0000 0.0000 14.1116
#
#
#
# Elastic Compliance Matrix: (Units=1/GPa)
#
#
# Indices 1 2 3 4 5 6 
#
# 1 0.023935 -0.006560 -0.004874 0.000000 0.000000 0.000000
# 2 -0.006560 0.024184 -0.006594 0.000000 0.000000 0.000000
# 3 -0.004874 -0.006594 0.009868 0.000000 0.000000 0.000000
# 4 0.000000 0.000000 0.000000 -0.016007 0.000000 0.000000
# 5 0.000000 0.000000 0.000000 0.000000 0.036517 0.000000
# 6 0.000000 0.000000 0.000000 0.000000 0.000000 0.070864
#
#
# Mechanical properties :
#
#
# Convention : Reuss Voigt Hill
#
# Bulk Modulus (GPa) = 45.60033 62.86735 54.23384
# Shear Modulus (GPa) = 25.94343 5.96933 15.95638
#
# Velocity S-wave (km/s) = 3.68536 1.76779 2.89024
# Velocity P-wave (km/s) = 6.47934 6.08926 6.28733
#
# Compressibility (1/GPa) = 0.02192966
#
# Stress axis : x y z
#
# Youngs Moduli (GPa) = 41.78007 41.35022 101.33694
#
# Poissons Ratio (x) = 0.27126 0.49394
# Poissons Ratio (y) = 0.27408 0.66823
# Poissons Ratio (z) = 0.20365 0.27267
#
# Static dielectric constant tensor:
#      x y z
#    x 1.656160 0.000000 0.000000 
#    y 0.000000 1.679680 0.000000 
#    z 0.000000 0.000000 1.647690 
# 
# From -- ./inp_files/10517.got.cif
#   From: 2010.05.17/outbox.cif.g08.bks.cpg/sg50_6_cif.got.tgz:10517.got - 2010.06.03 11:33:33.
