data_PCOD9397128
_publ_section_title
;
Structure prediction by ZEFSAII (Michael W. Deem and Ramdas Pophale) SiO2 
 PCOD9397128
Probable space group: P B A N
;
_chemical_formula_sum "Si O2"
_cell_formula_units_Z 34
_cell_length_a 9.024968
_cell_length_b 20.873454
_cell_length_c 7.538547
_cell_angle_alpha 90.000000
_cell_angle_beta 90.000000
_cell_angle_gamma 90.000000
_cell_volume 1420.128479
_symmetry_space_group_name_H-M "P B A N"
_symmetry_group_IT_number 50
_space_group.IT_coordinate_system_code '2'
_symmetry_cell_setting 'orthorhombic'
loop_
_space_group_symop_operation_xyz
x,y,z
1/2-x,1/2-y,z
x,1/2-y,-z
1/2-x,y,-z
-x,-y,-z
1/2+x,1/2+y,-z
-x,1/2+y,z
1/2+x,-y,z
loop_
_atom_site_type_symbol
_atom_site_label
_atom_site_fract_x
_atom_site_fract_y
_atom_site_fract_z
Si Si1 0.526086 0.581990 0.677154
Si Si2 0.049969 0.408233 0.089646
Si Si3 0.250000 0.750000 0.500000
Si Si4 0.734718 0.478000 0.762752
Si Si5 0.963863 0.688394 0.608955
O O1 0.622958 0.519063 0.643960
O O2 0.352074 0.568497 0.675072
O O3 0.562733 0.632335 0.529885
O O4 0.562339 0.602741 0.879549
O O5 0.883626 0.435653 0.125255
O O6 0.157705 0.466971 0.149536
O O7 0.079785 0.344196 0.204568
O O8 0.361508 0.792587 0.617179
O O9 0.903758 0.750000 0.500000
#
# Coordination Sequence:
#
# PCOD9397128 Si02
#       5
#     8   8   2   8   8
#     4  11  21  39  63  90 124 158 191 249 303 351
#     4  11  21  39  63  90 124 158 191 249 303 351
#     4   8  20  44  54  82 120 142 208 258 256 344
#     4  10  22  38  62  96 124 151 200 243 302 371
#     4  10  24  40  58  87 119 155 211 249 277 357
#
# _framework density 23.941495
#
# number of rings (size 3 to 8) (size 9 to 14) (size 15 to 20)
#    0.706    0.941    0.000    7.059    0.000    7.529 
#    0.000    3.529    0.000    2.824    0.000    0.000 
#    0.000    0.000    0.000    0.000    0.000    0.000 
#
# Total GULP energy -189846.366961 kJ/mol
# GULP energy per Si atom -5583.716675 kJ/mol
# Density = 2.388700 g / cm^3
# Si number density = 23.941495 Si / 1000 Ang^3
#
#
#
# Elastic Constant Matrix: (Units=GPa)
#
#
# Indices 1 2 3 4 5 6 
#
# 1 135.7387 0.9008 15.5692 0.0000 0.0000 0.0000
# 2 0.9008 53.4750 33.1233 0.0000 0.0000 0.0000
# 3 15.5692 33.1233 128.3813 0.0000 0.0000 0.0000
# 4 0.0000 0.0000 0.0000 35.5889 0.0000 0.0000
# 5 0.0000 0.0000 0.0000 0.0000 22.6756 0.0000
# 6 0.0000 0.0000 0.0000 0.0000 0.0000 79.0197
#
#
#
# Elastic Compliance Matrix: (Units=1/GPa)
#
#
# Indices 1 2 3 4 5 6 
#
# 1 0.007483 0.000519 -0.001041 0.000000 0.000000 0.000000
# 2 0.000519 0.022293 -0.005815 0.000000 0.000000 0.000000
# 3 -0.001041 -0.005815 0.009416 0.000000 0.000000 0.000000
# 4 0.000000 0.000000 0.000000 0.028099 0.000000 0.000000
# 5 0.000000 0.000000 0.000000 0.000000 0.044100 0.000000
# 6 0.000000 0.000000 0.000000 0.000000 0.000000 0.012655
#
#
# Mechanical properties :
#
#
# Convention : Reuss Voigt Hill
#
# Bulk Modulus (GPa) = 37.71034 46.30908 42.00971
# Shear Modulus (GPa) = 34.35010 45.32362 39.83686
#
# Velocity S-wave (km/s) = 3.79192 4.35570 4.08355
# Velocity P-wave (km/s) = 5.91243 6.68436 6.31021
#
# Compressibility (1/GPa) = 0.02651793
#
# Stress axis : x y z
#
# Youngs Moduli (GPa) = 133.63441 44.85639 106.20388
#
# Poissons Ratio (x) = -0.02328 0.11060
# Poissons Ratio (y) = -0.06936 0.61755
# Poissons Ratio (z) = 0.13917 0.26083
#
# Static dielectric constant tensor:
#      x y z
#    x 1.990530 0.000000 0.000000 
#    y 0.000000 1.928970 0.000000 
#    z 0.000000 0.000000 2.047400 
# 
# From -- ./inp_files/9267.got.cif
#   From: 2010.05.17/outbox.cif.g08.bks.cpg/sg50_5_cif.got.tgz:9267.got - 2010.06.03 11:33:33.
