data_PCOD9397158
_publ_section_title
;
Structure prediction by ZEFSAII (Michael W. Deem and Ramdas Pophale) SiO2 
 PCOD9397158
Probable space group: P B A N
;
_chemical_formula_sum "Si O2"
_cell_formula_units_Z 30
_cell_length_a 5.382167
_cell_length_b 36.546969
_cell_length_c 7.241269
_cell_angle_alpha 90.000000
_cell_angle_beta 90.000000
_cell_angle_gamma 90.000000
_cell_volume 1424.371302
_symmetry_space_group_name_H-M "P B A N"
_symmetry_group_IT_number 50
_space_group.IT_coordinate_system_code '2'
_symmetry_cell_setting 'orthorhombic'
loop_
_space_group_symop_operation_xyz
x,y,z
1/2-x,1/2-y,z
x,1/2-y,-z
1/2-x,y,-z
-x,-y,-z
1/2+x,1/2+y,-z
-x,1/2+y,z
1/2+x,-y,z
loop_
_atom_site_type_symbol
_atom_site_label
_atom_site_fract_x
_atom_site_fract_y
_atom_site_fract_z
Si Si1 0.250000 0.250000 0.500000
Si Si2 0.858507 0.287117 0.291037
Si Si3 0.747298 0.367446 0.275693
Si Si4 0.750000 0.523988 0.000000
Si Si5 0.246331 0.089587 0.722382
O O1 0.361047 0.221364 0.348801
O O2 0.750000 0.250000 0.204241
O O3 0.750000 0.287329 0.500000
O O4 0.790720 0.325942 0.209057
O O5 0.750000 0.366112 0.500000
O O6 0.485360 0.385689 0.224333
O O7 0.986865 0.391319 0.223125
O O8 0.740298 0.550917 0.823878
O O9 0.500000 0.500000 0.000000
O O10 0.250000 0.085671 0.500000
#
# Coordination Sequence:
#
# PCOD9397158 Si02
#       5
#     2   8   8   4   8
#     4   8  14  20  36  66 116 154 202 236 292 320
#     4   8  15  22  38  70 111 158 196 239 284 323
#     4   9  18  31  53  80 120 156 195 241 281 331
#     4  12  26  44  68  90 117 148 183 234 294 362
#     4  10  22  39  60  90 117 151 191 233 287 344
#
# _framework density 21.061923
#
# number of rings (size 3 to 8) (size 9 to 14) (size 15 to 20)
#    0.000    2.933    0.000    1.600   13.067    1.067 
#    0.000    0.000    0.000    0.000    0.000    5.600 
#    0.000    0.000    0.000    0.000    0.000    0.000 
#
# Total GULP energy -167041.658174 kJ/mol
# GULP energy per Si atom -5568.055272 kJ/mol
# Density = 2.101398 g / cm^3
# Si number density = 21.061923 Si / 1000 Ang^3
#
#
#
# Elastic Constant Matrix: (Units=GPa)
#
#
# Indices 1 2 3 4 5 6 
#
# 1 148.8512 97.7757 19.6939 0.0000 0.0000 0.0000
# 2 97.7757 205.0162 39.0030 0.0000 0.0000 0.0000
# 3 19.6939 39.0030 91.7435 0.0000 0.0000 0.0000
# 4 0.0000 0.0000 0.0000 344.6650 0.0000 0.0000
# 5 0.0000 0.0000 0.0000 0.0000 -10.8856 0.0000
# 6 0.0000 0.0000 0.0000 0.0000 0.0000 55.3797
#
#
#
# Elastic Compliance Matrix: (Units=1/GPa)
#
#
# Indices 1 2 3 4 5 6 
#
# 1 0.009784 -0.004642 -0.000127 0.000000 0.000000 0.000000
# 2 -0.004642 0.007509 -0.002196 0.000000 0.000000 0.000000
# 3 -0.000127 -0.002196 0.011861 0.000000 0.000000 0.000000
# 4 0.000000 0.000000 0.000000 0.002901 0.000000 0.000000
# 5 0.000000 0.000000 0.000000 0.000000 -0.091865 0.000000
# 6 0.000000 0.000000 0.000000 0.000000 0.000000 0.018057
#
#
# Mechanical properties :
#
#
# Convention : Reuss Voigt Hill
#
# Bulk Modulus (GPa) = 65.68359 84.28402 74.98380
# Shear Modulus (GPa) = -219.80621 97.10771 -61.34925
#
# Velocity S-wave (km/s) = -10.22685 6.79749 -5.40289
# Velocity P-wave (km/s) = 10.40181 10.08524 1.80078
#
# Compressibility (1/GPa) = 0.01522450
#
# Stress axis : x y z
#
# Youngs Moduli (GPa) = 102.20623 133.16782 84.31178
#
# Poissons Ratio (x) = 0.61818 0.01069
# Poissons Ratio (y) = 0.47445 0.18514
# Poissons Ratio (z) = 0.01296 0.29243
#
# Static dielectric constant tensor:
#      x y z
#    x 1.565310 0.000000 0.000000 
#    y 0.000000 1.876340 0.000000 
#    z 0.000000 0.000000 1.797610 
# 
# From -- ./inp_files/7957.got.cif
#   From: 2010.05.17/outbox.cif.g08.bks.cpg/sg50_4_cif.got.tgz:7957.got - 2010.06.03 11:33:33.
