data_PCOD9397096
_publ_section_title
;
Structure prediction by ZEFSAII (Michael W. Deem and Ramdas Pophale) SiO2 
 PCOD9397096
Probable space group: P B A N
;
_chemical_formula_sum "Si O2"
_cell_formula_units_Z 32
_cell_length_a 8.271266
_cell_length_b 33.480696
_cell_length_c 5.355224
_cell_angle_alpha 90.000000
_cell_angle_beta 90.000000
_cell_angle_gamma 90.000000
_cell_volume 1483.010093
_symmetry_space_group_name_H-M "P B A N"
_symmetry_group_IT_number 50
_space_group.IT_coordinate_system_code '2'
_symmetry_cell_setting 'orthorhombic'
loop_
_space_group_symop_operation_xyz
x,y,z
1/2-x,1/2-y,z
x,1/2-y,-z
1/2-x,y,-z
-x,-y,-z
1/2+x,1/2+y,-z
-x,1/2+y,z
1/2+x,-y,z
loop_
_atom_site_type_symbol
_atom_site_label
_atom_site_fract_x
_atom_site_fract_y
_atom_site_fract_z
Si Si1 0.552465 0.296118 0.502455
Si Si2 0.448337 0.842074 0.006168
Si Si3 0.559071 0.432140 0.022761
Si Si4 0.356672 0.490746 0.744672
O O1 0.500834 0.250000 0.500000
O O2 0.750000 0.296177 0.500000
O O3 0.500283 0.317102 0.247163
O O4 0.501529 0.320981 0.747561
O O5 0.508042 0.887621 0.043277
O O6 0.250000 0.841963 0.000000
O O7 0.553233 0.466366 0.236011
O O8 0.750000 0.425972 0.000000
O O9 0.479738 0.454419 0.787357
O O10 0.250000 0.488513 0.500000
O O11 0.250000 0.489053 0.000000
#
# Coordination Sequence:
#
# PCOD9397096 Si02
#       4
#     8   8   8   8
#     4   9  16  26  40  62  95 130 159 195 251 311
#     4   9  17  27  43  66  93 127 166 205 246 302
#     4   9  20  35  54  77 104 138 180 221 263 314
#     4  10  22  37  53  74 105 142 178 220 268 315
#
# _framework density 21.577736999999999
#
# number of rings (size 3 to 8) (size 9 to 14) (size 15 to 20)
#    0.000    2.750    0.000    0.750    0.000   21.000 
#    0.000    0.000    0.000    0.000    0.000    0.000 
#    0.000   15.000    0.000    0.000    0.000    0.000 
#
# Total GULP energy -178390.652327 kJ/mol
# GULP energy per Si atom -5574.707885 kJ/mol
# Density = 2.152862 g / cm^3
# Si number density = 21.577737 Si / 1000 Ang^3
#
#
#
# Elastic Constant Matrix: (Units=GPa)
#
#
# Indices 1 2 3 4 5 6 
#
# 1 25.2622 29.1231 46.1067 0.0000 0.0000 0.0000
# 2 29.1231 234.7257 103.2755 0.0000 0.0000 0.0000
# 3 46.1067 103.2755 207.8498 0.0000 0.0000 0.0000
# 4 0.0000 0.0000 0.0000 3.4757 0.0000 0.0000
# 5 0.0000 0.0000 0.0000 0.0000 26.1079 0.0000
# 6 0.0000 0.0000 0.0000 0.0000 0.0000 7.5339
#
#
#
# Elastic Compliance Matrix: (Units=1/GPa)
#
#
# Indices 1 2 3 4 5 6 
#
# 1 0.067458 -0.002285 -0.013828 0.000000 0.000000 0.000000
# 2 -0.002285 0.005530 -0.002241 0.000000 0.000000 0.000000
# 3 -0.013828 -0.002241 0.008992 0.000000 0.000000 0.000000
# 4 0.000000 0.000000 0.000000 0.287710 0.000000 0.000000
# 5 0.000000 0.000000 0.000000 0.000000 0.038303 0.000000
# 6 0.000000 0.000000 0.000000 0.000000 0.000000 0.132733
#
#
# Mechanical properties :
#
#
# Convention : Reuss Voigt Hill
#
# Bulk Modulus (GPa) = 22.08925 91.64982 56.86954
# Shear Modulus (GPa) = 8.43846 26.71234 17.57540
#
# Velocity S-wave (km/s) = 1.97970 3.52228 2.85707
# Velocity P-wave (km/s) = 3.93509 7.68820 6.10710
#
# Compressibility (1/GPa) = 0.04527089
#
# Stress axis : x y z
#
# Youngs Moduli (GPa) = 14.82399 180.84238 111.21005
#
# Poissons Ratio (x) = 0.41330 1.53787
# Poissons Ratio (y) = 0.03388 0.24918
# Poissons Ratio (z) = 0.20499 0.40519
#
# Static dielectric constant tensor:
#      x y z
#    x 1.869800 0.000000 0.000000 
#    y 0.000000 1.786240 0.000000 
#    z 0.000000 0.000000 1.783880 
# 
# From -- ./inp_files/1119.got.cif
#   From: 2010.05.17/outbox.cif.g08.bks.cpg/sg50_1_cif.got.tgz:1119.got - 2010.06.03 11:33:33.
