data_PCOD9397157
_publ_section_title
;
Structure prediction by ZEFSAII (Michael W. Deem and Ramdas Pophale) SiO2 
 PCOD9397157
Probable space group: P B A N
;
_chemical_formula_sum "Si O2"
_cell_formula_units_Z 34
_cell_length_a 4.969726
_cell_length_b 11.613490
_cell_length_c 24.157947
_cell_angle_alpha 90.000000
_cell_angle_beta 90.000000
_cell_angle_gamma 90.000000
_cell_volume 1394.296764
_symmetry_space_group_name_H-M "P B A N"
_symmetry_group_IT_number 50
_space_group.IT_coordinate_system_code '2'
_symmetry_cell_setting 'orthorhombic'
loop_
_space_group_symop_operation_xyz
x,y,z
1/2-x,1/2-y,z
x,1/2-y,-z
1/2-x,y,-z
-x,-y,-z
1/2+x,1/2+y,-z
-x,1/2+y,z
1/2+x,-y,z
loop_
_atom_site_type_symbol
_atom_site_label
_atom_site_fract_x
_atom_site_fract_y
_atom_site_fract_z
Si Si1 0.250000 0.750000 0.000000
Si Si2 0.750000 0.584528 0.500000
Si Si3 0.250000 0.250000 0.176914
Si Si4 0.793232 0.920064 0.620263
Si Si5 0.964511 0.915415 0.086037
Si Si6 0.017281 0.418347 0.734661
O O1 0.441510 0.831463 0.963137
O O2 0.500000 0.500000 0.500000
O O3 0.696753 0.638639 0.560284
O O4 0.063544 0.331521 0.138845
O O5 0.074575 0.168086 0.216038
O O6 0.904879 0.860359 0.675541
O O7 0.489150 0.967229 0.622198
O O8 0.680466 0.981347 0.084948
O O9 0.223162 0.526725 0.737982
#
# Coordination Sequence:
#
# PCOD9397157 Si02
#       6
#     2   4   4   8   8   8
#     4  12  28  54  84 112 144 186 220 272 344 400
#     4   8  12  20  40  69 102 145 198 256 324 393
#     4  12  26  45  70  99 136 182 224 270 336 390
#     4   8  14  26  45  73 109 151 203 263 325 389
#     4  12  28  49  75 109 144 179 225 275 326 399
#     4  10  22  39  60  89 126 169 221 276 329 396
#
# _framework density 24.385055999999999
#
# number of rings (size 3 to 8) (size 9 to 14) (size 15 to 20)
#    0.000    1.882    0.000    3.529    0.000    8.000 
#    0.000    0.000    0.000    0.706    0.000    0.000 
#    0.000   28.235    0.000    0.000    0.000    3.765 
#
# Total GULP energy -189825.451820 kJ/mol
# GULP energy per Si atom -5583.101524 kJ/mol
# Density = 2.432955 g / cm^3
# Si number density = 24.385056 Si / 1000 Ang^3
#
#
#
# Elastic Constant Matrix: (Units=GPa)
#
#
# Indices 1 2 3 4 5 6 
#
# 1 78.6964 -9.1880 -5.6016 0.0000 0.0000 0.0000
# 2 -9.1880 77.2112 39.9126 0.0000 0.0000 0.0000
# 3 -5.6016 39.9126 187.0476 0.0000 0.0000 0.0000
# 4 0.0000 0.0000 0.0000 216.8793 0.0000 0.0000
# 5 0.0000 0.0000 0.0000 0.0000 28.8392 0.0000
# 6 0.0000 0.0000 0.0000 0.0000 0.0000 5.6969
#
#
#
# Elastic Compliance Matrix: (Units=1/GPa)
#
#
# Indices 1 2 3 4 5 6 
#
# 1 0.012887 0.001499 0.000066 0.000000 0.000000 0.000000
# 2 0.001499 0.014732 -0.003099 0.000000 0.000000 0.000000
# 3 0.000066 -0.003099 0.006009 0.000000 0.000000 0.000000
# 4 0.000000 0.000000 0.000000 0.004611 0.000000 0.000000
# 5 0.000000 0.000000 0.000000 0.000000 0.034675 0.000000
# 6 0.000000 0.000000 0.000000 0.000000 0.000000 0.175535
#
#
# Mechanical properties :
#
#
# Convention : Reuss Voigt Hill
#
# Bulk Modulus (GPa) = 32.72089 43.68900 38.20495
# Shear Modulus (GPa) = 19.10569 71.47189 45.28879
#
# Velocity S-wave (km/s) = 2.80214 5.41972 4.31424
# Velocity P-wave (km/s) = 4.89049 7.55775 6.36540
#
# Compressibility (1/GPa) = 0.03056151
#
# Stress axis : x y z
#
# Youngs Moduli (GPa) = 77.59866 67.88104 166.40635
#
# Poissons Ratio (x) = -0.10178 -0.01098
# Poissons Ratio (y) = -0.11635 0.51562
# Poissons Ratio (z) = -0.00512 0.21033
#
# Static dielectric constant tensor:
#      x y z
#    x 1.861160 0.000000 0.000000 
#    y 0.000000 2.184810 0.000000 
#    z 0.000000 0.000000 2.051950 
# 
# From -- ./inp_files/31361.got.cif
#   From: 2010.05.17/outbox.cif.g08.bks.cpg/sg50_16_cif.got.tgz:31361.got - 2010.06.03 11:33:33.
