data_PCOD9397807
_publ_section_title
;
Structure prediction by ZEFSAII (Michael W. Deem and Ramdas Pophale) SiO2 
 PCOD9397807
Probable space group: P B A N
;
_chemical_formula_sum "Si O2"
_cell_formula_units_Z 48
_cell_length_a 11.446651
_cell_length_b 8.633153
_cell_length_c 18.829391
_cell_angle_alpha 90.000000
_cell_angle_beta 90.000000
_cell_angle_gamma 90.000000
_cell_volume 1860.733400
_symmetry_space_group_name_H-M "P B A N"
_symmetry_group_IT_number 50
_space_group.IT_coordinate_system_code '2'
_symmetry_cell_setting 'orthorhombic'
loop_
_space_group_symop_operation_xyz
x,y,z
1/2-x,1/2-y,z
x,1/2-y,-z
1/2-x,y,-z
-x,-y,-z
1/2+x,1/2+y,-z
-x,1/2+y,z
1/2+x,-y,z
loop_
_atom_site_type_symbol
_atom_site_label
_atom_site_fract_x
_atom_site_fract_y
_atom_site_fract_z
Si Si1 0.551410 0.242030 0.271225
Si Si2 0.246195 0.010538 0.422461
Si Si3 0.052834 0.756153 0.424345
Si Si4 0.758787 0.506738 0.733892
Si Si5 0.972998 0.364875 0.945801
Si Si6 0.380617 0.362005 0.852732
O O1 0.491807 0.250969 0.348692
O O2 0.648437 0.107310 0.267694
O O3 0.625324 0.399050 0.264308
O O4 0.462959 0.201064 0.210062
O O5 0.250000 0.086356 0.500000
O O6 0.124465 0.916269 0.422274
O O7 0.349105 0.879219 0.424477
O O8 0.258165 0.082288 0.344373
O O9 0.989859 0.750000 0.500000
O O10 0.762430 0.599533 0.807951
O O11 0.912064 0.466953 0.884617
O O12 0.082540 0.263751 0.914152
O O13 0.904295 0.250000 0.000000
O O14 0.000000 0.500000 0.000000
#
# Coordination Sequence:
#
# PCOD9397807 Si02
#       6
#     8   8   8   8   8   8
#     4   9  17  29  50  81 113 145 194 241 289 335
#     4   7  10  19  38  65  99 137 180 227 273 321
#     4   7  10  19  38  65  99 138 179 226 274 322
#     4   9  17  29  50  81 111 146 194 242 288 341
#     4   9  20  36  58  82 112 154 188 227 309 376
#     4  11  18  34  58  85 112 149 193 245 288 363
#
# _framework density 25.796281
#
# number of rings (size 3 to 8) (size 9 to 14) (size 15 to 20)
#    0.000    3.333    1.667    3.000    0.000    0.000 
#    0.000    0.833    0.000   31.000    0.000    0.000 
#    0.000    0.000    0.000    0.000    0.000    0.000 
#
# Total GULP energy -267410.409219 kJ/mol
# GULP energy per Si atom -5571.050192 kJ/mol
# Density = 2.573757 g / cm^3
# Si number density = 25.796281 Si / 1000 Ang^3
#
#
#
# Elastic Constant Matrix: (Units=GPa)
#
#
# Indices 1 2 3 4 5 6 
#
# 1 68.8724 29.5197 31.7215 0.0000 0.0000 0.0000
# 2 29.5197 142.0378 53.5856 0.0000 0.0000 0.0000
# 3 31.7215 53.5856 245.6761 0.0000 0.0000 0.0000
# 4 0.0000 0.0000 0.0000 -117.9192 0.0000 0.0000
# 5 0.0000 0.0000 0.0000 0.0000 -61.4945 0.0000
# 6 0.0000 0.0000 0.0000 0.0000 0.0000 42.0668
#
#
#
# Elastic Compliance Matrix: (Units=1/GPa)
#
#
# Indices 1 2 3 4 5 6 
#
# 1 0.016432 -0.002849 -0.001500 0.000000 0.000000 0.000000
# 2 -0.002849 0.008166 -0.001413 0.000000 0.000000 0.000000
# 3 -0.001500 -0.001413 0.004572 0.000000 0.000000 0.000000
# 4 0.000000 0.000000 0.000000 -0.008480 0.000000 0.000000
# 5 0.000000 0.000000 0.000000 0.000000 -0.016262 0.000000
# 6 0.000000 0.000000 0.000000 0.000000 0.000000 0.023772
#
#
# Mechanical properties :
#
#
# Convention : Reuss Voigt Hill
#
# Bulk Modulus (GPa) = 56.67388 76.24887 66.46138
# Shear Modulus (GPa) = 109.63501 -4.68541 52.47480
#
# Velocity S-wave (km/s) = 6.52630 -1.34917 4.51510
# Velocity P-wave (km/s) = 8.87736 5.21491 7.28021
#
# Compressibility (1/GPa) = 0.01764481
#
# Stress axis : x y z
#
# Youngs Moduli (GPa) = 60.85794 122.46450 218.70613
#
# Poissons Ratio (x) = 0.34890 0.32811
# Poissons Ratio (y) = 0.17339 0.30907
# Poissons Ratio (z) = 0.09130 0.17306
#
# Static dielectric constant tensor:
#      x y z
#    x 2.089170 0.000000 0.000000 
#    y 0.000000 1.984940 0.000000 
#    z 0.000000 0.000000 2.078670 
# 
# From -- ./inp_files/29440.got.cif
#   From: 2010.05.17/outbox.cif.g08.bks.cpg/sg50_15_cif.got.tgz:29440.got - 2010.06.03 11:33:33.
