data_PCOD9397717
_publ_section_title
;
Structure prediction by ZEFSAII (Michael W. Deem and Ramdas Pophale) SiO2 
 PCOD9397717
Probable space group: P B A N
;
_chemical_formula_sum "Si O2"
_cell_formula_units_Z 40
_cell_length_a 8.649824
_cell_length_b 18.604619
_cell_length_c 10.855265
_cell_angle_alpha 90.000000
_cell_angle_beta 90.000000
_cell_angle_gamma 90.000000
_cell_volume 1746.901756
_symmetry_space_group_name_H-M "P B A N"
_symmetry_group_IT_number 50
_space_group.IT_coordinate_system_code '2'
_symmetry_cell_setting 'orthorhombic'
loop_
_space_group_symop_operation_xyz
x,y,z
1/2-x,1/2-y,z
x,1/2-y,-z
1/2-x,y,-z
-x,-y,-z
1/2+x,1/2+y,-z
-x,1/2+y,z
1/2+x,-y,z
loop_
_atom_site_type_symbol
_atom_site_label
_atom_site_fract_x
_atom_site_fract_y
_atom_site_fract_z
Si Si1 0.750000 0.750000 0.500000
Si Si2 0.065453 0.994074 0.364067
Si Si3 0.172008 0.998910 0.801407
Si Si4 0.910920 0.649122 0.931808
Si Si5 0.250000 0.750000 0.500000
Si Si6 0.503407 0.673206 0.334184
Si Si7 0.250000 0.612044 0.000000
O O1 0.646606 0.698357 0.416106
O O2 0.238580 0.014503 0.327187
O O3 0.035920 0.910756 0.334443
O O4 0.979449 0.037538 0.255524
O O5 0.000000 0.000000 0.500000
O O6 0.258503 0.940705 0.882813
O O7 0.131605 0.067661 0.884502
O O8 0.952937 0.692261 0.806477
O O9 0.078598 0.648933 0.002576
O O10 0.750000 0.670897 0.000000
O O11 0.358582 0.706891 0.405898
#
# Coordination Sequence:
#
# PCOD9397717 Si02
#       7
#     2   8   8   8   2   8   4
#     4  10  24  50  72  86 128 182 236 286 336 406
#     4  11  24  35  62 103 136 168 215 281 348 411
#     4  11  20  37  57  94 141 177 211 255 342 425
#     4  11  23  40  67 101 138 181 224 279 343 418
#     4  10  24  50  74  92 132 182 244 290 336 414
#     4  10  24  46  70  98 127 180 234 285 348 403
#     4  12  20  40  60  99 142 189 222 256 344 436
#
# _framework density 22.897680999999999
#
# number of rings (size 3 to 8) (size 9 to 14) (size 15 to 20)
#    0.000    1.200    5.000    2.400    8.400    0.000 
#    7.200    0.500    0.000    0.000    0.000    0.000 
#    0.000    0.000    0.000    0.000    0.000    0.000 
#
# Total GULP energy -222711.354171 kJ/mol
# GULP energy per Si atom -5567.783854 kJ/mol
# Density = 2.284556 g / cm^3
# Si number density = 22.897681 Si / 1000 Ang^3
#
#
#
# Elastic Constant Matrix: (Units=GPa)
#
#
# Indices 1 2 3 4 5 6 
#
# 1 173.1856 34.5967 76.3102 0.0000 0.0000 0.0000
# 2 34.5967 33.2250 27.5202 0.0000 0.0000 0.0000
# 3 76.3102 27.5202 143.9308 0.0000 0.0000 0.0000
# 4 0.0000 0.0000 0.0000 22.7386 0.0000 0.0000
# 5 0.0000 0.0000 0.0000 0.0000 30.0483 0.0000
# 6 0.0000 0.0000 0.0000 0.0000 0.0000 -13.1107
#
#
#
# Elastic Compliance Matrix: (Units=1/GPa)
#
#
# Indices 1 2 3 4 5 6 
#
# 1 0.008445 -0.006042 -0.003322 0.000000 0.000000 0.000000
# 2 -0.006042 0.040084 -0.004461 0.000000 0.000000 0.000000
# 3 -0.003322 -0.004461 0.009562 0.000000 0.000000 0.000000
# 4 0.000000 0.000000 0.000000 0.043978 0.000000 0.000000
# 5 0.000000 0.000000 0.000000 0.000000 0.033280 0.000000
# 6 0.000000 0.000000 0.000000 0.000000 0.000000 -0.076273
#
#
# Mechanical properties :
#
#
# Convention : Reuss Voigt Hill
#
# Bulk Modulus (GPa) = 32.85018 69.68839 51.26929
# Shear Modulus (GPa) = 51.61417 22.06286 36.83851
#
# Velocity S-wave (km/s) = 4.75291 3.10746 4.01538
# Velocity P-wave (km/s) = 6.67067 6.58604 6.62849
#
# Compressibility (1/GPa) = 0.03044123
#
# Stress axis : x y z
#
# Youngs Moduli (GPa) = 118.41400 24.94752 104.57941
#
# Poissons Ratio (x) = 0.15073 0.34743
# Poissons Ratio (y) = 0.71544 0.46653
# Poissons Ratio (z) = 0.39339 0.11129
#
# Static dielectric constant tensor:
#      x y z
#    x -0.984550 0.000000 0.000000 
#    y 0.000000 1.835160 0.000000 
#    z 0.000000 0.000000 1.729910 
# 
# From -- ./inp_files/19027.got.cif
#   From: 2010.05.17/outbox.cif.g08.bks.cpg/sg50_10_cif.got.tgz:19027.got - 2010.06.03 11:33:33.
