data_PCOD9397524
_publ_section_title
;
Structure prediction by ZEFSAII (Michael W. Deem and Ramdas Pophale) SiO2 
 PCOD9397524
Probable space group: P B A N
;
_chemical_formula_sum "Si O2"
_cell_formula_units_Z 56
_cell_length_a 20.204084
_cell_length_b 14.217556
_cell_length_c 8.007795
_cell_angle_alpha 90.000000
_cell_angle_beta 90.000000
_cell_angle_gamma 90.000000
_cell_volume 2300.260700
_symmetry_space_group_name_H-M "P B A N"
_symmetry_group_IT_number 50
_space_group.IT_coordinate_system_code '2'
_symmetry_cell_setting 'orthorhombic'
loop_
_space_group_symop_operation_xyz
x,y,z
1/2-x,1/2-y,z
x,1/2-y,-z
1/2-x,y,-z
-x,-y,-z
1/2+x,1/2+y,-z
-x,1/2+y,z
1/2+x,-y,z
loop_
_atom_site_type_symbol
_atom_site_label
_atom_site_fract_x
_atom_site_fract_y
_atom_site_fract_z
Si Si1 0.461711 0.288572 0.184043
Si Si2 0.900112 0.222139 0.319919
Si Si3 0.752460 0.538718 0.196636
Si Si4 0.478029 0.997082 0.693524
Si Si5 0.818776 0.713324 0.311515
Si Si6 0.644968 0.395643 0.833415
Si Si7 0.386844 0.515092 0.805935
O O1 0.521768 0.254032 0.299879
O O2 0.463525 0.401286 0.220428
O O3 0.386870 0.260045 0.224975
O O4 0.477766 0.250000 0.000000
O O5 0.874965 0.250000 0.500000
O O6 0.862115 0.284431 0.183185
O O7 0.893275 0.111357 0.296290
O O8 0.803925 0.602652 0.296710
O O9 0.782366 0.434107 0.208326
O O10 0.676845 0.542323 0.254716
O O11 0.750000 0.565319 0.000000
O O12 0.543805 0.961236 0.790721
O O13 0.500000 0.000000 0.500000
O O14 0.412668 0.935645 0.713517
O O15 0.750000 0.750000 0.232981
O O16 0.821944 0.750000 0.500000
O O17 0.627012 0.445361 0.008828
#
# Coordination Sequence:
#
# PCOD9397524 Si02
#       7
#     8   8   8   8   8   8   8
#     4  11  24  43  70  99 138 181 235 290 350 427
#     4  11  23  43  66 103 139 179 225 288 351 416
#     4  10  24  45  71  98 137 180 233 286 344 419
#     4  11  23  41  67 101 136 184 229 295 357 413
#     4  11  26  44  65  99 137 183 226 288 358 417
#     4  11  21  42  71  96 136 178 233 285 344 421
#     4  10  23  42  69 100 133 182 234 286 343 416
#
# _framework density 24.345065999999999
#
# number of rings (size 3 to 8) (size 9 to 14) (size 15 to 20)
#    0.000    1.286    1.429    4.714    2.000    4.000 
#    5.143    2.857    0.000    0.000    0.000    0.000 
#    0.000    0.000    0.000    0.000    0.000    0.000 
#
# Total GULP energy -313166.934890 kJ/mol
# GULP energy per Si atom -5592.266694 kJ/mol
# Density = 2.428966 g / cm^3
# Si number density = 24.345066 Si / 1000 Ang^3
#
#
#
# Elastic Constant Matrix: (Units=GPa)
#
#
# Indices 1 2 3 4 5 6 
#
# 1 112.3472 3.7026 10.6726 0.0000 0.0000 0.0000
# 2 3.7026 70.9159 16.6022 0.0000 0.0000 0.0000
# 3 10.6726 16.6022 104.9757 0.0000 0.0000 0.0000
# 4 0.0000 0.0000 0.0000 27.6832 0.0000 0.0000
# 5 0.0000 0.0000 0.0000 0.0000 13.1168 0.0000
# 6 0.0000 0.0000 0.0000 0.0000 0.0000 37.4165
#
#
#
# Elastic Compliance Matrix: (Units=1/GPa)
#
#
# Indices 1 2 3 4 5 6 
#
# 1 0.008993 -0.000265 -0.000872 0.000000 0.000000 0.000000
# 2 -0.000265 0.014651 -0.002290 0.000000 0.000000 0.000000
# 3 -0.000872 -0.002290 0.009977 0.000000 0.000000 0.000000
# 4 0.000000 0.000000 0.000000 0.036123 0.000000 0.000000
# 5 0.000000 0.000000 0.000000 0.000000 0.076238 0.000000
# 6 0.000000 0.000000 0.000000 0.000000 0.000000 0.026726
#
#
# Mechanical properties :
#
#
# Convention : Reuss Voigt Hill
#
# Bulk Modulus (GPa) = 37.36195 38.91039 38.13617
# Shear Modulus (GPa) = 26.52729 32.79407 29.66068
#
# Velocity S-wave (km/s) = 3.30455 3.67420 3.49427
# Velocity P-wave (km/s) = 5.47176 5.83243 5.65497
#
# Compressibility (1/GPa) = 0.02676520
#
# Stress axis : x y z
#
# Youngs Moduli (GPa) = 111.20269 68.25370 100.23158
#
# Poissons Ratio (x) = 0.01811 0.08743
# Poissons Ratio (y) = 0.02950 0.22955
# Poissons Ratio (z) = 0.09700 0.15631
#
# Static dielectric constant tensor:
#      x y z
#    x 1.921170 0.000000 0.000000 
#    y 0.000000 2.058980 0.000000 
#    z 0.000000 0.000000 1.918660 
# 
# From -- ./inp_files/15362.got.cif
#   From: 2010.05.17/outbox.cif.g08.bks.cpg/sg50_8_cif.got.tgz:15362.got - 2010.06.03 11:33:33.
