data_PCOD9397423
_publ_section_title
;
Structure prediction by ZEFSAII (Michael W. Deem and Ramdas Pophale) SiO2 
 PCOD9397423
Probable space group: P B A N
;
_chemical_formula_sum "Si O2"
_cell_formula_units_Z 22
_cell_length_a 20.903452
_cell_length_b 8.943290
_cell_length_c 6.227388
_cell_angle_alpha 90.000000
_cell_angle_beta 90.000000
_cell_angle_gamma 90.000000
_cell_volume 1164.182993
_symmetry_space_group_name_H-M "P B A N"
_symmetry_group_IT_number 50
_space_group.IT_coordinate_system_code '2'
_symmetry_cell_setting 'orthorhombic'
loop_
_space_group_symop_operation_xyz
x,y,z
1/2-x,1/2-y,z
x,1/2-y,-z
1/2-x,y,-z
-x,-y,-z
1/2+x,1/2+y,-z
-x,1/2+y,z
1/2+x,-y,z
loop_
_atom_site_type_symbol
_atom_site_label
_atom_site_fract_x
_atom_site_fract_y
_atom_site_fract_z
Si Si1 0.813879 0.408104 0.115265
Si Si2 0.006107 0.750000 0.500000
Si Si3 0.551711 0.993494 0.192377
Si Si4 0.750000 0.250000 0.500000
O O1 0.876184 0.509113 0.106564
O O2 0.792963 0.356752 0.351949
O O3 0.829379 0.250000 0.000000
O O4 0.750000 0.468738 0.000000
O O5 0.964621 0.645184 0.344754
O O6 0.045529 0.640775 0.656976
O O7 0.500000 0.000000 0.000000
#
# Coordination Sequence:
#
# PCOD9397423 Si02
#       4
#     8   4   8   2
#     4   9  18  31  54  82 107 142 182 229 282 325
#     4  10  23  34  58  86 111 152 188 226 287 332
#     4  11  21  38  58  84 116 146 188 236 277 334
#     4   8  16  32  52  80 110 136 186 236 266 330
#
# _framework density 18.897373000000002
#
# number of rings (size 3 to 8) (size 9 to 14) (size 15 to 20)
#    0.000    2.545    0.000    4.364    0.000    8.727 
#    0.000    0.000    0.000   16.364    0.000    2.545 
#    0.000    0.000    0.000    0.000    0.000    0.000 
#
# Total GULP energy -122744.695192 kJ/mol
# GULP energy per Si atom -5579.304327 kJ/mol
# Density = 1.885436 g / cm^3
# Si number density = 18.897373 Si / 1000 Ang^3
#
#
#
# Elastic Constant Matrix: (Units=GPa)
#
#
# Indices 1 2 3 4 5 6 
#
# 1 167.9235 30.5774 59.0587 0.0000 0.0000 0.0000
# 2 30.5774 64.9001 24.9468 0.0000 0.0000 0.0000
# 3 59.0587 24.9468 117.9483 0.0000 0.0000 0.0000
# 4 0.0000 0.0000 0.0000 15.5184 0.0000 0.0000
# 5 0.0000 0.0000 0.0000 0.0000 0.7150 0.0000
# 6 0.0000 0.0000 0.0000 0.0000 0.0000 14.9762
#
#
#
# Elastic Compliance Matrix: (Units=1/GPa)
#
#
# Indices 1 2 3 4 5 6 
#
# 1 0.007526 -0.002283 -0.003286 0.000000 0.000000 0.000000
# 2 -0.002283 0.017464 -0.002551 0.000000 0.000000 0.000000
# 3 -0.003286 -0.002551 0.010663 0.000000 0.000000 0.000000
# 4 0.000000 0.000000 0.000000 0.064440 0.000000 0.000000
# 5 0.000000 0.000000 0.000000 0.000000 1.398594 0.000000
# 6 0.000000 0.000000 0.000000 0.000000 0.000000 0.066773
#
#
# Mechanical properties :
#
#
# Convention : Reuss Voigt Hill
#
# Bulk Modulus (GPa) = 51.50677 64.43751 57.97214
# Shear Modulus (GPa) = 3.14828 21.98784 12.56806
#
# Velocity S-wave (km/s) = 1.29213 3.41477 2.58169
# Velocity P-wave (km/s) = 5.43520 7.05126 6.29530
#
# Compressibility (1/GPa) = 0.01941492
#
# Stress axis : x y z
#
# Youngs Moduli (GPa) = 132.86554 57.25934 93.78226
#
# Poissons Ratio (x) = 0.13073 0.30814
# Poissons Ratio (y) = 0.30334 0.23921
# Poissons Ratio (z) = 0.43656 0.14605
#
# Static dielectric constant tensor:
#      x y z
#    x 1.660720 0.000000 0.000000 
#    y 0.000000 1.653350 0.000000 
#    z 0.000000 0.000000 1.688740 
# 
# From -- ./inp_files/1786.got.cif
#   From: 2010.05.17/outbox.cif.g08.bks.cpg/sg50_1_cif.got.tgz:1786.got - 2010.06.03 11:33:33.
