data_PCOD9397733
_publ_section_title
;
Structure prediction by ZEFSAII (Michael W. Deem and Ramdas Pophale) SiO2 
 PCOD9397733
Probable space group: P B A N
;
_chemical_formula_sum "Si O2"
_cell_formula_units_Z 40
_cell_length_a 8.058067
_cell_length_b 24.001985
_cell_length_c 8.564193
_cell_angle_alpha 90.000000
_cell_angle_beta 90.000000
_cell_angle_gamma 90.000000
_cell_volume 1656.397170
_symmetry_space_group_name_H-M "P B A N"
_symmetry_group_IT_number 50
_space_group.IT_coordinate_system_code '2'
_symmetry_cell_setting 'orthorhombic'
loop_
_space_group_symop_operation_xyz
x,y,z
1/2-x,1/2-y,z
x,1/2-y,-z
1/2-x,y,-z
-x,-y,-z
1/2+x,1/2+y,-z
-x,1/2+y,z
1/2+x,-y,z
loop_
_atom_site_type_symbol
_atom_site_label
_atom_site_fract_x
_atom_site_fract_y
_atom_site_fract_z
Si Si1 0.657151 0.932868 0.166941
Si Si2 0.382680 0.964789 0.617696
Si Si3 0.416637 0.850752 0.104602
Si Si4 0.940308 0.863538 0.213470
Si Si5 0.944700 0.752715 0.685909
O O1 0.465071 0.912634 0.166480
O O2 0.753201 0.881752 0.252736
O O3 0.682767 0.987940 0.266064
O O4 0.750000 0.942688 0.000000
O O5 0.250000 0.938680 0.500000
O O6 0.460551 0.916892 0.725118
O O7 0.500000 0.000000 0.500000
O O8 0.453149 0.801481 0.226980
O O9 0.250000 0.847661 0.000000
O O10 0.555405 0.849595 0.969276
O O11 0.017563 0.807989 0.279577
O O12 0.750000 0.750000 0.739999
O O13 0.941565 0.750000 0.500000
#
# Coordination Sequence:
#
# PCOD9397733 Si02
#       5
#     8   8   8   8   8
#     4  10  24  47  73 105 147 203 262 314 385 482
#     4  12  27  45  73 110 160 205 258 325 395 466
#     4  11  26  45  77 111 151 197 261 328 384 461
#     4  11  25  45  71 108 149 203 254 315 391 472
#     4  11  25  45  79 111 148 199 256 321 392 481
#
# _framework density 24.148795
#
# number of rings (size 3 to 8) (size 9 to 14) (size 15 to 20)
#    0.000    1.000    4.000    0.600    5.600    6.400 
#    0.000    1.000    0.000    0.000    0.000    0.000 
#    0.000    0.000    0.000    0.000    0.000    0.000 
#
# Total GULP energy -223014.025143 kJ/mol
# GULP energy per Si atom -5575.350629 kJ/mol
# Density = 2.409383 g / cm^3
# Si number density = 24.148795 Si / 1000 Ang^3
#
#
#
# Elastic Constant Matrix: (Units=GPa)
#
#
# Indices 1 2 3 4 5 6 
#
# 1 103.6958 31.6570 33.1320 0.0000 0.0000 0.0000
# 2 31.6570 134.6771 57.6208 0.0000 0.0000 0.0000
# 3 33.1320 57.6208 111.4107 0.0000 0.0000 0.0000
# 4 0.0000 0.0000 0.0000 10.1768 0.0000 0.0000
# 5 0.0000 0.0000 0.0000 0.0000 41.2637 0.0000
# 6 0.0000 0.0000 0.0000 0.0000 0.0000 21.8551
#
#
#
# Elastic Compliance Matrix: (Units=1/GPa)
#
#
# Indices 1 2 3 4 5 6 
#
# 1 0.010889 -0.001508 -0.002459 0.000000 0.000000 0.000000
# 2 -0.001508 0.009744 -0.004591 0.000000 0.000000 0.000000
# 3 -0.002459 -0.004591 0.012081 0.000000 0.000000 0.000000
# 4 0.000000 0.000000 0.000000 0.098263 0.000000 0.000000
# 5 0.000000 0.000000 0.000000 0.000000 0.024234 0.000000
# 6 0.000000 0.000000 0.000000 0.000000 0.000000 0.045756
#
#
# Mechanical properties :
#
#
# Convention : Reuss Voigt Hill
#
# Bulk Modulus (GPa) = 64.10295 66.06703 65.08499
# Shear Modulus (GPa) = 22.39313 29.81737 26.10525
#
# Velocity S-wave (km/s) = 3.04846 3.51769 3.29145
# Velocity P-wave (km/s) = 6.24447 6.62696 6.43856
#
# Compressibility (1/GPa) = 0.01559990
#
# Stress axis : x y z
#
# Youngs Moduli (GPa) = 91.83211 102.62898 82.77183
#
# Poissons Ratio (x) = 0.15474 0.20350
# Poissons Ratio (y) = 0.13846 0.38001
# Poissons Ratio (z) = 0.22577 0.47118
#
# Static dielectric constant tensor:
#      x y z
#    x 2.104130 0.000000 0.000000 
#    y 0.000000 2.028600 0.000000 
#    z 0.000000 0.000000 2.672010 
# 
# From -- ./inp_files/9490.got.cif
#   From: 2010.05.17/outbox.cif.g08.bks.cpg/sg50_5_cif.got.tgz:9490.got - 2010.06.03 11:33:33.
