data_PCOD9397657
_publ_section_title
;
Structure prediction by ZEFSAII (Michael W. Deem and Ramdas Pophale) SiO2 
 PCOD9397657
Probable space group: P B A N
;
_chemical_formula_sum "Si O2"
_cell_formula_units_Z 38
_cell_length_a 10.308985
_cell_length_b 14.081344
_cell_length_c 9.920794
_cell_angle_alpha 90.000000
_cell_angle_beta 90.000000
_cell_angle_gamma 90.000000
_cell_volume 1440.145752
_symmetry_space_group_name_H-M "P B A N"
_symmetry_group_IT_number 50
_space_group.IT_coordinate_system_code '2'
_symmetry_cell_setting 'orthorhombic'
loop_
_space_group_symop_operation_xyz
x,y,z
1/2-x,1/2-y,z
x,1/2-y,-z
1/2-x,y,-z
-x,-y,-z
1/2+x,1/2+y,-z
-x,1/2+y,z
1/2+x,-y,z
loop_
_atom_site_type_symbol
_atom_site_label
_atom_site_fract_x
_atom_site_fract_y
_atom_site_fract_z
Si Si1 0.986038 0.750000 0.500000
Si Si2 0.381255 0.048275 0.571500
Si Si3 0.986229 0.941666 0.853771
Si Si4 0.044822 0.723106 0.795054
Si Si5 0.672288 0.913507 0.898795
Si Si6 0.250000 0.750000 0.000000
O O1 0.899905 0.662091 0.447594
O O2 0.063005 0.716375 0.634315
O O3 0.250000 0.019639 0.500000
O O4 0.400886 0.022656 0.726346
O O5 0.500000 0.000000 0.500000
O O6 0.030634 0.832780 0.833755
O O7 0.828919 0.904266 0.931618
O O8 0.129861 0.996379 0.817100
O O9 0.909808 0.671378 0.837355
O O10 0.158291 0.690204 0.897269
O O11 0.500000 0.000000 0.000000
#
# Coordination Sequence:
#
# PCOD9397657 Si02
#       6
#     4   8   8   8   8   2
#     4  10  25  49  74 110 145 198 263 302 389 450
#     4  11  25  48  72 109 151 202 251 319 381 458
#     4  10  24  42  67 107 138 192 249 301 376 443
#     4  11  24  46  71 108 141 201 242 316 372 453
#     4  11  24  43  73 106 145 188 253 309 370 448
#     4  12  24  46  70  96 160 180 244 294 392 438
#
# _framework density 26.386218
#
# number of rings (size 3 to 8) (size 9 to 14) (size 15 to 20)
#    0.000    1.263    2.105    1.579    7.368    2.105 
#   11.368    0.000    0.000    0.000    0.000    0.000 
#    0.000    0.000    0.000    0.000    0.000    0.000 
#
# Total GULP energy -211835.016465 kJ/mol
# GULP energy per Si atom -5574.605696 kJ/mol
# Density = 2.632616 g / cm^3
# Si number density = 26.386218 Si / 1000 Ang^3
#
#
#
# Elastic Constant Matrix: (Units=GPa)
#
#
# Indices 1 2 3 4 5 6 
#
# 1 149.9213 44.6380 68.2576 0.0000 0.0000 0.0000
# 2 44.6380 152.8276 3.1314 0.0000 0.0000 0.0000
# 3 68.2576 3.1314 257.4510 0.0000 0.0000 0.0000
# 4 0.0000 0.0000 0.0000 29.1801 0.0000 0.0000
# 5 0.0000 0.0000 0.0000 0.0000 42.1491 0.0000
# 6 0.0000 0.0000 0.0000 0.0000 0.0000 23.4588
#
#
#
# Elastic Compliance Matrix: (Units=1/GPa)
#
#
# Indices 1 2 3 4 5 6 
#
# 1 0.008385 -0.002404 -0.002194 0.000000 0.000000 0.000000
# 2 -0.002404 0.007234 0.000549 0.000000 0.000000 0.000000
# 3 -0.002194 0.000549 0.004459 0.000000 0.000000 0.000000
# 4 0.000000 0.000000 0.000000 0.034270 0.000000 0.000000
# 5 0.000000 0.000000 0.000000 0.000000 0.023725 0.000000
# 6 0.000000 0.000000 0.000000 0.000000 0.000000 0.042628
#
#
# Mechanical properties :
#
#
# Convention : Reuss Voigt Hill
#
# Bulk Modulus (GPa) = 83.46375 88.02822 85.74599
# Shear Modulus (GPa) = 37.65283 48.56912 43.11097
#
# Velocity S-wave (km/s) = 3.78165 4.29499 4.04647
# Velocity P-wave (km/s) = 7.12517 7.61773 7.37556
#
# Compressibility (1/GPa) = 0.01198125
#
# Stress axis : x y z
#
# Youngs Moduli (GPa) = 119.26369 138.23129 224.25589
#
# Poissons Ratio (x) = 0.33232 0.49197
# Poissons Ratio (y) = 0.28672 -0.12321
# Poissons Ratio (z) = 0.26164 -0.07594
#
# Static dielectric constant tensor:
#      x y z
#    x 1.744910 0.000000 0.000000 
#    y 0.000000 1.939330 0.000000 
#    z 0.000000 0.000000 1.854640 
# 
# From -- ./inp_files/20032.got.cif
#   From: 2010.05.17/outbox.cif.g08.bks.cpg/sg50_11_cif.got.tgz:20032.got - 2010.06.03 11:33:33.
