data_PCOD9397322
_publ_section_title
;
Structure prediction by ZEFSAII (Michael W. Deem and Ramdas Pophale) SiO2 
 PCOD9397322
Probable space group: P B A N
;
_chemical_formula_sum "Si O2"
_cell_formula_units_Z 22
_cell_length_a 12.644772
_cell_length_b 8.817727
_cell_length_c 7.009546
_cell_angle_alpha 90.000000
_cell_angle_beta 90.000000
_cell_angle_gamma 90.000000
_cell_volume 781.551394
_symmetry_space_group_name_H-M "P B A N"
_symmetry_group_IT_number 50
_space_group.IT_coordinate_system_code '2'
_symmetry_cell_setting 'orthorhombic'
loop_
_space_group_symop_operation_xyz
x,y,z
1/2-x,1/2-y,z
x,1/2-y,-z
1/2-x,y,-z
-x,-y,-z
1/2+x,1/2+y,-z
-x,1/2+y,z
1/2+x,-y,z
loop_
_atom_site_type_symbol
_atom_site_label
_atom_site_fract_x
_atom_site_fract_y
_atom_site_fract_z
Si Si1 0.214001 0.481786 0.198997
Si Si2 0.934051 0.109327 0.634989
Si Si3 0.577111 0.250000 0.000000
Si Si4 0.750000 0.750000 0.500000
O O1 0.178732 0.546271 0.704234
O O2 0.183194 0.355665 0.355806
O O3 0.250000 0.410454 0.000000
O O4 0.143998 0.625896 0.124668
O O5 0.913200 0.250000 0.500000
O O6 0.985196 0.157994 0.838393
O O7 0.000000 0.000000 0.500000
#
# Coordination Sequence:
#
# PCOD9397322 Si02
#       4
#     8   8   4   2
#     4  10  22  42  72 104 145 195 259 309 370 453
#     4  11  24  42  71 106 151 201 245 308 396 463
#     4  10  23  50  76 104 146 211 264 309 366 476
#     4  12  22  36  74 118 140 178 252 332 356 426
#
# _framework density 28.149141
#
# number of rings (size 3 to 8) (size 9 to 14) (size 15 to 20)
#    0.000    1.455    0.000    7.636    2.545    2.909 
#    0.000    0.000    0.000    0.000    0.000    0.000 
#    0.000    0.000    0.000    0.000    0.000    0.000 
#
# Total GULP energy -123151.876084 kJ/mol
# GULP energy per Si atom -5597.812549 kJ/mol
# Density = 2.808507 g / cm^3
# Si number density = 28.149141 Si / 1000 Ang^3
#
#
#
# Elastic Constant Matrix: (Units=GPa)
#
#
# Indices 1 2 3 4 5 6 
#
# 1 106.6590 77.4225 90.6248 0.0000 0.0000 0.0000
# 2 77.4225 190.0941 137.5909 0.0000 0.0000 0.0000
# 3 90.6248 137.5909 342.0040 0.0000 0.0000 0.0000
# 4 0.0000 0.0000 0.0000 103.5344 0.0000 0.0000
# 5 0.0000 0.0000 0.0000 0.0000 64.7529 0.0000
# 6 0.0000 0.0000 0.0000 0.0000 0.0000 -13.1541
#
#
#
# Elastic Compliance Matrix: (Units=1/GPa)
#
#
# Indices 1 2 3 4 5 6 
#
# 1 0.014247 -0.004331 -0.002033 0.000000 0.000000 0.000000
# 2 -0.004331 0.008738 -0.002368 0.000000 0.000000 0.000000
# 3 -0.002033 -0.002368 0.004415 0.000000 0.000000 0.000000
# 4 0.000000 0.000000 0.000000 0.009659 0.000000 0.000000
# 5 0.000000 0.000000 0.000000 0.000000 0.015443 0.000000
# 6 0.000000 0.000000 0.000000 0.000000 0.000000 -0.076022
#
#
# Mechanical properties :
#
#
# Convention : Reuss Voigt Hill
#
# Bulk Modulus (GPa) = 100.63506 138.89262 119.76384
# Shear Modulus (GPa) = -1822.32083 53.23456 -884.54314
#
# Velocity S-wave (km/s) = -25.47128 4.35347 -17.74589
# Velocity P-wave (km/s) = 28.79618 8.64402 19.42293
#
# Compressibility (1/GPa) = 0.00993689
#
# Stress axis : x y z
#
# Youngs Moduli (GPa) = 70.19144 114.43645 226.49252
#
# Poissons Ratio (x) = 0.49565 0.46037
# Poissons Ratio (y) = 0.30402 0.53630
# Poissons Ratio (z) = 0.14267 0.27097
#
# Static dielectric constant tensor:
#      x y z
#    x 2.340010 0.000000 0.000000 
#    y 0.000000 2.395490 0.000000 
#    z 0.000000 0.000000 2.133200 
# 
# From -- ./inp_files/3844.got.cif
#   From: 2010.05.17/outbox.cif.g08.bks.cpg/sg50_2_cif.got.tgz:3844.got - 2010.06.03 11:33:33.
