data_PCOD9397486
_publ_section_title
;
Structure prediction by ZEFSAII (Michael W. Deem and Ramdas Pophale) SiO2 
 PCOD9397486
Probable space group: P B A N
;
_chemical_formula_sum "Si O2"
_cell_formula_units_Z 56
_cell_length_a 13.956512
_cell_length_b 12.757240
_cell_length_c 13.657658
_cell_angle_alpha 90.000000
_cell_angle_beta 90.000000
_cell_angle_gamma 90.000000
_cell_volume 2431.699204
_symmetry_space_group_name_H-M "P B A N"
_symmetry_group_IT_number 50
_space_group.IT_coordinate_system_code '2'
_symmetry_cell_setting 'orthorhombic'
loop_
_space_group_symop_operation_xyz
x,y,z
1/2-x,1/2-y,z
x,1/2-y,-z
1/2-x,y,-z
-x,-y,-z
1/2+x,1/2+y,-z
-x,1/2+y,z
1/2+x,-y,z
loop_
_atom_site_type_symbol
_atom_site_label
_atom_site_fract_x
_atom_site_fract_y
_atom_site_fract_z
Si Si1 0.526876 0.862804 0.510037
Si Si2 0.027851 0.362652 0.255509
Si Si3 0.981836 0.315047 0.899159
Si Si4 0.883101 0.533149 0.180957
Si Si5 0.763650 0.633508 0.685698
Si Si6 0.156712 0.955274 0.542561
Si Si7 0.727603 0.365687 0.114518
O O1 0.572513 0.750000 0.500000
O O2 0.507679 0.865790 0.627250
O O3 0.598107 0.956273 0.480817
O O4 0.430373 0.874316 0.445340
O O5 0.990844 0.265112 0.191699
O O6 0.971797 0.463813 0.216961
O O7 0.143038 0.360148 0.243979
O O8 0.885657 0.381040 0.879036
O O9 0.073367 0.391375 0.902070
O O10 0.970859 0.250000 0.000000
O O11 0.835289 0.606757 0.261968
O O12 0.797663 0.453481 0.155369
O O13 0.750000 0.750000 0.641003
O O14 0.796103 0.533159 0.621699
O O15 0.250000 0.900274 0.500000
O O16 0.750000 0.250000 0.157494
O O17 0.750000 0.360788 0.000000
#
# Coordination Sequence:
#
# PCOD9397486 Si02
#       7
#     8   8   8   8   8   8   8
#     4  10  24  42  66 100 136 174 233 288 353 420
#     4  11  24  44  68 100 140 187 229 304 357 433
#     4  12  25  45  72 103 143 185 247 293 371 443
#     4  12  25  43  72  97 141 192 233 302 370 425
#     4  11  24  43  65 103 141 178 240 293 362 432
#     4  10  23  41  65  95 127 177 229 278 348 424
#     4  11  22  45  69  98 132 176 242 291 356 440
#
# _framework density 23.029164999999999
#
# number of rings (size 3 to 8) (size 9 to 14) (size 15 to 20)
#    0.000    1.000    4.286    1.714    4.000    8.286 
#    0.000    0.714    0.000    0.000    0.000    0.000 
#    0.000    0.000    0.000    0.000    0.000    0.000 
#
# Total GULP energy -312380.821506 kJ/mol
# GULP energy per Si atom -5578.228955 kJ/mol
# Density = 2.297675 g / cm^3
# Si number density = 23.029165 Si / 1000 Ang^3
#
#
#
# Elastic Constant Matrix: (Units=GPa)
#
#
# Indices 1 2 3 4 5 6 
#
# 1 152.1365 32.9174 24.1187 0.0000 0.0000 0.0000
# 2 32.9174 97.2683 26.1861 0.0000 0.0000 0.0000
# 3 24.1187 26.1861 57.8519 0.0000 0.0000 0.0000
# 4 0.0000 0.0000 0.0000 15.1537 0.0000 0.0000
# 5 0.0000 0.0000 0.0000 0.0000 29.6998 0.0000
# 6 0.0000 0.0000 0.0000 0.0000 0.0000 32.0308
#
#
#
# Elastic Compliance Matrix: (Units=1/GPa)
#
#
# Indices 1 2 3 4 5 6 
#
# 1 0.007331 -0.001888 -0.002202 0.000000 0.000000 0.000000
# 2 -0.001888 0.012194 -0.004732 0.000000 0.000000 0.000000
# 3 -0.002202 -0.004732 0.020345 0.000000 0.000000 0.000000
# 4 0.000000 0.000000 0.000000 0.065990 0.000000 0.000000
# 5 0.000000 0.000000 0.000000 0.000000 0.033670 0.000000
# 6 0.000000 0.000000 0.000000 0.000000 0.000000 0.031220
#
#
# Mechanical properties :
#
#
# Convention : Reuss Voigt Hill
#
# Bulk Modulus (GPa) = 44.99241 52.63346 48.81293
# Shear Modulus (GPa) = 25.53591 30.31250 27.92420
#
# Velocity S-wave (km/s) = 3.33355 3.63197 3.48596
# Velocity P-wave (km/s) = 5.86484 6.36342 6.11921
#
# Compressibility (1/GPa) = 0.02222597
#
# Stress axis : x y z
#
# Youngs Moduli (GPa) = 136.41477 82.00884 49.15131
#
# Poissons Ratio (x) = 0.15484 0.10821
# Poissons Ratio (y) = 0.25757 0.23260
# Poissons Ratio (z) = 0.30032 0.38809
#
# Static dielectric constant tensor:
#      x y z
#    x 1.903070 0.000000 0.000000 
#    y 0.000000 1.912410 0.000000 
#    z 0.000000 0.000000 1.898400 
# 
# From -- ./inp_files/26503.got.cif
#   From: 2010.05.17/outbox.cif.g08.bks.cpg/sg50_14_cif.got.tgz:26503.got - 2010.06.03 11:33:33.
