data_PCOD9397309
_publ_section_title
;
Structure prediction by ZEFSAII (Michael W. Deem and Ramdas Pophale) SiO2 
 PCOD9397309
Probable space group: P B A N
;
_chemical_formula_sum "Si O2"
_cell_formula_units_Z 54
_cell_length_a 22.902346
_cell_length_b 18.411776
_cell_length_c 6.572379
_cell_angle_alpha 90.000000
_cell_angle_beta 90.000000
_cell_angle_gamma 90.000000
_cell_volume 2771.393879
_symmetry_space_group_name_H-M "P B A N"
_symmetry_group_IT_number 50
_space_group.IT_coordinate_system_code '2'
_symmetry_cell_setting 'orthorhombic'
loop_
_space_group_symop_operation_xyz
x,y,z
1/2-x,1/2-y,z
x,1/2-y,-z
1/2-x,y,-z
-x,-y,-z
1/2+x,1/2+y,-z
-x,1/2+y,z
1/2+x,-y,z
loop_
_atom_site_type_symbol
_atom_site_label
_atom_site_fract_x
_atom_site_fract_y
_atom_site_fract_z
Si Si1 0.111998 0.830209 0.967171
Si Si2 0.750000 0.517232 0.000000
Si Si3 0.815305 0.175467 0.414226
Si Si4 0.250000 0.250000 0.500000
Si Si5 0.659267 0.435987 0.716377
Si Si6 0.198372 0.390235 0.350040
Si Si7 0.080993 0.448069 0.536184
Si Si8 0.022586 0.548233 0.191943
O O1 0.168325 0.822950 0.820641
O O2 0.066587 0.888385 0.876718
O O3 0.086927 0.750000 0.000000
O O4 0.135013 0.865407 0.172308
O O5 0.712657 0.467707 0.845711
O O6 0.791663 0.568912 0.862742
O O7 0.844240 0.250000 0.500000
O O8 0.750000 0.179246 0.500000
O O9 0.831499 0.094830 0.490913
O O10 0.212773 0.304497 0.358676
O O11 0.611059 0.497098 0.695439
O O12 0.250000 0.420623 0.500000
O O13 0.134964 0.402635 0.446449
O O14 0.053616 0.492503 0.348095
O O15 0.028929 0.415437 0.671456
O O16 0.000000 0.500000 0.000000
#
# Coordination Sequence:
#
# PCOD9397309 Si02
#       8
#     8   4   8   2   8   8   8   8
#     4  12  24  42  64  91 129 173 224 270 330 396
#     4  12  24  35  69 104 134 166 222 264 322 412
#     4  11  24  40  58  88 135 172 209 260 322 391
#     4   8  20  46  68  92 142 168 198 266 350 408
#     4  12  22  37  63  95 129 170 206 267 323 381
#     4  10  22  42  67  99 132 168 213 269 338 404
#     4  11  23  41  68  95 125 167 219 276 331 389
#     4  11  24  43  66  90 126 171 224 282 330 390
#
# _framework density 19.484779
#
# number of rings (size 3 to 8) (size 9 to 14) (size 15 to 20)
#    0.444    0.444    5.926    1.778    2.074    0.296 
#    0.000    1.481    0.000    0.000    0.000    0.000 
#    0.000    0.000    0.000    0.000    0.000    0.000 
#
# Total GULP energy -300799.435541 kJ/mol
# GULP energy per Si atom -5570.359917 kJ/mol
# Density = 1.944043 g / cm^3
# Si number density = 19.484779 Si / 1000 Ang^3
#
#
#
# Elastic Constant Matrix: (Units=GPa)
#
#
# Indices 1 2 3 4 5 6 
#
# 1 83.4358 24.9583 26.9620 0.0000 0.0000 0.0000
# 2 24.9583 94.6448 26.1602 0.0000 0.0000 0.0000
# 3 26.9620 26.1602 69.9196 0.0000 0.0000 0.0000
# 4 0.0000 0.0000 0.0000 30.0274 0.0000 0.0000
# 5 0.0000 0.0000 0.0000 0.0000 30.7189 0.0000
# 6 0.0000 0.0000 0.0000 0.0000 0.0000 24.7563
#
#
#
# Elastic Compliance Matrix: (Units=1/GPa)
#
#
# Indices 1 2 3 4 5 6 
#
# 1 0.014198 -0.002488 -0.004544 0.000000 0.000000 0.000000
# 2 -0.002488 0.012221 -0.003613 0.000000 0.000000 0.000000
# 3 -0.004544 -0.003613 0.017406 0.000000 0.000000 0.000000
# 4 0.000000 0.000000 0.000000 0.033303 0.000000 0.000000
# 5 0.000000 0.000000 0.000000 0.000000 0.032553 0.000000
# 6 0.000000 0.000000 0.000000 0.000000 0.000000 0.040394
#
#
# Mechanical properties :
#
#
# Convention : Reuss Voigt Hill
#
# Bulk Modulus (GPa) = 44.37600 44.90680 44.64140
# Shear Modulus (GPa) = 27.95234 28.42850 28.19042
#
# Velocity S-wave (km/s) = 3.79169 3.82384 3.80780
# Velocity P-wave (km/s) = 6.48022 6.52632 6.50331
#
# Compressibility (1/GPa) = 0.02253471
#
# Stress axis : x y z
#
# Youngs Moduli (GPa) = 70.43289 81.82941 57.45106
#
# Poissons Ratio (x) = 0.20360 0.26106
# Poissons Ratio (y) = 0.17524 0.20756
# Poissons Ratio (z) = 0.32005 0.29564
#
# Static dielectric constant tensor:
#      x y z
#    x 1.688850 0.000000 0.000000 
#    y 0.000000 1.717140 0.000000 
#    z 0.000000 0.000000 1.924280 
# 
# From -- ./inp_files/6106.got.cif
#   From: 2010.05.17/outbox.cif.g08.bks.cpg/sg50_4_cif.got.tgz:6106.got - 2010.06.03 11:33:33.
