data_PCOD9397547
_publ_section_title
;
Structure prediction by ZEFSAII (Michael W. Deem and Ramdas Pophale) SiO2 
 PCOD9397547
Probable space group: P B A N
;
_chemical_formula_sum "Si O2"
_cell_formula_units_Z 56
_cell_length_a 12.530750
_cell_length_b 14.826940
_cell_length_c 13.583261
_cell_angle_alpha 90.000000
_cell_angle_beta 90.000000
_cell_angle_gamma 90.000000
_cell_volume 2523.670443
_symmetry_space_group_name_H-M "P B A N"
_symmetry_group_IT_number 50
_space_group.IT_coordinate_system_code '2'
_symmetry_cell_setting 'orthorhombic'
loop_
_space_group_symop_operation_xyz
x,y,z
1/2-x,1/2-y,z
x,1/2-y,-z
1/2-x,y,-z
-x,-y,-z
1/2+x,1/2+y,-z
-x,1/2+y,z
1/2+x,-y,z
loop_
_atom_site_type_symbol
_atom_site_label
_atom_site_fract_x
_atom_site_fract_y
_atom_site_fract_z
Si Si1 0.706663 0.068706 0.161860
Si Si2 0.537595 0.147651 0.027052
Si Si3 0.123365 0.645378 0.488099
Si Si4 0.670015 0.875658 0.092007
Si Si5 0.929243 0.774263 0.212516
Si Si6 0.473357 0.920406 0.684030
Si Si7 0.576958 0.392931 0.263228
O O1 0.643693 0.097746 0.062556
O O2 0.632406 0.103601 0.251649
O O3 0.825307 0.100862 0.186562
O O4 0.709698 0.961103 0.152661
O O5 0.464554 0.161691 0.123059
O O6 0.567259 0.250000 0.000000
O O7 0.452086 0.108743 0.949070
O O8 0.088530 0.750000 0.500000
O O9 0.250000 0.642280 0.500000
O O10 0.064020 0.585542 0.570963
O O11 0.108242 0.614176 0.377086
O O12 0.657688 0.791752 0.165294
O O13 0.750000 0.860779 0.000000
O O14 0.931997 0.846674 0.300333
O O15 0.016836 0.699564 0.240543
O O16 0.508733 0.015023 0.732376
#
# Coordination Sequence:
#
# PCOD9397547 Si02
#       7
#     8   8   8   8   8   8   8
#     4  11  24  40  69  97 133 177 228 281 342 405
#     4   9  22  41  61  90 134 177 229 285 334 393
#     4  11  22  40  72 106 133 176 224 275 346 410
#     4  11  24  43  66  94 134 183 232 284 332 404
#     4  10  23  43  66  96 133 173 230 275 339 400
#     4  11  23  44  69 100 138 178 220 280 343 409
#     4  12  24  43  68 102 138 176 218 283 343 406
#
# _framework density 22.189902
#
# number of rings (size 3 to 8) (size 9 to 14) (size 15 to 20)
#    0.000    1.286    4.286    0.857    4.000    7.143 
#    0.000    2.143    0.000    0.000    0.000    2.000 
#    0.000    0.000    0.000    0.000    0.000    0.000 
#
# Total GULP energy -312450.999781 kJ/mol
# GULP energy per Si atom -5579.482139 kJ/mol
# Density = 2.213940 g / cm^3
# Si number density = 22.189902 Si / 1000 Ang^3
#
#
#
# Elastic Constant Matrix: (Units=GPa)
#
#
# Indices 1 2 3 4 5 6 
#
# 1 76.0936 24.3368 21.2211 0.0000 0.0000 0.0000
# 2 24.3368 60.9774 0.6487 0.0000 0.0000 0.0000
# 3 21.2211 0.6487 79.0062 0.0000 0.0000 0.0000
# 4 0.0000 0.0000 0.0000 34.8957 0.0000 0.0000
# 5 0.0000 0.0000 0.0000 0.0000 35.6966 0.0000
# 6 0.0000 0.0000 0.0000 0.0000 0.0000 14.4649
#
#
#
# Elastic Compliance Matrix: (Units=1/GPa)
#
#
# Indices 1 2 3 4 5 6 
#
# 1 0.016442 -0.006516 -0.004363 0.000000 0.000000 0.000000
# 2 -0.006516 0.018983 0.001594 0.000000 0.000000 0.000000
# 3 -0.004363 0.001594 0.013816 0.000000 0.000000 0.000000
# 4 0.000000 0.000000 0.000000 0.028657 0.000000 0.000000
# 5 0.000000 0.000000 0.000000 0.000000 0.028014 0.000000
# 6 0.000000 0.000000 0.000000 0.000000 0.000000 0.069133
#
#
# Mechanical properties :
#
#
# Convention : Reuss Voigt Hill
#
# Bulk Modulus (GPa) = 32.60251 34.27670 33.43961
# Shear Modulus (GPa) = 24.52920 28.33614 26.43267
#
# Velocity S-wave (km/s) = 3.32840 3.57737 3.45512
# Velocity P-wave (km/s) = 5.43096 5.70473 5.56953
#
# Compressibility (1/GPa) = 0.03067248
#
# Stress axis : x y z
#
# Youngs Moduli (GPa) = 60.81824 52.67821 72.37968
#
# Poissons Ratio (x) = 0.34325 0.31579
# Poissons Ratio (y) = 0.39629 -0.11540
# Poissons Ratio (z) = 0.26535 -0.08399
#
# Static dielectric constant tensor:
#      x y z
#    x 1.908440 0.000000 0.000000 
#    y 0.000000 1.871530 0.000000 
#    z 0.000000 0.000000 1.870760 
# 
# From -- ./inp_files/25969.got.cif
#   From: 2010.05.17/outbox.cif.g08.bks.cpg/sg50_13_cif.got.tgz:25969.got - 2010.06.03 11:33:33.
