data_PCOD9397779
_publ_section_title
;
Structure prediction by ZEFSAII (Michael W. Deem and Ramdas Pophale) SiO2 
 PCOD9397779
Probable space group: P B A N
;
_chemical_formula_sum "Si O2"
_cell_formula_units_Z 56
_cell_length_a 20.444442
_cell_length_b 16.228236
_cell_length_c 8.152411
_cell_angle_alpha 90.000000
_cell_angle_beta 90.000000
_cell_angle_gamma 90.000000
_cell_volume 2704.784337
_symmetry_space_group_name_H-M "P B A N"
_symmetry_group_IT_number 50
_space_group.IT_coordinate_system_code '2'
_symmetry_cell_setting 'orthorhombic'
loop_
_space_group_symop_operation_xyz
x,y,z
1/2-x,1/2-y,z
x,1/2-y,-z
1/2-x,y,-z
-x,-y,-z
1/2+x,1/2+y,-z
-x,1/2+y,z
1/2+x,-y,z
loop_
_atom_site_type_symbol
_atom_site_label
_atom_site_fract_x
_atom_site_fract_y
_atom_site_fract_z
Si Si1 0.515412 0.896356 0.194361
Si Si2 0.136758 0.372458 0.228136
Si Si3 0.825715 0.482427 0.543628
Si Si4 0.929826 0.346849 0.494205
Si Si5 0.163872 0.250000 0.500000
Si Si6 0.842275 0.610701 0.273334
Si Si7 0.250000 0.124772 0.000000
Si Si8 0.988412 0.092744 0.848290
O O1 0.481476 0.874518 0.365786
O O2 0.588467 0.858576 0.204280
O O3 0.523666 0.995001 0.171768
O O4 0.472922 0.874242 0.032015
O O5 0.164430 0.459393 0.297715
O O6 0.125765 0.310461 0.379080
O O7 0.066394 0.391801 0.156537
O O8 0.192634 0.334035 0.110009
O O9 0.750000 0.472513 0.500000
O O10 0.865393 0.398502 0.541104
O O11 0.856253 0.538340 0.399328
O O12 0.919316 0.250000 0.500000
O O13 0.955179 0.367583 0.310847
O O14 0.195045 0.317000 0.624590
O O15 0.795615 0.579182 0.130408
#
# Coordination Sequence:
#
# PCOD9397779 Si02
#       8
#     8   8   8   8   4   8   4   8
#     4  11  23  42  69  96 128 166 224 274 327 388
#     4  11  23  41  62  93 125 175 218 263 324 392
#     4  11  22  44  68  90 125 167 217 266 323 398
#     4  12  26  43  68  98 135 172 215 276 335 394
#     4  10  26  39  58  86 132 174 217 260 316 388
#     4  11  23  41  62  93 125 175 218 263 324 392
#     4  12  24  41  62  92 131 172 218 268 321 394
#     4  11  23  42  69  96 128 166 224 274 327 388
#
# _framework density 20.704052000000001
#
# number of rings (size 3 to 8) (size 9 to 14) (size 15 to 20)
#    0.000    0.857    5.714    2.143    4.000    3.143 
#    0.000    0.000    0.000    0.000    0.000    3.000 
#    0.000    0.000    0.000    0.000    0.000    0.000 
#
# Total GULP energy -312335.911049 kJ/mol
# GULP energy per Si atom -5577.426983 kJ/mol
# Density = 2.065693 g / cm^3
# Si number density = 20.704052 Si / 1000 Ang^3
#
#
#
# Elastic Constant Matrix: (Units=GPa)
#
#
# Indices 1 2 3 4 5 6 
#
# 1 65.9591 14.4945 7.6640 0.0000 0.0000 0.0000
# 2 14.4945 95.6689 34.0339 0.0000 0.0000 0.0000
# 3 7.6640 34.0339 111.7305 0.0000 0.0000 0.0000
# 4 0.0000 0.0000 0.0000 4.5489 0.0000 0.0000
# 5 0.0000 0.0000 0.0000 0.0000 24.3566 0.0000
# 6 0.0000 0.0000 0.0000 0.0000 0.0000 0.2621
#
#
#
# Elastic Compliance Matrix: (Units=1/GPa)
#
#
# Indices 1 2 3 4 5 6 
#
# 1 0.015699 -0.002238 -0.000395 0.000000 0.000000 0.000000
# 2 -0.002238 0.012042 -0.003515 0.000000 0.000000 0.000000
# 3 -0.000395 -0.003515 0.010048 0.000000 0.000000 0.000000
# 4 0.000000 0.000000 0.000000 0.219835 0.000000 0.000000
# 5 0.000000 0.000000 0.000000 0.000000 0.041057 0.000000
# 6 0.000000 0.000000 0.000000 0.000000 0.000000 3.815307
#
#
# Mechanical properties :
#
#
# Convention : Reuss Voigt Hill
#
# Bulk Modulus (GPa) = 39.22614 42.86038 41.04326
# Shear Modulus (GPa) = 1.20925 20.31124 10.76025
#
# Velocity S-wave (km/s) = 0.76507 3.13553 2.28220
# Velocity P-wave (km/s) = 4.44609 5.81852 5.17797
#
# Compressibility (1/GPa) = 0.02549320
#
# Stress axis : x y z
#
# Youngs Moduli (GPa) = 63.69997 83.04213 99.52439
#
# Poissons Ratio (x) = 0.18584 0.03933
# Poissons Ratio (y) = 0.14255 0.34979
# Poissons Ratio (z) = 0.02517 0.29186
#
# Static dielectric constant tensor:
#      x y z
#    x 1.770960 0.000000 0.000000 
#    y 0.000000 1.739020 0.000000 
#    z 0.000000 0.000000 1.798150 
# 
# From -- ./inp_files/15389.got.cif
#   From: 2010.05.17/outbox.cif.g08.bks.cpg/sg50_8_cif.got.tgz:15389.got - 2010.06.03 11:33:33.
