data_PCOD9397520
_publ_section_title
;
Structure prediction by ZEFSAII (Michael W. Deem and Ramdas Pophale) SiO2 
 PCOD9397520
Probable space group: P B A N
;
_chemical_formula_sum "Si O2"
_cell_formula_units_Z 48
_cell_length_a 18.500521
_cell_length_b 13.484005
_cell_length_c 8.369839
_cell_angle_alpha 90.000000
_cell_angle_beta 90.000000
_cell_angle_gamma 90.000000
_cell_volume 2087.949392
_symmetry_space_group_name_H-M "P B A N"
_symmetry_group_IT_number 50
_space_group.IT_coordinate_system_code '2'
_symmetry_cell_setting 'orthorhombic'
loop_
_space_group_symop_operation_xyz
x,y,z
1/2-x,1/2-y,z
x,1/2-y,-z
1/2-x,y,-z
-x,-y,-z
1/2+x,1/2+y,-z
-x,1/2+y,z
1/2+x,-y,z
loop_
_atom_site_type_symbol
_atom_site_label
_atom_site_fract_x
_atom_site_fract_y
_atom_site_fract_z
Si Si1 0.445838 0.357794 0.426207
Si Si2 0.832380 0.288135 0.669596
Si Si3 0.297339 0.055463 0.658852
Si Si4 0.025431 0.481019 0.253818
Si Si5 0.174144 0.984863 0.851868
Si Si6 0.124305 0.890488 0.167220
O O1 0.459539 0.250000 0.500000
O O2 0.364629 0.368956 0.354102
O O3 0.453535 0.429723 0.578985
O O4 0.501206 0.405988 0.297697
O O5 0.750000 0.250000 0.678555
O O6 0.861578 0.250000 0.500000
O O7 0.830541 0.403525 0.709010
O O8 0.873916 0.225599 0.802781
O O9 0.250000 0.062531 0.500000
O O10 0.239257 0.057698 0.804203
O O11 0.336835 0.949386 0.686200
O O12 0.095944 0.465561 0.148085
O O13 0.956733 0.430104 0.172238
O O14 0.171365 0.922593 0.014977
#
# Coordination Sequence:
#
# PCOD9397520 Si02
#       6
#     8   8   8   8   8   8
#     4  10  23  42  66  98 129 175 229 281 333 398
#     4  11  24  37  62  94 130 166 215 272 323 391
#     4  11  21  40  63  92 124 163 224 270 325 389
#     4  10  24  40  65  95 134 172 222 274 339 395
#     4  12  23  40  63  94 132 173 218 275 335 396
#     4  11  24  40  61  94 132 175 212 266 344 404
#
# _framework density 22.989062000000001
#
# number of rings (size 3 to 8) (size 9 to 14) (size 15 to 20)
#    0.000    1.167    3.333    2.500    7.000    1.000 
#    0.000    0.000    0.000    0.000    8.667    0.000 
#    0.000    0.000    0.000    0.000    0.000    0.000 
#
# Total GULP energy -268044.186620 kJ/mol
# GULP energy per Si atom -5584.253888 kJ/mol
# Density = 2.293674 g / cm^3
# Si number density = 22.989062 Si / 1000 Ang^3
#
#
#
# Elastic Constant Matrix: (Units=GPa)
#
#
# Indices 1 2 3 4 5 6 
#
# 1 147.9413 27.1595 5.3544 0.0000 0.0000 0.0000
# 2 27.1595 67.3612 -0.8621 0.0000 0.0000 0.0000
# 3 5.3544 -0.8621 78.2670 0.0000 0.0000 0.0000
# 4 0.0000 0.0000 0.0000 21.1794 0.0000 0.0000
# 5 0.0000 0.0000 0.0000 0.0000 4.0657 0.0000
# 6 0.0000 0.0000 0.0000 0.0000 0.0000 17.8565
#
#
#
# Elastic Compliance Matrix: (Units=1/GPa)
#
#
# Indices 1 2 3 4 5 6 
#
# 1 0.007322 -0.002959 -0.000534 0.000000 0.000000 0.000000
# 2 -0.002959 0.016043 0.000379 0.000000 0.000000 0.000000
# 3 -0.000534 0.000379 0.012817 0.000000 0.000000 0.000000
# 4 0.000000 0.000000 0.000000 0.047216 0.000000 0.000000
# 5 0.000000 0.000000 0.000000 0.000000 0.245962 0.000000
# 6 0.000000 0.000000 0.000000 0.000000 0.000000 0.056002
#
#
# Mechanical properties :
#
#
# Convention : Reuss Voigt Hill
#
# Bulk Modulus (GPa) = 33.38234 39.65256 36.51745
# Shear Modulus (GPa) = 12.45099 26.08151 19.26625
#
# Velocity S-wave (km/s) = 2.32977 3.37192 2.89807
# Velocity P-wave (km/s) = 4.66793 5.69611 5.20746
#
# Compressibility (1/GPa) = 0.02995596
#
# Stress axis : x y z
#
# Youngs Moduli (GPa) = 136.57530 62.33162 78.01865
#
# Poissons Ratio (x) = 0.18444 0.04162
# Poissons Ratio (y) = 0.40412 -0.02958
# Poissons Ratio (z) = 0.07286 -0.02363
#
# Static dielectric constant tensor:
#      x y z
#    x 1.916500 0.000000 0.000000 
#    y 0.000000 1.837380 0.000000 
#    z 0.000000 0.000000 1.936850 
# 
# From -- ./inp_files/14214.got.cif
#   From: 2010.05.17/outbox.cif.g08.bks.cpg/sg50_8_cif.got.tgz:14214.got - 2010.06.03 11:33:33.
