data_PCOD9397921
_publ_section_title
;
Structure prediction by ZEFSAII (Michael W. Deem and Ramdas Pophale) SiO2 
 PCOD9397921
Probable space group: P B A N
;
_chemical_formula_sum "Si O2"
_cell_formula_units_Z 32
_cell_length_a 19.077141
_cell_length_b 8.527515
_cell_length_c 8.773703
_cell_angle_alpha 90.000000
_cell_angle_beta 90.000000
_cell_angle_gamma 90.000000
_cell_volume 1427.311321
_symmetry_space_group_name_H-M "P B A N"
_symmetry_group_IT_number 50
_space_group.IT_coordinate_system_code '2'
_symmetry_cell_setting 'orthorhombic'
loop_
_space_group_symop_operation_xyz
x,y,z
1/2-x,1/2-y,z
x,1/2-y,-z
1/2-x,y,-z
-x,-y,-z
1/2+x,1/2+y,-z
-x,1/2+y,z
1/2+x,-y,z
loop_
_atom_site_type_symbol
_atom_site_label
_atom_site_fract_x
_atom_site_fract_y
_atom_site_fract_z
Si Si1 0.563171 0.659283 0.662580
Si Si2 0.776309 0.920268 0.671986
Si Si3 0.194600 0.907777 0.898363
Si Si4 0.540979 0.535561 0.156547
O O1 0.560594 0.750000 0.500000
O O2 0.639489 0.579551 0.678730
O O3 0.552776 0.785291 0.797619
O O4 0.501593 0.537827 0.700793
O O5 0.750000 0.750000 0.735107
O O6 0.750000 0.918203 0.500000
O O7 0.738518 0.071625 0.744139
O O8 0.117890 0.965859 0.864351
O O9 0.185129 0.750000 0.000000
O O10 0.250000 0.007345 0.000000
O O11 0.500000 0.500000 0.000000
#
# Coordination Sequence:
#
# PCOD9397921 Si02
#       4
#     8   8   8   8
#     4  12  24  44  72 106 139 189 239 302 364 432
#     4  11  21  44  74 103 137 183 249 294 352 428
#     4  11  24  43  65  98 141 185 234 291 356 425
#     4  12  25  43  66 100 145 184 232 294 361 433
#
# _framework density 22.419777
#
# number of rings (size 3 to 8) (size 9 to 14) (size 15 to 20)
#    0.000    0.500    5.000    4.500    0.000    2.500 
#    0.000    2.500    0.000    0.000    0.000    0.000 
#    0.000    0.000    0.000    0.000    0.000    0.000 
#
# Total GULP energy -178410.939901 kJ/mol
# GULP energy per Si atom -5575.341872 kJ/mol
# Density = 2.236875 g / cm^3
# Si number density = 22.419777 Si / 1000 Ang^3
#
#
#
# Elastic Constant Matrix: (Units=GPa)
#
#
# Indices 1 2 3 4 5 6 
#
# 1 217.3013 48.3087 43.1306 0.0000 0.0000 0.0000
# 2 48.3087 105.5681 40.7417 0.0000 0.0000 0.0000
# 3 43.1306 40.7417 102.1151 0.0000 0.0000 0.0000
# 4 0.0000 0.0000 0.0000 7.4822 0.0000 0.0000
# 5 0.0000 0.0000 0.0000 0.0000 35.1087 0.0000
# 6 0.0000 0.0000 0.0000 0.0000 0.0000 -31.2526
#
#
#
# Elastic Compliance Matrix: (Units=1/GPa)
#
#
# Indices 1 2 3 4 5 6 
#
# 1 0.005312 -0.001850 -0.001506 0.000000 0.000000 0.000000
# 2 -0.001850 0.011841 -0.003943 0.000000 0.000000 0.000000
# 3 -0.001506 -0.003943 0.012002 0.000000 0.000000 0.000000
# 4 0.000000 0.000000 0.000000 0.133651 0.000000 0.000000
# 5 0.000000 0.000000 0.000000 0.000000 0.028483 0.000000
# 6 0.000000 0.000000 0.000000 0.000000 0.000000 -0.031997
#
#
# Mechanical properties :
#
#
# Convention : Reuss Voigt Hill
#
# Bulk Modulus (GPa) = 68.69038 76.59404 72.64221
# Shear Modulus (GPa) = 27.97354 21.78789 24.88072
#
# Velocity S-wave (km/s) = 3.53614 3.12078 3.33493
# Velocity P-wave (km/s) = 6.88311 6.87193 6.87752
#
# Compressibility (1/GPa) = 0.01455808
#
# Stress axis : x y z
#
# Youngs Moduli (GPa) = 188.25432 84.45462 83.31992
#
# Poissons Ratio (x) = 0.15622 0.12545
# Poissons Ratio (y) = 0.34822 0.32852
# Poissons Ratio (z) = 0.28344 0.33300
#
# Static dielectric constant tensor:
#      x y z
#    x 1.903960 0.000000 0.000000 
#    y 0.000000 1.915710 0.000000 
#    z 0.000000 0.000000 1.840850 
# 
# From -- ./inp_files/14828.got.cif
#   From: 2010.05.17/outbox.cif.g08.bks.cpg/sg50_8_cif.got.tgz:14828.got - 2010.06.03 11:33:33.
