data_PCOD9397869
_publ_section_title
;
Structure prediction by ZEFSAII (Michael W. Deem and Ramdas Pophale) SiO2 
 PCOD9397869
Probable space group: P B A N
;
_chemical_formula_sum "Si O2"
_cell_formula_units_Z 32
_cell_length_a 20.345713
_cell_length_b 4.856076
_cell_length_c 14.730241
_cell_angle_alpha 90.000000
_cell_angle_beta 90.000000
_cell_angle_gamma 90.000000
_cell_volume 1455.352651
_symmetry_space_group_name_H-M "P B A N"
_symmetry_group_IT_number 50
_space_group.IT_coordinate_system_code '2'
_symmetry_cell_setting 'orthorhombic'
loop_
_space_group_symop_operation_xyz
x,y,z
1/2-x,1/2-y,z
x,1/2-y,-z
1/2-x,y,-z
-x,-y,-z
1/2+x,1/2+y,-z
-x,1/2+y,z
1/2+x,-y,z
loop_
_atom_site_type_symbol
_atom_site_label
_atom_site_fract_x
_atom_site_fract_y
_atom_site_fract_z
Si Si1 0.648530 0.750000 0.500000
Si Si2 0.455143 0.467141 0.364667
Si Si3 0.325073 0.640011 0.899840
Si Si4 0.354977 0.392725 0.214811
Si Si5 0.250000 0.250000 0.356400
O O1 0.599405 0.564202 0.557378
O O2 0.697343 0.887371 0.574915
O O3 0.480807 0.776367 0.371691
O O4 0.418987 0.347096 0.275127
O O5 0.250000 0.750000 0.889703
O O6 0.334877 0.327758 0.864148
O O7 0.366951 0.815939 0.830538
O O8 0.343483 0.750000 0.000000
O O9 0.294998 0.419466 0.286644
#
# Coordination Sequence:
#
# PCOD9397869 Si02
#       5
#     4   8   8   8   4
#     4   9  20  36  62  86 122 153 196 252 290 353
#     4  11  23  41  62  85 117 163 208 242 284 339
#     4  11  21  36  61  93 124 151 187 239 304 366
#     4  11  21  38  61  88 126 154 194 245 290 360
#     4   9  18  36  57  92 120 156 189 238 316 347
#
# _framework density 21.987795999999999
#
# number of rings (size 3 to 8) (size 9 to 14) (size 15 to 20)
#    0.000    1.500    2.500    3.000    0.000    2.000 
#    0.000    5.000    0.000   30.000    0.000    0.000 
#    0.000    0.000    0.000    0.000    0.000    0.000 
#
# Total GULP energy -178226.009604 kJ/mol
# GULP energy per Si atom -5569.562800 kJ/mol
# Density = 2.193775 g / cm^3
# Si number density = 21.987796 Si / 1000 Ang^3
#
#
#
# Elastic Constant Matrix: (Units=GPa)
#
#
# Indices 1 2 3 4 5 6 
#
# 1 71.5217 -5.6033 32.2767 0.0000 0.0000 0.0000
# 2 -5.6033 59.2115 2.1766 0.0000 0.0000 0.0000
# 3 32.2767 2.1766 111.3241 0.0000 0.0000 0.0000
# 4 0.0000 0.0000 0.0000 14.8092 0.0000 0.0000
# 5 0.0000 0.0000 0.0000 0.0000 18.0251 0.0000
# 6 0.0000 0.0000 0.0000 0.0000 0.0000 8.9273
#
#
#
# Elastic Compliance Matrix: (Units=1/GPa)
#
#
# Indices 1 2 3 4 5 6 
#
# 1 0.016258 0.001713 -0.004747 0.000000 0.000000 0.000000
# 2 0.001713 0.017081 -0.000831 0.000000 0.000000 0.000000
# 3 -0.004747 -0.000831 0.010375 0.000000 0.000000 0.000000
# 4 0.000000 0.000000 0.000000 0.067526 0.000000 0.000000
# 5 0.000000 0.000000 0.000000 0.000000 0.055478 0.000000
# 6 0.000000 0.000000 0.000000 0.000000 0.000000 0.112016
#
#
# Mechanical properties :
#
#
# Convention : Reuss Voigt Hill
#
# Bulk Modulus (GPa) = 27.78921 33.30639 30.54780
# Shear Modulus (GPa) = 16.75269 22.56614 19.65941
#
# Velocity S-wave (km/s) = 2.76326 3.20707 2.99340
# Velocity P-wave (km/s) = 4.77983 5.37534 5.08631
#
# Compressibility (1/GPa) = 0.03598519
#
# Stress axis : x y z
#
# Youngs Moduli (GPa) = 61.50664 58.54373 96.38137
#
# Poissons Ratio (x) = -0.10029 0.45756
# Poissons Ratio (y) = -0.10537 0.08006
# Poissons Ratio (z) = 0.29199 0.04863
#
# Static dielectric constant tensor:
#      x y z
#    x 1.876970 0.000000 0.000000 
#    y 0.000000 1.834010 0.000000 
#    z 0.000000 0.000000 1.859500 
# 
# From -- ./inp_files/26702.got.cif
#   From: 2010.05.17/outbox.cif.g08.bks.cpg/sg50_14_cif.got.tgz:26702.got - 2010.06.03 11:33:33.
