data_PCOD9397967
_publ_section_title
;
Structure prediction by ZEFSAII (Michael W. Deem and Ramdas Pophale) SiO2 
 PCOD9397967
Probable space group: P B A N
;
_chemical_formula_sum "Si O2"
_cell_formula_units_Z 48
_cell_length_a 9.612894
_cell_length_b 13.953115
_cell_length_c 18.335600
_cell_angle_alpha 90.000000
_cell_angle_beta 90.000000
_cell_angle_gamma 90.000000
_cell_volume 2459.350644
_symmetry_space_group_name_H-M "P B A N"
_symmetry_group_IT_number 50
_space_group.IT_coordinate_system_code '2'
_symmetry_cell_setting 'orthorhombic'
loop_
_space_group_symop_operation_xyz
x,y,z
1/2-x,1/2-y,z
x,1/2-y,-z
1/2-x,y,-z
-x,-y,-z
1/2+x,1/2+y,-z
-x,1/2+y,z
1/2+x,-y,z
loop_
_atom_site_type_symbol
_atom_site_label
_atom_site_fract_x
_atom_site_fract_y
_atom_site_fract_z
Si Si1 0.019575 0.615149 0.698432
Si Si2 0.127899 0.474938 0.052302
Si Si3 0.848409 0.077363 0.303831
Si Si4 0.583366 0.266711 0.416810
Si Si5 0.901873 0.793739 0.156391
Si Si6 0.862192 0.164651 0.143461
O O1 0.913219 0.527591 0.697046
O O2 0.985466 0.674626 0.771184
O O3 0.179796 0.578823 0.693984
O O4 0.006717 0.687619 0.631434
O O5 0.100717 0.389162 0.108135
O O6 0.171594 0.571036 0.096182
O O7 0.250000 0.442694 0.000000
O O8 0.000000 0.500000 0.000000
O O9 0.920043 0.133913 0.371512
O O10 0.878690 0.130103 0.227164
O O11 0.750000 0.250000 0.416159
O O12 0.538032 0.250000 0.500000
O O13 0.750000 0.750000 0.172215
O O14 0.992345 0.710668 0.118843
O O15 0.750000 0.250000 0.138029
#
# Coordination Sequence:
#
# PCOD9397967 Si02
#       6
#     8   8   8   8   8   8
#     4  11  23  39  66  99 128 173 221 266 324 391
#     4  12  28  45  64  95 133 168 218 284 341 394
#     4  11  22  39  67  97 130 172 223 266 324 394
#     4   9  19  40  65  97 137 172 215 272 329 391
#     4  12  26  42  69  97 131 174 224 277 333 397
#     4  12  23  43  70  91 128 176 223 267 331 406
#
# _framework density 19.517347000000001
#
# number of rings (size 3 to 8) (size 9 to 14) (size 15 to 20)
#    0.000    0.833    5.000    2.500    2.333    4.667 
#    0.000    0.000    0.000    3.500    0.000    0.000 
#    0.000    0.000    0.000    0.000    0.000    0.000 
#
# Total GULP energy -268003.870241 kJ/mol
# GULP energy per Si atom -5583.413963 kJ/mol
# Density = 1.947292 g / cm^3
# Si number density = 19.517347 Si / 1000 Ang^3
#
#
#
# Elastic Constant Matrix: (Units=GPa)
#
#
# Indices 1 2 3 4 5 6 
#
# 1 77.5265 11.4370 13.7750 0.0000 0.0000 0.0000
# 2 11.4370 53.2244 28.1137 0.0000 0.0000 0.0000
# 3 13.7750 28.1137 120.7515 0.0000 0.0000 0.0000
# 4 0.0000 0.0000 0.0000 -26.0550 0.0000 0.0000
# 5 0.0000 0.0000 0.0000 0.0000 24.1449 0.0000
# 6 0.0000 0.0000 0.0000 0.0000 0.0000 44.4146
#
#
#
# Elastic Compliance Matrix: (Units=1/GPa)
#
#
# Indices 1 2 3 4 5 6 
#
# 1 0.013422 -0.002366 -0.000980 0.000000 0.000000 0.000000
# 2 -0.002366 0.021840 -0.004815 0.000000 0.000000 0.000000
# 3 -0.000980 -0.004815 0.009514 0.000000 0.000000 0.000000
# 4 0.000000 0.000000 0.000000 -0.038380 0.000000 0.000000
# 5 0.000000 0.000000 0.000000 0.000000 0.041417 0.000000
# 6 0.000000 0.000000 0.000000 0.000000 0.000000 0.022515
#
#
# Mechanical properties :
#
#
# Convention : Reuss Voigt Hill
#
# Bulk Modulus (GPa) = 35.14512 39.79488 37.47000
# Shear Modulus (GPa) = 52.00990 21.71268 36.86129
#
# Velocity S-wave (km/s) = 5.16777 3.33901 4.35057
# Velocity P-wave (km/s) = 7.32489 5.94130 6.66907
#
# Compressibility (1/GPa) = 0.02845345
#
# Stress axis : x y z
#
# Youngs Moduli (GPa) = 74.50409 45.78719 105.10482
#
# Poissons Ratio (x) = 0.10835 0.10302
# Poissons Ratio (y) = 0.17631 0.50607
# Poissons Ratio (z) = 0.07303 0.22046
#
# Static dielectric constant tensor:
#      x y z
#    x 1.686650 0.000000 0.000000 
#    y 0.000000 1.664110 0.000000 
#    z 0.000000 0.000000 1.680790 
# 
# From -- ./inp_files/28697.got.cif
#   From: 2010.05.17/outbox.cif.g08.bks.cpg/sg50_15_cif.got.tgz:28697.got - 2010.06.03 11:33:33.
