data_PCOD9397750
_publ_section_title
;
Structure prediction by ZEFSAII (Michael W. Deem and Ramdas Pophale) SiO2 
 PCOD9397750
Probable space group: P B A N
;
_chemical_formula_sum "Si O2"
_cell_formula_units_Z 56
_cell_length_a 19.201990
_cell_length_b 15.402598
_cell_length_c 8.435849
_cell_angle_alpha 90.000000
_cell_angle_beta 90.000000
_cell_angle_gamma 90.000000
_cell_volume 2494.991195
_symmetry_space_group_name_H-M "P B A N"
_symmetry_group_IT_number 50
_space_group.IT_coordinate_system_code '2'
_symmetry_cell_setting 'orthorhombic'
loop_
_space_group_symop_operation_xyz
x,y,z
1/2-x,1/2-y,z
x,1/2-y,-z
1/2-x,y,-z
-x,-y,-z
1/2+x,1/2+y,-z
-x,1/2+y,z
1/2+x,-y,z
loop_
_atom_site_type_symbol
_atom_site_label
_atom_site_fract_x
_atom_site_fract_y
_atom_site_fract_z
Si Si1 0.750000 0.250000 0.257304
Si Si2 0.534469 0.592379 0.225537
Si Si3 0.222208 0.951999 0.331237
Si Si4 0.338125 0.487011 0.897039
Si Si5 0.412981 0.033302 0.789265
Si Si6 0.387780 0.666931 0.814891
Si Si7 0.510765 0.750000 0.000000
Si Si8 0.504515 0.348102 0.436295
O O1 0.760138 0.348364 0.326424
O O2 0.673832 0.263549 0.182074
O O3 0.610478 0.551319 0.234887
O O4 0.477788 0.525825 0.154546
O O5 0.542724 0.680115 0.121640
O O6 0.504442 0.601587 0.400660
O O7 0.250000 0.984224 0.500000
O O8 0.263041 0.000290 0.184930
O O9 0.141818 0.975443 0.309272
O O10 0.360276 0.586795 0.915202
O O11 0.366687 0.440176 0.056174
O O12 0.447382 0.110572 0.685163
O O13 0.417401 0.645694 0.638809
O O14 0.458475 0.697638 0.890283
O O15 0.492646 0.250000 0.500000
#
# Coordination Sequence:
#
# PCOD9397750 Si02
#       8
#     4   8   8   8   8   8   4   8
#     4  10  25  39  64  96 149 187 228 278 361 433
#     4  12  24  40  69  98 134 180 231 296 349 424
#     4  11  25  43  66 100 140 187 230 288 360 443
#     4  11  24  43  67  97 135 181 231 283 357 427
#     4  12  24  44  67  98 137 186 234 294 354 431
#     4  11  23  42  61  97 140 182 228 283 346 430
#     4  12  22  39  64  98 135 176 230 290 344 408
#     4  12  26  41  67  99 133 176 239 296 357 417
#
# _framework density 22.444969
#
# number of rings (size 3 to 8) (size 9 to 14) (size 15 to 20)
#    0.000    0.571    4.286    4.071    4.000    0.286 
#    0.000    0.000    0.000    3.857    0.000    0.000 
#    0.000    0.000    0.000    0.000    0.000    0.000 
#
# Total GULP energy -311943.498216 kJ/mol
# GULP energy per Si atom -5570.419611 kJ/mol
# Density = 2.239388 g / cm^3
# Si number density = 22.444969 Si / 1000 Ang^3
#
#
#
# Elastic Constant Matrix: (Units=GPa)
#
#
# Indices 1 2 3 4 5 6 
#
# 1 114.0054 37.1810 33.9867 0.0000 0.0000 0.0000
# 2 37.1810 39.1317 31.1470 0.0000 0.0000 0.0000
# 3 33.9867 31.1470 125.7376 0.0000 0.0000 0.0000
# 4 0.0000 0.0000 0.0000 43.9159 0.0000 0.0000
# 5 0.0000 0.0000 0.0000 0.0000 11.0183 0.0000
# 6 0.0000 0.0000 0.0000 0.0000 0.0000 37.2011
#
#
#
# Elastic Compliance Matrix: (Units=1/GPa)
#
#
# Indices 1 2 3 4 5 6 
#
# 1 0.012741 -0.011665 -0.000554 0.000000 0.000000 0.000000
# 2 -0.011665 0.042510 -0.007377 0.000000 0.000000 0.000000
# 3 -0.000554 -0.007377 0.009930 0.000000 0.000000 0.000000
# 4 0.000000 0.000000 0.000000 0.022771 0.000000 0.000000
# 5 0.000000 0.000000 0.000000 0.000000 0.090758 0.000000
# 6 0.000000 0.000000 0.000000 0.000000 0.000000 0.026881
#
#
# Mechanical properties :
#
#
# Convention : Reuss Voigt Hill
#
# Bulk Modulus (GPa) = 38.47843 53.72267 46.10055
# Shear Modulus (GPa) = 19.72796 30.19772 24.96284
#
# Velocity S-wave (km/s) = 2.96792 3.67196 3.33855
# Velocity P-wave (km/s) = 5.37824 6.47804 5.95359
#
# Compressibility (1/GPa) = 0.02598859
#
# Stress axis : x y z
#
# Youngs Moduli (GPa) = 78.48666 23.52386 100.70077
#
# Poissons Ratio (x) = 0.27440 0.05583
# Poissons Ratio (y) = 0.91552 0.74291
# Poissons Ratio (z) = 0.04351 0.17355
#
# Static dielectric constant tensor:
#      x y z
#    x 1.899750 0.000000 0.000000 
#    y 0.000000 1.953190 0.000000 
#    z 0.000000 0.000000 2.073950 
# 
# From -- ./inp_files/15395.got.cif
#   From: 2010.05.17/outbox.cif.g08.bks.cpg/sg50_8_cif.got.tgz:15395.got - 2010.06.03 11:33:33.
