data_PCOD9397837
_publ_section_title
;
Structure prediction by ZEFSAII (Michael W. Deem and Ramdas Pophale) SiO2 
 PCOD9397837
Probable space group: P B A N
;
_chemical_formula_sum "Si O2"
_cell_formula_units_Z 40
_cell_length_a 14.543854
_cell_length_b 8.273383
_cell_length_c 15.593954
_cell_angle_alpha 90.000000
_cell_angle_beta 90.000000
_cell_angle_gamma 90.000000
_cell_volume 1876.371745
_symmetry_space_group_name_H-M "P B A N"
_symmetry_group_IT_number 50
_space_group.IT_coordinate_system_code '2'
_symmetry_cell_setting 'orthorhombic'
loop_
_space_group_symop_operation_xyz
x,y,z
1/2-x,1/2-y,z
x,1/2-y,-z
1/2-x,y,-z
-x,-y,-z
1/2+x,1/2+y,-z
-x,1/2+y,z
1/2+x,-y,z
loop_
_atom_site_type_symbol
_atom_site_label
_atom_site_fract_x
_atom_site_fract_y
_atom_site_fract_z
Si Si1 0.554076 0.111656 0.434983
Si Si2 0.089536 0.406138 0.294424
Si Si3 0.550155 0.868337 0.183759
Si Si4 0.756714 0.442804 0.399132
Si Si5 0.059952 0.877119 0.059898
O O1 0.590274 0.250000 0.500000
O O2 0.480860 0.164671 0.365250
O O3 0.635793 0.025085 0.383809
O O4 0.500000 0.000000 0.500000
O O5 0.030097 0.539291 0.239425
O O6 0.177465 0.478452 0.342753
O O7 0.113143 0.251911 0.237372
O O8 0.502221 0.743566 0.117080
O O9 0.604092 0.004299 0.129803
O O10 0.750000 0.250000 0.387060
O O11 0.750000 0.487623 0.500000
O O12 0.113928 0.750000 0.000000
O O13 0.000000 0.000000 0.000000
#
# Coordination Sequence:
#
# PCOD9397837 Si02
#       5
#     8   8   8   8   8
#     4  12  22  37  57  76 104 151 208 261 310 360
#     4  11  21  36  55  81 116 156 203 266 310 361
#     4   9  18  31  52  85 124 158 192 255 320 351
#     4  11  20  37  55  75 104 153 212 258 309 374
#     4   8  14  28  53  87 126 157 191 238 296 386
#
# _framework density 21.317737000000001
#
# number of rings (size 3 to 8) (size 9 to 14) (size 15 to 20)
#    0.000    1.800    4.000    2.400    0.000    0.000 
#    0.000    5.000    0.000    0.000    0.000    0.000 
#    0.000  548.000    0.000    0.000    0.000    0.000 
#
# Total GULP energy -222704.725976 kJ/mol
# GULP energy per Si atom -5567.618149 kJ/mol
# Density = 2.126922 g / cm^3
# Si number density = 21.317737 Si / 1000 Ang^3
#
#
#
# Elastic Constant Matrix: (Units=GPa)
#
#
# Indices 1 2 3 4 5 6 
#
# 1 97.2440 37.1263 35.8646 0.0000 0.0000 0.0000
# 2 37.1263 128.3457 71.0108 0.0000 0.0000 0.0000
# 3 35.8646 71.0108 103.1901 0.0000 0.0000 0.0000
# 4 0.0000 0.0000 0.0000 63.3768 0.0000 0.0000
# 5 0.0000 0.0000 0.0000 0.0000 3.2913 0.0000
# 6 0.0000 0.0000 0.0000 0.0000 0.0000 22.2136
#
#
#
# Elastic Compliance Matrix: (Units=1/GPa)
#
#
# Indices 1 2 3 4 5 6 
#
# 1 0.012073 -0.001891 -0.002895 0.000000 0.000000 0.000000
# 2 -0.001891 0.012878 -0.008205 0.000000 0.000000 0.000000
# 3 -0.002895 -0.008205 0.016343 0.000000 0.000000 0.000000
# 4 0.000000 0.000000 0.000000 0.015779 0.000000 0.000000
# 5 0.000000 0.000000 0.000000 0.000000 0.303832 0.000000
# 6 0.000000 0.000000 0.000000 0.000000 0.000000 0.045017
#
#
# Mechanical properties :
#
#
# Convention : Reuss Voigt Hill
#
# Bulk Modulus (GPa) = 65.30357 68.53145 66.91751
# Shear Modulus (GPa) = 11.44144 30.09487 20.76816
#
# Velocity S-wave (km/s) = 2.31921 3.76137 3.12464
# Velocity P-wave (km/s) = 6.15399 7.14712 6.66907
#
# Compressibility (1/GPa) = 0.01531310
#
# Stress axis : x y z
#
# Youngs Moduli (GPa) = 82.82999 77.65223 61.18705
#
# Poissons Ratio (x) = 0.14680 0.17714
# Poissons Ratio (y) = 0.15659 0.50204
# Poissons Ratio (z) = 0.23980 0.63713
#
# Static dielectric constant tensor:
#      x y z
#    x 1.754790 0.000000 0.000000 
#    y 0.000000 1.825240 0.000000 
#    z 0.000000 0.000000 1.877500 
# 
# From -- ./inp_files/26276.got.cif
#   From: 2010.05.17/outbox.cif.g08.bks.cpg/sg50_14_cif.got.tgz:26276.got - 2010.06.03 11:33:33.
