data_PCOD9397714
_publ_section_title
;
Structure prediction by ZEFSAII (Michael W. Deem and Ramdas Pophale) SiO2 
 PCOD9397714
Probable space group: P B A N
;
_chemical_formula_sum "Si O2"
_cell_formula_units_Z 48
_cell_length_a 8.663033
_cell_length_b 14.854230
_cell_length_c 15.523800
_cell_angle_alpha 90.000000
_cell_angle_beta 90.000000
_cell_angle_gamma 90.000000
_cell_volume 1997.644260
_symmetry_space_group_name_H-M "P B A N"
_symmetry_group_IT_number 50
_space_group.IT_coordinate_system_code '2'
_symmetry_cell_setting 'orthorhombic'
loop_
_space_group_symop_operation_xyz
x,y,z
1/2-x,1/2-y,z
x,1/2-y,-z
1/2-x,y,-z
-x,-y,-z
1/2+x,1/2+y,-z
-x,1/2+y,z
1/2+x,-y,z
loop_
_atom_site_type_symbol
_atom_site_label
_atom_site_fract_x
_atom_site_fract_y
_atom_site_fract_z
Si Si1 0.250000 0.050773 0.500000
Si Si2 0.954591 0.091927 0.398385
Si Si3 0.317291 0.059439 0.746526
Si Si4 0.250000 0.632967 0.000000
Si Si5 0.250000 0.250000 0.780943
Si Si6 0.543960 0.322275 0.846930
Si Si7 0.579110 0.023641 0.855482
Si Si8 0.250000 0.750000 0.308249
O O1 0.401454 0.106335 0.533658
O O2 0.169365 0.980412 0.566839
O O3 0.860345 0.180564 0.363587
O O4 0.057219 0.041718 0.325869
O O5 0.246571 0.157451 0.726289
O O6 0.204033 0.981204 0.777540
O O7 0.423562 0.073045 0.830271
O O8 0.354546 0.685518 0.068396
O O9 0.149605 0.567692 0.061082
O O10 0.400443 0.256898 0.838845
O O11 0.470348 0.420420 0.858326
O O12 0.640122 0.304323 0.759078
#
# Coordination Sequence:
#
# PCOD9397714 Si02
#       8
#     4   8   8   4   4   8   8   4
#     4  10  26  49  82 123 148 198 248 304 402 446
#     4  11  24  49  78 114 158 193 248 317 373 474
#     4  11  22  44  72 102 137 190 253 300 362 452
#     4  12  24  45  68 101 148 192 258 334 370 437
#     4  10  24  46  63 107 142 182 258 300 376 449
#     4  11  25  45  68 102 145 200 255 308 386 439
#     4  11  24  41  70 101 133 196 261 307 369 431
#     4  12  26  50  76 110 156 206 248 308 384 462
#
# _framework density 24.028303000000001
#
# number of rings (size 3 to 8) (size 9 to 14) (size 15 to 20)
#    0.000    1.000    3.333    2.500    2.333    0.667 
#    3.000    2.500    0.000    0.000    0.000    0.000 
#    0.000    0.000    0.000    0.000    0.000    0.000 
#
# Total GULP energy -267631.207246 kJ/mol
# GULP energy per Si atom -5575.650151 kJ/mol
# Density = 2.397361 g / cm^3
# Si number density = 24.028303 Si / 1000 Ang^3
#
#
#
# Elastic Constant Matrix: (Units=GPa)
#
#
# Indices 1 2 3 4 5 6 
#
# 1 149.8707 43.9895 38.6538 0.0000 0.0000 0.0000
# 2 43.9895 89.3217 15.3787 0.0000 0.0000 0.0000
# 3 38.6538 15.3787 75.0787 0.0000 0.0000 0.0000
# 4 0.0000 0.0000 0.0000 25.0025 0.0000 0.0000
# 5 0.0000 0.0000 0.0000 0.0000 14.6653 0.0000
# 6 0.0000 0.0000 0.0000 0.0000 0.0000 32.1855
#
#
#
# Elastic Compliance Matrix: (Units=1/GPa)
#
#
# Indices 1 2 3 4 5 6 
#
# 1 0.008705 -0.003644 -0.003736 0.000000 0.000000 0.000000
# 2 -0.003644 0.013130 -0.000813 0.000000 0.000000 0.000000
# 3 -0.003736 -0.000813 0.015409 0.000000 0.000000 0.000000
# 4 0.000000 0.000000 0.000000 0.039996 0.000000 0.000000
# 5 0.000000 0.000000 0.000000 0.000000 0.068188 0.000000
# 6 0.000000 0.000000 0.000000 0.000000 0.000000 0.031070
#
#
# Mechanical properties :
#
#
# Convention : Reuss Voigt Hill
#
# Bulk Modulus (GPa) = 47.94135 56.70168 52.32152
# Shear Modulus (GPa) = 25.02030 28.78727 26.90379
#
# Velocity S-wave (km/s) = 3.23039 3.46505 3.34978
# Velocity P-wave (km/s) = 5.82317 6.29745 6.06495
#
# Compressibility (1/GPa) = 0.02085882
#
# Stress axis : x y z
#
# Youngs Moduli (GPa) = 114.87018 76.16021 64.89651
#
# Poissons Ratio (x) = 0.27754 0.24242
# Poissons Ratio (y) = 0.41861 0.05278
# Poissons Ratio (z) = 0.42910 0.06194
#
# Static dielectric constant tensor:
#      x y z
#    x 2.041930 0.000000 0.000000 
#    y 0.000000 2.031750 0.000000 
#    z 0.000000 0.000000 2.946140 
# 
# From -- ./inp_files/25069.got.cif
#   From: 2010.05.17/outbox.cif.g08.bks.cpg/sg50_13_cif.got.tgz:25069.got - 2010.06.03 11:33:33.
