data_PCOD9397038
_publ_section_title
;
Structure prediction by ZEFSAII (Michael W. Deem and Ramdas Pophale) SiO2 
 PCOD9397038
Probable space group: P B A N
;
_chemical_formula_sum "Si O2"
_cell_formula_units_Z 48
_cell_length_a 30.832017
_cell_length_b 13.393947
_cell_length_c 5.247813
_cell_angle_alpha 90.000000
_cell_angle_beta 90.000000
_cell_angle_gamma 90.000000
_cell_volume 2167.149460
_symmetry_space_group_name_H-M "P B A N"
_symmetry_group_IT_number 50
_space_group.IT_coordinate_system_code '2'
_symmetry_cell_setting 'orthorhombic'
loop_
_space_group_symop_operation_xyz
x,y,z
1/2-x,1/2-y,z
x,1/2-y,-z
1/2-x,y,-z
-x,-y,-z
1/2+x,1/2+y,-z
-x,1/2+y,z
1/2+x,-y,z
loop_
_atom_site_type_symbol
_atom_site_label
_atom_site_fract_x
_atom_site_fract_y
_atom_site_fract_z
Si Si1 0.605402 0.585604 0.848158
Si Si2 0.046387 0.250000 0.000000
Si Si3 0.161299 0.550259 0.207321
Si Si4 0.860284 0.250000 0.000000
Si Si5 0.721273 0.877307 0.744658
Si Si6 0.011990 0.750000 0.500000
Si Si7 0.586968 0.393747 0.613035
Si Si8 0.349561 0.250000 0.500000
O O1 0.577912 0.655481 0.031649
O O2 0.575025 0.496178 0.752422
O O3 0.623681 0.660763 0.633136
O O4 0.643122 0.522438 0.984743
O O5 0.017203 0.243388 0.249801
O O6 0.168913 0.661926 0.111897
O O7 0.202338 0.488583 0.297156
O O8 0.123140 0.569254 0.411799
O O9 0.890825 0.190150 0.797773
O O10 0.750000 0.856252 0.500000
O O11 0.680811 0.801467 0.714978
O O12 0.750000 0.869561 0.000000
O O13 0.044515 0.843863 0.499250
#
# Coordination Sequence:
#
# PCOD9397038 Si02
#       8
#     8   4   8   4   8   4   8   4
#     4  11  26  45  74 102 142 193 249 290 349 439
#     4  12  29  46  66 110 154 186 237 309 374 422
#     4  11  23  45  76 102 135 193 244 296 344 446
#     4  10  21  42  79 100 131 180 256 295 342 420
#     4  12  28  46  71 110 154 182 231 297 366 420
#     4  12  27  46  72 103 147 188 237 313 376 422
#     4  11  23  45  75 104 133 190 250 294 355 433
#     4  12  24  50  76 105 144 208 240 287 350 454
#
# _framework density 22.148910000000001
#
# number of rings (size 3 to 8) (size 9 to 14) (size 15 to 20)
#    0.000    0.667    3.333    3.250    7.000    5.333 
#    0.000    0.417    0.000    0.000    0.000    0.000 
#    0.000    0.000    0.000    0.000    0.000    0.000 
#
# Total GULP energy -268394.568774 kJ/mol
# GULP energy per Si atom -5591.553516 kJ/mol
# Density = 2.209850 g / cm^3
# Si number density = 22.148910 Si / 1000 Ang^3
#
#
#
# Elastic Constant Matrix: (Units=GPa)
#
#
# Indices 1 2 3 4 5 6 
#
# 1 71.9926 50.2128 28.5220 0.0000 0.0000 0.0000
# 2 50.2128 197.6932 38.0802 0.0000 0.0000 0.0000
# 3 28.5220 38.0802 98.4479 0.0000 0.0000 0.0000
# 4 0.0000 0.0000 0.0000 55.9438 0.0000 0.0000
# 5 0.0000 0.0000 0.0000 0.0000 23.8166 0.0000
# 6 0.0000 0.0000 0.0000 0.0000 0.0000 -5.9234
#
#
#
# Elastic Compliance Matrix: (Units=1/GPa)
#
#
# Indices 1 2 3 4 5 6 
#
# 1 0.018070 -0.003870 -0.003738 0.000000 0.000000 0.000000
# 2 -0.003870 0.006294 -0.001314 0.000000 0.000000 0.000000
# 3 -0.003738 -0.001314 0.011749 0.000000 0.000000 0.000000
# 4 0.000000 0.000000 0.000000 0.017875 0.000000 0.000000
# 5 0.000000 0.000000 0.000000 0.000000 0.041988 0.000000
# 6 0.000000 0.000000 0.000000 0.000000 0.000000 -0.168822
#
#
# Mechanical properties :
#
#
# Convention : Reuss Voigt Hill
#
# Bulk Modulus (GPa) = 54.73420 66.86262 60.79841
# Shear Modulus (GPa) = -102.22287 31.52197 -35.35045
#
# Velocity S-wave (km/s) = -6.80094 3.77660 -3.99938
# Velocity P-wave (km/s) = 6.07493 7.01928 2.48652
#
# Compressibility (1/GPa) = 0.01827011
#
# Stress axis : x y z
#
# Youngs Moduli (GPa) = 55.33914 158.87575 85.11474
#
# Poissons Ratio (x) = 0.61479 0.31820
# Poissons Ratio (y) = 0.21414 0.11180
# Poissons Ratio (z) = 0.20688 0.20869
#
# Static dielectric constant tensor:
#      x y z
#    x 1.601210 0.000000 0.000000 
#    y 0.000000 1.782030 0.000000 
#    z 0.000000 0.000000 1.925870 
# 
# From -- ./inp_files/6662.got.cif
#   From: 2010.05.17/outbox.cif.g08.bks.cpg/sg50_4_cif.got.tgz:6662.got - 2010.06.03 11:33:33.
