data_PCOD9397406
_publ_section_title
;
Structure prediction by ZEFSAII (Michael W. Deem and Ramdas Pophale) SiO2 
 PCOD9397406
Probable space group: P B A N
;
_chemical_formula_sum "Si O2"
_cell_formula_units_Z 56
_cell_length_a 15.154860
_cell_length_b 8.582186
_cell_length_c 18.913867
_cell_angle_alpha 90.000000
_cell_angle_beta 90.000000
_cell_angle_gamma 90.000000
_cell_volume 2459.972104
_symmetry_space_group_name_H-M "P B A N"
_symmetry_group_IT_number 50
_space_group.IT_coordinate_system_code '2'
_symmetry_cell_setting 'orthorhombic'
loop_
_space_group_symop_operation_xyz
x,y,z
1/2-x,1/2-y,z
x,1/2-y,-z
1/2-x,y,-z
-x,-y,-z
1/2+x,1/2+y,-z
-x,1/2+y,z
1/2+x,-y,z
loop_
_atom_site_type_symbol
_atom_site_label
_atom_site_fract_x
_atom_site_fract_y
_atom_site_fract_z
Si Si1 0.497990 0.527972 0.110774
Si Si2 0.964022 0.768215 0.346278
Si Si3 0.750000 0.497946 0.500000
Si Si4 0.851104 0.935208 0.995642
Si Si5 0.430883 0.942591 0.441073
Si Si6 0.560939 0.215755 0.795596
Si Si7 0.750000 0.250000 0.271052
Si Si8 0.207546 0.087251 0.344842
O O1 0.581460 0.514995 0.058167
O O2 0.527828 0.454970 0.185007
O O3 0.470706 0.701451 0.132506
O O4 0.407880 0.468037 0.074769
O O5 0.034298 0.709858 0.403270
O O6 0.012093 0.782563 0.272527
O O7 0.921488 0.922339 0.380676
O O8 0.895544 0.625740 0.337079
O O9 0.837452 0.412880 0.524263
O O10 0.723068 0.588009 0.570939
O O11 0.843368 0.750000 0.000000
O O12 0.750000 0.998767 0.000000
O O13 0.500000 0.000000 0.500000
O O14 0.663596 0.226856 0.777175
O O15 0.764695 0.415951 0.314161
O O16 0.250000 0.250000 0.314524
#
# Coordination Sequence:
#
# PCOD9397406 Si02
#       8
#     8   8   4   8   8   8   4   8
#     4  11  24  46  73 112 148 194 234 302 359 428
#     4  12  26  48  69 103 144 195 244 310 381 454
#     4  12  25  45  74 103 135 184 253 321 390 457
#     4  10  22  45  76 110 147 187 243 295 352 430
#     4  12  25  44  72 100 139 189 251 314 385 449
#     4  12  27  47  71 106 151 194 244 299 363 449
#     4  12  30  51  70 109 150 196 260 300 368 464
#     4  12  26  48  76 104 143 193 247 320 387 446
#
# _framework density 22.764485000000001
#
# number of rings (size 3 to 8) (size 9 to 14) (size 15 to 20)
#    0.000    0.429    4.286    4.071    4.000    0.286 
#    2.571    0.714    0.000    0.000    0.000    0.000 
#    0.000    0.000    0.000    0.000    0.000    0.000 
#
# Total GULP energy -312668.505862 kJ/mol
# GULP energy per Si atom -5583.366176 kJ/mol
# Density = 2.271267 g / cm^3
# Si number density = 22.764485 Si / 1000 Ang^3
#
#
#
# Elastic Constant Matrix: (Units=GPa)
#
#
# Indices 1 2 3 4 5 6 
#
# 1 196.8784 38.3019 60.3090 0.0000 0.0000 0.0000
# 2 38.3019 99.2868 17.6988 0.0000 0.0000 0.0000
# 3 60.3090 17.6988 76.1243 0.0000 0.0000 0.0000
# 4 0.0000 0.0000 0.0000 48.0713 0.0000 0.0000
# 5 0.0000 0.0000 0.0000 0.0000 29.3705 0.0000
# 6 0.0000 0.0000 0.0000 0.0000 0.0000 4.2027
#
#
#
# Elastic Compliance Matrix: (Units=1/GPa)
#
#
# Indices 1 2 3 4 5 6 
#
# 1 0.006998 -0.001785 -0.005129 0.000000 0.000000 0.000000
# 2 -0.001785 0.010963 -0.001134 0.000000 0.000000 0.000000
# 3 -0.005129 -0.001134 0.017463 0.000000 0.000000 0.000000
# 4 0.000000 0.000000 0.000000 0.020802 0.000000 0.000000
# 5 0.000000 0.000000 0.000000 0.000000 0.034048 0.000000
# 6 0.000000 0.000000 0.000000 0.000000 0.000000 0.237942
#
#
# Mechanical properties :
#
#
# Convention : Reuss Voigt Hill
#
# Bulk Modulus (GPa) = 51.74157 67.21209 59.47683
# Shear Modulus (GPa) = 14.25495 33.39423 23.82459
#
# Velocity S-wave (km/s) = 2.50510 3.83423 3.23858
# Velocity P-wave (km/s) = 5.58084 7.01361 6.33785
#
# Compressibility (1/GPa) = 0.01932682
#
# Stress axis : x y z
#
# Youngs Moduli (GPa) = 142.90466 91.21792 57.26251
#
# Poissons Ratio (x) = 0.16285 0.29369
# Poissons Ratio (y) = 0.25512 0.06496
# Poissons Ratio (z) = 0.73293 0.10349
#
# Static dielectric constant tensor:
#      x y z
#    x 2.095470 0.000000 0.000000 
#    y 0.000000 2.693470 0.000000 
#    z 0.000000 0.000000 1.840070 
# 
# From -- ./inp_files/31009.got.cif
#   From: 2010.05.17/outbox.cif.g08.bks.cpg/sg50_16_cif.got.tgz:31009.got - 2010.06.03 11:33:33.
