data_PCOD9397295
_publ_section_title
;
Structure prediction by ZEFSAII (Michael W. Deem and Ramdas Pophale) SiO2 
 PCOD9397295
Probable space group: P B A N
;
_chemical_formula_sum "Si O2"
_cell_formula_units_Z 44
_cell_length_a 8.818849
_cell_length_b 11.842218
_cell_length_c 19.296641
_cell_angle_alpha 90.000000
_cell_angle_beta 90.000000
_cell_angle_gamma 90.000000
_cell_volume 2015.239538
_symmetry_space_group_name_H-M "P B A N"
_symmetry_group_IT_number 50
_space_group.IT_coordinate_system_code '2'
_symmetry_cell_setting 'orthorhombic'
loop_
_space_group_symop_operation_xyz
x,y,z
1/2-x,1/2-y,z
x,1/2-y,-z
1/2-x,y,-z
-x,-y,-z
1/2+x,1/2+y,-z
-x,1/2+y,z
1/2+x,-y,z
loop_
_atom_site_type_symbol
_atom_site_label
_atom_site_fract_x
_atom_site_fract_y
_atom_site_fract_z
Si Si1 0.241341 0.943350 0.580036
Si Si2 0.894373 0.963451 0.206174
Si Si3 0.250000 0.250000 0.500000
Si Si4 0.250000 0.750000 0.000000
Si Si5 0.318941 0.637933 0.135346
Si Si6 0.008749 0.751690 0.397220
Si Si7 0.629404 0.897826 0.298273
O O1 0.250000 0.983086 0.500000
O O2 0.083951 0.871197 0.583942
O O3 0.363418 0.844838 0.596042
O O4 0.289327 0.036089 0.637030
O O5 0.758048 0.895305 0.240626
O O6 0.022493 0.893302 0.168088
O O7 0.807583 0.044764 0.152009
O O8 0.987810 0.032948 0.265268
O O9 0.374926 0.295432 0.553883
O O10 0.336852 0.829721 0.945457
O O11 0.250000 0.750000 0.170123
O O12 0.935514 0.721279 0.324062
#
# Coordination Sequence:
#
# PCOD9397295 Si02
#       7
#     8   8   2   2   8   8   8
#     4  11  23  45  63  82 125 174 215 290 364 399
#     4  10  22  42  65 100 140 178 224 271 334 398
#     4  12  24  38  56  92 112 156 228 270 364 398
#     4   8  20  44  76 110 130 196 218 246 356 372
#     4   9  21  44  71 102 142 182 219 270 325 401
#     4  11  24  41  60  85 120 163 214 289 336 415
#     4  11  24  40  62  96 122 175 228 269 341 409
#
# _framework density 21.833632000000001
#
# number of rings (size 3 to 8) (size 9 to 14) (size 15 to 20)
#    0.545    1.091    3.636    0.545    3.818    4.364 
#    0.000    2.727    2.000    4.364    0.000    0.000 
#    0.000    0.000    0.000    0.000    0.000    0.000 
#
# Total GULP energy -245435.686427 kJ/mol
# GULP energy per Si atom -5578.083782 kJ/mol
# Density = 2.178394 g / cm^3
# Si number density = 21.833632 Si / 1000 Ang^3
#
#
#
# Elastic Constant Matrix: (Units=GPa)
#
#
# Indices 1 2 3 4 5 6 
#
# 1 147.0660 39.8842 36.9883 0.0000 0.0000 0.0000
# 2 39.8842 47.0496 39.0175 0.0000 0.0000 0.0000
# 3 36.9883 39.0175 113.1825 0.0000 0.0000 0.0000
# 4 0.0000 0.0000 0.0000 46.6469 0.0000 0.0000
# 5 0.0000 0.0000 0.0000 0.0000 12.4253 0.0000
# 6 0.0000 0.0000 0.0000 0.0000 0.0000 -1.7800
#
#
#
# Elastic Compliance Matrix: (Units=1/GPa)
#
#
# Indices 1 2 3 4 5 6 
#
# 1 0.008844 -0.007142 -0.000428 0.000000 0.000000 0.000000
# 2 -0.007142 0.035531 -0.009914 0.000000 0.000000 0.000000
# 3 -0.000428 -0.009914 0.012393 0.000000 0.000000 0.000000
# 4 0.000000 0.000000 0.000000 0.021438 0.000000 0.000000
# 5 0.000000 0.000000 0.000000 0.000000 0.080481 0.000000
# 6 0.000000 0.000000 0.000000 0.000000 0.000000 -0.561791
#
#
# Mechanical properties :
#
#
# Convention : Reuss Voigt Hill
#
# Bulk Modulus (GPa) = 45.87535 59.89757 52.88646
# Shear Modulus (GPa) = -13.85546 24.21898 5.18176
#
# Velocity S-wave (km/s) = -2.52184 3.33416 1.54222
# Velocity P-wave (km/s) = 3.54645 6.50502 5.23892
#
# Compressibility (1/GPa) = 0.02179820
#
# Stress axis : x y z
#
# Youngs Moduli (GPa) = 113.06651 28.14477 80.69067
#
# Poissons Ratio (x) = 0.20102 0.03455
# Poissons Ratio (y) = 0.80756 0.80000
# Poissons Ratio (z) = 0.04841 0.27904
#
# Static dielectric constant tensor:
#      x y z
#    x 1.805290 0.000000 0.000000 
#    y 0.000000 1.926450 0.000000 
#    z 0.000000 0.000000 1.816480 
# 
# From -- ./inp_files/28654.got.cif
#   From: 2010.05.17/outbox.cif.g08.bks.cpg/sg50_15_cif.got.tgz:28654.got - 2010.06.03 11:33:33.
