data_PCOD9397995
_publ_section_title
;
Structure prediction by ZEFSAII (Michael W. Deem and Ramdas Pophale) SiO2 
 PCOD9397995
Probable space group: P B A N
;
_chemical_formula_sum "Si O2"
_cell_formula_units_Z 34
_cell_length_a 8.782507
_cell_length_b 13.104228
_cell_length_c 14.059457
_cell_angle_alpha 90.000000
_cell_angle_beta 90.000000
_cell_angle_gamma 90.000000
_cell_volume 1618.074424
_symmetry_space_group_name_H-M "P B A N"
_symmetry_group_IT_number 50
_space_group.IT_coordinate_system_code '2'
_symmetry_cell_setting 'orthorhombic'
loop_
_space_group_symop_operation_xyz
x,y,z
1/2-x,1/2-y,z
x,1/2-y,-z
1/2-x,y,-z
-x,-y,-z
1/2+x,1/2+y,-z
-x,1/2+y,z
1/2+x,-y,z
loop_
_atom_site_type_symbol
_atom_site_label
_atom_site_fract_x
_atom_site_fract_y
_atom_site_fract_z
Si Si1 0.399135 0.378899 0.837922
Si Si2 0.750000 0.750000 0.000000
Si Si3 0.068163 0.745307 0.315392
Si Si4 0.598251 0.082152 0.441512
Si Si5 0.090199 0.454408 0.744063
O O1 0.355651 0.324611 0.936299
O O2 0.493618 0.298375 0.776048
O O3 0.238298 0.402914 0.788134
O O4 0.496988 0.483020 0.824769
O O5 0.250000 0.750000 0.312185
O O6 0.018726 0.813234 0.406514
O O7 0.011561 0.630272 0.308301
O O8 0.750000 0.105766 0.500000
O O9 0.500000 0.000000 0.500000
O O10 0.638208 0.030297 0.340348
#
# Coordination Sequence:
#
# PCOD9397995 Si02
#       5
#     8   2   8   8   8
#     4  11  24  44  71 102 135 180 226 294 352 425
#     4  12  24  48  74 104 140 168 246 288 360 448
#     4  11  22  42  67  95 139 186 229 286 352 405
#     4  11  23  38  61  99 135 180 239 281 327 410
#     4  11  22  43  67  95 141 182 223 282 361 403
#
# _framework density 21.012630999999999
#
# number of rings (size 3 to 8) (size 9 to 14) (size 15 to 20)
#    0.000    0.941    2.353    7.059    0.000    4.235 
#    0.000    1.765    0.000    0.000    0.000    0.000 
#    0.000    0.000    0.000    0.000    0.000    0.000 
#
# Total GULP energy -189956.883312 kJ/mol
# GULP energy per Si atom -5586.967156 kJ/mol
# Density = 2.096481 g / cm^3
# Si number density = 21.012631 Si / 1000 Ang^3
#
#
#
# Elastic Constant Matrix: (Units=GPa)
#
#
# Indices 1 2 3 4 5 6 
#
# 1 82.6342 31.0624 30.5424 0.0000 0.0000 0.0000
# 2 31.0624 124.8495 50.4295 0.0000 0.0000 0.0000
# 3 30.5424 50.4295 123.3619 0.0000 0.0000 0.0000
# 4 0.0000 0.0000 0.0000 51.9576 0.0000 0.0000
# 5 0.0000 0.0000 0.0000 0.0000 43.9400 0.0000
# 6 0.0000 0.0000 0.0000 0.0000 0.0000 37.4499
#
#
#
# Elastic Compliance Matrix: (Units=1/GPa)
#
#
# Indices 1 2 3 4 5 6 
#
# 1 0.013935 -0.002484 -0.002435 0.000000 0.000000 0.000000
# 2 -0.002484 0.010036 -0.003488 0.000000 0.000000 0.000000
# 3 -0.002435 -0.003488 0.010135 0.000000 0.000000 0.000000
# 4 0.000000 0.000000 0.000000 0.019246 0.000000 0.000000
# 5 0.000000 0.000000 0.000000 0.000000 0.022758 0.000000
# 6 0.000000 0.000000 0.000000 0.000000 0.000000 0.026702
#
#
# Mechanical properties :
#
#
# Convention : Reuss Voigt Hill
#
# Bulk Modulus (GPa) = 57.82442 61.65712 59.74077
# Shear Modulus (GPa) = 39.87541 41.25693 40.56617
#
# Velocity S-wave (km/s) = 4.36097 4.43587 4.39858
# Velocity P-wave (km/s) = 7.27572 7.45939 7.36813
#
# Compressibility (1/GPa) = 0.01729373
#
# Stress axis : x y z
#
# Youngs Moduli (GPa) = 71.76164 99.63739 98.66902
#
# Poissons Ratio (x) = 0.24745 0.24024
# Poissons Ratio (y) = 0.17822 0.34415
# Poissons Ratio (z) = 0.17473 0.34753
#
# Static dielectric constant tensor:
#      x y z
#    x 1.718930 0.000000 0.000000 
#    y 0.000000 1.860870 0.000000 
#    z 0.000000 0.000000 1.742590 
# 
# From -- ./inp_files/24535.got.cif
#   From: 2010.05.17/outbox.cif.g08.bks.cpg/sg50_13_cif.got.tgz:24535.got - 2010.06.03 11:33:33.
