data_PCOD9397349
_publ_section_title
;
Structure prediction by ZEFSAII (Michael W. Deem and Ramdas Pophale) SiO2 
 PCOD9397349
Probable space group: P B A N
;
_chemical_formula_sum "Si O2"
_cell_formula_units_Z 30
_cell_length_a 5.301171
_cell_length_b 16.997921
_cell_length_c 14.749084
_cell_angle_alpha 90.000000
_cell_angle_beta 90.000000
_cell_angle_gamma 90.000000
_cell_volume 1329.023527
_symmetry_space_group_name_H-M "P B A N"
_symmetry_group_IT_number 50
_space_group.IT_coordinate_system_code '2'
_symmetry_cell_setting 'orthorhombic'
loop_
_space_group_symop_operation_xyz
x,y,z
1/2-x,1/2-y,z
x,1/2-y,-z
1/2-x,y,-z
-x,-y,-z
1/2+x,1/2+y,-z
-x,1/2+y,z
1/2+x,-y,z
loop_
_atom_site_type_symbol
_atom_site_label
_atom_site_fract_x
_atom_site_fract_y
_atom_site_fract_z
Si Si1 0.250000 0.750000 0.500000
Si Si2 0.501745 0.303905 0.844226
Si Si3 0.598666 0.830717 0.641579
Si Si4 0.250000 0.050739 0.500000
Si Si5 0.163647 0.531176 0.899230
O O1 0.390668 0.808540 0.567777
O O2 0.750000 0.250000 0.849329
O O3 0.490298 0.342774 0.743565
O O4 0.553413 0.380545 0.905213
O O5 0.250000 0.250000 0.860687
O O6 0.750000 0.750000 0.648104
O O7 0.755340 0.897457 0.591751
O O8 0.500000 0.000000 0.500000
O O9 0.442921 0.522122 0.854564
O O10 0.250000 0.504531 0.000000
#
# Coordination Sequence:
#
# PCOD9397349 Si02
#       5
#     2   8   8   4   8
#     4  12  16  40  68  80 118 170 230 246 298 402
#     4  11  24  40  65 101 129 164 221 278 322 373
#     4  11  23  39  64  86 123 177 217 259 322 390
#     4  12  26  38  57  91 126 162 220 276 320 366
#     4  10  22  43  68  93 130 175 209 251 331 408
#
# _framework density 22.572963000000001
#
# number of rings (size 3 to 8) (size 9 to 14) (size 15 to 20)
#    0.000    1.067    4.000    2.400    0.000    2.667 
#    0.000    1.333    0.000    0.000    0.000    0.000 
#    0.000    0.000    0.000    0.000    0.000    0.000 
#
# Total GULP energy -167325.547527 kJ/mol
# GULP energy per Si atom -5577.518251 kJ/mol
# Density = 2.252159 g / cm^3
# Si number density = 22.572963 Si / 1000 Ang^3
#
#
#
# Elastic Constant Matrix: (Units=GPa)
#
#
# Indices 1 2 3 4 5 6 
#
# 1 171.1955 53.8774 20.5543 0.0000 0.0000 0.0000
# 2 53.8774 116.2398 27.2325 0.0000 0.0000 0.0000
# 3 20.5543 27.2325 43.1863 0.0000 0.0000 0.0000
# 4 0.0000 0.0000 0.0000 157.1621 0.0000 0.0000
# 5 0.0000 0.0000 0.0000 0.0000 21.6176 0.0000
# 6 0.0000 0.0000 0.0000 0.0000 0.0000 20.9606
#
#
#
# Elastic Compliance Matrix: (Units=1/GPa)
#
#
# Indices 1 2 3 4 5 6 
#
# 1 0.006920 -0.002858 -0.001491 0.000000 0.000000 0.000000
# 2 -0.002858 0.011275 -0.005749 0.000000 0.000000 0.000000
# 3 -0.001491 -0.005749 0.027491 0.000000 0.000000 0.000000
# 4 0.000000 0.000000 0.000000 0.006363 0.000000 0.000000
# 5 0.000000 0.000000 0.000000 0.000000 0.046259 0.000000
# 6 0.000000 0.000000 0.000000 0.000000 0.000000 0.047709
#
#
# Mechanical properties :
#
#
# Convention : Reuss Voigt Hill
#
# Bulk Modulus (GPa) = 39.23419 59.32775 49.28097
# Shear Modulus (GPa) = 28.61918 55.21188 41.91553
#
# Velocity S-wave (km/s) = 3.56455 4.95100 4.31384
# Velocity P-wave (km/s) = 5.86176 7.68264 6.83312
#
# Compressibility (1/GPa) = 0.02548797
#
# Stress axis : x y z
#
# Youngs Moduli (GPa) = 144.51382 88.69568 36.37600
#
# Poissons Ratio (x) = 0.25349 0.05425
# Poissons Ratio (y) = 0.41301 0.20914
# Poissons Ratio (z) = 0.21551 0.50994
#
# Static dielectric constant tensor:
#      x y z
#    x 2.021400 0.000000 0.000000 
#    y 0.000000 1.593760 0.000000 
#    z 0.000000 0.000000 0.232430 
# 
# From -- ./inp_files/23676.got.cif
#   From: 2010.05.17/outbox.cif.g08.bks.cpg/sg50_12_cif.got.tgz:23676.got - 2010.06.03 11:33:33.
