data_PCOD9397985
_publ_section_title
;
Structure prediction by ZEFSAII (Michael W. Deem and Ramdas Pophale) SiO2 
 PCOD9397985
Probable space group: P B A N
;
_chemical_formula_sum "Si O2"
_cell_formula_units_Z 40
_cell_length_a 11.685234
_cell_length_b 9.437974
_cell_length_c 17.221376
_cell_angle_alpha 90.000000
_cell_angle_beta 90.000000
_cell_angle_gamma 90.000000
_cell_volume 1899.258327
_symmetry_space_group_name_H-M "P B A N"
_symmetry_group_IT_number 50
_space_group.IT_coordinate_system_code '2'
_symmetry_cell_setting 'orthorhombic'
loop_
_space_group_symop_operation_xyz
x,y,z
1/2-x,1/2-y,z
x,1/2-y,-z
1/2-x,y,-z
-x,-y,-z
1/2+x,1/2+y,-z
-x,1/2+y,z
1/2+x,-y,z
loop_
_atom_site_type_symbol
_atom_site_label
_atom_site_fract_x
_atom_site_fract_y
_atom_site_fract_z
Si Si1 0.703940 0.093475 0.696555
Si Si2 0.964091 0.129530 0.445263
Si Si3 0.990296 0.021625 0.186186
Si Si4 0.885926 0.239295 0.906910
Si Si5 0.859288 0.651051 0.317730
O O1 0.750000 0.250000 0.718408
O O2 0.625307 0.093055 0.621036
O O3 0.626288 0.009300 0.760762
O O4 0.815279 0.008155 0.672174
O O5 0.915805 0.250000 0.500000
O O6 0.069593 0.191118 0.393996
O O7 0.000000 0.000000 0.500000
O O8 0.065789 0.127222 0.240677
O O9 0.948103 0.117764 0.117245
O O10 0.057761 0.888341 0.146744
O O11 0.750000 0.250000 0.890778
O O12 0.898157 0.250000 0.000000
O O13 0.750000 0.750000 0.308259
#
# Coordination Sequence:
#
# PCOD9397985 Si02
#       5
#     8   8   8   8   8
#     4  11  23  40  63  90 121 165 214 263 318 375
#     4  11  24  39  57  86 122 163 211 263 320 379
#     4  11  22  41  65  91 125 162 208 259 310 380
#     4  11  24  42  66  96 129 165 203 251 316 384
#     4  11  23  38  60  88 119 160 209 261 315 371
#
# _framework density 21.060853000000002
#
# number of rings (size 3 to 8) (size 9 to 14) (size 15 to 20)
#    0.000    1.000    0.000    7.200    0.000   11.200 
#    0.000    0.000    0.000    4.800    0.000    0.000 
#    0.000    0.000    0.000    0.000    0.000    0.000 
#
# Total GULP energy -222899.780648 kJ/mol
# GULP energy per Si atom -5572.494516 kJ/mol
# Density = 2.101292 g / cm^3
# Si number density = 21.060853 Si / 1000 Ang^3
#
#
#
# Elastic Constant Matrix: (Units=GPa)
#
#
# Indices 1 2 3 4 5 6 
#
# 1 74.6178 12.6346 34.5263 0.0000 0.0000 0.0000
# 2 12.6346 69.9600 33.6271 0.0000 0.0000 0.0000
# 3 34.5263 33.6271 153.2587 0.0000 0.0000 0.0000
# 4 0.0000 0.0000 0.0000 35.0658 0.0000 0.0000
# 5 0.0000 0.0000 0.0000 0.0000 8.6937 0.0000
# 6 0.0000 0.0000 0.0000 0.0000 0.0000 38.8603
#
#
#
# Elastic Compliance Matrix: (Units=1/GPa)
#
#
# Indices 1 2 3 4 5 6 
#
# 1 0.015053 -0.001217 -0.003124 0.000000 0.000000 0.000000
# 2 -0.001217 0.016077 -0.003253 0.000000 0.000000 0.000000
# 3 -0.003124 -0.003253 0.007943 0.000000 0.000000 0.000000
# 4 0.000000 0.000000 0.000000 0.028518 0.000000 0.000000
# 5 0.000000 0.000000 0.000000 0.000000 0.115025 0.000000
# 6 0.000000 0.000000 0.000000 0.000000 0.000000 0.025733
#
#
# Mechanical properties :
#
#
# Convention : Reuss Voigt Hill
#
# Bulk Modulus (GPa) = 41.86875 51.04585 46.45730
# Shear Modulus (GPa) = 21.59826 30.99387 26.29607
#
# Velocity S-wave (km/s) = 3.20584 3.84035 3.53735
# Velocity P-wave (km/s) = 5.79882 6.62981 6.22819
#
# Compressibility (1/GPa) = 0.02388416
#
# Stress axis : x y z
#
# Youngs Moduli (GPa) = 66.43070 62.19882 125.90337
#
# Poissons Ratio (x) = 0.07569 0.39335
# Poissons Ratio (y) = 0.08084 0.40962
# Poissons Ratio (z) = 0.20754 0.20236
#
# Static dielectric constant tensor:
#      x y z
#    x 2.022650 0.000000 0.000000 
#    y 0.000000 1.724900 0.000000 
#    z 0.000000 0.000000 1.773460 
# 
# From -- ./inp_files/28486.got.cif
#   From: 2010.05.17/outbox.cif.g08.bks.cpg/sg50_15_cif.got.tgz:28486.got - 2010.06.03 11:33:33.
