data_PCOD9397054
_publ_section_title
;
Structure prediction by ZEFSAII (Michael W. Deem and Ramdas Pophale) SiO2 
 PCOD9397054
Probable space group: P B A N
;
_chemical_formula_sum "Si O2"
_cell_formula_units_Z 40
_cell_length_a 7.925923
_cell_length_b 14.798048
_cell_length_c 15.564768
_cell_angle_alpha 90.000000
_cell_angle_beta 90.000000
_cell_angle_gamma 90.000000
_cell_volume 1825.563451
_symmetry_space_group_name_H-M "P B A N"
_symmetry_group_IT_number 50
_space_group.IT_coordinate_system_code '2'
_symmetry_cell_setting 'orthorhombic'
loop_
_space_group_symop_operation_xyz
x,y,z
1/2-x,1/2-y,z
x,1/2-y,-z
1/2-x,y,-z
-x,-y,-z
1/2+x,1/2+y,-z
-x,1/2+y,z
1/2+x,-y,z
loop_
_atom_site_type_symbol
_atom_site_label
_atom_site_fract_x
_atom_site_fract_y
_atom_site_fract_z
Si Si1 0.938288 0.297815 0.612589
Si Si2 0.250000 0.547035 0.000000
Si Si3 0.250000 0.250000 0.000000
Si Si4 0.953164 0.896271 0.103186
Si Si5 0.056440 0.119614 0.694497
Si Si6 0.251249 0.521104 0.396369
Si Si7 0.750000 0.750000 0.500000
O O1 0.750000 0.250000 0.590145
O O2 0.018211 0.225735 0.679503
O O3 0.882837 0.399964 0.629978
O O4 0.102323 0.306012 0.549317
O O5 0.361997 0.604938 0.063491
O O6 0.137942 0.483424 0.061633
O O7 0.142759 0.311964 0.063305
O O8 0.955046 0.899533 0.205124
O O9 0.921485 0.068028 0.635278
O O10 0.220978 0.070641 0.656646
O O11 0.250000 0.511245 0.500000
#
# Coordination Sequence:
#
# PCOD9397054 Si02
#       7
#     8   4   2   8   8   8   2
#     4  10  24  43  61  97 136 175 224 298 336 402
#     4   9  20  42  72  93 140 176 216 285 356 426
#     4  10  24  44  68 102 154 164 228 294 346 434
#     4  10  21  44  66 106 131 180 223 284 352 429
#     4  11  24  42  70  99 133 181 228 288 343 415
#     4  11  24  45  66  97 137 182 232 288 343 405
#     4  12  22  38  72  82 124 180 230 264 350 398
#
# _framework density 21.911045000000001
#
# number of rings (size 3 to 8) (size 9 to 14) (size 15 to 20)
#    0.000    1.600    0.000    4.500    4.200    2.000 
#   21.600    0.000    0.000    0.000    0.000    0.000 
#    0.000    0.000    0.000    0.000    0.000    0.000 
#
# Total GULP energy -222783.727308 kJ/mol
# GULP energy per Si atom -5569.593183 kJ/mol
# Density = 2.186117 g / cm^3
# Si number density = 21.911045 Si / 1000 Ang^3
#
#
#
# Elastic Constant Matrix: (Units=GPa)
#
#
# Indices 1 2 3 4 5 6 
#
# 1 76.3926 11.1233 3.3593 0.0000 0.0000 0.0000
# 2 11.1233 94.3895 37.0706 0.0000 0.0000 0.0000
# 3 3.3593 37.0706 162.3384 0.0000 0.0000 0.0000
# 4 0.0000 0.0000 0.0000 -14.9416 0.0000 0.0000
# 5 0.0000 0.0000 0.0000 0.0000 11.6685 0.0000
# 6 0.0000 0.0000 0.0000 0.0000 0.0000 90.2074
#
#
#
# Elastic Compliance Matrix: (Units=1/GPa)
#
#
# Indices 1 2 3 4 5 6 
#
# 1 0.013320 -0.001605 0.000091 0.000000 0.000000 0.000000
# 2 -0.001605 0.011832 -0.002669 0.000000 0.000000 0.000000
# 3 0.000091 -0.002669 0.006767 0.000000 0.000000 0.000000
# 4 0.000000 0.000000 0.000000 -0.066927 0.000000 0.000000
# 5 0.000000 0.000000 0.000000 0.000000 0.085701 0.000000
# 6 0.000000 0.000000 0.000000 0.000000 0.000000 0.011086
#
#
# Mechanical properties :
#
#
# Convention : Reuss Voigt Hill
#
# Bulk Modulus (GPa) = 42.45728 48.46965 45.46347
# Shear Modulus (GPa) = 64.10634 36.15802 50.13218
#
# Velocity S-wave (km/s) = 5.41489 4.06670 4.78848
# Velocity P-wave (km/s) = 7.64944 6.64980 7.16707
#
# Compressibility (1/GPa) = 0.02355309
#
# Stress axis : x y z
#
# Youngs Moduli (GPa) = 75.07488 84.51907 147.76571
#
# Poissons Ratio (x) = 0.13569 -0.01344
# Poissons Ratio (y) = 0.12053 0.39432
# Poissons Ratio (z) = -0.00683 0.22555
#
# Static dielectric constant tensor:
#      x y z
#    x 1.871530 0.000000 0.000000 
#    y 0.000000 1.827900 0.000000 
#    z 0.000000 0.000000 1.766670 
# 
# From -- ./inp_files/24766.got.cif
#   From: 2010.05.17/outbox.cif.g08.bks.cpg/sg50_13_cif.got.tgz:24766.got - 2010.06.03 11:33:33.
