data_PCOD9397794
_publ_section_title
;
Structure prediction by ZEFSAII (Michael W. Deem and Ramdas Pophale) SiO2 
 PCOD9397794
Probable space group: P B A N
;
_chemical_formula_sum "Si O2"
_cell_formula_units_Z 22
_cell_length_a 15.622621
_cell_length_b 5.604048
_cell_length_c 11.008909
_cell_angle_alpha 90.000000
_cell_angle_beta 90.000000
_cell_angle_gamma 90.000000
_cell_volume 963.829080
_symmetry_space_group_name_H-M "P B A N"
_symmetry_group_IT_number 50
_space_group.IT_coordinate_system_code '2'
_symmetry_cell_setting 'orthorhombic'
loop_
_space_group_symop_operation_xyz
x,y,z
1/2-x,1/2-y,z
x,1/2-y,-z
1/2-x,y,-z
-x,-y,-z
1/2+x,1/2+y,-z
-x,1/2+y,z
1/2+x,-y,z
loop_
_atom_site_type_symbol
_atom_site_label
_atom_site_fract_x
_atom_site_fract_y
_atom_site_fract_z
Si Si1 0.401029 0.501940 0.452239
Si Si2 0.250000 0.750000 0.000000
Si Si3 0.548965 0.750000 0.000000
Si Si4 0.333012 0.399287 0.195787
O O1 0.362643 0.750000 0.500000
O O2 0.500000 0.500000 0.500000
O O3 0.385363 0.503333 0.308334
O O4 0.364489 0.250000 0.500000
O O5 0.304306 0.588551 0.093107
O O6 0.605665 0.771844 0.879356
O O7 0.500000 0.500000 0.000000
O O8 0.250000 0.250000 0.236578
#
# Coordination Sequence:
#
# PCOD9397794 Si02
#       4
#     8   2   4   8
#     4  10  26  49  77 109 153 205 260 322 388 469
#     4  12  24  52  78 116 164 202 266 324 406 470
#     4  12  28  44  79 117 156 206 258 332 398 464
#     4  12  27  50  80 115 162 209 266 329 402 483
#
# _framework density 22.825623
#
# number of rings (size 3 to 8) (size 9 to 14) (size 15 to 20)
#    0.000    0.727    3.636    1.091   15.273    0.727 
#    0.000    0.000    0.000    0.000    0.000    0.000 
#    0.000    0.000    0.000    0.000    0.000    0.000 
#
# Total GULP energy -122919.498438 kJ/mol
# GULP energy per Si atom -5587.249929 kJ/mol
# Density = 2.277367 g / cm^3
# Si number density = 22.825623 Si / 1000 Ang^3
#
#
#
# Elastic Constant Matrix: (Units=GPa)
#
#
# Indices 1 2 3 4 5 6 
#
# 1 105.4960 38.0526 63.1564 0.0000 0.0000 0.0000
# 2 38.0526 170.1419 55.5403 0.0000 0.0000 0.0000
# 3 63.1564 55.5403 203.6495 0.0000 0.0000 0.0000
# 4 0.0000 0.0000 0.0000 43.1230 0.0000 0.0000
# 5 0.0000 0.0000 0.0000 0.0000 60.0382 0.0000
# 6 0.0000 0.0000 0.0000 0.0000 0.0000 -5.5381
#
#
#
# Elastic Compliance Matrix: (Units=1/GPa)
#
#
# Indices 1 2 3 4 5 6 
#
# 1 0.012032 -0.001617 -0.003290 0.000000 0.000000 0.000000
# 2 -0.001617 0.006669 -0.001317 0.000000 0.000000 0.000000
# 3 -0.003290 -0.001317 0.006290 0.000000 0.000000 0.000000
# 4 0.000000 0.000000 0.000000 0.023189 0.000000 0.000000
# 5 0.000000 0.000000 0.000000 0.000000 0.016656 0.000000
# 6 0.000000 0.000000 0.000000 0.000000 0.000000 -0.180569
#
#
# Mechanical properties :
#
#
# Convention : Reuss Voigt Hill
#
# Bulk Modulus (GPa) = 79.73302 88.08733 83.91017
# Shear Modulus (GPa) = -50.45317 41.02717 -4.71300
#
# Velocity S-wave (km/s) = -4.70656 4.24420 -1.43850
# Velocity P-wave (km/s) = 2.33914 7.91788 5.83799
#
# Compressibility (1/GPa) = 0.01254186
#
# Stress axis : x y z
#
# Youngs Moduli (GPa) = 83.11087 149.94492 158.97910
#
# Poissons Ratio (x) = 0.24244 0.52312
# Poissons Ratio (y) = 0.13438 0.20944
# Poissons Ratio (z) = 0.27347 0.19754
#
# Static dielectric constant tensor:
#      x y z
#    x 1.951090 0.000000 0.000000 
#    y 0.000000 1.912730 0.000000 
#    z 0.000000 0.000000 1.699140 
# 
# From -- ./inp_files/13608.got.cif
#   From: 2010.05.17/outbox.cif.g08.bks.cpg/sg50_7_cif.got.tgz:13608.got - 2010.06.03 11:33:33.
