data_PCOD9397436
_publ_section_title
;
Structure prediction by ZEFSAII (Michael W. Deem and Ramdas Pophale) SiO2 
 PCOD9397436
Probable space group: P B A N
;
_chemical_formula_sum "Si O2"
_cell_formula_units_Z 32
_cell_length_a 17.659217
_cell_length_b 8.761831
_cell_length_c 8.722691
_cell_angle_alpha 90.000000
_cell_angle_beta 90.000000
_cell_angle_gamma 90.000000
_cell_volume 1349.636464
_symmetry_space_group_name_H-M "P B A N"
_symmetry_group_IT_number 50
_space_group.IT_coordinate_system_code '2'
_symmetry_cell_setting 'orthorhombic'
loop_
_space_group_symop_operation_xyz
x,y,z
1/2-x,1/2-y,z
x,1/2-y,-z
1/2-x,y,-z
-x,-y,-z
1/2+x,1/2+y,-z
-x,1/2+y,z
1/2+x,-y,z
loop_
_atom_site_type_symbol
_atom_site_label
_atom_site_fract_x
_atom_site_fract_y
_atom_site_fract_z
Si Si1 0.352701 0.657182 0.241273
Si Si2 0.250000 0.750000 0.500000
Si Si3 0.030556 0.250000 0.500000
Si Si4 0.750000 0.750000 0.000000
Si Si5 0.479399 0.480576 0.717064
Si Si6 0.650955 0.016347 0.914264
O O1 0.303586 0.645452 0.393647
O O2 0.437400 0.593366 0.269794
O O3 0.339464 0.834927 0.193312
O O4 0.330433 0.568015 0.087117
O O5 0.070917 0.135418 0.615077
O O6 0.986808 0.366799 0.614982
O O7 0.696772 0.639889 0.101969
O O8 0.437748 0.489653 0.878545
#
# Coordination Sequence:
#
# PCOD9397436 Si02
#       6
#     8   2   4   2   8   8
#     4  11  25  48  75 108 146 209 245 320 392 475
#     4  12  26  46  76 102 150 200 252 302 398 462
#     4  10  23  38  72 118 159 184 252 320 381 456
#     4  12  28  46  68 106 148 192 256 322 384 458
#     4  11  22  45  73 115 153 200 253 320 376 468
#     4  11  26  47  72 105 153 196 259 316 388 473
#
# _framework density 23.710087999999999
#
# number of rings (size 3 to 8) (size 9 to 14) (size 15 to 20)
#    0.000    1.000    2.500    3.000    7.000    4.000 
#    0.000    0.000    0.000    3.000    0.000    0.000 
#    0.000    0.000    0.000    0.000    0.000    0.000 
#
# Total GULP energy -178339.411424 kJ/mol
# GULP energy per Si atom -5573.106607 kJ/mol
# Density = 2.365612 g / cm^3
# Si number density = 23.710088 Si / 1000 Ang^3
#
#
#
# Elastic Constant Matrix: (Units=GPa)
#
#
# Indices 1 2 3 4 5 6 
#
# 1 138.4339 55.6129 71.2166 0.0000 0.0000 0.0000
# 2 55.6129 157.3550 46.8651 0.0000 0.0000 0.0000
# 3 71.2166 46.8651 121.2885 0.0000 0.0000 0.0000
# 4 0.0000 0.0000 0.0000 -4.5414 0.0000 0.0000
# 5 0.0000 0.0000 0.0000 0.0000 31.2248 0.0000
# 6 0.0000 0.0000 0.0000 0.0000 0.0000 21.0109
#
#
#
# Elastic Compliance Matrix: (Units=1/GPa)
#
#
# Indices 1 2 3 4 5 6 
#
# 1 0.010995 -0.002218 -0.005599 0.000000 0.000000 0.000000
# 2 -0.002218 0.007629 -0.001645 0.000000 0.000000 0.000000
# 3 -0.005599 -0.001645 0.012168 0.000000 0.000000 0.000000
# 4 0.000000 0.000000 0.000000 -0.220194 0.000000 0.000000
# 5 0.000000 0.000000 0.000000 0.000000 0.032026 0.000000
# 6 0.000000 0.000000 0.000000 0.000000 0.000000 0.047594
#
#
# Mechanical properties :
#
#
# Convention : Reuss Voigt Hill
#
# Bulk Modulus (GPa) = 84.26563 84.94074 84.60318
# Shear Modulus (GPa) = -57.53671 25.76437 -15.88617
#
# Velocity S-wave (km/s) = -4.93148 3.30000 -2.59128
# Velocity P-wave (km/s) = 1.78640 7.10088 5.17753
#
# Compressibility (1/GPa) = 0.01186724
#
# Stress axis : x y z
#
# Youngs Moduli (GPa) = 90.94920 131.07680 82.18319
#
# Poissons Ratio (x) = 0.29079 0.46013
# Poissons Ratio (y) = 0.20177 0.13521
# Poissons Ratio (z) = 0.50921 0.21565
#
# Static dielectric constant tensor:
#      x y z
#    x 2.022810 0.000000 0.000000 
#    y 0.000000 1.949190 0.000000 
#    z 0.000000 0.000000 1.947500 
# 
# From -- ./inp_files/18661.got.cif
#   From: 2010.05.17/outbox.cif.g08.bks.cpg/sg50_10_cif.got.tgz:18661.got - 2010.06.03 11:33:33.
