data_PCOD9397924
_publ_section_title
;
Structure prediction by ZEFSAII (Michael W. Deem and Ramdas Pophale) SiO2 
 PCOD9397924
Probable space group: P B A N
;
_chemical_formula_sum "Si O2"
_cell_formula_units_Z 64
_cell_length_a 11.276482
_cell_length_b 14.109719
_cell_length_c 17.425860
_cell_angle_alpha 90.000000
_cell_angle_beta 90.000000
_cell_angle_gamma 90.000000
_cell_volume 2772.593599
_symmetry_space_group_name_H-M "P B A N"
_symmetry_group_IT_number 50
_space_group.IT_coordinate_system_code '2'
_symmetry_cell_setting 'orthorhombic'
loop_
_space_group_symop_operation_xyz
x,y,z
1/2-x,1/2-y,z
x,1/2-y,-z
1/2-x,y,-z
-x,-y,-z
1/2+x,1/2+y,-z
-x,1/2+y,z
1/2+x,-y,z
loop_
_atom_site_type_symbol
_atom_site_label
_atom_site_fract_x
_atom_site_fract_y
_atom_site_fract_z
Si Si1 0.242010 0.852491 0.621879
Si Si2 0.971585 0.110202 0.008463
Si Si3 0.281120 0.936506 0.124465
Si Si4 0.202432 0.150221 0.086573
Si Si5 0.017753 0.553757 0.686103
Si Si6 0.955789 0.170779 0.834459
Si Si7 0.446911 0.868902 0.247583
Si Si8 0.372011 0.023119 0.458778
O O1 0.250000 0.750000 0.586676
O O2 0.363317 0.900937 0.650378
O O3 0.155374 0.838947 0.693983
O O4 0.175676 0.921760 0.565681
O O5 0.843389 0.107753 0.048616
O O6 0.063550 0.151165 0.069042
O O7 0.992044 0.153770 0.923759
O O8 0.000000 0.000000 0.000000
O O9 0.180520 0.865319 0.155405
O O10 0.385288 0.935316 0.185316
O O11 0.234604 0.045103 0.118188
O O12 0.250000 0.250000 0.122137
O O13 0.250000 0.147840 0.000000
O O14 0.993987 0.604345 0.767070
O O15 0.032402 0.440861 0.705603
O O16 0.914104 0.568714 0.622702
O O17 0.979225 0.273151 0.796877
O O18 0.250000 0.065681 0.500000
O O19 0.500000 0.000000 0.500000
#
# Coordination Sequence:
#
# PCOD9397924 Si02
#       8
#     8   8   8   8   8   8   8   8
#     4  11  21  46  79 112 153 210 270 304 371 488
#     4  12  24  45  66  98 141 194 258 338 410 463
#     4  12  23  44  70 101 142 194 265 346 386 472
#     4  11  25  45  64  91 136 188 251 323 405 490
#     4  11  24  45  76 112 157 198 251 321 390 470
#     4  12  24  47  72 105 145 196 265 325 395 480
#     4  11  25  41  72 106 146 195 261 328 398 464
#     4  11  24  46  79 125 164 204 253 314 391 461
#
# _framework density 23.083079999999999
#
# number of rings (size 3 to 8) (size 9 to 14) (size 15 to 20)
#    0.000    0.625    6.250    1.500    0.000    2.750 
#    2.250    2.500    0.000    6.000    0.000    0.000 
#    0.000    0.000    0.000    0.000    0.000    0.000 
#
# Total GULP energy -356766.755088 kJ/mol
# GULP energy per Si atom -5574.480548 kJ/mol
# Density = 2.303054 g / cm^3
# Si number density = 23.083080 Si / 1000 Ang^3
#
#
#
# Elastic Constant Matrix: (Units=GPa)
#
#
# Indices 1 2 3 4 5 6 
#
# 1 103.3075 44.1249 56.8950 0.0000 0.0000 0.0000
# 2 44.1249 157.0050 43.8019 0.0000 0.0000 0.0000
# 3 56.8950 43.8019 125.6418 0.0000 0.0000 0.0000
# 4 0.0000 0.0000 0.0000 75.8667 0.0000 0.0000
# 5 0.0000 0.0000 0.0000 0.0000 8.0261 0.0000
# 6 0.0000 0.0000 0.0000 0.0000 0.0000 16.0959
#
#
#
# Elastic Compliance Matrix: (Units=1/GPa)
#
#
# Indices 1 2 3 4 5 6 
#
# 1 0.013628 -0.002335 -0.005357 0.000000 0.000000 0.000000
# 2 -0.002335 0.007456 -0.001542 0.000000 0.000000 0.000000
# 3 -0.005357 -0.001542 0.010922 0.000000 0.000000 0.000000
# 4 0.000000 0.000000 0.000000 0.013181 0.000000 0.000000
# 5 0.000000 0.000000 0.000000 0.000000 0.124593 0.000000
# 6 0.000000 0.000000 0.000000 0.000000 0.000000 0.062128
#
#
# Mechanical properties :
#
#
# Convention : Reuss Voigt Hill
#
# Bulk Modulus (GPa) = 73.86776 75.06642 74.46709
# Shear Modulus (GPa) = 19.61650 36.07325 27.84487
#
# Velocity S-wave (km/s) = 2.91833 3.95746 3.47694
# Velocity P-wave (km/s) = 6.58983 7.31250 6.96055
#
# Compressibility (1/GPa) = 0.01353771
#
# Stress axis : x y z
#
# Youngs Moduli (GPa) = 73.38078 134.12593 91.55526
#
# Poissons Ratio (x) = 0.31324 0.49045
# Poissons Ratio (y) = 0.17138 0.14115
# Poissons Ratio (z) = 0.39309 0.20678
#
# Static dielectric constant tensor:
#      x y z
#    x 1.886760 0.000000 0.000000 
#    y 0.000000 1.964770 0.000000 
#    z 0.000000 0.000000 1.954840 
# 
# From -- ./inp_files/29246.got.cif
#   From: 2010.05.17/outbox.cif.g08.bks.cpg/sg50_15_cif.got.tgz:29246.got - 2010.06.03 11:33:33.
