data_PCOD9397870
_publ_section_title
;
Structure prediction by ZEFSAII (Michael W. Deem and Ramdas Pophale) SiO2 
 PCOD9397870
Probable space group: P B A N
;
_chemical_formula_sum "Si O2"
_cell_formula_units_Z 42
_cell_length_a 14.485532
_cell_length_b 15.384518
_cell_length_c 8.991472
_cell_angle_alpha 90.000000
_cell_angle_beta 90.000000
_cell_angle_gamma 90.000000
_cell_volume 2003.775860
_symmetry_space_group_name_H-M "P B A N"
_symmetry_group_IT_number 50
_space_group.IT_coordinate_system_code '2'
_symmetry_cell_setting 'orthorhombic'
loop_
_space_group_symop_operation_xyz
x,y,z
1/2-x,1/2-y,z
x,1/2-y,-z
1/2-x,y,-z
-x,-y,-z
1/2+x,1/2+y,-z
-x,1/2+y,z
1/2+x,-y,z
loop_
_atom_site_type_symbol
_atom_site_label
_atom_site_fract_x
_atom_site_fract_y
_atom_site_fract_z
Si Si1 0.792636 0.155486 0.811646
Si Si2 0.250000 0.250000 0.000000
Si Si3 0.617448 0.065383 0.689012
Si Si4 0.555802 0.354437 0.021613
Si Si5 0.041117 0.839244 0.416265
Si Si6 0.610950 0.874227 0.810535
O O1 0.750000 0.250000 0.841241
O O2 0.716748 0.109563 0.709966
O O3 0.883190 0.161021 0.711444
O O4 0.843081 0.117253 0.959339
O O5 0.313964 0.312258 0.892925
O O6 0.553076 0.114459 0.809738
O O7 0.568643 0.083419 0.530840
O O8 0.637108 0.967995 0.745043
O O9 0.551411 0.250000 0.000000
O O10 0.469147 0.391205 0.932700
O O11 0.053631 0.750000 0.500000
O O12 0.942903 0.835527 0.332568
#
# Coordination Sequence:
#
# PCOD9397870 Si02
#       6
#     8   2   8   8   8   8
#     4  11  21  36  64 105 141 174 209 274 355 424
#     4  12  28  52  74  88 140 196 262 292 328 408
#     4  12  23  39  70 103 140 170 227 286 346 426
#     4  11  21  40  66  99 135 178 221 278 352 414
#     4  11  23  44  70  98 142 180 220 280 366 424
#     4  11  27  47  66  96 131 191 239 286 339 403
#
# _framework density 20.960426999999999
#
# number of rings (size 3 to 8) (size 9 to 14) (size 15 to 20)
#    0.000    0.762    4.762    3.429    2.667    0.000 
#    0.000    4.286    0.000    0.000    0.000    0.000 
#    0.000    0.000    0.000    0.000    0.000    0.000 
#
# Total GULP energy -234178.898397 kJ/mol
# GULP energy per Si atom -5575.688057 kJ/mol
# Density = 2.091272 g / cm^3
# Si number density = 20.960427 Si / 1000 Ang^3
#
#
#
# Elastic Constant Matrix: (Units=GPa)
#
#
# Indices 1 2 3 4 5 6 
#
# 1 102.9141 29.3892 27.5456 0.0000 0.0000 0.0000
# 2 29.3892 83.4286 17.4649 0.0000 0.0000 0.0000
# 3 27.5456 17.4649 100.7772 0.0000 0.0000 0.0000
# 4 0.0000 0.0000 0.0000 25.0572 0.0000 0.0000
# 5 0.0000 0.0000 0.0000 0.0000 -28.6990 0.0000
# 6 0.0000 0.0000 0.0000 0.0000 0.0000 18.0876
#
#
#
# Elastic Compliance Matrix: (Units=1/GPa)
#
#
# Indices 1 2 3 4 5 6 
#
# 1 0.011383 -0.003485 -0.002507 0.000000 0.000000 0.000000
# 2 -0.003485 0.013504 -0.001388 0.000000 0.000000 0.000000
# 3 -0.002507 -0.001388 0.010849 0.000000 0.000000 0.000000
# 4 0.000000 0.000000 0.000000 0.039909 0.000000 0.000000
# 5 0.000000 0.000000 0.000000 0.000000 -0.034844 0.000000
# 6 0.000000 0.000000 0.000000 0.000000 0.000000 0.055286
#
#
# Mechanical properties :
#
#
# Convention : Reuss Voigt Hill
#
# Bulk Modulus (GPa) = 47.67366 48.43546 48.05456
# Shear Modulus (GPa) = 42.43059 17.07053 29.75056
#
# Velocity S-wave (km/s) = 4.50412 2.85690 3.77154
# Velocity P-wave (km/s) = 7.05999 5.83444 6.47627
#
# Compressibility (1/GPa) = 0.02097595
#
# Stress axis : x y z
#
# Youngs Moduli (GPa) = 87.84888 74.04953 92.17664
#
# Poissons Ratio (x) = 0.25806 0.23113
# Poissons Ratio (y) = 0.30616 0.12792
# Poissons Ratio (z) = 0.22027 0.10276
#
# Static dielectric constant tensor:
#      x y z
#    x 1.770200 0.000000 0.000000 
#    y 0.000000 1.804640 0.000000 
#    z 0.000000 0.000000 1.883080 
# 
# From -- ./inp_files/12611.got.cif
#   From: 2010.05.17/outbox.cif.g08.bks.cpg/sg50_7_cif.got.tgz:12611.got - 2010.06.03 11:33:33.
