data_PCOD9397981
_publ_section_title
;
Structure prediction by ZEFSAII (Michael W. Deem and Ramdas Pophale) SiO2 
 PCOD9397981
Probable space group: P B A N
;
_chemical_formula_sum "Si O2"
_cell_formula_units_Z 48
_cell_length_a 8.740560
_cell_length_b 18.506652
_cell_length_c 13.978035
_cell_angle_alpha 90.000000
_cell_angle_beta 90.000000
_cell_angle_gamma 90.000000
_cell_volume 2261.066005
_symmetry_space_group_name_H-M "P B A N"
_symmetry_group_IT_number 50
_space_group.IT_coordinate_system_code '2'
_symmetry_cell_setting 'orthorhombic'
loop_
_space_group_symop_operation_xyz
x,y,z
1/2-x,1/2-y,z
x,1/2-y,-z
1/2-x,y,-z
-x,-y,-z
1/2+x,1/2+y,-z
-x,1/2+y,z
1/2+x,-y,z
loop_
_atom_site_type_symbol
_atom_site_label
_atom_site_fract_x
_atom_site_fract_y
_atom_site_fract_z
Si Si1 0.432138 0.493464 0.698603
Si Si2 0.160799 0.410001 0.599232
Si Si3 0.411742 0.275024 0.288451
Si Si4 0.436276 0.636674 0.216680
Si Si5 0.398960 0.878967 0.155712
Si Si6 0.070081 0.420514 0.023711
O O1 0.283374 0.445759 0.672900
O O2 0.502015 0.546394 0.616988
O O3 0.563243 0.434406 0.718133
O O4 0.406433 0.541955 0.793522
O O5 0.250000 0.417990 0.500000
O O6 0.126464 0.325283 0.619967
O O7 0.250000 0.250000 0.248729
O O8 0.513091 0.202923 0.283640
O O9 0.492544 0.330505 0.219400
O O10 0.272709 0.648171 0.168619
O O11 0.546212 0.613351 0.128723
O O12 0.467636 0.875430 0.050666
O O13 0.250000 0.421836 0.000000
O O14 0.000000 0.500000 0.000000
#
# Coordination Sequence:
#
# PCOD9397981 Si02
#       6
#     8   8   8   8   8   8
#     4  11  22  40  70  99 132 175 229 292 351 417
#     4  11  24  44  71 102 135 177 235 294 360 432
#     4  11  24  42  67  95 135 184 224 279 359 424
#     4  12  23  42  65  97 144 180 231 287 349 418
#     4  11  24  42  67  98 135 184 234 283 346 409
#     4  12  25  38  65 102 139 183 243 288 333 407
#
# _framework density 21.228925
#
# number of rings (size 3 to 8) (size 9 to 14) (size 15 to 20)
#    0.000    0.667    5.000    3.500    2.333    1.000 
#    0.000    3.333    0.000    0.000    4.333    0.000 
#    0.000    0.000    0.000    0.000    0.000    0.000 
#
# Total GULP energy -267719.460139 kJ/mol
# GULP energy per Si atom -5577.488753 kJ/mol
# Density = 2.118061 g / cm^3
# Si number density = 21.228925 Si / 1000 Ang^3
#
#
#
# Elastic Constant Matrix: (Units=GPa)
#
#
# Indices 1 2 3 4 5 6 
#
# 1 66.9555 -4.5593 -16.2161 0.0000 0.0000 0.0000
# 2 -4.5593 88.4221 20.9228 0.0000 0.0000 0.0000
# 3 -16.2161 20.9228 58.5466 0.0000 0.0000 0.0000
# 4 0.0000 0.0000 0.0000 3.8075 0.0000 0.0000
# 5 0.0000 0.0000 0.0000 0.0000 24.7463 0.0000
# 6 0.0000 0.0000 0.0000 0.0000 0.0000 32.4794
#
#
#
# Elastic Compliance Matrix: (Units=1/GPa)
#
#
# Indices 1 2 3 4 5 6 
#
# 1 0.016014 -0.000244 0.004523 0.000000 0.000000 0.000000
# 2 -0.000244 0.012358 -0.004484 0.000000 0.000000 0.000000
# 3 0.004523 -0.004484 0.019936 0.000000 0.000000 0.000000
# 4 0.000000 0.000000 0.000000 0.262642 0.000000 0.000000
# 5 0.000000 0.000000 0.000000 0.000000 0.040410 0.000000
# 6 0.000000 0.000000 0.000000 0.000000 0.000000 0.030789
#
#
# Mechanical properties :
#
#
# Convention : Reuss Voigt Hill
#
# Bulk Modulus (GPa) = 20.87846 23.80210 22.34028
# Shear Modulus (GPa) = 12.54627 26.45842 19.50235
#
# Velocity S-wave (km/s) = 2.43368 3.53418 3.03424
# Velocity P-wave (km/s) = 4.21347 5.28113 4.77722
#
# Compressibility (1/GPa) = 0.04789626
#
# Stress axis : x y z
#
# Youngs Moduli (GPa) = 62.44512 80.92050 50.16149
#
# Poissons Ratio (x) = 0.01978 -0.22688
# Poissons Ratio (y) = 0.01527 0.22493
# Poissons Ratio (z) = -0.28243 0.36285
#
# Static dielectric constant tensor:
#      x y z
#    x 1.733420 0.000000 0.000000 
#    y 0.000000 1.813280 0.000000 
#    z 0.000000 0.000000 1.781040 
# 
# From -- ./inp_files/24983.got.cif
#   From: 2010.05.17/outbox.cif.g08.bks.cpg/sg50_13_cif.got.tgz:24983.got - 2010.06.03 11:33:33.
