data_PCOD9397652
_publ_section_title
;
Structure prediction by ZEFSAII (Michael W. Deem and Ramdas Pophale) SiO2 
 PCOD9397652
Probable space group: P B A N
;
_chemical_formula_sum "Si O2"
_cell_formula_units_Z 40
_cell_length_a 13.447511
_cell_length_b 9.813948
_cell_length_c 12.619743
_cell_angle_alpha 90.000000
_cell_angle_beta 90.000000
_cell_angle_gamma 90.000000
_cell_volume 1665.467535
_symmetry_space_group_name_H-M "P B A N"
_symmetry_group_IT_number 50
_space_group.IT_coordinate_system_code '2'
_symmetry_cell_setting 'orthorhombic'
loop_
_space_group_symop_operation_xyz
x,y,z
1/2-x,1/2-y,z
x,1/2-y,-z
1/2-x,y,-z
-x,-y,-z
1/2+x,1/2+y,-z
-x,1/2+y,z
1/2+x,-y,z
loop_
_atom_site_type_symbol
_atom_site_label
_atom_site_fract_x
_atom_site_fract_y
_atom_site_fract_z
Si Si1 0.314347 0.130910 0.890020
Si Si2 0.965126 0.372315 0.931893
Si Si3 0.298589 0.612526 0.267999
Si Si4 0.599417 0.496463 0.285911
Si Si5 0.991106 0.259759 0.375380
O O1 0.250000 0.250000 0.836071
O O2 0.426837 0.186494 0.898275
O O3 0.326465 0.993002 0.823689
O O4 0.250000 0.106608 0.000000
O O5 0.905809 0.443369 0.835801
O O6 0.916221 0.250000 0.000000
O O7 0.000000 0.500000 0.000000
O O8 0.250000 0.750000 0.222100
O O9 0.208400 0.539644 0.329047
O O10 0.388412 0.664890 0.340256
O O11 0.519263 0.395179 0.337856
O O12 0.571191 0.648929 0.314543
O O13 0.006052 0.250000 0.500000
#
# Coordination Sequence:
#
# PCOD9397652 Si02
#       5
#     8   8   8   8   8
#     4  11  22  40  61  93 136 183 231 278 343 411
#     4  12  24  40  65  99 139 187 235 284 345 421
#     4  10  24  42  64  96 133 180 223 286 347 414
#     4  11  24  42  69  97 138 179 231 286 349 412
#     4  11  24  46  71 101 133 178 232 293 351 415
#
# _framework density 24.017281000000001
#
# number of rings (size 3 to 8) (size 9 to 14) (size 15 to 20)
#    0.000    1.000    4.000    3.000    5.600    4.000 
#    0.000    0.000    0.000    1.200    0.000    0.000 
#    0.000    0.000    0.000    0.000    0.000    0.000 
#
# Total GULP energy -223428.935092 kJ/mol
# GULP energy per Si atom -5585.723377 kJ/mol
# Density = 2.396262 g / cm^3
# Si number density = 24.017281 Si / 1000 Ang^3
#
#
#
# Elastic Constant Matrix: (Units=GPa)
#
#
# Indices 1 2 3 4 5 6 
#
# 1 76.2404 -1.8354 -2.8454 0.0000 0.0000 0.0000
# 2 -1.8354 88.1793 42.2686 0.0000 0.0000 0.0000
# 3 -2.8454 42.2686 106.4239 0.0000 0.0000 0.0000
# 4 0.0000 0.0000 0.0000 -13.0183 0.0000 0.0000
# 5 0.0000 0.0000 0.0000 0.0000 6.2859 0.0000
# 6 0.0000 0.0000 0.0000 0.0000 0.0000 36.4240
#
#
#
# Elastic Compliance Matrix: (Units=1/GPa)
#
#
# Indices 1 2 3 4 5 6 
#
# 1 0.013131 0.000130 0.000300 0.000000 0.000000 0.000000
# 2 0.000130 0.014009 -0.005560 0.000000 0.000000 0.000000
# 3 0.000300 -0.005560 0.011613 0.000000 0.000000 0.000000
# 4 0.000000 0.000000 0.000000 -0.076815 0.000000 0.000000
# 5 0.000000 0.000000 0.000000 0.000000 0.159087 0.000000
# 6 0.000000 0.000000 0.000000 0.000000 0.000000 0.027454
#
#
# Mechanical properties :
#
#
# Convention : Reuss Voigt Hill
#
# Bulk Modulus (GPa) = 35.10014 38.44659 36.77336
# Shear Modulus (GPa) = 29.72002 21.48871 25.60436
#
# Velocity S-wave (km/s) = 3.52155 2.99443 3.26863
# Velocity P-wave (km/s) = 5.58402 5.29132 5.43964
#
# Compressibility (1/GPa) = 0.02848992
#
# Stress axis : x y z
#
# Youngs Moduli (GPa) = 76.15738 71.38492 86.11184
#
# Poissons Ratio (x) = -0.00926 -0.02579
# Poissons Ratio (y) = -0.00988 0.47881
# Poissons Ratio (z) = -0.02281 0.39692
#
# Static dielectric constant tensor:
#      x y z
#    x 1.692520 0.000000 0.000000 
#    y 0.000000 1.938910 0.000000 
#    z 0.000000 0.000000 1.972870 
# 
# From -- ./inp_files/24677.got.cif
#   From: 2010.05.17/outbox.cif.g08.bks.cpg/sg50_13_cif.got.tgz:24677.got - 2010.06.03 11:33:33.
