data_PCOD9397225
_publ_section_title
;
Structure prediction by ZEFSAII (Michael W. Deem and Ramdas Pophale) SiO2 
 PCOD9397225
Probable space group: P B A N
;
_chemical_formula_sum "Si O2"
_cell_formula_units_Z 22
_cell_length_a 9.224479
_cell_length_b 9.386248
_cell_length_c 9.453209
_cell_angle_alpha 90.000000
_cell_angle_beta 90.000000
_cell_angle_gamma 90.000000
_cell_volume 818.489535
_symmetry_space_group_name_H-M "P B A N"
_symmetry_group_IT_number 50
_space_group.IT_coordinate_system_code '2'
_symmetry_cell_setting 'orthorhombic'
loop_
_space_group_symop_operation_xyz
x,y,z
1/2-x,1/2-y,z
x,1/2-y,-z
1/2-x,y,-z
-x,-y,-z
1/2+x,1/2+y,-z
-x,1/2+y,z
1/2+x,-y,z
loop_
_atom_site_type_symbol
_atom_site_label
_atom_site_fract_x
_atom_site_fract_y
_atom_site_fract_z
Si Si1 0.009983 0.613769 0.310890
Si Si2 0.250000 0.043662 0.500000
Si Si3 0.973879 0.143431 0.875969
Si Si4 0.250000 0.250000 0.000000
O O1 0.141530 0.543059 0.395925
O O2 0.060746 0.768889 0.264083
O O3 0.865883 0.623927 0.402978
O O4 0.960793 0.521140 0.170391
O O5 0.911474 0.250000 0.000000
O O6 0.145073 0.156502 0.904783
#
# Coordination Sequence:
#
# PCOD9397225 Si02
#       4
#     8   4   8   2
#     4  11  23  44  64  96 131 163 222 252 320 377
#     4  10  26  40  68  92 130 180 202 268 306 378
#     4  10  22  40  66  95 125 168 206 271 312 381
#     4   8  20  36  64  90 120 168 204 236 330 372
#
# _framework density 26.878778000000001
#
# number of rings (size 3 to 8) (size 9 to 14) (size 15 to 20)
#    1.091    0.727    0.000    3.273    0.000   10.182 
#    0.000    1.818    0.000    0.000    0.000    0.000 
#    0.000    0.000    0.000    0.000    0.000    0.000 
#
# Total GULP energy -122845.955045 kJ/mol
# GULP energy per Si atom -5583.907047 kJ/mol
# Density = 2.681760 g / cm^3
# Si number density = 26.878778 Si / 1000 Ang^3
#
#
#
# Elastic Constant Matrix: (Units=GPa)
#
#
# Indices 1 2 3 4 5 6 
#
# 1 153.9936 7.0599 49.7324 0.0000 0.0000 0.0000
# 2 7.0599 107.5314 23.1373 0.0000 0.0000 0.0000
# 3 49.7324 23.1373 74.6181 0.0000 0.0000 0.0000
# 4 0.0000 0.0000 0.0000 52.3106 0.0000 0.0000
# 5 0.0000 0.0000 0.0000 0.0000 37.3313 0.0000
# 6 0.0000 0.0000 0.0000 0.0000 0.0000 13.9176
#
#
#
# Elastic Compliance Matrix: (Units=1/GPa)
#
#
# Indices 1 2 3 4 5 6 
#
# 1 0.008323 0.000693 -0.005762 0.000000 0.000000 0.000000
# 2 0.000693 0.010022 -0.003570 0.000000 0.000000 0.000000
# 3 -0.005762 -0.003570 0.018349 0.000000 0.000000 0.000000
# 4 0.000000 0.000000 0.000000 0.019117 0.000000 0.000000
# 5 0.000000 0.000000 0.000000 0.000000 0.026787 0.000000
# 6 0.000000 0.000000 0.000000 0.000000 0.000000 0.071852
#
#
# Mechanical properties :
#
#
# Convention : Reuss Voigt Hill
#
# Bulk Modulus (GPa) = 51.50152 55.11138 53.30645
# Shear Modulus (GPa) = 28.05856 37.79279 32.92568
#
# Velocity S-wave (km/s) = 3.23444 3.75380 3.50375
# Velocity P-wave (km/s) = 5.75769 6.27185 6.02027
#
# Compressibility (1/GPa) = 0.01941690
#
# Stress axis : x y z
#
# Youngs Moduli (GPa) = 120.15072 99.77864 54.49913
#
# Poissons Ratio (x) = -0.06919 0.31403
# Poissons Ratio (y) = -0.08331 0.19455
# Poissons Ratio (z) = 0.69233 0.35619
#
# Static dielectric constant tensor:
#      x y z
#    x 1.968190 0.000000 0.000000 
#    y 0.000000 2.164700 0.000000 
#    z 0.000000 0.000000 2.302000 
# 
# From -- ./inp_files/8424.got.cif
#   From: 2010.05.17/outbox.cif.g08.bks.cpg/sg50_5_cif.got.tgz:8424.got - 2010.06.03 11:33:33.
