data_PCOD9397265
_publ_section_title
;
Structure prediction by ZEFSAII (Michael W. Deem and Ramdas Pophale) SiO2 
 PCOD9397265
Probable space group: P B A N
;
_chemical_formula_sum "Si O2"
_cell_formula_units_Z 48
_cell_length_a 20.211691
_cell_length_b 9.344964
_cell_length_c 11.832158
_cell_angle_alpha 90.000000
_cell_angle_beta 90.000000
_cell_angle_gamma 90.000000
_cell_volume 2234.828716
_symmetry_space_group_name_H-M "P B A N"
_symmetry_group_IT_number 50
_space_group.IT_coordinate_system_code '2'
_symmetry_cell_setting 'orthorhombic'
loop_
_space_group_symop_operation_xyz
x,y,z
1/2-x,1/2-y,z
x,1/2-y,-z
1/2-x,y,-z
-x,-y,-z
1/2+x,1/2+y,-z
-x,1/2+y,z
1/2+x,-y,z
loop_
_atom_site_type_symbol
_atom_site_label
_atom_site_fract_x
_atom_site_fract_y
_atom_site_fract_z
Si Si1 0.581564 0.061560 0.880412
Si Si2 0.164440 0.991486 0.675715
Si Si3 0.953200 0.119908 0.865054
Si Si4 0.431220 0.081221 0.495598
Si Si5 0.250000 0.750000 0.670484
Si Si6 0.250000 0.250000 0.711570
Si Si7 0.845877 0.512838 0.285951
O O1 0.648687 0.033323 0.809108
O O2 0.552405 0.212741 0.835573
O O3 0.528286 0.934461 0.869854
O O4 0.583390 0.090277 0.014832
O O5 0.194206 0.850532 0.617666
O O6 0.095580 0.034071 0.625216
O O7 0.211970 0.123933 0.648367
O O8 0.912226 0.027183 0.777856
O O9 0.441520 0.250000 0.500000
O O10 0.373485 0.042355 0.587255
O O11 0.500000 0.000000 0.500000
O O12 0.205012 0.622377 0.725860
O O13 0.191298 0.346837 0.764454
#
# Coordination Sequence:
#
# PCOD9397265 Si02
#       7
#     8   8   8   8   4   4   8
#     4  10  22  41  66  94 126 164 206 261 318 367
#     4  11  23  44  65  94 128 161 215 253 310 372
#     4  10  22  41  66  94 126 164 206 261 318 367
#     4  12  28  43  66  94 128 165 203 264 319 360
#     4  10  24  41  65  96 122 172 207 253 306 374
#     4  10  24  41  67  88 128 172 207 253 306 372
#     4  11  23  44  65  94 128 161 215 253 310 372
#
# _framework density 21.478155999999998
#
# number of rings (size 3 to 8) (size 9 to 14) (size 15 to 20)
#    0.000    1.333    3.333    1.000    4.667    6.667 
#    0.000    5.000    0.000    0.000    0.000    0.000 
#    0.000    0.000    0.000    0.000    0.000    0.000 
#
# Total GULP energy -267216.723560 kJ/mol
# GULP energy per Si atom -5567.015074 kJ/mol
# Density = 2.142927 g / cm^3
# Si number density = 21.478156 Si / 1000 Ang^3
#
#
#
# Elastic Constant Matrix: (Units=GPa)
#
#
# Indices 1 2 3 4 5 6 
#
# 1 62.0156 30.3815 7.1061 0.0000 0.0000 0.0000
# 2 30.3815 152.3069 11.4204 0.0000 0.0000 0.0000
# 3 7.1061 11.4204 49.6540 0.0000 0.0000 0.0000
# 4 0.0000 0.0000 0.0000 11.2598 0.0000 0.0000
# 5 0.0000 0.0000 0.0000 0.0000 225.1603 0.0000
# 6 0.0000 0.0000 0.0000 0.0000 0.0000 37.1647
#
#
#
# Elastic Compliance Matrix: (Units=1/GPa)
#
#
# Indices 1 2 3 4 5 6 
#
# 1 0.018025 -0.003462 -0.001783 0.000000 0.000000 0.000000
# 2 -0.003462 0.007346 -0.001194 0.000000 0.000000 0.000000
# 3 -0.001783 -0.001194 0.020669 0.000000 0.000000 0.000000
# 4 0.000000 0.000000 0.000000 0.088812 0.000000 0.000000
# 5 0.000000 0.000000 0.000000 0.000000 0.004441 0.000000
# 6 0.000000 0.000000 0.000000 0.000000 0.000000 0.026907
#
#
# Mechanical properties :
#
#
# Convention : Reuss Voigt Hill
#
# Bulk Modulus (GPa) = 30.15542 40.19917 35.17730
# Shear Modulus (GPa) = 26.29739 69.05487 47.67613
#
# Velocity S-wave (km/s) = 3.50291 5.67636 4.71653
# Velocity P-wave (km/s) = 5.51643 7.85610 6.78783
#
# Compressibility (1/GPa) = 0.03316154
#
# Stress axis : x y z
#
# Youngs Moduli (GPa) = 55.47762 136.13246 48.38113
#
# Poissons Ratio (x) = 0.47127 0.08628
# Poissons Ratio (y) = 0.19206 0.05777
# Poissons Ratio (z) = 0.09894 0.16256
#
# Static dielectric constant tensor:
#      x y z
#    x 1.789630 0.000000 0.000000 
#    y 0.000000 1.769480 0.000000 
#    z 0.000000 0.000000 1.837540 
# 
# From -- ./inp_files/26903.got.cif
#   From: 2010.05.17/outbox.cif.g08.bks.cpg/sg50_14_cif.got.tgz:26903.got - 2010.06.03 11:33:33.
