data_PCOD9397257
_publ_section_title
;
Structure prediction by ZEFSAII (Michael W. Deem and Ramdas Pophale) SiO2 
 PCOD9397257
Probable space group: P B A N
;
_chemical_formula_sum "Si O2"
_cell_formula_units_Z 58
_cell_length_a 27.594347
_cell_length_b 11.140050
_cell_length_c 8.446702
_cell_angle_alpha 90.000000
_cell_angle_beta 90.000000
_cell_angle_gamma 90.000000
_cell_volume 2596.536512
_symmetry_space_group_name_H-M "P B A N"
_symmetry_group_IT_number 50
_space_group.IT_coordinate_system_code '2'
_symmetry_cell_setting 'orthorhombic'
loop_
_space_group_symop_operation_xyz
x,y,z
1/2-x,1/2-y,z
x,1/2-y,-z
1/2-x,y,-z
-x,-y,-z
1/2+x,1/2+y,-z
-x,1/2+y,z
1/2+x,-y,z
loop_
_atom_site_type_symbol
_atom_site_label
_atom_site_fract_x
_atom_site_fract_y
_atom_site_fract_z
Si Si1 0.397824 0.553554 0.263308
Si Si2 0.698408 0.936132 0.332331
Si Si3 0.250000 0.250000 0.500000
Si Si4 0.630069 0.462689 0.112505
Si Si5 0.451871 0.318035 0.340313
Si Si6 0.357074 0.271701 0.823106
Si Si7 0.731051 0.376490 0.179451
Si Si8 0.946965 0.209597 0.182507
O O1 0.347600 0.521866 0.348907
O O2 0.437146 0.458295 0.328183
O O3 0.419242 0.685875 0.277416
O O4 0.383066 0.531896 0.075863
O O5 0.709172 0.855472 0.483122
O O6 0.685355 0.825220 0.210419
O O7 0.743196 0.015776 0.273653
O O8 0.651962 0.587405 0.174219
O O9 0.673298 0.372209 0.156186
O O10 0.581507 0.416003 0.196492
O O11 0.466332 0.250000 0.500000
O O12 0.401492 0.256603 0.290307
O O13 0.497185 0.299799 0.225425
O O14 0.375619 0.250000 0.000000
O O15 0.750000 0.250000 0.244481
O O16 0.750000 0.390131 0.000000
O O17 0.942562 0.250000 0.000000
#
# Coordination Sequence:
#
# PCOD9397257 Si02
#       8
#     8   8   2   8   8   8   8   8
#     4  10  22  41  65  91 129 167 217 276 326 396
#     4  11  23  42  61  96 132 173 221 265 332 395
#     4  12  28  40  64  92 140 188 222 266 340 392
#     4  11  21  39  64 102 126 165 216 281 332 393
#     4  11  25  42  63  93 128 175 215 270 337 407
#     4  11  21  41  69  94 130 162 222 281 336 385
#     4  11  21  37  68  98 134 169 215 279 341 403
#     4  10  24  40  67  93 130 167 218 271 337 399
#
# _framework density 22.337447000000001
#
# number of rings (size 3 to 8) (size 9 to 14) (size 15 to 20)
#    0.000    1.241    4.138    2.069    9.655    1.655 
#    0.000    0.345    0.000    0.000    0.000    0.000 
#    0.000    0.000    0.000    0.000    0.000    0.000 
#
# Total GULP energy -323085.765969 kJ/mol
# GULP energy per Si atom -5570.444241 kJ/mol
# Density = 2.228661 g / cm^3
# Si number density = 22.337447 Si / 1000 Ang^3
#
#
#
# Elastic Constant Matrix: (Units=GPa)
#
#
# Indices 1 2 3 4 5 6 
#
# 1 95.0202 30.0258 49.6815 0.0000 0.0000 0.0000
# 2 30.0258 91.4401 24.1741 0.0000 0.0000 0.0000
# 3 49.6815 24.1741 101.5901 0.0000 0.0000 0.0000
# 4 0.0000 0.0000 0.0000 14.8525 0.0000 0.0000
# 5 0.0000 0.0000 0.0000 0.0000 17.6928 0.0000
# 6 0.0000 0.0000 0.0000 0.0000 0.0000 -4.9645
#
#
#
# Elastic Compliance Matrix: (Units=1/GPa)
#
#
# Indices 1 2 3 4 5 6 
#
# 1 0.014957 -0.003178 -0.006559 0.000000 0.000000 0.000000
# 2 -0.003178 0.012345 -0.001384 0.000000 0.000000 0.000000
# 3 -0.006559 -0.001384 0.013380 0.000000 0.000000 0.000000
# 4 0.000000 0.000000 0.000000 0.067329 0.000000 0.000000
# 5 0.000000 0.000000 0.000000 0.000000 0.056520 0.000000
# 6 0.000000 0.000000 0.000000 0.000000 0.000000 -0.201429
#
#
# Mechanical properties :
#
#
# Convention : Reuss Voigt Hill
#
# Bulk Modulus (GPa) = 54.22087 55.09035 54.65561
# Shear Modulus (GPa) = -587.57900 17.79408 -284.89246
#
# Velocity S-wave (km/s) = -16.23631 2.82548 -11.30563
# Velocity P-wave (km/s) = 18.08768 5.94649 12.07897
#
# Compressibility (1/GPa) = 0.01844308
#
# Stress axis : x y z
#
# Youngs Moduli (GPa) = 66.85671 81.00223 74.73758
#
# Poissons Ratio (x) = 0.25739 0.49017
# Poissons Ratio (y) = 0.21244 0.10341
# Poissons Ratio (z) = 0.43849 0.11208
#
# Static dielectric constant tensor:
#      x y z
#    x 1.792280 0.000000 0.000000 
#    y 0.000000 1.892450 0.000000 
#    z 0.000000 0.000000 1.899790 
# 
# From -- ./inp_files/16540.got.cif
#   From: 2010.05.17/outbox.cif.g08.bks.cpg/sg50_9_cif.got.tgz:16540.got - 2010.06.03 11:33:33.
