data_PCOD9397308
_publ_section_title
;
Structure prediction by ZEFSAII (Michael W. Deem and Ramdas Pophale) SiO2 
 PCOD9397308
Probable space group: P B A N
;
_chemical_formula_sum "Si O2"
_cell_formula_units_Z 56
_cell_length_a 8.879872
_cell_length_b 21.951903
_cell_length_c 13.836470
_cell_angle_alpha 90.000000
_cell_angle_beta 90.000000
_cell_angle_gamma 90.000000
_cell_volume 2697.144326
_symmetry_space_group_name_H-M "P B A N"
_symmetry_group_IT_number 50
_space_group.IT_coordinate_system_code '2'
_symmetry_cell_setting 'orthorhombic'
loop_
_space_group_symop_operation_xyz
x,y,z
1/2-x,1/2-y,z
x,1/2-y,-z
1/2-x,y,-z
-x,-y,-z
1/2+x,1/2+y,-z
-x,1/2+y,z
1/2+x,-y,z
loop_
_atom_site_type_symbol
_atom_site_label
_atom_site_fract_x
_atom_site_fract_y
_atom_site_fract_z
Si Si1 0.217688 0.429028 0.298926
Si Si2 0.567906 0.358555 0.757876
Si Si3 0.068329 0.248769 0.886047
Si Si4 0.565295 0.881920 0.144871
Si Si5 0.250000 0.127426 0.500000
Si Si6 0.750000 0.551289 0.000000
Si Si7 0.091204 0.818153 0.457594
Si Si8 0.213158 0.959357 0.819967
O O1 0.298656 0.386960 0.219311
O O2 0.271508 0.411722 0.404026
O O3 0.243159 0.498721 0.272069
O O4 0.046489 0.409906 0.281783
O O5 0.497913 0.308055 0.828683
O O6 0.612817 0.324304 0.658425
O O7 0.685064 0.399437 0.817907
O O8 0.250000 0.250000 0.874190
O O9 0.005795 0.313760 0.850262
O O10 0.037259 0.250000 0.000000
O O11 0.620503 0.903042 0.038270
O O12 0.452953 0.933333 0.179600
O O13 0.416713 0.159568 0.482577
O O14 0.723829 0.505698 0.089456
O O15 0.090662 0.750000 0.500000
O O16 0.250000 0.846645 0.500000
#
# Coordination Sequence:
#
# PCOD9397308 Si02
#       8
#     8   8   8   8   4   4   8   8
#     4  10  22  44  66  98 130 177 225 280 341 422
#     4  11  25  45  67 103 138 177 231 291 350 416
#     4  11  24  41  69  98 140 180 230 286 341 424
#     4  11  23  39  69  94 129 179 228 274 337 408
#     4  10  23  42  74 100 138 179 236 286 368 422
#     4  10  22  42  67  95 138 182 230 274 334 418
#     4  10  24  43  71 101 140 184 237 293 356 433
#     4  11  25  41  67  98 136 177 228 284 342 413
#
# _framework density 20.762699000000001
#
# number of rings (size 3 to 8) (size 9 to 14) (size 15 to 20)
#    0.000    1.429    1.429    3.214    8.000    1.714 
#    1.286    2.857    0.000    0.000    0.000    0.000 
#    0.000    0.000    0.000    0.000    0.000    0.000 
#
# Total GULP energy -311987.563440 kJ/mol
# GULP energy per Si atom -5571.206490 kJ/mol
# Density = 2.071544 g / cm^3
# Si number density = 20.762699 Si / 1000 Ang^3
#
#
#
# Elastic Constant Matrix: (Units=GPa)
#
#
# Indices 1 2 3 4 5 6 
#
# 1 66.1649 24.4157 30.1033 0.0000 0.0000 0.0000
# 2 24.4157 126.3853 49.8071 0.0000 0.0000 0.0000
# 3 30.1033 49.8071 117.6451 0.0000 0.0000 0.0000
# 4 0.0000 0.0000 0.0000 24.9639 0.0000 0.0000
# 5 0.0000 0.0000 0.0000 0.0000 6.9200 0.0000
# 6 0.0000 0.0000 0.0000 0.0000 0.0000 35.0543
#
#
#
# Elastic Compliance Matrix: (Units=1/GPa)
#
#
# Indices 1 2 3 4 5 6 
#
# 1 0.017492 -0.001939 -0.003655 0.000000 0.000000 0.000000
# 2 -0.001939 0.009712 -0.003616 0.000000 0.000000 0.000000
# 3 -0.003655 -0.003616 0.010966 0.000000 0.000000 0.000000
# 4 0.000000 0.000000 0.000000 0.040058 0.000000 0.000000
# 5 0.000000 0.000000 0.000000 0.000000 0.144508 0.000000
# 6 0.000000 0.000000 0.000000 0.000000 0.000000 0.028527
#
#
# Mechanical properties :
#
#
# Convention : Reuss Voigt Hill
#
# Bulk Modulus (GPa) = 50.62995 57.64970 54.13983
# Shear Modulus (GPa) = 18.09853 27.11226 22.60540
#
# Velocity S-wave (km/s) = 2.95563 3.61753 3.30320
# Velocity P-wave (km/s) = 6.00714 6.72867 6.37811
#
# Compressibility (1/GPa) = 0.01975116
#
# Stress axis : x y z
#
# Youngs Moduli (GPa) = 57.16845 102.96870 91.18999
#
# Poissons Ratio (x) = 0.19963 0.33331
# Poissons Ratio (y) = 0.11084 0.32970
# Poissons Ratio (z) = 0.20896 0.37229
#
# Static dielectric constant tensor:
#      x y z
#    x 1.810990 0.000000 0.000000 
#    y 0.000000 1.729070 0.000000 
#    z 0.000000 0.000000 1.744730 
# 
# From -- ./inp_files/25306.got.cif
#   From: 2010.05.17/outbox.cif.g08.bks.cpg/sg50_13_cif.got.tgz:25306.got - 2010.06.03 11:33:33.
