data_PCOD9397659
_publ_section_title
;
Structure prediction by ZEFSAII (Michael W. Deem and Ramdas Pophale) SiO2 
 PCOD9397659
Probable space group: P B A N
;
_chemical_formula_sum "Si O2"
_cell_formula_units_Z 48
_cell_length_a 9.381097
_cell_length_b 15.052352
_cell_length_c 16.185188
_cell_angle_alpha 90.000000
_cell_angle_beta 90.000000
_cell_angle_gamma 90.000000
_cell_volume 2285.471135
_symmetry_space_group_name_H-M "P B A N"
_symmetry_group_IT_number 50
_space_group.IT_coordinate_system_code '2'
_symmetry_cell_setting 'orthorhombic'
loop_
_space_group_symop_operation_xyz
x,y,z
1/2-x,1/2-y,z
x,1/2-y,-z
1/2-x,y,-z
-x,-y,-z
1/2+x,1/2+y,-z
-x,1/2+y,z
1/2+x,-y,z
loop_
_atom_site_type_symbol
_atom_site_label
_atom_site_fract_x
_atom_site_fract_y
_atom_site_fract_z
Si Si1 0.016405 0.420920 0.153801
Si Si2 0.679283 0.564867 0.911457
Si Si3 0.250000 0.250000 0.315773
Si Si4 0.888274 0.424575 0.336024
Si Si5 0.814590 0.931863 0.408965
Si Si6 0.012132 0.218883 0.178001
Si Si7 0.750000 0.250000 0.720883
O O1 0.919621 0.478367 0.092685
O O2 0.957209 0.439544 0.245588
O O3 0.002567 0.315949 0.136870
O O4 0.182965 0.444290 0.147764
O O5 0.580661 0.645575 0.880518
O O6 0.750000 0.580951 0.000000
O O7 0.222908 0.336532 0.369961
O O8 0.381816 0.268115 0.255185
O O9 0.761260 0.491470 0.355675
O O10 0.831498 0.323525 0.332527
O O11 0.015005 0.439187 0.401381
O O12 0.750000 0.937414 0.500000
O O13 0.859817 0.198653 0.218759
#
# Coordination Sequence:
#
# PCOD9397659 Si02
#       7
#     8   8   4   8   8   8   4
#     4  11  23  44  69 101 134 185 242 274 346 429
#     4  12  26  44  69 105 144 182 227 301 356 408
#     4  12  21  46  67  98 132 188 238 286 341 438
#     4  11  24  45  70 100 135 187 234 288 344 432
#     4  12  26  43  68 104 141 180 233 298 362 411
#     4  11  23  43  72  98 133 187 241 282 348 424
#     4  10  24  42  71 105 130 178 254 286 328 418
#
# _framework density 21.002234000000001
#
# number of rings (size 3 to 8) (size 9 to 14) (size 15 to 20)
#    0.000    0.667    5.000    3.250    9.333    1.333 
#    0.000    0.417    0.000    0.000    0.000    0.000 
#    0.000    0.000    0.000    0.000    0.000    0.000 
#
# Total GULP energy -268593.254993 kJ/mol
# GULP energy per Si atom -5595.692812 kJ/mol
# Density = 2.095443 g / cm^3
# Si number density = 21.002234 Si / 1000 Ang^3
#
#
#
# Elastic Constant Matrix: (Units=GPa)
#
#
# Indices 1 2 3 4 5 6 
#
# 1 128.0947 29.7532 22.0392 0.0000 0.0000 0.0000
# 2 29.7532 68.6060 6.6095 0.0000 0.0000 0.0000
# 3 22.0392 6.6095 70.7517 0.0000 0.0000 0.0000
# 4 0.0000 0.0000 0.0000 70.7840 0.0000 0.0000
# 5 0.0000 0.0000 0.0000 0.0000 -16.3634 0.0000
# 6 0.0000 0.0000 0.0000 0.0000 0.0000 41.4713
#
#
#
# Elastic Compliance Matrix: (Units=1/GPa)
#
#
# Indices 1 2 3 4 5 6 
#
# 1 0.009095 -0.003705 -0.002487 0.000000 0.000000 0.000000
# 2 -0.003705 0.016217 -0.000361 0.000000 0.000000 0.000000
# 3 -0.002487 -0.000361 0.014942 0.000000 0.000000 0.000000
# 4 0.000000 0.000000 0.000000 0.014127 0.000000 0.000000
# 5 0.000000 0.000000 0.000000 0.000000 -0.061112 0.000000
# 6 0.000000 0.000000 0.000000 0.000000 0.000000 0.024113
#
#
# Mechanical properties :
#
#
# Convention : Reuss Voigt Hill
#
# Bulk Modulus (GPa) = 36.83324 42.69511 39.76418
# Shear Modulus (GPa) = 126.45743 33.11507 79.78625
#
# Velocity S-wave (km/s) = 7.76802 3.97513 6.17024
# Velocity P-wave (km/s) = 9.90111 6.43753 8.35086
#
# Compressibility (1/GPa) = 0.02714939
#
# Stress axis : x y z
#
# Youngs Moduli (GPa) = 109.94848 61.66185 66.92374
#
# Poissons Ratio (x) = 0.22845 0.16644
# Poissons Ratio (y) = 0.40734 0.02416
# Poissons Ratio (z) = 0.27345 0.02226
#
# Static dielectric constant tensor:
#      x y z
#    x 1.764570 0.000000 0.000000 
#    y 0.000000 1.743510 0.000000 
#    z 0.000000 0.000000 1.760640 
# 
# From -- ./inp_files/28761.got.cif
#   From: 2010.05.17/outbox.cif.g08.bks.cpg/sg50_15_cif.got.tgz:28761.got - 2010.06.03 11:33:33.
