data_PCOD9397516
_publ_section_title
;
Structure prediction by ZEFSAII (Michael W. Deem and Ramdas Pophale) SiO2 
 PCOD9397516
Probable space group: P B A N
;
_chemical_formula_sum "Si O2"
_cell_formula_units_Z 56
_cell_length_a 16.049509
_cell_length_b 11.227731
_cell_length_c 14.534071
_cell_angle_alpha 90.000000
_cell_angle_beta 90.000000
_cell_angle_gamma 90.000000
_cell_volume 2619.033341
_symmetry_space_group_name_H-M "P B A N"
_symmetry_group_IT_number 50
_space_group.IT_coordinate_system_code '2'
_symmetry_cell_setting 'orthorhombic'
loop_
_space_group_symop_operation_xyz
x,y,z
1/2-x,1/2-y,z
x,1/2-y,-z
1/2-x,y,-z
-x,-y,-z
1/2+x,1/2+y,-z
-x,1/2+y,z
1/2+x,-y,z
loop_
_atom_site_type_symbol
_atom_site_label
_atom_site_fract_x
_atom_site_fract_y
_atom_site_fract_z
Si Si1 0.151296 0.782834 0.370729
Si Si2 0.848597 0.239839 0.841508
Si Si3 0.911438 0.049995 0.468822
Si Si4 0.777997 0.889449 0.401132
Si Si5 0.418652 0.998885 0.121592
Si Si6 0.744473 0.891848 0.798633
Si Si7 0.103685 0.503383 0.911322
O O1 0.250000 0.750000 0.380994
O O2 0.133260 0.801946 0.263093
O O3 0.129031 0.892828 0.437491
O O4 0.098776 0.666132 0.403221
O O5 0.750000 0.250000 0.847928
O O6 0.888358 0.365431 0.862300
O O7 0.877866 0.142872 0.913652
O O8 0.871662 0.938547 0.411401
O O9 0.000000 0.000000 0.500000
O O10 0.750000 0.750000 0.400846
O O11 0.750000 0.936320 0.500000
O O12 0.742341 0.937843 0.305728
O O13 0.516662 0.995947 0.143366
O O14 0.350126 0.075437 0.175353
O O15 0.410164 0.039959 0.015136
O O16 0.750000 0.750000 0.799887
O O17 0.815847 0.944329 0.864114
#
# Coordination Sequence:
#
# PCOD9397516 Si02
#       7
#     8   8   8   8   8   8   8
#     4  10  23  42  65  93 128 180 222 274 354 397
#     4  11  23  42  70  98 131 177 232 287 338 413
#     4  11  23  40  63  96 134 172 226 285 333 407
#     4  10  23  43  67  94 133 178 220 276 337 399
#     4  11  25  45  68 102 144 176 231 287 349 410
#     4  11  25  46  70 101 138 185 231 281 346 416
#     4  11  26  43  69 103 137 187 224 289 351 407
#
# _framework density 21.381934000000001
#
# number of rings (size 3 to 8) (size 9 to 14) (size 15 to 20)
#    0.000    1.286    1.429    3.429    6.000    6.286 
#    2.571    0.000    0.000    0.000    0.000    0.000 
#    0.000    0.000    0.000    0.000    0.000    0.000 
#
# Total GULP energy -312213.343391 kJ/mol
# GULP energy per Si atom -5575.238275 kJ/mol
# Density = 2.133327 g / cm^3
# Si number density = 21.381934 Si / 1000 Ang^3
#
#
#
# Elastic Constant Matrix: (Units=GPa)
#
#
# Indices 1 2 3 4 5 6 
#
# 1 72.4114 39.7064 17.6378 0.0000 0.0000 0.0000
# 2 39.7064 95.0396 -0.2980 0.0000 0.0000 0.0000
# 3 17.6378 -0.2980 65.4664 0.0000 0.0000 0.0000
# 4 0.0000 0.0000 0.0000 26.5490 0.0000 0.0000
# 5 0.0000 0.0000 0.0000 0.0000 153.2206 0.0000
# 6 0.0000 0.0000 0.0000 0.0000 0.0000 26.6708
#
#
#
# Elastic Compliance Matrix: (Units=1/GPa)
#
#
# Indices 1 2 3 4 5 6 
#
# 1 0.019607 -0.008208 -0.005320 0.000000 0.000000 0.000000
# 2 -0.008208 0.013958 0.002275 0.000000 0.000000 0.000000
# 3 -0.005320 0.002275 0.016719 0.000000 0.000000 0.000000
# 4 0.000000 0.000000 0.000000 0.037666 0.000000 0.000000
# 5 0.000000 0.000000 0.000000 0.000000 0.006527 0.000000
# 6 0.000000 0.000000 0.000000 0.000000 0.000000 0.037494
#
#
# Mechanical properties :
#
#
# Convention : Reuss Voigt Hill
#
# Bulk Modulus (GPa) = 36.00001 38.55664 37.27833
# Shear Modulus (GPa) = 30.53707 53.01283 41.77495
#
# Velocity S-wave (km/s) = 3.78322 4.98469 4.42492
# Velocity P-wave (km/s) = 5.99640 7.15548 6.60143
#
# Compressibility (1/GPa) = 0.02777777
#
# Stress axis : x y z
#
# Youngs Moduli (GPa) = 51.00325 71.64197 59.81360
#
# Poissons Ratio (x) = 0.58804 0.31819
# Poissons Ratio (y) = 0.41864 -0.13607
# Poissons Ratio (z) = 0.27132 -0.16298
#
# Static dielectric constant tensor:
#      x y z
#    x -2.174970 0.000000 0.000000 
#    y 0.000000 1.765880 0.000000 
#    z 0.000000 0.000000 1.831300 
# 
# From -- ./inp_files/26497.got.cif
#   From: 2010.05.17/outbox.cif.g08.bks.cpg/sg50_14_cif.got.tgz:26497.got - 2010.06.03 11:33:33.
