data_PCOD9397414
_publ_section_title
;
Structure prediction by ZEFSAII (Michael W. Deem and Ramdas Pophale) SiO2 
 PCOD9397414
Probable space group: P B A N
;
_chemical_formula_sum "Si O2"
_cell_formula_units_Z 30
_cell_length_a 19.364747
_cell_length_b 11.323698
_cell_length_c 5.818366
_cell_angle_alpha 90.000000
_cell_angle_beta 90.000000
_cell_angle_gamma 90.000000
_cell_volume 1275.854478
_symmetry_space_group_name_H-M "P B A N"
_symmetry_group_IT_number 50
_space_group.IT_coordinate_system_code '2'
_symmetry_cell_setting 'orthorhombic'
loop_
_space_group_symop_operation_xyz
x,y,z
1/2-x,1/2-y,z
x,1/2-y,-z
1/2-x,y,-z
-x,-y,-z
1/2+x,1/2+y,-z
-x,1/2+y,z
1/2+x,-y,z
loop_
_atom_site_type_symbol
_atom_site_label
_atom_site_fract_x
_atom_site_fract_y
_atom_site_fract_z
Si Si1 0.357205 0.639527 0.673738
Si Si2 0.655703 0.685787 0.755911
Si Si3 0.492660 0.123291 0.639129
Si Si4 0.750000 0.250000 0.000000
Si Si5 0.750000 0.960146 0.500000
O O1 0.358579 0.750000 0.500000
O O2 0.433961 0.624335 0.771440
O O3 0.300609 0.668969 0.859212
O O4 0.320570 0.531373 0.546026
O O5 0.653090 0.750000 0.500000
O O6 0.580713 0.621119 0.764957
O O7 0.726170 0.613130 0.720825
O O8 0.658076 0.750000 0.000000
O O9 0.492975 0.250000 0.500000
O O10 0.500000 0.000000 0.500000
#
# Coordination Sequence:
#
# PCOD9397414 Si02
#       5
#     8   8   8   2   4
#     4  11  23  43  65 108 149 193 258 323 397 481
#     4  11  27  49  73 111 153 205 264 328 395 476
#     4  10  22  46  74 105 152 204 259 324 396 476
#     4  12  22  36  68 106 154 196 248 340 400 484
#     4  12  22  46  76  98 156 198 266 326 402 480
#
# _framework density 23.513653999999999
#
# number of rings (size 3 to 8) (size 9 to 14) (size 15 to 20)
#    0.000    1.067    5.333    0.400    1.867    4.267 
#    0.000    5.333    0.000    0.000    0.000    0.000 
#    0.000    0.000    0.000    0.000    0.000    0.000 
#
# Total GULP energy -167174.516566 kJ/mol
# GULP energy per Si atom -5572.483886 kJ/mol
# Density = 2.346014 g / cm^3
# Si number density = 23.513654 Si / 1000 Ang^3
#
#
#
# Elastic Constant Matrix: (Units=GPa)
#
#
# Indices 1 2 3 4 5 6 
#
# 1 225.8453 40.4163 52.4630 0.0000 0.0000 0.0000
# 2 40.4163 105.6544 42.3571 0.0000 0.0000 0.0000
# 3 52.4630 42.3571 102.7966 0.0000 0.0000 0.0000
# 4 0.0000 0.0000 0.0000 24.9537 0.0000 0.0000
# 5 0.0000 0.0000 0.0000 0.0000 45.6124 0.0000
# 6 0.0000 0.0000 0.0000 0.0000 0.0000 -215.6027
#
#
#
# Elastic Compliance Matrix: (Units=1/GPa)
#
#
# Indices 1 2 3 4 5 6 
#
# 1 0.005127 -0.001093 -0.002166 0.000000 0.000000 0.000000
# 2 -0.001093 0.011571 -0.004210 0.000000 0.000000 0.000000
# 3 -0.002166 -0.004210 0.012568 0.000000 0.000000 0.000000
# 4 0.000000 0.000000 0.000000 0.040074 0.000000 0.000000
# 5 0.000000 0.000000 0.000000 0.000000 0.021924 0.000000
# 6 0.000000 0.000000 0.000000 0.000000 0.000000 -0.004638
#
#
# Mechanical properties :
#
#
# Convention : Reuss Voigt Hill
#
# Bulk Modulus (GPa) = 69.79473 78.30767 74.05120
# Shear Modulus (GPa) = 47.01954 -9.07000 18.97477
#
# Velocity S-wave (km/s) = 4.47662 -1.96614 2.84380
# Velocity P-wave (km/s) = 7.51447 5.31235 6.50724
#
# Compressibility (1/GPa) = 0.01432773
#
# Stress axis : x y z
#
# Youngs Moduli (GPa) = 195.06358 86.42596 79.56606
#
# Poissons Ratio (x) = 0.09443 0.17235
# Poissons Ratio (y) = 0.21314 0.33497
# Poissons Ratio (z) = 0.42253 0.36385
#
# Static dielectric constant tensor:
#      x y z
#    x 1.872100 0.000000 0.000000 
#    y 0.000000 2.318930 0.000000 
#    z 0.000000 0.000000 1.694500 
# 
# From -- ./inp_files/4891.got.cif
#   From: 2010.05.17/outbox.cif.g08.bks.cpg/sg50_3_cif.got.tgz:4891.got - 2010.06.03 11:33:33.
