data_PCOD9397062
_publ_section_title
;
Structure prediction by ZEFSAII (Michael W. Deem and Ramdas Pophale) SiO2 
 PCOD9397062
Probable space group: P B A N
;
_chemical_formula_sum "Si O2"
_cell_formula_units_Z 40
_cell_length_a 14.809494
_cell_length_b 15.660691
_cell_length_c 6.779814
_cell_angle_alpha 90.000000
_cell_angle_beta 90.000000
_cell_angle_gamma 90.000000
_cell_volume 1572.421307
_symmetry_space_group_name_H-M "P B A N"
_symmetry_group_IT_number 50
_space_group.IT_coordinate_system_code '2'
_symmetry_cell_setting 'orthorhombic'
loop_
_space_group_symop_operation_xyz
x,y,z
1/2-x,1/2-y,z
x,1/2-y,-z
1/2-x,y,-z
-x,-y,-z
1/2+x,1/2+y,-z
-x,1/2+y,z
1/2+x,-y,z
loop_
_atom_site_type_symbol
_atom_site_label
_atom_site_fract_x
_atom_site_fract_y
_atom_site_fract_z
Si Si1 0.892672 0.315631 0.234971
Si Si2 0.046981 0.094817 0.999760
Si Si3 0.830475 0.948872 0.332680
Si Si4 0.708758 0.140820 0.716489
Si Si5 0.530685 0.655663 0.555058
O O1 0.979440 0.341122 0.112174
O O2 0.852448 0.219954 0.215402
O O3 0.046504 0.132849 0.219014
O O4 0.931886 0.337987 0.453549
O O5 0.805805 0.130210 0.826607
O O6 0.143951 0.092261 0.883862
O O7 0.000000 0.000000 0.000000
O O8 0.750000 0.932432 0.500000
O O9 0.918822 0.919899 0.446728
O O10 0.832497 0.048434 0.288935
O O11 0.750000 0.161571 0.500000
O O12 0.569695 0.750000 0.500000
#
# Coordination Sequence:
#
# PCOD9397062 Si02
#       5
#     8   8   8   8   8
#     4  10  23  46  77 110 163 201 263 337 435 510
#     4  11  28  47  77 118 156 215 280 336 419 523
#     4  10  26  48  79 109 161 208 273 347 418 497
#     4  10  21  44  78 116 156 209 255 342 428 507
#     4  11  26  50  78 108 156 217 273 342 411 502
#
# _framework density 25.438475
#
# number of rings (size 3 to 8) (size 9 to 14) (size 15 to 20)
#    0.000    1.600    0.000    2.400   14.000    6.000 
#    0.000    4.000    4.400    4.800    0.000    0.000 
#    0.000    0.000    0.000    0.000    0.000    0.000 
#
# Total GULP energy -223219.762365 kJ/mol
# GULP energy per Si atom -5580.494059 kJ/mol
# Density = 2.538058 g / cm^3
# Si number density = 25.438475 Si / 1000 Ang^3
#
#
#
# Elastic Constant Matrix: (Units=GPa)
#
#
# Indices 1 2 3 4 5 6 
#
# 1 154.1883 92.9587 53.9030 0.0000 0.0000 0.0000
# 2 92.9587 158.6947 57.6748 0.0000 0.0000 0.0000
# 3 53.9030 57.6748 185.6828 0.0000 0.0000 0.0000
# 4 0.0000 0.0000 0.0000 46.8696 0.0000 0.0000
# 5 0.0000 0.0000 0.0000 0.0000 58.4846 0.0000
# 6 0.0000 0.0000 0.0000 0.0000 0.0000 40.6026
#
#
#
# Elastic Compliance Matrix: (Units=1/GPa)
#
#
# Indices 1 2 3 4 5 6 
#
# 1 0.010280 -0.005565 -0.001256 0.000000 0.000000 0.000000
# 2 -0.005565 0.010116 -0.001527 0.000000 0.000000 0.000000
# 3 -0.001256 -0.001527 0.006224 0.000000 0.000000 0.000000
# 4 0.000000 0.000000 0.000000 0.021336 0.000000 0.000000
# 5 0.000000 0.000000 0.000000 0.000000 0.017099 0.000000
# 6 0.000000 0.000000 0.000000 0.000000 0.000000 0.024629
#
#
# Mechanical properties :
#
#
# Convention : Reuss Voigt Hill
#
# Bulk Modulus (GPa) = 100.75276 100.84876 100.80076
# Shear Modulus (GPa) = 45.58437 48.79332 47.18884
#
# Velocity S-wave (km/s) = 4.23773 4.38435 4.31167
# Velocity P-wave (km/s) = 7.97727 8.08457 8.03110
#
# Compressibility (1/GPa) = 0.00992529
#
# Stress axis : x y z
#
# Youngs Moduli (GPa) = 97.27851 98.85133 160.66356
#
# Poissons Ratio (x) = 0.55014 0.20172
# Poissons Ratio (y) = 0.54138 0.24527
# Poissons Ratio (z) = 0.12214 0.15091
#
# Static dielectric constant tensor:
#      x y z
#    x 2.076920 0.000000 0.000000 
#    y 0.000000 1.945020 0.000000 
#    z 0.000000 0.000000 2.350300 
# 
# From -- ./inp_files/13075.got.cif
#   From: 2010.05.17/outbox.cif.g08.bks.cpg/sg50_7_cif.got.tgz:13075.got - 2010.06.03 11:33:33.
