data_PCOD9397331
_publ_section_title
;
Structure prediction by ZEFSAII (Michael W. Deem and Ramdas Pophale) SiO2 
 PCOD9397331
Probable space group: P B A N
;
_chemical_formula_sum "Si O2"
_cell_formula_units_Z 34
_cell_length_a 5.032358
_cell_length_b 18.336180
_cell_length_c 18.339505
_cell_angle_alpha 90.000000
_cell_angle_beta 90.000000
_cell_angle_gamma 90.000000
_cell_volume 1692.263558
_symmetry_space_group_name_H-M "P B A N"
_symmetry_group_IT_number 50
_space_group.IT_coordinate_system_code '2'
_symmetry_cell_setting 'orthorhombic'
loop_
_space_group_symop_operation_xyz
x,y,z
1/2-x,1/2-y,z
x,1/2-y,-z
1/2-x,y,-z
-x,-y,-z
1/2+x,1/2+y,-z
-x,1/2+y,z
1/2+x,-y,z
loop_
_atom_site_type_symbol
_atom_site_label
_atom_site_fract_x
_atom_site_fract_y
_atom_site_fract_z
Si Si1 0.750000 0.148617 0.500000
Si Si2 0.802116 0.447224 0.357896
Si Si3 0.307088 0.830906 0.770398
Si Si4 0.694729 0.668871 0.871652
Si Si5 0.250000 0.053306 0.000000
Si Si6 0.750000 0.750000 0.500000
O O1 0.672707 0.099670 0.431344
O O2 0.483883 0.193219 0.526855
O O3 0.547464 0.498370 0.355174
O O4 0.783413 0.391736 0.290482
O O5 0.250000 0.750000 0.739259
O O6 0.598301 0.835662 0.805075
O O7 0.097172 0.838130 0.836792
O O8 0.750000 0.750000 0.903267
O O9 0.744731 0.606327 0.930140
O O10 0.500000 0.000000 0.000000
#
# Coordination Sequence:
#
# PCOD9397331 Si02
#       6
#     4   8   8   8   4   2
#     4  11  24  45  64  99 129 170 220 260 333 373
#     4  12  25  42  66  95 133 173 209 265 329 390
#     4  10  23  41  64  93 124 166 217 262 309 377
#     4  10  22  43  63  88 126 167 209 257 315 377
#     4  12  25  38  63  96 124 162 206 262 311 376
#     4  10  24  40  68  96 120 162 214 276 312 356
#
# _framework density 20.091434
#
# number of rings (size 3 to 8) (size 9 to 14) (size 15 to 20)
#    0.000    1.176    0.000    5.294    3.294    5.647 
#    4.235    4.706    0.000    0.000    0.000    0.000 
#    0.000    0.000    0.000    0.000    0.000    0.000 
#
# Total GULP energy -189720.715545 kJ/mol
# GULP energy per Si atom -5580.021045 kJ/mol
# Density = 2.004571 g / cm^3
# Si number density = 20.091434 Si / 1000 Ang^3
#
#
#
# Elastic Constant Matrix: (Units=GPa)
#
#
# Indices 1 2 3 4 5 6 
#
# 1 118.8843 38.3122 -4.9358 0.0000 0.0000 0.0000
# 2 38.3122 156.1731 61.0178 0.0000 0.0000 0.0000
# 3 -4.9358 61.0178 53.1779 0.0000 0.0000 0.0000
# 4 0.0000 0.0000 0.0000 -405.7030 0.0000 0.0000
# 5 0.0000 0.0000 0.0000 0.0000 8.4538 0.0000
# 6 0.0000 0.0000 0.0000 0.0000 0.0000 25.6402
#
#
#
# Elastic Compliance Matrix: (Units=1/GPa)
#
#
# Indices 1 2 3 4 5 6 
#
# 1 0.010419 -0.005318 0.007069 0.000000 0.000000 0.000000
# 2 -0.005318 0.014321 -0.016925 0.000000 0.000000 0.000000
# 3 0.007069 -0.016925 0.038882 0.000000 0.000000 0.000000
# 4 0.000000 0.000000 0.000000 -0.002465 0.000000 0.000000
# 5 0.000000 0.000000 0.000000 0.000000 0.118290 0.000000
# 6 0.000000 0.000000 0.000000 0.000000 0.000000 0.039001
#
#
# Mechanical properties :
#
#
# Convention : Reuss Voigt Hill
#
# Bulk Modulus (GPa) = 30.05518 57.44705 43.75112
# Shear Modulus (GPa) = 19.23920 -58.73240 -19.74660
#
# Velocity S-wave (km/s) = 3.09784 -5.41258 -3.13842
# Velocity P-wave (km/s) = 5.27135 3.22591 2.94794
#
# Compressibility (1/GPa) = 0.03327213
#
# Stress axis : x y z
#
# Youngs Moduli (GPa) = 95.98104 69.82989 25.71915
#
# Poissons Ratio (x) = 0.37133 -0.18180
# Poissons Ratio (y) = 0.51040 0.43531
# Poissons Ratio (z) = -0.67846 1.18189
#
# Static dielectric constant tensor:
#      x y z
#    x 1.658460 0.000000 0.000000 
#    y 0.000000 1.714520 0.000000 
#    z 0.000000 0.000000 1.670290 
# 
# From -- ./inp_files/23734.got.cif
#   From: 2010.05.17/outbox.cif.g08.bks.cpg/sg50_12_cif.got.tgz:23734.got - 2010.06.03 11:33:33.
