data_PCOD9397713
_publ_section_title
;
Structure prediction by ZEFSAII (Michael W. Deem and Ramdas Pophale) SiO2 
 PCOD9397713
Probable space group: P B A N
;
_chemical_formula_sum "Si O2"
_cell_formula_units_Z 24
_cell_length_a 8.217562
_cell_length_b 21.549433
_cell_length_c 5.417870
_cell_angle_alpha 90.000000
_cell_angle_beta 90.000000
_cell_angle_gamma 90.000000
_cell_volume 959.417017
_symmetry_space_group_name_H-M "P B A N"
_symmetry_group_IT_number 50
_space_group.IT_coordinate_system_code '2'
_symmetry_cell_setting 'orthorhombic'
loop_
_space_group_symop_operation_xyz
x,y,z
1/2-x,1/2-y,z
x,1/2-y,-z
1/2-x,y,-z
-x,-y,-z
1/2+x,1/2+y,-z
-x,1/2+y,z
1/2+x,-y,z
loop_
_atom_site_type_symbol
_atom_site_label
_atom_site_fract_x
_atom_site_fract_y
_atom_site_fract_z
Si Si1 0.936824 0.224190 0.749109
Si Si2 0.430121 0.398469 0.570833
Si Si3 0.148459 0.968359 0.754090
O O1 0.750000 0.250000 0.749752
O O2 0.014551 0.250000 0.500000
O O3 0.958496 0.151105 0.711787
O O4 0.011122 0.250000 0.000000
O O5 0.250000 0.375792 0.500000
O O6 0.413835 0.460775 0.736354
O O7 0.507484 0.419705 0.308900
O O8 0.250000 0.962812 0.500000
O O9 0.250000 0.958545 0.000000
#
# Coordination Sequence:
#
# PCOD9397713 Si02
#       3
#     8   8   8
#     4  10  24  46  72 105 138 199 254 305 373 451
#     4  10  24  46  75 111 156 195 257 326 385 466
#     4  10  24  45  74 111 152 205 248 311 397 475
#
# _framework density 25.01519
#
# number of rings (size 3 to 8) (size 9 to 14) (size 15 to 20)
#    0.000    2.000    0.000    0.000    4.667   20.667 
#    0.000    1.667    0.000    0.000    0.000    0.000 
#    0.000    0.000    0.000    0.000    0.000    0.000 
#
# Total GULP energy -134245.708248 kJ/mol
# GULP energy per Si atom -5593.571177 kJ/mol
# Density = 2.495825 g / cm^3
# Si number density = 25.015190 Si / 1000 Ang^3
#
#
#
# Elastic Constant Matrix: (Units=GPa)
#
#
# Indices 1 2 3 4 5 6 
#
# 1 130.9011 61.1325 58.4986 0.0000 0.0000 0.0000
# 2 61.1325 161.5579 76.0131 0.0000 0.0000 0.0000
# 3 58.4986 76.0131 245.5156 0.0000 0.0000 0.0000
# 4 0.0000 0.0000 0.0000 27.4418 0.0000 0.0000
# 5 0.0000 0.0000 0.0000 0.0000 31.6756 0.0000
# 6 0.0000 0.0000 0.0000 0.0000 0.0000 93.1101
#
#
#
# Elastic Compliance Matrix: (Units=1/GPa)
#
#
# Indices 1 2 3 4 5 6 
#
# 1 0.009657 -0.003010 -0.001369 0.000000 0.000000 0.000000
# 2 -0.003010 0.008183 -0.001816 0.000000 0.000000 0.000000
# 3 -0.001369 -0.001816 0.004962 0.000000 0.000000 0.000000
# 4 0.000000 0.000000 0.000000 0.036441 0.000000 0.000000
# 5 0.000000 0.000000 0.000000 0.000000 0.031570 0.000000
# 6 0.000000 0.000000 0.000000 0.000000 0.000000 0.010740
#
#
# Mechanical properties :
#
#
# Convention : Reuss Voigt Hill
#
# Bulk Modulus (GPa) = 96.05246 103.25144 99.65195
# Shear Modulus (GPa) = 42.58448 53.26753 47.92600
#
# Velocity S-wave (km/s) = 4.13042 4.61956 4.38182
# Velocity P-wave (km/s) = 7.82485 8.35577 8.09466
#
# Compressibility (1/GPa) = 0.01041098
#
# Stress axis : x y z
#
# Youngs Moduli (GPa) = 103.55340 122.19985 201.54667
#
# Poissons Ratio (x) = 0.36782 0.27592
# Poissons Ratio (y) = 0.31169 0.36609
# Poissons Ratio (z) = 0.14177 0.22197
#
# Static dielectric constant tensor:
#      x y z
#    x 2.096900 0.000000 0.000000 
#    y 0.000000 2.086100 0.000000 
#    z 0.000000 0.000000 1.987690 
# 
# From -- ./inp_files/786.got.cif
#   From: 2010.05.17/outbox.cif.g08.bks.cpg/sg50_1_cif.got.tgz:786.got - 2010.06.03 11:33:33.
