data_PCOD9397110
_publ_section_title
;
Structure prediction by ZEFSAII (Michael W. Deem and Ramdas Pophale) SiO2 
 PCOD9397110
Probable space group: P B A N
;
_chemical_formula_sum "Si O2"
_cell_formula_units_Z 48
_cell_length_a 16.298636
_cell_length_b 16.006812
_cell_length_c 8.304683
_cell_angle_alpha 90.000000
_cell_angle_beta 90.000000
_cell_angle_gamma 90.000000
_cell_volume 2166.602123
_symmetry_space_group_name_H-M "P B A N"
_symmetry_group_IT_number 50
_space_group.IT_coordinate_system_code '2'
_symmetry_cell_setting 'orthorhombic'
loop_
_space_group_symop_operation_xyz
x,y,z
1/2-x,1/2-y,z
x,1/2-y,-z
1/2-x,y,-z
-x,-y,-z
1/2+x,1/2+y,-z
-x,1/2+y,z
1/2+x,-y,z
loop_
_atom_site_type_symbol
_atom_site_label
_atom_site_fract_x
_atom_site_fract_y
_atom_site_fract_z
Si Si1 0.026331 0.155347 0.221698
Si Si2 0.527148 0.189006 0.351095
Si Si3 0.672859 0.915650 0.393431
Si Si4 0.277674 0.527766 0.832342
Si Si5 0.386100 0.923448 0.423000
Si Si6 0.054575 0.069103 0.902998
O O1 0.970263 0.237756 0.221646
O O2 0.110091 0.151795 0.326083
O O3 0.967140 0.087342 0.311230
O O4 0.055889 0.137896 0.042652
O O5 0.496376 0.250000 0.500000
O O6 0.602855 0.142802 0.434341
O O7 0.479346 0.114377 0.258659
O O8 0.750000 0.885127 0.500000
O O9 0.708979 0.968228 0.243616
O O10 0.626168 0.985573 0.499871
O O11 0.308596 0.589321 0.693032
O O12 0.357272 0.470666 0.868606
O O13 0.250000 0.566510 0.000000
O O14 0.000000 0.000000 0.000000
#
# Coordination Sequence:
#
# PCOD9397110 Si02
#       6
#     8   8   8   8   8   8
#     4  11  21  41  65 102 134 182 235 288 355 422
#     4  10  25  40  66  99 138 180 235 281 358 419
#     4  10  22  37  67 102 144 180 235 292 356 421
#     4  11  23  39  64 105 136 176 236 291 358 406
#     4  10  22  39  65  97 134 184 231 290 334 425
#     4  12  23  41  71 100 134 180 243 294 341 421
#
# _framework density 22.154506999999999
#
# number of rings (size 3 to 8) (size 9 to 14) (size 15 to 20)
#    0.000    1.333    3.333    2.000    9.333    0.000 
#    0.000    0.833    0.000   40.500   26.000    0.000 
#    0.000    0.000    0.000    0.000    0.000    0.000 
#
# Total GULP energy -267240.253676 kJ/mol
# GULP energy per Si atom -5567.505285 kJ/mol
# Density = 2.210408 g / cm^3
# Si number density = 22.154507 Si / 1000 Ang^3
#
#
#
# Elastic Constant Matrix: (Units=GPa)
#
#
# Indices 1 2 3 4 5 6 
#
# 1 49.9432 12.1830 25.1542 0.0000 0.0000 0.0000
# 2 12.1830 56.5851 35.8114 0.0000 0.0000 0.0000
# 3 25.1542 35.8114 104.8394 0.0000 0.0000 0.0000
# 4 0.0000 0.0000 0.0000 43.8739 0.0000 0.0000
# 5 0.0000 0.0000 0.0000 0.0000 53.6467 0.0000
# 6 0.0000 0.0000 0.0000 0.0000 0.0000 13.1142
#
#
#
# Elastic Compliance Matrix: (Units=1/GPa)
#
#
# Indices 1 2 3 4 5 6 
#
# 1 0.022927 -0.001856 -0.004867 0.000000 0.000000 0.000000
# 2 -0.001856 0.022697 -0.007308 0.000000 0.000000 0.000000
# 3 -0.004867 -0.007308 0.013202 0.000000 0.000000 0.000000
# 4 0.000000 0.000000 0.000000 0.022793 0.000000 0.000000
# 5 0.000000 0.000000 0.000000 0.000000 0.018640 0.000000
# 6 0.000000 0.000000 0.000000 0.000000 0.000000 0.076253
#
#
# Mechanical properties :
#
#
# Convention : Reuss Voigt Hill
#
# Bulk Modulus (GPa) = 32.50458 39.74054 36.12256
# Shear Modulus (GPa) = 23.27446 31.34159 27.30802
#
# Velocity S-wave (km/s) = 3.24474 3.76531 3.51467
# Velocity P-wave (km/s) = 5.36110 6.07291 5.72807
#
# Compressibility (1/GPa) = 0.03076490
#
# Stress axis : x y z
#
# Youngs Moduli (GPa) = 43.61727 44.05891 75.74483
#
# Poissons Ratio (x) = 0.08178 0.36863
# Poissons Ratio (y) = 0.08096 0.55351
# Poissons Ratio (z) = 0.21228 0.32196
#
# Static dielectric constant tensor:
#      x y z
#    x 1.807440 0.000000 0.000000 
#    y 0.000000 1.919270 0.000000 
#    z 0.000000 0.000000 2.016280 
# 
# From -- ./inp_files/12948.got.cif
#   From: 2010.05.17/outbox.cif.g08.bks.cpg/sg50_7_cif.got.tgz:12948.got - 2010.06.03 11:33:33.
