data_PCOD9397578
_publ_section_title
;
Structure prediction by ZEFSAII (Michael W. Deem and Ramdas Pophale) SiO2 
 PCOD9397578
Probable space group: P B A N
;
_chemical_formula_sum "Si O2"
_cell_formula_units_Z 40
_cell_length_a 23.044751
_cell_length_b 9.236752
_cell_length_c 8.702227
_cell_angle_alpha 90.000000
_cell_angle_beta 90.000000
_cell_angle_gamma 90.000000
_cell_volume 1852.344290
_symmetry_space_group_name_H-M "P B A N"
_symmetry_group_IT_number 50
_space_group.IT_coordinate_system_code '2'
_symmetry_cell_setting 'orthorhombic'
loop_
_space_group_symop_operation_xyz
x,y,z
1/2-x,1/2-y,z
x,1/2-y,-z
1/2-x,y,-z
-x,-y,-z
1/2+x,1/2+y,-z
-x,1/2+y,z
1/2+x,-y,z
loop_
_atom_site_type_symbol
_atom_site_label
_atom_site_fract_x
_atom_site_fract_y
_atom_site_fract_z
Si Si1 0.600865 0.250000 0.000000
Si Si2 0.616243 0.250000 0.500000
Si Si3 0.571257 0.743710 0.317246
Si Si4 0.194626 0.179785 0.829834
Si Si5 0.959830 0.071543 0.752850
Si Si6 0.805920 0.354938 0.755293
O O1 0.562366 0.371565 0.917616
O O2 0.644218 0.199367 0.868614
O O3 0.576465 0.343600 0.617444
O O4 0.660268 0.144986 0.592744
O O5 0.573503 0.750000 0.500000
O O6 0.634094 0.710532 0.250544
O O7 0.525871 0.620478 0.268567
O O8 0.549147 0.900743 0.261501
O O9 0.250000 0.250000 0.748584
O O10 0.209029 0.010836 0.822227
O O11 0.190560 0.250000 0.000000
O O12 0.750000 0.250000 0.750660
#
# Coordination Sequence:
#
# PCOD9397578 Si02
#       6
#     4   4   8   8   8   8
#     4  10  25  40  72  98 137 174 236 288 354 414
#     4  10  23  44  70  98 139 172 244 286 362 410
#     4  12  26  45  71 100 142 182 236 290 358 422
#     4  11  28  47  68 100 143 186 232 289 355 426
#     4  11  25  43  69 103 136 183 228 297 353 425
#     4  11  24  44  73  99 134 186 238 290 344 422
#
# _framework density 21.594256000000001
#
# number of rings (size 3 to 8) (size 9 to 14) (size 15 to 20)
#    0.000    1.000    1.000    3.600   18.200    1.200 
#    3.600    0.000    0.000    0.000    0.000    0.000 
#    0.000    0.000    0.000    0.000    0.000    0.000 
#
# Total GULP energy -223740.567117 kJ/mol
# GULP energy per Si atom -5593.514178 kJ/mol
# Density = 2.154511 g / cm^3
# Si number density = 21.594256 Si / 1000 Ang^3
#
#
#
# Elastic Constant Matrix: (Units=GPa)
#
#
# Indices 1 2 3 4 5 6 
#
# 1 190.8940 55.6423 45.1036 0.0000 0.0000 0.0000
# 2 55.6423 104.2241 -11.5231 0.0000 0.0000 0.0000
# 3 45.1036 -11.5231 50.7747 0.0000 0.0000 0.0000
# 4 0.0000 0.0000 0.0000 30.6825 0.0000 0.0000
# 5 0.0000 0.0000 0.0000 0.0000 35.1135 0.0000
# 6 0.0000 0.0000 0.0000 0.0000 0.0000 -1.0152
#
#
#
# Elastic Compliance Matrix: (Units=1/GPa)
#
#
# Indices 1 2 3 4 5 6 
#
# 1 0.009249 -0.005997 -0.009577 0.000000 0.000000 0.000000
# 2 -0.005997 0.013730 0.008443 0.000000 0.000000 0.000000
# 3 -0.009577 0.008443 0.030119 0.000000 0.000000 0.000000
# 4 0.000000 0.000000 0.000000 0.032592 0.000000 0.000000
# 5 0.000000 0.000000 0.000000 0.000000 0.028479 0.000000
# 6 0.000000 0.000000 0.000000 0.000000 0.000000 -0.985069
#
#
# Mechanical properties :
#
#
# Convention : Reuss Voigt Hill
#
# Bulk Modulus (GPa) = 25.74976 58.25981 42.00479
# Shear Modulus (GPa) = -5.92633 30.06750 12.07059
#
# Velocity S-wave (km/s) = -1.65842 3.73551 2.36682
# Velocity P-wave (km/s) = 2.87804 6.75598 5.19261
#
# Compressibility (1/GPa) = 0.03883531
#
# Stress axis : x y z
#
# Youngs Moduli (GPa) = 108.11573 72.83479 33.20217
#
# Poissons Ratio (x) = 0.43678 0.31799
# Poissons Ratio (y) = 0.64835 -0.28032
# Poissons Ratio (z) = 1.03545 -0.61494
#
# Static dielectric constant tensor:
#      x y z
#    x 1.793940 0.000000 0.000000 
#    y 0.000000 1.807900 0.000000 
#    z 0.000000 0.000000 1.832540 
# 
# From -- ./inp_files/15812.got.cif
#   From: 2010.05.17/outbox.cif.g08.bks.cpg/sg50_8_cif.got.tgz:15812.got - 2010.06.03 11:33:33.
