data_PCOD9397751
_publ_section_title
;
Structure prediction by ZEFSAII (Michael W. Deem and Ramdas Pophale) SiO2 
 PCOD9397751
Probable space group: P B A N
;
_chemical_formula_sum "Si O2"
_cell_formula_units_Z 40
_cell_length_a 9.020312
_cell_length_b 19.578379
_cell_length_c 10.857344
_cell_angle_alpha 90.000000
_cell_angle_beta 90.000000
_cell_angle_gamma 90.000000
_cell_volume 1917.440467
_symmetry_space_group_name_H-M "P B A N"
_symmetry_group_IT_number 50
_space_group.IT_coordinate_system_code '2'
_symmetry_cell_setting 'orthorhombic'
loop_
_space_group_symop_operation_xyz
x,y,z
1/2-x,1/2-y,z
x,1/2-y,-z
1/2-x,y,-z
-x,-y,-z
1/2+x,1/2+y,-z
-x,1/2+y,z
1/2+x,-y,z
loop_
_atom_site_type_symbol
_atom_site_label
_atom_site_fract_x
_atom_site_fract_y
_atom_site_fract_z
Si Si1 0.250000 0.250000 0.500000
Si Si2 0.521088 0.331744 0.168229
Si Si3 0.448256 0.088913 0.065818
Si Si4 0.756177 0.333350 0.360783
Si Si5 0.750000 0.031282 0.000000
Si Si6 0.421775 0.191387 0.275268
Si Si7 0.250000 0.750000 0.000000
O O1 0.342114 0.201541 0.406676
O O2 0.619003 0.360879 0.280497
O O3 0.427865 0.269027 0.223346
O O4 0.439383 0.382117 0.074675
O O5 0.644405 0.294887 0.083906
O O6 0.355790 0.019273 0.077656
O O7 0.380800 0.143363 0.160690
O O8 0.626149 0.073773 0.075055
O O9 0.750000 0.250000 0.363287
O O10 0.750000 0.358420 0.500000
O O11 0.917970 0.341199 0.305114
#
# Coordination Sequence:
#
# PCOD9397751 Si02
#       7
#     2   8   8   8   4   8   2
#     4  12  28  36  52  96 132 168 192 244 342 416
#     4  11  18  32  62  96 120 152 197 261 334 391
#     4  11  22  41  63  90 126 159 212 267 315 375
#     4   9  16  29  51  81 117 157 194 231 289 377
#     4  10  25  40  60  94 120 169 218 260 312 366
#     4  11  21  37  57  89 130 158 194 250 332 392
#     4  12  14  28  50  98 116 146 196 248 322 404
#
# _framework density 20.861142999999998
#
# number of rings (size 3 to 8) (size 9 to 14) (size 15 to 20)
#    0.000    1.400    5.000    4.200    2.800    0.000 
#    0.000    0.000    0.000    1.200   10.400    0.000 
#    0.000    0.000    0.000    0.000    0.000    0.000 
#
# Total GULP energy -222960.764818 kJ/mol
# GULP energy per Si atom -5574.019120 kJ/mol
# Density = 2.081366 g / cm^3
# Si number density = 20.861143 Si / 1000 Ang^3
#
#
#
# Elastic Constant Matrix: (Units=GPa)
#
#
# Indices 1 2 3 4 5 6 
#
# 1 94.0987 34.7459 43.4701 0.0000 0.0000 0.0000
# 2 34.7459 56.7043 48.2392 0.0000 0.0000 0.0000
# 3 43.4701 48.2392 153.1740 0.0000 0.0000 0.0000
# 4 0.0000 0.0000 0.0000 6.2581 0.0000 0.0000
# 5 0.0000 0.0000 0.0000 0.0000 35.1401 0.0000
# 6 0.0000 0.0000 0.0000 0.0000 0.0000 21.0704
#
#
#
# Elastic Compliance Matrix: (Units=1/GPa)
#
#
# Indices 1 2 3 4 5 6 
#
# 1 0.014068 -0.007136 -0.001745 0.000000 0.000000 0.000000
# 2 -0.007136 0.027709 -0.006701 0.000000 0.000000 0.000000
# 3 -0.001745 -0.006701 0.009134 0.000000 0.000000 0.000000
# 4 0.000000 0.000000 0.000000 0.159792 0.000000 0.000000
# 5 0.000000 0.000000 0.000000 0.000000 0.028458 0.000000
# 6 0.000000 0.000000 0.000000 0.000000 0.000000 0.047460
#
#
# Mechanical properties :
#
#
# Convention : Reuss Voigt Hill
#
# Bulk Modulus (GPa) = 50.64118 61.87637 56.25878
# Shear Modulus (GPa) = 15.41465 24.32852 19.87158
#
# Velocity S-wave (km/s) = 2.72125 3.41869 3.08971
# Velocity P-wave (km/s) = 5.84822 6.73117 6.30517
#
# Compressibility (1/GPa) = 0.01974677
#
# Stress axis : x y z
#
# Youngs Moduli (GPa) = 71.08213 36.08986 109.47820
#
# Poissons Ratio (x) = 0.25753 0.19107
# Poissons Ratio (y) = 0.50722 0.73364
# Poissons Ratio (z) = 0.12406 0.24185
#
# Static dielectric constant tensor:
#      x y z
#    x 1.875350 0.000000 0.000000 
#    y 0.000000 1.734430 0.000000 
#    z 0.000000 0.000000 1.782400 
# 
# From -- ./inp_files/19036.got.cif
#   From: 2010.05.17/outbox.cif.g08.bks.cpg/sg50_10_cif.got.tgz:19036.got - 2010.06.03 11:33:33.
