data_PCOD9397385
_publ_section_title
;
Structure prediction by ZEFSAII (Michael W. Deem and Ramdas Pophale) SiO2 
 PCOD9397385
Probable space group: P B A N
;
_chemical_formula_sum "Si O2"
_cell_formula_units_Z 30
_cell_length_a 26.476537
_cell_length_b 5.043944
_cell_length_c 9.749843
_cell_angle_alpha 90.000000
_cell_angle_beta 90.000000
_cell_angle_gamma 90.000000
_cell_volume 1302.054190
_symmetry_space_group_name_H-M "P B A N"
_symmetry_group_IT_number 50
_space_group.IT_coordinate_system_code '2'
_symmetry_cell_setting 'orthorhombic'
loop_
_space_group_symop_operation_xyz
x,y,z
1/2-x,1/2-y,z
x,1/2-y,-z
1/2-x,y,-z
-x,-y,-z
1/2+x,1/2+y,-z
-x,1/2+y,z
1/2+x,-y,z
loop_
_atom_site_type_symbol
_atom_site_label
_atom_site_fract_x
_atom_site_fract_y
_atom_site_fract_z
Si Si1 0.372164 0.013270 0.412779
Si Si2 0.163266 0.552127 0.117318
Si Si3 0.250000 0.250000 0.000000
Si Si4 0.930729 0.750000 0.000000
Si Si5 0.529584 0.817021 0.296084
O O1 0.383428 0.750000 0.500000
O O2 0.345714 0.894702 0.276313
O O3 0.344965 0.250000 0.500000
O O4 0.420523 0.181933 0.357027
O O5 0.207384 0.339827 0.110308
O O6 0.108826 0.466429 0.056861
O O7 0.183124 0.750000 0.000000
O O8 0.962992 0.830452 0.868609
O O9 0.485020 0.613970 0.335814
#
# Coordination Sequence:
#
# PCOD9397385 Si02
#       5
#     8   8   2   4   8
#     4  11  26  44  67  96 140 183 224 272 341 405
#     4  10  23  42  75  98 130 174 220 276 338 411
#     4  10  22  44  74 106 128 152 228 268 342 394
#     4   9  22  35  62  94 134 168 230 275 344 383
#     4  11  23  37  61  93 132 180 234 285 327 378
#
# _framework density 23.040516
#
# number of rings (size 3 to 8) (size 9 to 14) (size 15 to 20)
#    0.000    1.600    0.000    2.800   18.667    3.200 
#    0.000    0.667    0.000    0.000    0.000    0.000 
#    0.000    0.000    0.000    0.000    0.000    0.000 
#
# Total GULP energy -167016.605973 kJ/mol
# GULP energy per Si atom -5567.220199 kJ/mol
# Density = 2.298807 g / cm^3
# Si number density = 23.040516 Si / 1000 Ang^3
#
#
#
# Elastic Constant Matrix: (Units=GPa)
#
#
# Indices 1 2 3 4 5 6 
#
# 1 54.4157 -1.7604 22.0738 0.0000 0.0000 0.0000
# 2 -1.7604 66.1612 29.7736 0.0000 0.0000 0.0000
# 3 22.0738 29.7736 172.3735 0.0000 0.0000 0.0000
# 4 0.0000 0.0000 0.0000 27.7333 0.0000 0.0000
# 5 0.0000 0.0000 0.0000 0.0000 14.1206 0.0000
# 6 0.0000 0.0000 0.0000 0.0000 0.0000 133.3935
#
#
#
# Elastic Compliance Matrix: (Units=1/GPa)
#
#
# Indices 1 2 3 4 5 6 
#
# 1 0.019577 0.001788 -0.002816 0.000000 0.000000 0.000000
# 2 0.001788 0.016552 -0.003088 0.000000 0.000000 0.000000
# 3 -0.002816 -0.003088 0.006695 0.000000 0.000000 0.000000
# 4 0.000000 0.000000 0.000000 0.036058 0.000000 0.000000
# 5 0.000000 0.000000 0.000000 0.000000 0.070818 0.000000
# 6 0.000000 0.000000 0.000000 0.000000 0.000000 0.007497
#
#
# Mechanical properties :
#
#
# Convention : Reuss Voigt Hill
#
# Bulk Modulus (GPa) = 28.90769 43.68050 36.29409
# Shear Modulus (GPa) = 28.25507 51.24036 39.74772
#
# Velocity S-wave (km/s) = 3.50569 4.72097 4.15797
# Velocity P-wave (km/s) = 5.38146 6.97968 6.23202
#
# Compressibility (1/GPa) = 0.03459287
#
# Stress axis : x y z
#
# Youngs Moduli (GPa) = 51.07996 60.41637 149.35804
#
# Poissons Ratio (x) = -0.10803 0.42057
# Poissons Ratio (y) = -0.09134 0.46121
# Poissons Ratio (z) = 0.14383 0.18656
#
# Static dielectric constant tensor:
#      x y z
#    x 1.812860 0.000000 0.000000 
#    y 0.000000 2.025830 0.000000 
#    z 0.000000 0.000000 2.069610 
# 
# From -- ./inp_files/7938.got.cif
#   From: 2010.05.17/outbox.cif.g08.bks.cpg/sg50_4_cif.got.tgz:7938.got - 2010.06.03 11:33:33.
