data_PCOD9397984
_publ_section_title
;
Structure prediction by ZEFSAII (Michael W. Deem and Ramdas Pophale) SiO2 
 PCOD9397984
Probable space group: P B A N
;
_chemical_formula_sum "Si O2"
_cell_formula_units_Z 38
_cell_length_a 7.787977
_cell_length_b 11.629641
_cell_length_c 16.977323
_cell_angle_alpha 90.000000
_cell_angle_beta 90.000000
_cell_angle_gamma 90.000000
_cell_volume 1537.659516
_symmetry_space_group_name_H-M "P B A N"
_symmetry_group_IT_number 50
_space_group.IT_coordinate_system_code '2'
_symmetry_cell_setting 'orthorhombic'
loop_
_space_group_symop_operation_xyz
x,y,z
1/2-x,1/2-y,z
x,1/2-y,-z
1/2-x,y,-z
-x,-y,-z
1/2+x,1/2+y,-z
-x,1/2+y,z
1/2+x,-y,z
loop_
_atom_site_type_symbol
_atom_site_label
_atom_site_fract_x
_atom_site_fract_y
_atom_site_fract_z
Si Si1 0.750000 0.750000 0.643455
Si Si2 0.027662 0.604844 0.721735
Si Si3 0.386867 0.075234 0.941498
Si Si4 0.162562 0.575859 0.172560
Si Si5 0.750000 0.250000 0.500000
Si Si6 0.012612 0.075413 0.423171
O O1 0.586602 0.786853 0.695716
O O2 0.813901 0.853235 0.589725
O O3 0.214928 0.627750 0.759158
O O4 0.021705 0.514389 0.649186
O O5 0.925172 0.533825 0.787059
O O6 0.286385 0.980098 0.891249
O O7 0.512372 0.139980 0.878092
O O8 0.250000 0.133982 0.000000
O O9 0.500000 0.000000 0.000000
O O10 0.635515 0.329505 0.441414
O O11 0.000000 0.000000 0.500000
#
# Coordination Sequence:
#
# PCOD9397984 Si02
#       6
#     4   8   8   8   2   8
#     4  12  26  45  70  92 133 188 238 292 383 428
#     4  11  22  41  61  96 136 180 233 296 354 423
#     4   8  14  28  56  96 132 173 229 269 331 422
#     4   9  18  33  58  91 145 172 221 296 338 405
#     4  12  28  42  68  94 116 174 234 296 380 428
#     4  12  27  47  67  95 130 173 236 304 355 434
#
# _framework density 24.712883999999999
#
# number of rings (size 3 to 8) (size 9 to 14) (size 15 to 20)
#    0.000    1.684    2.105    2.526    2.947    2.947 
#    0.000    0.000    0.000    0.000    0.000   18.421 
#   18.947    0.000    0.000    0.000    0.000    5.474 
#
# Total GULP energy -212084.803272 kJ/mol
# GULP energy per Si atom -5581.179033 kJ/mol
# Density = 2.465664 g / cm^3
# Si number density = 24.712884 Si / 1000 Ang^3
#
#
#
# Elastic Constant Matrix: (Units=GPa)
#
#
# Indices 1 2 3 4 5 6 
#
# 1 156.8896 46.8604 73.9591 0.0000 0.0000 0.0000
# 2 46.8604 87.8729 39.6541 0.0000 0.0000 0.0000
# 3 73.9591 39.6541 163.3113 0.0000 0.0000 0.0000
# 4 0.0000 0.0000 0.0000 -58.1802 0.0000 0.0000
# 5 0.0000 0.0000 0.0000 0.0000 72.7796 0.0000
# 6 0.0000 0.0000 0.0000 0.0000 0.0000 40.5039
#
#
#
# Elastic Compliance Matrix: (Units=1/GPa)
#
#
# Indices 1 2 3 4 5 6 
#
# 1 0.008872 -0.003277 -0.003222 0.000000 0.000000 0.000000
# 2 -0.003277 0.013991 -0.001913 0.000000 0.000000 0.000000
# 3 -0.003222 -0.001913 0.008047 0.000000 0.000000 0.000000
# 4 0.000000 0.000000 0.000000 -0.017188 0.000000 0.000000
# 5 0.000000 0.000000 0.000000 0.000000 0.013740 0.000000
# 6 0.000000 0.000000 0.000000 0.000000 0.000000 0.024689
#
#
# Mechanical properties :
#
#
# Convention : Reuss Voigt Hill
#
# Bulk Modulus (GPa) = 70.99626 81.00232 75.99929
# Shear Modulus (GPa) = 67.87032 27.52734 47.69883
#
# Velocity S-wave (km/s) = 5.24625 3.34111 4.39808
# Velocity P-wave (km/s) = 8.09249 6.90888 7.52399
#
# Compressibility (1/GPa) = 0.01408525
#
# Stress axis : x y z
#
# Youngs Moduli (GPa) = 112.71957 71.47477 124.27060
#
# Poissons Ratio (x) = 0.23422 0.40040
# Poissons Ratio (y) = 0.36938 0.23774
# Poissons Ratio (z) = 0.36318 0.13674
#
# Static dielectric constant tensor:
#      x y z
#    x 2.068560 0.000000 0.000000 
#    y 0.000000 1.968980 0.000000 
#    z 0.000000 0.000000 1.954290 
# 
# From -- ./inp_files/28536.got.cif
#   From: 2010.05.17/outbox.cif.g08.bks.cpg/sg50_15_cif.got.tgz:28536.got - 2010.06.03 11:33:33.
