data_PCOD9397147
_publ_section_title
;
Structure prediction by ZEFSAII (Michael W. Deem and Ramdas Pophale) SiO2 
 PCOD9397147
Probable space group: P B A N
;
_chemical_formula_sum "Si O2"
_cell_formula_units_Z 56
_cell_length_a 12.153703
_cell_length_b 17.689972
_cell_length_c 13.059561
_cell_angle_alpha 90.000000
_cell_angle_beta 90.000000
_cell_angle_gamma 90.000000
_cell_volume 2807.788190
_symmetry_space_group_name_H-M "P B A N"
_symmetry_group_IT_number 50
_space_group.IT_coordinate_system_code '2'
_symmetry_cell_setting 'orthorhombic'
loop_
_space_group_symop_operation_xyz
x,y,z
1/2-x,1/2-y,z
x,1/2-y,-z
1/2-x,y,-z
-x,-y,-z
1/2+x,1/2+y,-z
-x,1/2+y,z
1/2+x,-y,z
loop_
_atom_site_type_symbol
_atom_site_label
_atom_site_fract_x
_atom_site_fract_y
_atom_site_fract_z
Si Si1 0.766080 0.422065 0.378723
Si Si2 0.486110 0.913454 0.106644
Si Si3 0.274023 0.337753 0.608631
Si Si4 0.199103 0.438679 0.771450
Si Si5 0.857801 0.298658 0.751278
Si Si6 0.908793 0.921937 0.099588
Si Si7 0.486980 0.849958 0.700796
O O1 0.750000 0.437493 0.500000
O O2 0.755088 0.492047 0.298207
O O3 0.684908 0.355453 0.338081
O O4 0.889921 0.392720 0.358498
O O5 0.579947 0.947157 0.180979
O O6 0.412390 0.850677 0.161626
O O7 0.416145 0.987805 0.080166
O O8 0.548994 0.885032 0.005277
O O9 0.250000 0.250000 0.603119
O O10 0.250000 0.374369 0.500000
O O11 0.193264 0.370587 0.692480
O O12 0.398894 0.352012 0.640554
O O13 0.285277 0.413717 0.858774
O O14 0.750000 0.250000 0.784791
O O15 0.945211 0.235742 0.716128
O O16 0.986078 0.889678 0.190447
#
# Coordination Sequence:
#
# PCOD9397147 Si02
#       7
#     8   8   8   8   8   8   8
#     4  11  23  39  62  93 129 171 222 272 325 390
#     4  11  21  39  67  90 126 173 206 261 329 375
#     4  10  22  39  58  86 119 162 214 266 325 390
#     4  11  21  40  61  94 125 165 213 273 313 392
#     4  10  23  42  64  95 132 169 217 269 326 389
#     4  10  22  39  63  93 125 163 216 256 321 391
#     4  10  22  42  60  88 129 164 206 273 322 389
#
# _framework density 19.944524000000001
#
# number of rings (size 3 to 8) (size 9 to 14) (size 15 to 20)
#    0.000    1.571    2.857    1.714    0.000    6.571 
#    0.000    7.857    0.000    2.571    0.000    0.000 
#    0.000    0.000    0.000    0.000    0.000    0.000 
#
# Total GULP energy -312336.729993 kJ/mol
# GULP energy per Si atom -5577.441607 kJ/mol
# Density = 1.989913 g / cm^3
# Si number density = 19.944524 Si / 1000 Ang^3
#
#
#
# Elastic Constant Matrix: (Units=GPa)
#
#
# Indices 1 2 3 4 5 6 
#
# 1 52.0751 12.2829 46.7872 0.0000 0.0000 0.0000
# 2 12.2829 67.5858 34.4686 0.0000 0.0000 0.0000
# 3 46.7872 34.4686 122.2685 0.0000 0.0000 0.0000
# 4 0.0000 0.0000 0.0000 17.5876 0.0000 0.0000
# 5 0.0000 0.0000 0.0000 0.0000 162.1118 0.0000
# 6 0.0000 0.0000 0.0000 0.0000 0.0000 22.6954
#
#
#
# Elastic Compliance Matrix: (Units=1/GPa)
#
#
# Indices 1 2 3 4 5 6 
#
# 1 0.029276 0.000459 -0.011332 0.000000 0.000000 0.000000
# 2 0.000459 0.017288 -0.005049 0.000000 0.000000 0.000000
# 3 -0.011332 -0.005049 0.013938 0.000000 0.000000 0.000000
# 4 0.000000 0.000000 0.000000 0.056858 0.000000 0.000000
# 5 0.000000 0.000000 0.000000 0.000000 0.006169 0.000000
# 6 0.000000 0.000000 0.000000 0.000000 0.000000 0.044062
#
#
# Mechanical properties :
#
#
# Convention : Reuss Voigt Hill
#
# Bulk Modulus (GPa) = 34.89497 47.66741 41.28119
# Shear Modulus (GPa) = 23.92476 50.37167 37.14821
#
# Velocity S-wave (km/s) = 3.46723 5.03098 4.32044
# Velocity P-wave (km/s) = 5.79335 7.59602 6.75509
#
# Compressibility (1/GPa) = 0.02865743
#
# Stress axis : x y z
#
# Youngs Moduli (GPa) = 34.15736 57.84471 71.74389
#
# Poissons Ratio (x) = -0.02654 0.81301
# Poissons Ratio (y) = -0.01567 0.36224
# Poissons Ratio (z) = 0.38708 0.29206
#
# Static dielectric constant tensor:
#      x y z
#    x 1.768530 0.000000 0.000000 
#    y 0.000000 1.723220 0.000000 
#    z 0.000000 0.000000 1.728610 
# 
# From -- ./inp_files/20372.got.cif
#   From: 2010.05.17/outbox.cif.g08.bks.cpg/sg50_11_cif.got.tgz:20372.got - 2010.06.03 11:33:33.
