data_PCOD9397916
_publ_section_title
;
Structure prediction by ZEFSAII (Michael W. Deem and Ramdas Pophale) SiO2 
 PCOD9397916
Probable space group: P B A N
;
_chemical_formula_sum "Si O2"
_cell_formula_units_Z 48
_cell_length_a 9.628688
_cell_length_b 28.942836
_cell_length_c 8.379728
_cell_angle_alpha 90.000000
_cell_angle_beta 90.000000
_cell_angle_gamma 90.000000
_cell_volume 2335.275484
_symmetry_space_group_name_H-M "P B A N"
_symmetry_group_IT_number 50
_space_group.IT_coordinate_system_code '2'
_symmetry_cell_setting 'orthorhombic'
loop_
_space_group_symop_operation_xyz
x,y,z
1/2-x,1/2-y,z
x,1/2-y,-z
1/2-x,y,-z
-x,-y,-z
1/2+x,1/2+y,-z
-x,1/2+y,z
1/2+x,-y,z
loop_
_atom_site_type_symbol
_atom_site_label
_atom_site_fract_x
_atom_site_fract_y
_atom_site_fract_z
Si Si1 0.714761 0.466452 0.684128
Si Si2 0.902575 0.860361 0.925794
Si Si3 0.485011 0.034109 0.845849
Si Si4 0.854234 0.122090 0.854846
Si Si5 0.830389 0.211002 0.670485
Si Si6 0.412134 0.238686 0.810550
O O1 0.750000 0.462143 0.500000
O O2 0.626542 0.511241 0.728169
O O3 0.626160 0.423847 0.753428
O O4 0.861668 0.465426 0.773441
O O5 0.934264 0.913182 0.872507
O O6 0.929003 0.817571 0.804839
O O7 0.750000 0.856097 0.000000
O O8 0.008515 0.856343 0.071573
O O9 0.500000 0.000000 0.000000
O O10 0.799527 0.161686 0.742333
O O11 0.750000 0.112294 0.000000
O O12 0.750000 0.250000 0.770247
O O13 0.750000 0.208555 0.500000
O O14 0.987297 0.231007 0.694159
O O15 0.250000 0.250000 0.779197
O O16 0.437817 0.250000 0.000000
#
# Coordination Sequence:
#
# PCOD9397916 Si02
#       6
#     8   8   8   8   8   8
#     4  12  26  45  67 100 143 183 224 296 362 418
#     4  12  22  38  71 105 131 177 243 293 341 407
#     4  12  24  45  69  99 136 183 241 286 346 429
#     4  12  22  41  69 100 134 180 231 286 342 422
#     4  11  25  41  64 103 144 180 225 285 361 426
#     4  11  21  42  70 102 139 182 242 292 345 417
#
# _framework density 20.554320000000001
#
# number of rings (size 3 to 8) (size 9 to 14) (size 15 to 20)
#    0.000    0.333    6.667    3.500    0.000    0.000 
#    0.000    1.667    0.000    0.000    0.000    0.000 
#    0.000    0.000    0.000    0.000    0.000    0.000 
#
# Total GULP energy -267668.340209 kJ/mol
# GULP energy per Si atom -5576.423754 kJ/mol
# Density = 2.050754 g / cm^3
# Si number density = 20.554320 Si / 1000 Ang^3
#
#
#
# Elastic Constant Matrix: (Units=GPa)
#
#
# Indices 1 2 3 4 5 6 
#
# 1 89.3587 -6.1966 27.1703 0.0000 0.0000 0.0000
# 2 -6.1966 144.2062 29.2276 0.0000 0.0000 0.0000
# 3 27.1703 29.2276 84.5665 0.0000 0.0000 0.0000
# 4 0.0000 0.0000 0.0000 38.5579 0.0000 0.0000
# 5 0.0000 0.0000 0.0000 0.0000 28.0137 0.0000
# 6 0.0000 0.0000 0.0000 0.0000 0.0000 40.8281
#
#
#
# Elastic Compliance Matrix: (Units=1/GPa)
#
#
# Indices 1 2 3 4 5 6 
#
# 1 0.012688 0.001475 -0.004586 0.000000 0.000000 0.000000
# 2 0.001475 0.007628 -0.003110 0.000000 0.000000 0.000000
# 3 -0.004586 -0.003110 0.014373 0.000000 0.000000 0.000000
# 4 0.000000 0.000000 0.000000 0.025935 0.000000 0.000000
# 5 0.000000 0.000000 0.000000 0.000000 0.035697 0.000000
# 6 0.000000 0.000000 0.000000 0.000000 0.000000 0.024493
#
#
# Mechanical properties :
#
#
# Convention : Reuss Voigt Hill
#
# Bulk Modulus (GPa) = 44.95194 46.50379 45.72787
# Shear Modulus (GPa) = 35.54352 39.34194 37.44273
#
# Velocity S-wave (km/s) = 4.16293 4.37973 4.27271
# Velocity P-wave (km/s) = 6.70999 6.94622 6.82913
#
# Compressibility (1/GPa) = 0.02224598
#
# Stress axis : x y z
#
# Youngs Moduli (GPa) = 78.81752 131.09142 69.57288
#
# Poissons Ratio (x) = -0.19332 0.31906
# Poissons Ratio (y) = -0.11623 0.21639
# Poissons Ratio (z) = 0.36146 0.40773
#
# Static dielectric constant tensor:
#      x y z
#    x 1.759600 0.000000 0.000000 
#    y 0.000000 1.840620 0.000000 
#    z 0.000000 0.000000 1.798470 
# 
# From -- ./inp_files/10124.got.cif
#   From: 2010.05.17/outbox.cif.g08.bks.cpg/sg50_6_cif.got.tgz:10124.got - 2010.06.03 11:33:33.
