data_PCOD9397880
_publ_section_title
;
Structure prediction by ZEFSAII (Michael W. Deem and Ramdas Pophale) SiO2 
 PCOD9397880
Probable space group: P B A N
;
_chemical_formula_sum "Si O2"
_cell_formula_units_Z 48
_cell_length_a 8.679397
_cell_length_b 28.494424
_cell_length_c 8.987525
_cell_angle_alpha 90.000000
_cell_angle_beta 90.000000
_cell_angle_gamma 90.000000
_cell_volume 2222.744516
_symmetry_space_group_name_H-M "P B A N"
_symmetry_group_IT_number 50
_space_group.IT_coordinate_system_code '2'
_symmetry_cell_setting 'orthorhombic'
loop_
_space_group_symop_operation_xyz
x,y,z
1/2-x,1/2-y,z
x,1/2-y,-z
1/2-x,y,-z
-x,-y,-z
1/2+x,1/2+y,-z
-x,1/2+y,z
1/2+x,-y,z
loop_
_atom_site_type_symbol
_atom_site_label
_atom_site_fract_x
_atom_site_fract_y
_atom_site_fract_z
Si Si1 0.131076 0.054572 0.125447
Si Si2 0.919495 0.050405 0.856050
Si Si3 0.986878 0.626621 0.356179
Si Si4 0.420251 0.697146 0.441260
Si Si5 0.926291 0.952227 0.444406
Si Si6 0.223644 0.846841 0.169281
O O1 0.117009 0.095170 0.246906
O O2 0.158808 0.000337 0.173669
O O3 0.250000 0.068885 0.000000
O O4 0.973054 0.050820 0.027955
O O5 0.831595 0.098926 0.831248
O O6 0.055069 0.051493 0.732594
O O7 0.032807 0.586822 0.475972
O O8 0.948155 0.667598 0.473829
O O9 0.110944 0.650191 0.248496
O O10 0.435507 0.750000 0.500000
O O11 0.250000 0.681526 0.500000
O O12 0.396018 0.684651 0.266913
O O13 0.750000 0.948125 0.500000
O O14 0.000000 0.000000 0.500000
O O15 0.250000 0.830848 0.000000
#
# Coordination Sequence:
#
# PCOD9397880 Si02
#       6
#     8   8   8   8   8   8
#     4  11  23  36  53  84 124 171 209 252 304 369
#     4  11  23  36  56  85 128 167 210 253 301 377
#     4  11  22  38  61  86 122 165 207 259 317 377
#     4   9  20  39  63  93 124 154 205 268 330 385
#     4  12  26  38  58  90 126 172 220 256 306 376
#     4  11  21  38  64  94 125 164 206 259 321 379
#
# _framework density 21.594925
#
# number of rings (size 3 to 8) (size 9 to 14) (size 15 to 20)
#    0.000    1.167    5.000    1.500    4.667    0.000 
#    0.000    6.667    0.000    0.500    0.000    1.167 
#    0.000    0.000    0.000    0.000    0.000    0.000 
#
# Total GULP energy -267321.183162 kJ/mol
# GULP energy per Si atom -5569.191316 kJ/mol
# Density = 2.154577 g / cm^3
# Si number density = 21.594925 Si / 1000 Ang^3
#
#
#
# Elastic Constant Matrix: (Units=GPa)
#
#
# Indices 1 2 3 4 5 6 
#
# 1 36.0153 15.4246 33.1901 0.0000 0.0000 0.0000
# 2 15.4246 93.1665 69.2190 0.0000 0.0000 0.0000
# 3 33.1901 69.2190 169.0001 0.0000 0.0000 0.0000
# 4 0.0000 0.0000 0.0000 23.4903 0.0000 0.0000
# 5 0.0000 0.0000 0.0000 0.0000 23.4380 0.0000
# 6 0.0000 0.0000 0.0000 0.0000 0.0000 18.3081
#
#
#
# Elastic Compliance Matrix: (Units=1/GPa)
#
#
# Indices 1 2 3 4 5 6 
#
# 1 0.033961 -0.000959 -0.006277 0.000000 0.000000 0.000000
# 2 -0.000959 0.015455 -0.006142 0.000000 0.000000 0.000000
# 3 -0.006277 -0.006142 0.009665 0.000000 0.000000 0.000000
# 4 0.000000 0.000000 0.000000 0.042571 0.000000 0.000000
# 5 0.000000 0.000000 0.000000 0.000000 0.042666 0.000000
# 6 0.000000 0.000000 0.000000 0.000000 0.000000 0.054621
#
#
# Mechanical properties :
#
#
# Convention : Reuss Voigt Hill
#
# Bulk Modulus (GPa) = 30.93451 59.31657 45.12554
# Shear Modulus (GPa) = 21.14432 25.07051 23.10742
#
# Velocity S-wave (km/s) = 3.13251 3.41096 3.27469
# Velocity P-wave (km/s) = 5.23827 6.56051 5.93632
#
# Compressibility (1/GPa) = 0.03232636
#
# Stress axis : x y z
#
# Youngs Moduli (GPa) = 29.44542 64.70221 103.46144
#
# Poissons Ratio (x) = 0.06206 0.64941
# Poissons Ratio (y) = 0.02824 0.63544
# Poissons Ratio (z) = 0.18482 0.39739
#
# Static dielectric constant tensor:
#      x y z
#    x 1.925440 0.000000 0.000000 
#    y 0.000000 1.820600 0.000000 
#    z 0.000000 0.000000 1.907700 
# 
# From -- ./inp_files/10047.got.cif
#   From: 2010.05.17/outbox.cif.g08.bks.cpg/sg50_6_cif.got.tgz:10047.got - 2010.06.03 11:33:33.
