data_PCOD9397159
_publ_section_title
;
Structure prediction by ZEFSAII (Michael W. Deem and Ramdas Pophale) SiO2 
 PCOD9397159
Probable space group: P B A N
;
_chemical_formula_sum "Si O2"
_cell_formula_units_Z 58
_cell_length_a 27.482925
_cell_length_b 12.025711
_cell_length_c 9.289622
_cell_angle_alpha 90.000000
_cell_angle_beta 90.000000
_cell_angle_gamma 90.000000
_cell_volume 3070.235989
_symmetry_space_group_name_H-M "P B A N"
_symmetry_group_IT_number 50
_space_group.IT_coordinate_system_code '2'
_symmetry_cell_setting 'orthorhombic'
loop_
_space_group_symop_operation_xyz
x,y,z
1/2-x,1/2-y,z
x,1/2-y,-z
1/2-x,y,-z
-x,-y,-z
1/2+x,1/2+y,-z
-x,1/2+y,z
1/2+x,-y,z
loop_
_atom_site_type_symbol
_atom_site_label
_atom_site_fract_x
_atom_site_fract_y
_atom_site_fract_z
Si Si1 0.724889 0.059925 0.647719
Si Si2 0.250000 0.250000 0.000000
Si Si3 0.471635 0.356578 0.099682
Si Si4 0.172612 0.639286 0.086389
Si Si5 0.303034 0.047720 0.859462
Si Si6 0.113971 0.345279 0.690699
Si Si7 0.072233 0.528922 0.128896
Si Si8 0.867512 0.599519 0.628439
O O1 0.750000 0.099768 0.500000
O O2 0.697037 0.143757 0.755902
O O3 0.767156 0.005641 0.743621
O O4 0.683052 0.967663 0.617483
O O5 0.282814 0.166630 0.908218
O O6 0.436815 0.325456 0.231005
O O7 0.521579 0.409045 0.157028
O O8 0.481814 0.250000 0.000000
O O9 0.442195 0.444721 0.999890
O O10 0.114845 0.616543 0.092398
O O11 0.183990 0.750000 0.000000
O O12 0.192312 0.532364 0.997772
O O13 0.354381 0.069816 0.784313
O O14 0.109550 0.391065 0.529692
O O15 0.140610 0.225816 0.680525
O O16 0.096285 0.460143 0.259790
#
# Coordination Sequence:
#
# PCOD9397159 Si02
#       8
#     8   2   8   8   8   8   8   8
#     4  11  22  42  63  94 128 168 212 260 318 376
#     4  12  24  36  60  92 128 164 218 258 324 368
#     4  11  21  37  64  92 120 155 213 268 321 382
#     4  11  24  44  65  90 128 168 216 262 314 377
#     4  12  23  38  61  92 127 168 211 266 310 376
#     4  11  22  36  60  91 130 165 203 259 324 389
#     4  10  22  39  63  90 118 164 208 267 320 374
#     4  10  22  39  60  91 132 167 201 258 326 385
#
# _framework density 18.891055999999999
#
# number of rings (size 3 to 8) (size 9 to 14) (size 15 to 20)
#    0.000    1.103    5.517    1.241    2.897    1.655 
#    0.000    1.379    0.000    0.000    0.000    0.000 
#    0.000    0.000    0.000    0.000    0.000    0.000 
#
# Total GULP energy -323884.805630 kJ/mol
# GULP energy per Si atom -5584.220787 kJ/mol
# Density = 1.884806 g / cm^3
# Si number density = 18.891056 Si / 1000 Ang^3
#
#
#
# Elastic Constant Matrix: (Units=GPa)
#
#
# Indices 1 2 3 4 5 6 
#
# 1 97.4256 17.9997 41.7220 0.0000 0.0000 0.0000
# 2 17.9997 55.6755 20.9680 0.0000 0.0000 0.0000
# 3 41.7220 20.9680 97.4641 0.0000 0.0000 0.0000
# 4 0.0000 0.0000 0.0000 23.3023 0.0000 0.0000
# 5 0.0000 0.0000 0.0000 0.0000 63.0797 0.0000
# 6 0.0000 0.0000 0.0000 0.0000 0.0000 15.3844
#
#
#
# Elastic Compliance Matrix: (Units=1/GPa)
#
#
# Indices 1 2 3 4 5 6 
#
# 1 0.012825 -0.002262 -0.005003 0.000000 0.000000 0.000000
# 2 -0.002262 0.019944 -0.003322 0.000000 0.000000 0.000000
# 3 -0.005003 -0.003322 0.013117 0.000000 0.000000 0.000000
# 4 0.000000 0.000000 0.000000 0.042914 0.000000 0.000000
# 5 0.000000 0.000000 0.000000 0.000000 0.015853 0.000000
# 6 0.000000 0.000000 0.000000 0.000000 0.000000 0.065001
#
#
# Mechanical properties :
#
#
# Convention : Reuss Voigt Hill
#
# Bulk Modulus (GPa) = 40.46931 45.77161 43.12046
# Shear Modulus (GPa) = 25.11739 31.67831 28.39785
#
# Velocity S-wave (km/s) = 3.65031 4.09943 3.88137
# Velocity P-wave (km/s) = 6.26381 6.83293 6.55455
#
# Compressibility (1/GPa) = 0.02471008
#
# Stress axis : x y z
#
# Youngs Moduli (GPa) = 77.97388 50.14107 76.23829
#
# Poissons Ratio (x) = 0.11341 0.38145
# Poissons Ratio (y) = 0.17637 0.25329
# Poissons Ratio (z) = 0.39013 0.16659
#
# Static dielectric constant tensor:
#      x y z
#    x 1.647780 0.000000 0.000000 
#    y 0.000000 1.589800 0.000000 
#    z 0.000000 0.000000 1.665660 
# 
# From -- ./inp_files/16543.got.cif
#   From: 2010.05.17/outbox.cif.g08.bks.cpg/sg50_9_cif.got.tgz:16543.got - 2010.06.03 11:33:33.
