data_PCOD9397130
_publ_section_title
;
Structure prediction by ZEFSAII (Michael W. Deem and Ramdas Pophale) SiO2 
 PCOD9397130
Probable space group: P B A N
;
_chemical_formula_sum "Si O2"
_cell_formula_units_Z 40
_cell_length_a 9.684683
_cell_length_b 14.000947
_cell_length_c 14.334629
_cell_angle_alpha 90.000000
_cell_angle_beta 90.000000
_cell_angle_gamma 90.000000
_cell_volume 1943.700198
_symmetry_space_group_name_H-M "P B A N"
_symmetry_group_IT_number 50
_space_group.IT_coordinate_system_code '2'
_symmetry_cell_setting 'orthorhombic'
loop_
_space_group_symop_operation_xyz
x,y,z
1/2-x,1/2-y,z
x,1/2-y,-z
1/2-x,y,-z
-x,-y,-z
1/2+x,1/2+y,-z
-x,1/2+y,z
1/2+x,-y,z
loop_
_atom_site_type_symbol
_atom_site_label
_atom_site_fract_x
_atom_site_fract_y
_atom_site_fract_z
Si Si1 0.414986 0.402655 0.508770
Si Si2 0.521080 0.745361 0.653256
Si Si3 0.750000 0.750000 0.207038
Si Si4 0.114773 0.109499 0.937837
Si Si5 0.750000 0.250000 0.774267
Si Si6 0.627596 0.395488 0.073974
O O1 0.250000 0.417289 0.500000
O O2 0.500000 0.500000 0.500000
O O3 0.477216 0.332600 0.429050
O O4 0.432628 0.344264 0.605086
O O5 0.634569 0.705672 0.725853
O O6 0.379513 0.768030 0.706527
O O7 0.840895 0.820217 0.143774
O O8 0.081783 0.003364 0.899057
O O9 0.250000 0.101398 0.000000
O O10 0.997822 0.142772 0.010351
O O11 0.688937 0.167369 0.842391
O O12 0.750000 0.402313 0.000000
#
# Coordination Sequence:
#
# PCOD9397130 Si02
#       6
#     8   8   4   8   4   8
#     4  11  25  48  75  97 135 180 214 271 349 418
#     4  11  25  44  66 102 142 168 228 281 336 417
#     4  12  21  39  68  96 128 184 224 285 335 398
#     4  10  22  38  63  89 127 177 228 267 328 392
#     4  12  25  37  68 102 134 180 224 291 337 388
#     4  10  22  42  59  91 134 175 224 278 323 385
#
# _framework density 20.579305999999999
#
# number of rings (size 3 to 8) (size 9 to 14) (size 15 to 20)
#    0.000    1.200    2.000    3.600    2.800    5.600 
#    0.000    0.000    0.000    0.000    0.000    0.000 
#    0.000    0.000    0.000    0.000    0.000    0.000 
#
# Total GULP energy -223185.576828 kJ/mol
# GULP energy per Si atom -5579.639421 kJ/mol
# Density = 2.053247 g / cm^3
# Si number density = 20.579306 Si / 1000 Ang^3
#
#
#
# Elastic Constant Matrix: (Units=GPa)
#
#
# Indices 1 2 3 4 5 6 
#
# 1 165.8993 46.7474 59.6864 0.0000 0.0000 0.0000
# 2 46.7474 131.6151 53.9614 0.0000 0.0000 0.0000
# 3 59.6864 53.9614 109.1199 0.0000 0.0000 0.0000
# 4 0.0000 0.0000 0.0000 -8.3369 0.0000 0.0000
# 5 0.0000 0.0000 0.0000 0.0000 69.5564 0.0000
# 6 0.0000 0.0000 0.0000 0.0000 0.0000 27.9673
#
#
#
# Elastic Compliance Matrix: (Units=1/GPa)
#
#
# Indices 1 2 3 4 5 6 
#
# 1 0.007667 -0.001259 -0.003571 0.000000 0.000000 0.000000
# 2 -0.001259 0.009737 -0.004126 0.000000 0.000000 0.000000
# 3 -0.003571 -0.004126 0.013158 0.000000 0.000000 0.000000
# 4 0.000000 0.000000 0.000000 -0.119949 0.000000 0.000000
# 5 0.000000 0.000000 0.000000 0.000000 0.014377 0.000000
# 6 0.000000 0.000000 0.000000 0.000000 0.000000 0.035756
#
#
# Mechanical properties :
#
#
# Convention : Reuss Voigt Hill
#
# Bulk Modulus (GPa) = 79.05734 80.82497 79.94115
# Shear Modulus (GPa) = -291.99303 34.25329 -128.86987
#
# Velocity S-wave (km/s) = -11.92454 4.08420 -7.92193
# Velocity P-wave (km/s) = 12.29202 7.84863 6.68927
#
# Compressibility (1/GPa) = 0.01264905
#
# Stress axis : x y z
#
# Youngs Moduli (GPa) = 130.42229 102.70212 75.99842
#
# Poissons Ratio (x) = 0.12932 0.27141
# Poissons Ratio (y) = 0.16422 0.31359
# Poissons Ratio (z) = 0.46577 0.42378
#
# Static dielectric constant tensor:
#      x y z
#    x 1.678220 0.000000 0.000000 
#    y 0.000000 1.809790 0.000000 
#    z 0.000000 0.000000 1.730750 
# 
# From -- ./inp_files/24706.got.cif
#   From: 2010.05.17/outbox.cif.g08.bks.cpg/sg50_13_cif.got.tgz:24706.got - 2010.06.03 11:33:33.
