data_PCOD9397626
_publ_section_title
;
Structure prediction by ZEFSAII (Michael W. Deem and Ramdas Pophale) SiO2 
 PCOD9397626
Probable space group: P B A N
;
_chemical_formula_sum "Si O2"
_cell_formula_units_Z 56
_cell_length_a 13.801148
_cell_length_b 13.303770
_cell_length_c 13.817078
_cell_angle_alpha 90.000000
_cell_angle_beta 90.000000
_cell_angle_gamma 90.000000
_cell_volume 2536.916368
_symmetry_space_group_name_H-M "P B A N"
_symmetry_group_IT_number 50
_space_group.IT_coordinate_system_code '2'
_symmetry_cell_setting 'orthorhombic'
loop_
_space_group_symop_operation_xyz
x,y,z
1/2-x,1/2-y,z
x,1/2-y,-z
1/2-x,y,-z
-x,-y,-z
1/2+x,1/2+y,-z
-x,1/2+y,z
1/2+x,-y,z
loop_
_atom_site_type_symbol
_atom_site_label
_atom_site_fract_x
_atom_site_fract_y
_atom_site_fract_z
Si Si1 0.919160 0.010275 0.871410
Si Si2 0.582211 0.864515 0.967871
Si Si3 0.244395 0.631372 0.111045
Si Si4 0.766230 0.944041 0.612159
Si Si5 0.156644 0.317123 0.231323
Si Si6 0.532881 0.634033 0.702042
Si Si7 0.815917 0.351859 0.688941
O O1 0.970993 0.952082 0.785192
O O2 0.834578 0.080789 0.834861
O O3 0.877532 0.923617 0.940731
O O4 0.981111 0.083916 0.939565
O O5 0.639534 0.875186 0.868297
O O6 0.571335 0.750000 0.000000
O O7 0.250000 0.750000 0.099743
O O8 0.166327 0.621528 0.196104
O O9 0.250000 0.592745 0.000000
O O10 0.750000 0.923142 0.500000
O O11 0.687937 0.885110 0.678783
O O12 0.874020 0.904577 0.640019
O O13 0.743104 0.060206 0.635480
O O14 0.250000 0.250000 0.212196
O O15 0.067872 0.241468 0.253310
O O16 0.428048 0.650455 0.652835
O O17 0.750000 0.250000 0.683432
#
# Coordination Sequence:
#
# PCOD9397626 Si02
#       7
#     8   8   8   8   8   8   8
#     4  11  24  40  64 101 144 193 245 290 366 436
#     4  11  24  38  65  96 144 193 244 295 353 440
#     4  10  24  38  62  98 147 195 238 292 357 433
#     4  11  26  51  75 103 140 185 245 312 386 457
#     4  10  24  43  67  98 137 180 239 297 362 440
#     4  11  24  46  72 107 142 189 241 305 376 440
#     4  11  26  45  72 107 146 189 243 307 368 445
#
# _framework density 22.074041999999999
#
# number of rings (size 3 to 8) (size 9 to 14) (size 15 to 20)
#    0.000    1.286    2.857    0.857   12.000    4.857 
#    0.000    1.429    0.000    0.000    0.000    0.000 
#    0.000    0.000    0.000    0.000    0.000    0.000 
#
# Total GULP energy -312312.621796 kJ/mol
# GULP energy per Si atom -5577.011104 kJ/mol
# Density = 2.202380 g / cm^3
# Si number density = 22.074042 Si / 1000 Ang^3
#
#
#
# Elastic Constant Matrix: (Units=GPa)
#
#
# Indices 1 2 3 4 5 6 
#
# 1 101.6842 43.9265 19.3427 0.0000 0.0000 0.0000
# 2 43.9265 107.8476 19.9858 0.0000 0.0000 0.0000
# 3 19.3427 19.9858 105.7263 0.0000 0.0000 0.0000
# 4 0.0000 0.0000 0.0000 12.9759 0.0000 0.0000
# 5 0.0000 0.0000 0.0000 0.0000 12.7825 0.0000
# 6 0.0000 0.0000 0.0000 0.0000 0.0000 11.9182
#
#
#
# Elastic Compliance Matrix: (Units=1/GPa)
#
#
# Indices 1 2 3 4 5 6 
#
# 1 0.012112 -0.004687 -0.001330 0.000000 0.000000 0.000000
# 2 -0.004687 0.011423 -0.001302 0.000000 0.000000 0.000000
# 3 -0.001330 -0.001302 0.009948 0.000000 0.000000 0.000000
# 4 0.000000 0.000000 0.000000 0.077066 0.000000 0.000000
# 5 0.000000 0.000000 0.000000 0.000000 0.078232 0.000000
# 6 0.000000 0.000000 0.000000 0.000000 0.000000 0.083905
#
#
# Mechanical properties :
#
#
# Convention : Reuss Voigt Hill
#
# Bulk Modulus (GPa) = 53.06371 53.52981 53.29676
# Shear Modulus (GPa) = 17.02972 23.00220 20.01596
#
# Velocity S-wave (km/s) = 2.78057 3.23158 3.01452
# Velocity P-wave (km/s) = 5.86514 6.18279 6.02606
#
# Compressibility (1/GPa) = 0.01884527
#
# Stress axis : x y z
#
# Youngs Moduli (GPa) = 82.56283 87.54643 100.52499
#
# Poissons Ratio (x) = 0.41031 0.13369
# Poissons Ratio (y) = 0.38695 0.13086
# Poissons Ratio (z) = 0.10980 0.11397
#
# Static dielectric constant tensor:
#      x y z
#    x 1.886320 0.000000 0.000000 
#    y 0.000000 1.825960 0.000000 
#    z 0.000000 0.000000 1.834210 
# 
# From -- ./inp_files/26487.got.cif
#   From: 2010.05.17/outbox.cif.g08.bks.cpg/sg50_14_cif.got.tgz:26487.got - 2010.06.03 11:33:33.
