data_PCOD9397284
_publ_section_title
;
Structure prediction by ZEFSAII (Michael W. Deem and Ramdas Pophale) SiO2 
 PCOD9397284
Probable space group: P B A N
;
_chemical_formula_sum "Si O2"
_cell_formula_units_Z 40
_cell_length_a 24.079732
_cell_length_b 9.962705
_cell_length_c 8.329813
_cell_angle_alpha 90.000000
_cell_angle_beta 90.000000
_cell_angle_gamma 90.000000
_cell_volume 1998.316028
_symmetry_space_group_name_H-M "P B A N"
_symmetry_group_IT_number 50
_space_group.IT_coordinate_system_code '2'
_symmetry_cell_setting 'orthorhombic'
loop_
_space_group_symop_operation_xyz
x,y,z
1/2-x,1/2-y,z
x,1/2-y,-z
1/2-x,y,-z
-x,-y,-z
1/2+x,1/2+y,-z
-x,1/2+y,z
1/2+x,-y,z
loop_
_atom_site_type_symbol
_atom_site_label
_atom_site_fract_x
_atom_site_fract_y
_atom_site_fract_z
Si Si1 0.247133 0.598292 0.690521
Si Si2 0.842022 0.618066 0.214071
Si Si3 0.159417 0.086443 0.833546
Si Si4 0.034279 0.178252 0.326851
Si Si5 0.972290 0.547961 0.831040
O O1 0.250000 0.750000 0.755781
O O2 0.250000 0.606602 0.500000
O O3 0.193401 0.505139 0.720715
O O4 0.299705 0.522684 0.764237
O O5 0.825349 0.772096 0.251797
O O6 0.906163 0.620855 0.268607
O O7 0.834145 0.605201 0.023410
O O8 0.094574 0.049338 0.820485
O O9 0.038514 0.250000 0.500000
O O10 0.013944 0.297115 0.207758
O O11 0.993677 0.053068 0.305739
O O12 0.000000 0.500000 0.000000
#
# Coordination Sequence:
#
# PCOD9397284 Si02
#       5
#     8   8   8   8   8
#     4  11  26  44  62  96 135 170 215 274 340 398
#     4  10  22  41  69  93 127 170 224 270 324 398
#     4  10  22  42  67  96 126 171 224 271 322 398
#     4  11  24  41  66 101 135 177 223 280 337 401
#     4  11  22  43  66  97 136 174 225 273 334 405
#
# _framework density 20.016852
#
# number of rings (size 3 to 8) (size 9 to 14) (size 15 to 20)
#    0.000    1.400    2.000    2.400    5.600    5.600 
#    7.200    0.000    0.000    0.000    0.000    0.000 
#    0.000    0.000    0.000    0.000    0.000    0.000 
#
# Total GULP energy -223159.685816 kJ/mol
# GULP energy per Si atom -5578.992145 kJ/mol
# Density = 1.997129 g / cm^3
# Si number density = 20.016852 Si / 1000 Ang^3
#
#
#
# Elastic Constant Matrix: (Units=GPa)
#
#
# Indices 1 2 3 4 5 6 
#
# 1 72.6999 95.8500 23.3606 0.0000 0.0000 0.0000
# 2 95.8500 186.7796 36.0616 0.0000 0.0000 0.0000
# 3 23.3606 36.0616 68.8133 0.0000 0.0000 0.0000
# 4 0.0000 0.0000 0.0000 35.8735 0.0000 0.0000
# 5 0.0000 0.0000 0.0000 0.0000 212.9578 0.0000
# 6 0.0000 0.0000 0.0000 0.0000 0.0000 39.0424
#
#
#
# Elastic Compliance Matrix: (Units=1/GPa)
#
#
# Indices 1 2 3 4 5 6 
#
# 1 0.043231 -0.021530 -0.003393 0.000000 0.000000 0.000000
# 2 -0.021530 0.016679 -0.001432 0.000000 0.000000 0.000000
# 3 -0.003393 -0.001432 0.016434 0.000000 0.000000 0.000000
# 4 0.000000 0.000000 0.000000 0.027876 0.000000 0.000000
# 5 0.000000 0.000000 0.000000 0.000000 0.004696 0.000000
# 6 0.000000 0.000000 0.000000 0.000000 0.000000 0.025613
#
#
# Mechanical properties :
#
#
# Convention : Reuss Voigt Hill
#
# Bulk Modulus (GPa) = 42.31068 70.98190 56.64629
# Shear Modulus (GPa) = 25.62565 69.10945 47.36755
#
# Velocity S-wave (km/s) = 3.58188 5.88223 4.86983
# Velocity P-wave (km/s) = 6.18788 9.03727 7.74474
#
# Compressibility (1/GPa) = 0.02363469
#
# Stress axis : x y z
#
# Youngs Moduli (GPa) = 23.13140 59.95620 60.84847
#
# Poissons Ratio (x) = 1.29085 0.20648
# Poissons Ratio (y) = 0.49802 0.08711
# Poissons Ratio (z) = 0.07849 0.08583
#
# Static dielectric constant tensor:
#      x y z
#    x 1.712750 0.000000 0.000000 
#    y 0.000000 1.703070 0.000000 
#    z 0.000000 0.000000 1.720300 
# 
# From -- ./inp_files/9547.got.cif
#   From: 2010.05.17/outbox.cif.g08.bks.cpg/sg50_5_cif.got.tgz:9547.got - 2010.06.03 11:33:33.
