data_PCOD9397235
_publ_section_title
;
Structure prediction by ZEFSAII (Michael W. Deem and Ramdas Pophale) SiO2 
 PCOD9397235
Probable space group: P B A N
;
_chemical_formula_sum "Si O2"
_cell_formula_units_Z 26
_cell_length_a 9.391344
_cell_length_b 24.454507
_cell_length_c 4.861992
_cell_angle_alpha 90.000000
_cell_angle_beta 90.000000
_cell_angle_gamma 90.000000
_cell_volume 1116.608426
_symmetry_space_group_name_H-M "P B A N"
_symmetry_group_IT_number 50
_space_group.IT_coordinate_system_code '2'
_symmetry_cell_setting 'orthorhombic'
loop_
_space_group_symop_operation_xyz
x,y,z
1/2-x,1/2-y,z
x,1/2-y,-z
1/2-x,y,-z
-x,-y,-z
1/2+x,1/2+y,-z
-x,1/2+y,z
1/2+x,-y,z
loop_
_atom_site_type_symbol
_atom_site_label
_atom_site_fract_x
_atom_site_fract_y
_atom_site_fract_z
Si Si1 0.941291 0.750000 0.000000
Si Si2 0.006234 0.550485 0.705478
Si Si3 0.150148 0.661429 0.740944
Si Si4 0.750000 0.515248 0.000000
Si Si5 0.250000 0.250000 0.500000
O O1 0.037502 0.795895 0.140995
O O2 0.853666 0.724203 0.262407
O O3 0.068377 0.608573 0.619155
O O4 0.000000 0.500000 0.500000
O O5 0.844463 0.554740 0.809692
O O6 0.126906 0.526256 0.906302
O O7 0.250000 0.684014 0.500000
O O8 0.250000 0.646229 0.000000
#
# Coordination Sequence:
#
# PCOD9397235 Si02
#       5
#     4   8   8   4   2
#     4  11  25  48  76 108 153 195 258 322 390 468
#     4  11  23  43  67 106 145 193 247 312 374 465
#     4  12  26  46  76 110 147 197 255 318 387 453
#     4  10  22  40  68  96 144 190 242 302 378 442
#     4  10  24  50  74 106 152 194 252 328 380 462
#
# _framework density 23.284794999999999
#
# number of rings (size 3 to 8) (size 9 to 14) (size 15 to 20)
#    0.000    0.923    1.538    5.077    4.308    3.692 
#    5.538    0.000    0.000    0.000    0.000    0.000 
#    0.000    0.000    0.000    0.000    0.000    0.000 
#
# Total GULP energy -144800.049803 kJ/mol
# GULP energy per Si atom -5569.232685 kJ/mol
# Density = 2.323180 g / cm^3
# Si number density = 23.284795 Si / 1000 Ang^3
#
#
#
# Elastic Constant Matrix: (Units=GPa)
#
#
# Indices 1 2 3 4 5 6 
#
# 1 150.2188 44.6908 64.7543 0.0000 0.0000 0.0000
# 2 44.6908 108.4304 30.4318 0.0000 0.0000 0.0000
# 3 64.7543 30.4318 139.0806 0.0000 0.0000 0.0000
# 4 0.0000 0.0000 0.0000 24.3296 0.0000 0.0000
# 5 0.0000 0.0000 0.0000 0.0000 51.8996 0.0000
# 6 0.0000 0.0000 0.0000 0.0000 0.0000 -2.5632
#
#
#
# Elastic Compliance Matrix: (Units=1/GPa)
#
#
# Indices 1 2 3 4 5 6 
#
# 1 0.009016 -0.002704 -0.003606 0.000000 0.000000 0.000000
# 2 -0.002704 0.010637 -0.001068 0.000000 0.000000 0.000000
# 3 -0.003606 -0.001068 0.009103 0.000000 0.000000 0.000000
# 4 0.000000 0.000000 0.000000 0.041102 0.000000 0.000000
# 5 0.000000 0.000000 0.000000 0.000000 0.019268 0.000000
# 6 0.000000 0.000000 0.000000 0.000000 0.000000 -0.390136
#
#
# Mechanical properties :
#
#
# Convention : Reuss Voigt Hill
#
# Bulk Modulus (GPa) = 71.43589 75.27597 73.35593
# Shear Modulus (GPa) = -17.75646 31.92340 7.08347
#
# Velocity S-wave (km/s) = -2.76448 3.70672 1.74605
# Velocity P-wave (km/s) = 4.53388 7.12167 5.96968
#
# Compressibility (1/GPa) = 0.01399857
#
# Stress axis : x y z
#
# Youngs Moduli (GPa) = 110.91610 94.01296 109.85638
#
# Poissons Ratio (x) = 0.25420 0.39615
# Poissons Ratio (y) = 0.29991 0.11738
# Poissons Ratio (z) = 0.39997 0.10045
#
# Static dielectric constant tensor:
#      x y z
#    x 1.901440 0.000000 0.000000 
#    y 0.000000 1.914560 0.000000 
#    z 0.000000 0.000000 1.942670 
# 
# From -- ./inp_files/967.got.cif
#   From: 2010.05.17/outbox.cif.g08.bks.cpg/sg50_1_cif.got.tgz:967.got - 2010.06.03 11:33:33.
