data_PCOD9397860
_publ_section_title
;
Structure prediction by ZEFSAII (Michael W. Deem and Ramdas Pophale) SiO2 
 PCOD9397860
Probable space group: P B A N
;
_chemical_formula_sum "Si O2"
_cell_formula_units_Z 44
_cell_length_a 17.623999
_cell_length_b 9.727688
_cell_length_c 14.194748
_cell_angle_alpha 90.000000
_cell_angle_beta 90.000000
_cell_angle_gamma 90.000000
_cell_volume 2433.558436
_symmetry_space_group_name_H-M "P B A N"
_symmetry_group_IT_number 50
_space_group.IT_coordinate_system_code '2'
_symmetry_cell_setting 'orthorhombic'
loop_
_space_group_symop_operation_xyz
x,y,z
1/2-x,1/2-y,z
x,1/2-y,-z
1/2-x,y,-z
-x,-y,-z
1/2+x,1/2+y,-z
-x,1/2+y,z
1/2+x,-y,z
loop_
_atom_site_type_symbol
_atom_site_label
_atom_site_fract_x
_atom_site_fract_y
_atom_site_fract_z
Si Si1 0.416911 0.467150 0.849725
Si Si2 0.250000 0.750000 0.000000
Si Si3 0.685002 0.353131 0.683247
Si Si4 0.754920 0.911421 0.804361
Si Si5 0.449409 0.780582 0.813051
Si Si6 0.139163 0.967756 0.035099
Si Si7 0.250000 0.750000 0.500000
O O1 0.331949 0.460599 0.810077
O O2 0.451897 0.618834 0.834622
O O3 0.468886 0.350273 0.804319
O O4 0.409293 0.444314 0.962551
O O5 0.311660 0.636414 0.968406
O O6 0.750000 0.250000 0.726080
O O7 0.703715 0.502730 0.722813
O O8 0.604664 0.304500 0.722898
O O9 0.698465 0.337324 0.571995
O O10 0.750000 0.750000 0.790311
O O11 0.804204 0.945969 0.898497
O O12 0.409085 0.870026 0.896134
#
# Coordination Sequence:
#
# PCOD9397860 Si02
#       7
#     8   2   8   8   8   8   2
#     4  12  22  37  51  80 120 159 201 245 294 341
#     4  12  16  34  58  68  96 154 220 268 286 304
#     4   9  19  40  68  88 108 145 195 240 299 362
#     4  11  23  38  58  84 117 156 203 254 291 345
#     4  11  23  35  54  84 117 156 195 247 302 352
#     4  11  21  35  55  74 110 162 218 254 283 324
#     4   8  16  38  78  96 102 132 204 248 282 388
#
# _framework density 18.08052
#
# number of rings (size 3 to 8) (size 9 to 14) (size 15 to 20)
#    0.545    0.727    5.455    0.545    7.636    1.455 
#    0.000    0.455    0.000    4.364    0.000    0.000 
#    0.000    0.000    0.000    0.000    0.000    0.000 
#
# Total GULP energy -244990.766564 kJ/mol
# GULP energy per Si atom -5567.971967 kJ/mol
# Density = 1.803937 g / cm^3
# Si number density = 18.080520 Si / 1000 Ang^3
#
#
#
# Elastic Constant Matrix: (Units=GPa)
#
#
# Indices 1 2 3 4 5 6 
#
# 1 74.3497 21.3160 30.2013 0.0000 0.0000 0.0000
# 2 21.3160 111.9855 30.1622 0.0000 0.0000 0.0000
# 3 30.2013 30.1622 100.0226 0.0000 0.0000 0.0000
# 4 0.0000 0.0000 0.0000 7.9074 0.0000 0.0000
# 5 0.0000 0.0000 0.0000 0.0000 18.0177 0.0000
# 6 0.0000 0.0000 0.0000 0.0000 0.0000 32.8543
#
#
#
# Elastic Compliance Matrix: (Units=1/GPa)
#
#
# Indices 1 2 3 4 5 6 
#
# 1 0.015678 -0.001860 -0.004173 0.000000 0.000000 0.000000
# 2 -0.001860 0.009940 -0.002436 0.000000 0.000000 0.000000
# 3 -0.004173 -0.002436 0.011992 0.000000 0.000000 0.000000
# 4 0.000000 0.000000 0.000000 0.126464 0.000000 0.000000
# 5 0.000000 0.000000 0.000000 0.000000 0.055501 0.000000
# 6 0.000000 0.000000 0.000000 0.000000 0.000000 0.030437
#
#
# Mechanical properties :
#
#
# Convention : Reuss Voigt Hill
#
# Bulk Modulus (GPa) = 48.37362 49.96853 49.17108
# Shear Modulus (GPa) = 18.25871 25.40110 21.82991
#
# Velocity S-wave (km/s) = 3.18127 3.75225 3.47850
# Velocity P-wave (km/s) = 6.34875 6.81683 6.58695
#
# Compressibility (1/GPa) = 0.02067242
#
# Stress axis : x y z
#
# Youngs Moduli (GPa) = 63.78189 100.60502 83.38718
#
# Poissons Ratio (x) = 0.18716 0.34798
# Poissons Ratio (y) = 0.11866 0.20310
# Poissons Ratio (z) = 0.26616 0.24504
#
# Static dielectric constant tensor:
#      x y z
#    x 1.682580 0.000000 0.000000 
#    y 0.000000 1.627860 0.000000 
#    z 0.000000 0.000000 1.610370 
# 
# From -- ./inp_files/26819.got.cif
#   From: 2010.05.17/outbox.cif.g08.bks.cpg/sg50_14_cif.got.tgz:26819.got - 2010.06.03 11:33:33.
