data_PCOD9397769
_publ_section_title
;
Structure prediction by ZEFSAII (Michael W. Deem and Ramdas Pophale) SiO2 
 PCOD9397769
Probable space group: P B A N
;
_chemical_formula_sum "Si O2"
_cell_formula_units_Z 38
_cell_length_a 17.432217
_cell_length_b 17.568758
_cell_length_c 5.133549
_cell_angle_alpha 90.000000
_cell_angle_beta 90.000000
_cell_angle_gamma 90.000000
_cell_volume 1572.213047
_symmetry_space_group_name_H-M "P B A N"
_symmetry_group_IT_number 50
_space_group.IT_coordinate_system_code '2'
_symmetry_cell_setting 'orthorhombic'
loop_
_space_group_symop_operation_xyz
x,y,z
1/2-x,1/2-y,z
x,1/2-y,-z
1/2-x,y,-z
-x,-y,-z
1/2+x,1/2+y,-z
-x,1/2+y,z
1/2+x,-y,z
loop_
_atom_site_type_symbol
_atom_site_label
_atom_site_fract_x
_atom_site_fract_y
_atom_site_fract_z
Si Si1 0.250000 0.750000 0.500000
Si Si2 0.750000 0.611955 0.000000
Si Si3 0.164876 0.031669 0.388654
Si Si4 0.537743 0.330965 0.890532
Si Si5 0.121762 0.630157 0.374235
Si Si6 0.879041 0.674216 0.672630
O O1 0.193066 0.690061 0.352390
O O2 0.682544 0.554099 0.907684
O O3 0.795676 0.666812 0.803954
O O4 0.250000 0.044552 0.500000
O O5 0.111838 0.098214 0.498656
O O6 0.144527 0.948739 0.486766
O O7 0.564326 0.336974 0.592722
O O8 0.446255 0.331234 0.884847
O O9 0.562966 0.250000 0.000000
O O10 0.580386 0.385033 0.098058
O O11 0.886002 0.750000 0.500000
#
# Coordination Sequence:
#
# PCOD9397769 Si02
#       6
#     2   4   8   8   8   8
#     4  12  24  50  80 114 150 212 244 322 380 482
#     4  10  26  49  76 113 148 206 262 321 398 462
#     4  10  25  46  72 113 152 198 255 331 377 470
#     4  12  27  49  73 113 153 203 255 323 381 465
#     4  12  27  47  80 113 153 201 260 309 400 458
#     4  11  27  49  75 107 155 203 262 324 391 463
#
# _framework density 24.169754000000001
#
# number of rings (size 3 to 8) (size 9 to 14) (size 15 to 20)
#    0.000    0.842    3.158    1.263   11.789    8.000 
#    0.000    0.000    0.000    0.000    0.000    0.000 
#    0.000    0.000    0.000    0.000    0.000    0.000 
#
# Total GULP energy -212111.935011 kJ/mol
# GULP energy per Si atom -5581.893027 kJ/mol
# Density = 2.411474 g / cm^3
# Si number density = 24.169754 Si / 1000 Ang^3
#
#
#
# Elastic Constant Matrix: (Units=GPa)
#
#
# Indices 1 2 3 4 5 6 
#
# 1 92.5514 56.1889 43.1273 0.0000 0.0000 0.0000
# 2 56.1889 155.4211 23.7423 0.0000 0.0000 0.0000
# 3 43.1273 23.7423 92.0699 0.0000 0.0000 0.0000
# 4 0.0000 0.0000 0.0000 28.6315 0.0000 0.0000
# 5 0.0000 0.0000 0.0000 0.0000 22.8389 0.0000
# 6 0.0000 0.0000 0.0000 0.0000 0.0000 16.3080
#
#
#
# Elastic Compliance Matrix: (Units=1/GPa)
#
#
# Indices 1 2 3 4 5 6 
#
# 1 0.017023 -0.005138 -0.006649 0.000000 0.000000 0.000000
# 2 -0.005138 0.008249 0.000280 0.000000 0.000000 0.000000
# 3 -0.006649 0.000280 0.013904 0.000000 0.000000 0.000000
# 4 0.000000 0.000000 0.000000 0.034927 0.000000 0.000000
# 5 0.000000 0.000000 0.000000 0.000000 0.043785 0.000000
# 6 0.000000 0.000000 0.000000 0.000000 0.000000 0.061320
#
#
# Mechanical properties :
#
#
# Convention : Reuss Voigt Hill
#
# Bulk Modulus (GPa) = 61.87938 65.12884 63.50411
# Shear Modulus (GPa) = 24.08386 28.02127 26.05257
#
# Velocity S-wave (km/s) = 3.16008 3.40862 3.28670
# Velocity P-wave (km/s) = 6.24279 6.51894 6.38235
#
# Compressibility (1/GPa) = 0.01616047
#
# Stress axis : x y z
#
# Youngs Moduli (GPa) = 58.74557 121.22550 71.92425
#
# Poissons Ratio (x) = 0.62291 0.47820
# Poissons Ratio (y) = 0.30186 -0.02012
# Poissons Ratio (z) = 0.39058 -0.03391
#
# Static dielectric constant tensor:
#      x y z
#    x 1.958540 0.000000 0.000000 
#    y 0.000000 1.978060 0.000000 
#    z 0.000000 0.000000 2.328570 
# 
# From -- ./inp_files/4241.got.cif
#   From: 2010.05.17/outbox.cif.g08.bks.cpg/sg50_3_cif.got.tgz:4241.got - 2010.06.03 11:33:33.
