data_PCOD9397375
_publ_section_title
;
Structure prediction by ZEFSAII (Michael W. Deem and Ramdas Pophale) SiO2 
 PCOD9397375
Probable space group: P B A N
;
_chemical_formula_sum "Si O2"
_cell_formula_units_Z 44
_cell_length_a 29.425513
_cell_length_b 7.957895
_cell_length_c 9.986516
_cell_angle_alpha 90.000000
_cell_angle_beta 90.000000
_cell_angle_gamma 90.000000
_cell_volume 2338.493945
_symmetry_space_group_name_H-M "P B A N"
_symmetry_group_IT_number 50
_space_group.IT_coordinate_system_code '2'
_symmetry_cell_setting 'orthorhombic'
loop_
_space_group_symop_operation_xyz
x,y,z
1/2-x,1/2-y,z
x,1/2-y,-z
1/2-x,y,-z
-x,-y,-z
1/2+x,1/2+y,-z
-x,1/2+y,z
1/2+x,-y,z
loop_
_atom_site_type_symbol
_atom_site_label
_atom_site_fract_x
_atom_site_fract_y
_atom_site_fract_z
Si Si1 0.750000 0.750000 0.000000
Si Si2 0.317951 0.485407 0.865812
Si Si3 0.396105 0.250000 0.500000
Si Si4 0.549311 0.630899 0.747614
Si Si5 0.750000 0.250000 0.000000
Si Si6 0.955997 0.248930 0.344503
Si Si7 0.860125 0.090149 0.410392
Si Si8 0.106978 0.250000 0.000000
O O1 0.716704 0.662837 0.104982
O O2 0.330490 0.536287 0.716033
O O3 0.286418 0.636222 0.921029
O O4 0.362413 0.406560 0.942124
O O5 0.427256 0.258903 0.368843
O O6 0.367500 0.421607 0.503350
O O7 0.554049 0.436694 0.705105
O O8 0.495749 0.671216 0.744966
O O9 0.575367 0.676894 0.882541
O O10 0.972237 0.250000 0.500000
O O11 0.909259 0.146402 0.351783
O O12 0.844717 0.250000 0.500000
#
# Coordination Sequence:
#
# PCOD9397375 Si02
#       8
#     2   8   4   8   2   8   8   4
#     4   8  20  46  72  92 126 174 196 272 352 440
#     4  10  22  44  68  98 126 162 225 260 348 413
#     4  12  20  40  66  91 134 182 224 281 320 374
#     4  12  23  39  61  93 138 182 231 270 324 377
#     4  10  24  42  76  90 126 174 190 288 340 430
#     4  11  22  38  61  93 134 184 233 270 318 386
#     4  11  23  40  68 102 129 176 227 279 322 393
#     4  11  26  41  67  98 134 182 217 281 326 405
#
# _framework density 18.815529000000002
#
# number of rings (size 3 to 8) (size 9 to 14) (size 15 to 20)
#    0.000    1.091    6.364    1.636    2.545    0.727 
#    3.273    0.455    0.000    0.000    0.000    0.000 
#    0.000    0.000    0.000    0.000    0.000    0.000 
#
# Total GULP energy -245070.547540 kJ/mol
# GULP energy per Si atom -5569.785171 kJ/mol
# Density = 1.877270 g / cm^3
# Si number density = 18.815529 Si / 1000 Ang^3
#
#
#
# Elastic Constant Matrix: (Units=GPa)
#
#
# Indices 1 2 3 4 5 6 
#
# 1 89.7863 35.2693 64.8540 0.0000 0.0000 0.0000
# 2 35.2693 113.5846 46.8227 0.0000 0.0000 0.0000
# 3 64.8540 46.8227 123.7849 0.0000 0.0000 0.0000
# 4 0.0000 0.0000 0.0000 33.5789 0.0000 0.0000
# 5 0.0000 0.0000 0.0000 0.0000 26.4658 0.0000
# 6 0.0000 0.0000 0.0000 0.0000 0.0000 -11.2754
#
#
#
# Elastic Compliance Matrix: (Units=1/GPa)
#
#
# Indices 1 2 3 4 5 6 
#
# 1 0.018313 -0.002051 -0.008819 0.000000 0.000000 0.000000
# 2 -0.002051 0.010660 -0.002958 0.000000 0.000000 0.000000
# 3 -0.008819 -0.002958 0.013818 0.000000 0.000000 0.000000
# 4 0.000000 0.000000 0.000000 0.029781 0.000000 0.000000
# 5 0.000000 0.000000 0.000000 0.000000 0.037785 0.000000
# 6 0.000000 0.000000 0.000000 0.000000 0.000000 -0.088689
#
#
# Mechanical properties :
#
#
# Convention : Reuss Voigt Hill
#
# Bulk Modulus (GPa) = 66.06859 69.00531 67.53695
# Shear Modulus (GPa) = 91.96547 21.76785 56.86666
#
# Velocity S-wave (km/s) = 6.99882 3.40503 5.50353
# Velocity P-wave (km/s) = 10.02504 7.22587 8.73827
#
# Compressibility (1/GPa) = 0.01513579
#
# Stress axis : x y z
#
# Youngs Moduli (GPa) = 54.60504 93.80754 72.37053
#
# Poissons Ratio (x) = 0.19241 0.63823
# Poissons Ratio (y) = 0.11200 0.21405
# Poissons Ratio (z) = 0.48156 0.27745
#
# Static dielectric constant tensor:
#      x y z
#    x 1.640760 0.000000 0.000000 
#    y 0.000000 1.703750 0.000000 
#    z 0.000000 0.000000 1.665120 
# 
# From -- ./inp_files/16889.got.cif
#   From: 2010.05.17/outbox.cif.g08.bks.cpg/sg50_9_cif.got.tgz:16889.got - 2010.06.03 11:33:33.
