data_PCOD9397503
_publ_section_title
;
Structure prediction by ZEFSAII (Michael W. Deem and Ramdas Pophale) SiO2 
 PCOD9397503
Probable space group: P B A N
;
_chemical_formula_sum "Si O2"
_cell_formula_units_Z 34
_cell_length_a 8.749661
_cell_length_b 10.990431
_cell_length_c 16.584594
_cell_angle_alpha 90.000000
_cell_angle_beta 90.000000
_cell_angle_gamma 90.000000
_cell_volume 1594.816775
_symmetry_space_group_name_H-M "P B A N"
_symmetry_group_IT_number 50
_space_group.IT_coordinate_system_code '2'
_symmetry_cell_setting 'orthorhombic'
loop_
_space_group_symop_operation_xyz
x,y,z
1/2-x,1/2-y,z
x,1/2-y,-z
1/2-x,y,-z
-x,-y,-z
1/2+x,1/2+y,-z
-x,1/2+y,z
1/2+x,-y,z
loop_
_atom_site_type_symbol
_atom_site_label
_atom_site_fract_x
_atom_site_fract_y
_atom_site_fract_z
Si Si1 0.749633 0.061944 0.298249
Si Si2 0.076411 0.375250 0.967869
Si Si3 0.451085 0.352550 0.643350
Si Si4 0.750000 0.750000 0.500000
Si Si5 0.541174 0.648989 0.777727
O O1 0.634092 0.135630 0.354900
O O2 0.859028 0.131433 0.236094
O O3 0.872624 0.983383 0.346552
O O4 0.638742 0.965461 0.254687
O O5 0.075268 0.353446 0.871994
O O6 0.002040 0.250000 0.000000
O O7 0.250000 0.379967 0.000000
O O8 0.000000 0.500000 0.000000
O O9 0.370102 0.306322 0.563550
O O10 0.419038 0.265920 0.721683
#
# Coordination Sequence:
#
# PCOD9397503 Si02
#       5
#     8   8   8   2   8
#     4  10  23  41  73  95 129 188 233 276 362 425
#     4  11  27  44  69 105 145 191 240 308 363 427
#     4  11  24  44  68 102 134 185 227 301 349 446
#     4  12  24  44  70 100 148 168 238 296 372 428
#     4  11  22  44  69  97 139 181 241 284 358 432
#
# _framework density 21.319064999999998
#
# number of rings (size 3 to 8) (size 9 to 14) (size 15 to 20)
#    0.000    1.176    2.353    2.118   13.176    1.412 
#    4.235    1.176    0.000    0.000    0.000    0.000 
#    0.000    0.000    0.000    0.000    0.000    0.000 
#
# Total GULP energy -189457.280163 kJ/mol
# GULP energy per Si atom -5572.272946 kJ/mol
# Density = 2.127054 g / cm^3
# Si number density = 21.319065 Si / 1000 Ang^3
#
#
#
# Elastic Constant Matrix: (Units=GPa)
#
#
# Indices 1 2 3 4 5 6 
#
# 1 165.6246 36.3106 48.9879 0.0000 0.0000 0.0000
# 2 36.3106 86.2888 31.7592 0.0000 0.0000 0.0000
# 3 48.9879 31.7592 142.6354 0.0000 0.0000 0.0000
# 4 0.0000 0.0000 0.0000 -42.7863 0.0000 0.0000
# 5 0.0000 0.0000 0.0000 0.0000 26.0851 0.0000
# 6 0.0000 0.0000 0.0000 0.0000 0.0000 49.7674
#
#
#
# Elastic Compliance Matrix: (Units=1/GPa)
#
#
# Indices 1 2 3 4 5 6 
#
# 1 0.007110 -0.002280 -0.001934 0.000000 0.000000 0.000000
# 2 -0.002280 0.013355 -0.002191 0.000000 0.000000 0.000000
# 3 -0.001934 -0.002191 0.008163 0.000000 0.000000 0.000000
# 4 0.000000 0.000000 0.000000 -0.023372 0.000000 0.000000
# 5 0.000000 0.000000 0.000000 0.000000 0.038336 0.000000
# 6 0.000000 0.000000 0.000000 0.000000 0.000000 0.020093
#
#
# Mechanical properties :
#
#
# Convention : Reuss Voigt Hill
#
# Bulk Modulus (GPa) = 63.21890 69.85156 66.53523
# Shear Modulus (GPa) = 61.14967 25.11264 43.13115
#
# Velocity S-wave (km/s) = 5.36147 3.43584 4.50280
# Velocity P-wave (km/s) = 8.24895 6.96965 7.63614
#
# Compressibility (1/GPa) = 0.01581805
#
# Stress axis : x y z
#
# Youngs Moduli (GPa) = 140.65371 74.88054 122.50536
#
# Poissons Ratio (x) = 0.17072 0.23695
# Poissons Ratio (y) = 0.32067 0.26835
# Poissons Ratio (z) = 0.27205 0.16403
#
# Static dielectric constant tensor:
#      x y z
#    x 1.827870 0.000000 0.000000 
#    y 0.000000 1.872320 0.000000 
#    z 0.000000 0.000000 1.797820 
# 
# From -- ./inp_files/24449.got.cif
#   From: 2010.05.17/outbox.cif.g08.bks.cpg/sg50_13_cif.got.tgz:24449.got - 2010.06.03 11:33:33.
