data_PCOD9397015
_publ_section_title
;
Structure prediction by ZEFSAII (Michael W. Deem and Ramdas Pophale) SiO2 
 PCOD9397015
Probable space group: P B A N
;
_chemical_formula_sum "Si O2"
_cell_formula_units_Z 36
_cell_length_a 12.093816
_cell_length_b 5.008241
_cell_length_c 24.167409
_cell_angle_alpha 90.000000
_cell_angle_beta 90.000000
_cell_angle_gamma 90.000000
_cell_volume 1463.789636
_symmetry_space_group_name_H-M "P B A N"
_symmetry_group_IT_number 50
_space_group.IT_coordinate_system_code '2'
_symmetry_cell_setting 'orthorhombic'
loop_
_space_group_symop_operation_xyz
x,y,z
1/2-x,1/2-y,z
x,1/2-y,-z
1/2-x,y,-z
-x,-y,-z
1/2+x,1/2+y,-z
-x,1/2+y,z
1/2+x,-y,z
loop_
_atom_site_type_symbol
_atom_site_label
_atom_site_fract_x
_atom_site_fract_y
_atom_site_fract_z
Si Si1 0.929819 0.354483 0.201317
Si Si2 0.174584 0.507307 0.681493
Si Si3 0.750000 0.250000 0.500000
Si Si4 0.250000 0.750000 0.000000
Si Si5 0.921405 0.001343 0.917609
Si Si6 0.067263 0.437326 0.568162
O O1 0.871479 0.420664 0.258433
O O2 0.873626 0.443644 0.144062
O O3 0.039196 0.543175 0.200530
O O4 0.250000 0.750000 0.661812
O O5 0.085385 0.454661 0.634154
O O6 0.250000 0.250000 0.686365
O O7 0.826218 0.439071 0.461571
O O8 0.170750 0.570105 0.961997
O O9 0.023443 0.211711 0.923059
O O10 0.034813 0.134688 0.554813
#
# Coordination Sequence:
#
# PCOD9397015 Si02
#       6
#     8   8   2   2   8   8
#     4  10  21  42  65  94 134 176 219 279 348 412
#     4  12  24  42  70 104 140 175 229 289 341 422
#     4  12  28  50  74 108 144 186 248 296 332 416
#     4  12  24  42  70  96 132 190 228 288 344 408
#     4  10  24  43  65  97 135 174 229 284 339 411
#     4  12  27  48  74 104 141 189 231 286 356 410
#
# _framework density 24.593696999999999
#
# number of rings (size 3 to 8) (size 9 to 14) (size 15 to 20)
#    0.000    0.889    1.111    5.333    1.556    2.667 
#    0.000    0.000    0.000    0.000    0.000    0.000 
#    0.000    0.000    0.000    0.000    0.000    0.000 
#
# Total GULP energy -201943.570832 kJ/mol
# GULP energy per Si atom -5609.543634 kJ/mol
# Density = 2.453772 g / cm^3
# Si number density = 24.593697 Si / 1000 Ang^3
#
#
#
# Elastic Constant Matrix: (Units=GPa)
#
#
# Indices 1 2 3 4 5 6 
#
# 1 61.7615 12.3483 47.3629 0.0000 0.0000 0.0000
# 2 12.3483 99.9591 4.6446 0.0000 0.0000 0.0000
# 3 47.3629 4.6446 172.3531 0.0000 0.0000 0.0000
# 4 0.0000 0.0000 0.0000 31.8598 0.0000 0.0000
# 5 0.0000 0.0000 0.0000 0.0000 29.3954 0.0000
# 6 0.0000 0.0000 0.0000 0.0000 0.0000 31.4715
#
#
#
# Elastic Compliance Matrix: (Units=1/GPa)
#
#
# Indices 1 2 3 4 5 6 
#
# 1 0.021045 -0.002334 -0.005720 0.000000 0.000000 0.000000
# 2 -0.002334 0.010275 0.000364 0.000000 0.000000 0.000000
# 3 -0.005720 0.000364 0.007364 0.000000 0.000000 0.000000
# 4 0.000000 0.000000 0.000000 0.031387 0.000000 0.000000
# 5 0.000000 0.000000 0.000000 0.000000 0.034019 0.000000
# 6 0.000000 0.000000 0.000000 0.000000 0.000000 0.031775
#
#
# Mechanical properties :
#
#
# Convention : Reuss Voigt Hill
#
# Bulk Modulus (GPa) = 42.90943 51.42059 47.16501
# Shear Modulus (GPa) = 31.44398 36.52655 33.98526
#
# Velocity S-wave (km/s) = 3.57954 3.85801 3.72138
# Velocity P-wave (km/s) = 5.87957 6.38742 6.13875
#
# Compressibility (1/GPa) = 0.02330490
#
# Stress axis : x y z
#
# Youngs Moduli (GPa) = 47.51815 97.31911 135.79322
#
# Poissons Ratio (x) = 0.22713 0.77676
# Poissons Ratio (y) = 0.11090 -0.04949
# Poissons Ratio (z) = 0.27181 -0.03547
#
# Static dielectric constant tensor:
#      x y z
#    x 1.923590 0.000000 0.000000 
#    y 0.000000 1.879280 0.000000 
#    z 0.000000 0.000000 1.993060 
# 
# From -- ./inp_files/31659.got.cif
#   From: 2010.05.17/outbox.cif.g08.bks.cpg/sg50_16_cif.got.tgz:31659.got - 2010.06.03 11:33:33.
