data_PCOD9397443
_publ_section_title
;
Structure prediction by ZEFSAII (Michael W. Deem and Ramdas Pophale) SiO2 
 PCOD9397443
Probable space group: P B A N
;
_chemical_formula_sum "Si O2"
_cell_formula_units_Z 58
_cell_length_a 27.232819
_cell_length_b 17.574925
_cell_length_c 5.863368
_cell_angle_alpha 90.000000
_cell_angle_beta 90.000000
_cell_angle_gamma 90.000000
_cell_volume 2806.294418
_symmetry_space_group_name_H-M "P B A N"
_symmetry_group_IT_number 50
_space_group.IT_coordinate_system_code '2'
_symmetry_cell_setting 'orthorhombic'
loop_
_space_group_symop_operation_xyz
x,y,z
1/2-x,1/2-y,z
x,1/2-y,-z
1/2-x,y,-z
-x,-y,-z
1/2+x,1/2+y,-z
-x,1/2+y,z
1/2+x,-y,z
loop_
_atom_site_type_symbol
_atom_site_label
_atom_site_fract_x
_atom_site_fract_y
_atom_site_fract_z
Si Si1 0.567181 0.676709 0.139280
Si Si2 0.403112 0.549404 0.237101
Si Si3 0.529724 0.169142 0.427816
Si Si4 0.198226 0.521858 0.518069
Si Si5 0.517285 0.939472 0.199870
Si Si6 0.292058 0.373748 0.185956
Si Si7 0.250000 0.250000 0.500000
Si Si8 0.135849 0.055852 0.860323
O O1 0.521460 0.691441 0.305772
O O2 0.603690 0.618652 0.270855
O O3 0.585959 0.750000 0.000000
O O4 0.544858 0.624426 0.941559
O O5 0.433855 0.626487 0.252996
O O6 0.351096 0.556617 0.367676
O O7 0.441415 0.486889 0.338929
O O8 0.391350 0.513262 0.989340
O O9 0.551838 0.250000 0.500000
O O10 0.518501 0.108077 0.631821
O O11 0.250000 0.567094 0.500000
O O12 0.213619 0.451709 0.677975
O O13 0.177771 0.483636 0.287516
O O14 0.500000 0.000000 0.000000
O O15 0.285278 0.303346 0.351677
O O16 0.250000 0.364478 0.000000
O O17 0.342054 0.388766 0.054022
#
# Coordination Sequence:
#
# PCOD9397443 Si02
#       8
#     8   8   8   8   8   8   2   8
#     4  11  23  40  59  93 129 174 212 265 325 380
#     4  10  24  36  63  97 120 165 216 267 325 391
#     4  12  24  41  65  93 135 168 212 269 334 400
#     4  11  21  40  64  89 122 162 215 278 325 380
#     4  11  22  39  64  90 127 174 218 264 316 395
#     4  11  21  38  55  83 116 164 219 266 320 378
#     4  12  22  32  60  78 120 176 212 268 336 370
#     4  10  23  39  62  88 126 168 220 272 320 388
#
# _framework density 20.667824
#
# number of rings (size 3 to 8) (size 9 to 14) (size 15 to 20)
#    0.000    1.103    4.828    1.448    3.862    2.207 
#    0.000    0.000    1.517    0.414    0.000    0.000 
#    4.138    0.000    0.000    0.000    0.000    0.000 
#
# Total GULP energy -323120.842019 kJ/mol
# GULP energy per Si atom -5571.049000 kJ/mol
# Density = 2.062078 g / cm^3
# Si number density = 20.667824 Si / 1000 Ang^3
#
#
#
# Elastic Constant Matrix: (Units=GPa)
#
#
# Indices 1 2 3 4 5 6 
#
# 1 98.8065 27.2146 19.1508 0.0000 0.0000 0.0000
# 2 27.2146 81.5611 26.2701 0.0000 0.0000 0.0000
# 3 19.1508 26.2701 51.6933 0.0000 0.0000 0.0000
# 4 0.0000 0.0000 0.0000 22.2614 0.0000 0.0000
# 5 0.0000 0.0000 0.0000 0.0000 28.1192 0.0000
# 6 0.0000 0.0000 0.0000 0.0000 0.0000 -8.7486
#
#
#
# Elastic Compliance Matrix: (Units=1/GPa)
#
#
# Indices 1 2 3 4 5 6 
#
# 1 0.011464 -0.002938 -0.002754 0.000000 0.000000 0.000000
# 2 -0.002938 0.015413 -0.006745 0.000000 0.000000 0.000000
# 3 -0.002754 -0.006745 0.023793 0.000000 0.000000 0.000000
# 4 0.000000 0.000000 0.000000 0.044921 0.000000 0.000000
# 5 0.000000 0.000000 0.000000 0.000000 0.035563 0.000000
# 6 0.000000 0.000000 0.000000 0.000000 0.000000 -0.114304
#
#
# Mechanical properties :
#
#
# Convention : Reuss Voigt Hill
#
# Bulk Modulus (GPa) = 38.76441 41.92577 40.34509
# Shear Modulus (GPa) = 99.36074 18.95475 59.15774
#
# Velocity S-wave (km/s) = 6.94114 3.03167 5.35586
# Velocity P-wave (km/s) = 9.11240 5.70827 7.60330
#
# Compressibility (1/GPa) = 0.02579686
#
# Stress axis : x y z
#
# Youngs Moduli (GPa) = 87.23108 64.87830 42.02986
#
# Poissons Ratio (x) = 0.19062 0.11574
# Poissons Ratio (y) = 0.25630 0.28347
# Poissons Ratio (z) = 0.24022 0.43757
#
# Static dielectric constant tensor:
#      x y z
#    x 1.871960 0.000000 0.000000 
#    y 0.000000 1.735290 0.000000 
#    z 0.000000 0.000000 1.825700 
# 
# From -- ./inp_files/6754.got.cif
#   From: 2010.05.17/outbox.cif.g08.bks.cpg/sg50_4_cif.got.tgz:6754.got - 2010.06.03 11:33:33.
