data_PCOD9397483
_publ_section_title
;
Structure prediction by ZEFSAII (Michael W. Deem and Ramdas Pophale) SiO2 
 PCOD9397483
Probable space group: P B A N
;
_chemical_formula_sum "Si O2"
_cell_formula_units_Z 58
_cell_length_a 9.381302
_cell_length_b 11.663522
_cell_length_c 26.587266
_cell_angle_alpha 90.000000
_cell_angle_beta 90.000000
_cell_angle_gamma 90.000000
_cell_volume 2909.152650
_symmetry_space_group_name_H-M "P B A N"
_symmetry_group_IT_number 50
_space_group.IT_coordinate_system_code '2'
_symmetry_cell_setting 'orthorhombic'
loop_
_space_group_symop_operation_xyz
x,y,z
1/2-x,1/2-y,z
x,1/2-y,-z
1/2-x,y,-z
-x,-y,-z
1/2+x,1/2+y,-z
-x,1/2+y,z
1/2+x,-y,z
loop_
_atom_site_type_symbol
_atom_site_label
_atom_site_fract_x
_atom_site_fract_y
_atom_site_fract_z
Si Si1 0.417589 0.619598 0.482714
Si Si2 0.099899 0.192409 0.284582
Si Si3 0.540470 0.363606 0.636577
Si Si4 0.152254 0.639813 0.222521
Si Si5 0.750000 0.750000 0.000000
Si Si6 0.431286 0.053104 0.949495
Si Si7 0.714921 0.115832 0.891947
Si Si8 0.217298 0.508306 0.320216
O O1 0.462782 0.750000 0.500000
O O2 0.250000 0.607166 0.500000
O O3 0.500000 0.500000 0.500000
O O4 0.445174 0.633666 0.423204
O O5 0.250000 0.250000 0.272363
O O6 0.011715 0.259508 0.327515
O O7 0.008946 0.179429 0.233826
O O8 0.151990 0.077759 0.311218
O O9 0.411449 0.452726 0.649512
O O10 0.702073 0.388852 0.653375
O O11 0.250000 0.750000 0.233310
O O12 0.198404 0.597101 0.167857
O O13 0.169950 0.544171 0.264812
O O14 0.656358 0.665167 0.965916
O O15 0.562375 0.088191 0.915088
O O16 0.330451 0.963006 0.920337
O O17 0.500000 0.000000 0.000000
O O18 0.750000 0.250000 0.899443
#
# Coordination Sequence:
#
# PCOD9397483 Si02
#       8
#     8   8   8   8   2   8   8   8
#     4  11  27  48  71 104 141 185 235 304 371 428
#     4  10  23  41  63  99 131 181 231 279 335 419
#     4  11  23  41  70  94 136 176 240 283 349 424
#     4  11  23  43  66 100 143 180 227 284 351 413
#     4  12  24  44  76 104 128 176 242 290 352 408
#     4  12  24  48  74 102 139 185 243 292 350 424
#     4  11  27  45  69 107 145 189 229 297 361 418
#     4  11  22  39  68  99 130 179 225 281 338 417
#
# _framework density 19.937076999999999
#
# number of rings (size 3 to 8) (size 9 to 14) (size 15 to 20)
#    0.000    0.966    4.138    1.655    3.862    3.034 
#    6.207    0.000    0.000    0.000    0.000    0.000 
#    0.000    0.000    0.000    0.000    0.000    0.000 
#
# Total GULP energy -323267.628115 kJ/mol
# GULP energy per Si atom -5573.579795 kJ/mol
# Density = 1.989170 g / cm^3
# Si number density = 19.937077 Si / 1000 Ang^3
#
#
#
# Elastic Constant Matrix: (Units=GPa)
#
#
# Indices 1 2 3 4 5 6 
#
# 1 121.9158 52.0484 68.3645 0.0000 0.0000 0.0000
# 2 52.0484 103.0793 66.1742 0.0000 0.0000 0.0000
# 3 68.3645 66.1742 163.2016 0.0000 0.0000 0.0000
# 4 0.0000 0.0000 0.0000 -42.8994 0.0000 0.0000
# 5 0.0000 0.0000 0.0000 0.0000 42.2244 0.0000
# 6 0.0000 0.0000 0.0000 0.0000 0.0000 29.9698
#
#
#
# Elastic Compliance Matrix: (Units=1/GPa)
#
#
# Indices 1 2 3 4 5 6 
#
# 1 0.011694 -0.003731 -0.003386 0.000000 0.000000 0.000000
# 2 -0.003731 0.014306 -0.004238 0.000000 0.000000 0.000000
# 3 -0.003386 -0.004238 0.009264 0.000000 0.000000 0.000000
# 4 0.000000 0.000000 0.000000 -0.023310 0.000000 0.000000
# 5 0.000000 0.000000 0.000000 0.000000 0.023683 0.000000
# 6 0.000000 0.000000 0.000000 0.000000 0.000000 0.033367
#
#
# Mechanical properties :
#
#
# Convention : Reuss Voigt Hill
#
# Bulk Modulus (GPa) = 79.65219 84.59676 82.12447
# Shear Modulus (GPa) = 52.13952 19.29960 35.71956
#
# Velocity S-wave (km/s) = 5.11945 3.11469 4.23734
# Velocity P-wave (km/s) = 8.65931 7.44708 8.07597
#
# Compressibility (1/GPa) = 0.01255458
#
# Stress axis : x y z
#
# Youngs Moduli (GPa) = 85.51569 69.90208 107.94637
#
# Poissons Ratio (x) = 0.26081 0.36546
# Poissons Ratio (y) = 0.31907 0.45744
# Poissons Ratio (z) = 0.28952 0.29622
#
# Static dielectric constant tensor:
#      x y z
#    x 2.006690 0.000000 0.000000 
#    y 0.000000 1.782900 0.000000 
#    z 0.000000 0.000000 1.714410 
# 
# From -- ./inp_files/32136.got.cif
#   From: 2010.05.17/outbox.cif.g08.bks.cpg/sg50_17_cif.got.tgz:32136.got - 2010.06.03 11:33:33.
