data_PCOD9397014
_publ_section_title
;
Structure prediction by ZEFSAII (Michael W. Deem and Ramdas Pophale) SiO2 
 PCOD9397014
Probable space group: P B A N
;
_chemical_formula_sum "Si O2"
_cell_formula_units_Z 64
_cell_length_a 22.918469
_cell_length_b 10.817918
_cell_length_c 12.726368
_cell_angle_alpha 90.000000
_cell_angle_beta 90.000000
_cell_angle_gamma 90.000000
_cell_volume 3155.249924
_symmetry_space_group_name_H-M "P B A N"
_symmetry_group_IT_number 50
_space_group.IT_coordinate_system_code '2'
_symmetry_cell_setting 'orthorhombic'
loop_
_space_group_symop_operation_xyz
x,y,z
1/2-x,1/2-y,z
x,1/2-y,-z
1/2-x,y,-z
-x,-y,-z
1/2+x,1/2+y,-z
-x,1/2+y,z
1/2+x,-y,z
loop_
_atom_site_type_symbol
_atom_site_label
_atom_site_fract_x
_atom_site_fract_y
_atom_site_fract_z
Si Si1 0.831509 0.198240 0.383709
Si Si2 0.735088 0.555557 0.379671
Si Si3 0.166055 0.561413 0.741548
Si Si4 0.137181 0.306389 0.292116
Si Si5 0.932483 0.023147 0.383196
Si Si6 0.680526 0.387287 0.983047
Si Si7 0.185678 0.359062 0.063699
Si Si8 0.430733 0.434072 0.377185
O O1 0.818080 0.250000 0.500000
O O2 0.816365 0.194795 0.697114
O O3 0.898211 0.152728 0.381825
O O4 0.798796 0.072155 0.356257
O O5 0.750000 0.545324 0.500000
O O6 0.790647 0.544106 0.303767
O O7 0.691018 0.668365 0.369776
O O8 0.168050 0.566312 0.865697
O O9 0.103686 0.535934 0.689939
O O10 0.094532 0.425525 0.301344
O O11 0.173365 0.313013 0.182097
O O12 0.097666 0.192146 0.331432
O O13 0.000150 0.050994 0.365353
O O14 0.920674 0.960725 0.498488
O O15 0.655239 0.250000 0.000000
O O16 0.750000 0.375002 0.000000
O O17 0.662215 0.501386 0.056656
O O18 0.154415 0.250000 0.000000
O O19 0.250000 0.367697 0.000000
#
# Coordination Sequence:
#
# PCOD9397014 Si02
#       8
#     8   8   8   8   8   8   8   8
#     4  11  21  37  59  91 126 176 212 265 329 406
#     4  11  22  36  57  95 136 173 206 266 333 421
#     4  12  23  37  65  92 133 173 222 263 346 414
#     4  11  24  41  68  95 132 175 226 276 344 412
#     4  10  24  42  66  95 135 168 230 277 326 390
#     4  10  23  37  58  94 127 165 220 283 327 387
#     4  10  21  42  64  91 131 174 220 273 344 416
#     4  11  24  43  65  98 131 181 220 275 329 409
#
# _framework density 20.283655
#
# number of rings (size 3 to 8) (size 9 to 14) (size 15 to 20)
#    0.000    1.250    2.500    3.750    8.750    1.500 
#    0.000    1.875    0.000    3.750    0.000    0.000 
#    0.000    0.000    0.000    0.000    0.000    0.000 
#
# Total GULP energy -356807.380344 kJ/mol
# GULP energy per Si atom -5575.115318 kJ/mol
# Density = 2.023749 g / cm^3
# Si number density = 20.283655 Si / 1000 Ang^3
#
#
#
# Elastic Constant Matrix: (Units=GPa)
#
#
# Indices 1 2 3 4 5 6 
#
# 1 111.6962 22.7858 42.9741 0.0000 0.0000 0.0000
# 2 22.7858 119.0851 23.0588 0.0000 0.0000 0.0000
# 3 42.9741 23.0588 79.9471 0.0000 0.0000 0.0000
# 4 0.0000 0.0000 0.0000 3.1656 0.0000 0.0000
# 5 0.0000 0.0000 0.0000 0.0000 1239.1496 0.0000
# 6 0.0000 0.0000 0.0000 0.0000 0.0000 17.2695
#
#
#
# Elastic Compliance Matrix: (Units=1/GPa)
#
#
# Indices 1 2 3 4 5 6 
#
# 1 0.011411 -0.001055 -0.005830 0.000000 0.000000 0.000000
# 2 -0.001055 0.008992 -0.002027 0.000000 0.000000 0.000000
# 3 -0.005830 -0.002027 0.016226 0.000000 0.000000 0.000000
# 4 0.000000 0.000000 0.000000 0.315892 0.000000 0.000000
# 5 0.000000 0.000000 0.000000 0.000000 0.000807 0.000000
# 6 0.000000 0.000000 0.000000 0.000000 0.000000 0.057906
#
#
# Mechanical properties :
#
#
# Convention : Reuss Voigt Hill
#
# Bulk Modulus (GPa) = 53.17039 54.26288 53.71664
# Shear Modulus (GPa) = 11.48572 266.71092 139.09832
#
# Velocity S-wave (km/s) = 2.38219 11.47937 8.29008
# Velocity P-wave (km/s) = 5.81694 14.23065 10.87079
#
# Compressibility (1/GPa) = 0.01880746
#
# Stress axis : x y z
#
# Youngs Moduli (GPa) = 87.63591 111.21567 61.62822
#
# Poissons Ratio (x) = 0.11728 0.35926
# Poissons Ratio (y) = 0.09242 0.12489
# Poissons Ratio (z) = 0.51088 0.22538
#
# Static dielectric constant tensor:
#      x y z
#    x 1.745730 0.000000 0.000000 
#    y 0.000000 2.013200 0.000000 
#    z 0.000000 0.000000 1.688290 
# 
# From -- ./inp_files/22889.got.cif
#   From: 2010.05.17/outbox.cif.g08.bks.cpg/sg50_12_cif.got.tgz:22889.got - 2010.06.03 11:33:33.
