data_PCOD9397757
_publ_section_title
;
Structure prediction by ZEFSAII (Michael W. Deem and Ramdas Pophale) SiO2 
 PCOD9397757
Probable space group: P B A N
;
_chemical_formula_sum "Si O2"
_cell_formula_units_Z 30
_cell_length_a 9.125129
_cell_length_b 21.253204
_cell_length_c 7.078815
_cell_angle_alpha 90.000000
_cell_angle_beta 90.000000
_cell_angle_gamma 90.000000
_cell_volume 1372.852839
_symmetry_space_group_name_H-M "P B A N"
_symmetry_group_IT_number 50
_space_group.IT_coordinate_system_code '2'
_symmetry_cell_setting 'orthorhombic'
loop_
_space_group_symop_operation_xyz
x,y,z
1/2-x,1/2-y,z
x,1/2-y,-z
1/2-x,y,-z
-x,-y,-z
1/2+x,1/2+y,-z
-x,1/2+y,z
1/2+x,-y,z
loop_
_atom_site_type_symbol
_atom_site_label
_atom_site_fract_x
_atom_site_fract_y
_atom_site_fract_z
Si Si1 0.750000 0.250000 0.500000
Si Si2 0.895863 0.684816 0.872244
Si Si3 0.464646 0.414597 0.566923
Si Si4 0.014172 0.817345 0.752356
Si Si5 0.250000 0.525316 0.500000
O O1 0.847430 0.206383 0.365165
O O2 0.900243 0.634803 0.710495
O O3 0.918626 0.752261 0.770021
O O4 0.750000 0.678761 0.000000
O O5 0.025721 0.670693 0.023545
O O6 0.458667 0.378735 0.362752
O O7 0.366275 0.476985 0.591311
O O8 0.634623 0.430982 0.609741
#
# Coordination Sequence:
#
# PCOD9397757 Si02
#       5
#     2   8   8   8   4
#     4  12  22  42  62 104 138 178 200 272 358 408
#     4  11  24  42  68 106 134 171 221 277 355 420
#     4  11  22  48  67  97 138 182 231 293 332 404
#     4  11  23  42  68 102 134 170 216 276 352 418
#     4  10  25  42  72  94 130 191 246 274 342 394
#
# _framework density 21.852304
#
# number of rings (size 3 to 8) (size 9 to 14) (size 15 to 20)
#    0.000    1.067    2.667    4.000    0.000    2.133 
#    4.800   14.667    0.000    0.000    0.000    0.000 
#    0.000    0.000    0.000    0.000    0.000    0.000 
#
# Total GULP energy -167033.607163 kJ/mol
# GULP energy per Si atom -5567.786905 kJ/mol
# Density = 2.180257 g / cm^3
# Si number density = 21.852304 Si / 1000 Ang^3
#
#
#
# Elastic Constant Matrix: (Units=GPa)
#
#
# Indices 1 2 3 4 5 6 
#
# 1 112.7200 13.0982 13.3276 0.0000 0.0000 0.0000
# 2 13.0982 86.2971 17.3832 0.0000 0.0000 0.0000
# 3 13.3276 17.3832 51.9856 0.0000 0.0000 0.0000
# 4 0.0000 0.0000 0.0000 3.3399 0.0000 0.0000
# 5 0.0000 0.0000 0.0000 0.0000 39.5087 0.0000
# 6 0.0000 0.0000 0.0000 0.0000 0.0000 38.8800
#
#
#
# Elastic Compliance Matrix: (Units=1/GPa)
#
#
# Indices 1 2 3 4 5 6 
#
# 1 0.009227 -0.000991 -0.002034 0.000000 0.000000 0.000000
# 2 -0.000991 0.012531 -0.003936 0.000000 0.000000 0.000000
# 3 -0.002034 -0.003936 0.021074 0.000000 0.000000 0.000000
# 4 0.000000 0.000000 0.000000 0.299406 0.000000 0.000000
# 5 0.000000 0.000000 0.000000 0.000000 0.025311 0.000000
# 6 0.000000 0.000000 0.000000 0.000000 0.000000 0.025720
#
#
# Mechanical properties :
#
#
# Convention : Reuss Voigt Hill
#
# Bulk Modulus (GPa) = 34.59053 37.62453 36.10753
# Shear Modulus (GPa) = 11.99536 30.15865 21.07701
#
# Velocity S-wave (km/s) = 2.34546 3.71902 3.10904
# Velocity P-wave (km/s) = 4.81649 5.97465 5.42656
#
# Compressibility (1/GPa) = 0.02890965
#
# Stress axis : x y z
#
# Youngs Moduli (GPa) = 108.37533 79.80115 47.45222
#
# Poissons Ratio (x) = 0.07906 0.09653
# Poissons Ratio (y) = 0.10737 0.18678
# Poissons Ratio (z) = 0.22047 0.31412
#
# Static dielectric constant tensor:
#      x y z
#    x 1.984830 0.000000 0.000000 
#    y 0.000000 1.843490 0.000000 
#    z 0.000000 0.000000 1.808580 
# 
# From -- ./inp_files/8984.got.cif
#   From: 2010.05.17/outbox.cif.g08.bks.cpg/sg50_5_cif.got.tgz:8984.got - 2010.06.03 11:33:33.
