data_PCOD9397963
_publ_section_title
;
Structure prediction by ZEFSAII (Michael W. Deem and Ramdas Pophale) SiO2 
 PCOD9397963
Probable space group: P B A N
;
_chemical_formula_sum "Si O2"
_cell_formula_units_Z 56
_cell_length_a 14.655614
_cell_length_b 8.692917
_cell_length_c 20.271119
_cell_angle_alpha 90.000000
_cell_angle_beta 90.000000
_cell_angle_gamma 90.000000
_cell_volume 2582.541292
_symmetry_space_group_name_H-M "P B A N"
_symmetry_group_IT_number 50
_space_group.IT_coordinate_system_code '2'
_symmetry_cell_setting 'orthorhombic'
loop_
_space_group_symop_operation_xyz
x,y,z
1/2-x,1/2-y,z
x,1/2-y,-z
1/2-x,y,-z
-x,-y,-z
1/2+x,1/2+y,-z
-x,1/2+y,z
1/2+x,-y,z
loop_
_atom_site_type_symbol
_atom_site_label
_atom_site_fract_x
_atom_site_fract_y
_atom_site_fract_z
Si Si1 0.453068 0.497427 0.592241
Si Si2 0.057801 0.750000 0.500000
Si Si3 0.101590 0.934819 0.988285
Si Si4 0.582280 0.778338 0.323198
Si Si5 0.750000 0.750000 0.756640
Si Si6 0.012376 0.714302 0.190244
Si Si7 0.878046 0.475023 0.128022
Si Si8 0.679923 0.021529 0.841849
O O1 0.398308 0.630182 0.552222
O O2 0.498850 0.371553 0.543047
O O3 0.531112 0.593557 0.632237
O O4 0.398512 0.382263 0.639506
O O5 0.142318 0.976592 0.917269
O O6 0.105180 0.750000 0.000000
O O7 0.150091 0.003734 0.052629
O O8 0.000000 0.000000 0.000000
O O9 0.676196 0.833699 0.290028
O O10 0.515227 0.734732 0.262877
O O11 0.694934 0.861603 0.804971
O O12 0.045831 0.844795 0.140019
O O13 0.101447 0.608868 0.196995
O O14 0.929072 0.620097 0.158699
O O15 0.783888 0.417939 0.159583
#
# Coordination Sequence:
#
# PCOD9397963 Si02
#       8
#     8   4   8   8   4   8   8   8
#     4   9  18  36  66 102 133 179 220 279 312 391
#     4   8  16  34  68 102 136 172 234 262 318 376
#     4  12  25  44  69  92 122 165 224 290 359 438
#     4  11  22  39  64  95 136 176 228 271 336 401
#     4  12  26  42  63  99 136 182 224 284 346 424
#     4  12  24  42  68  93 132 174 223 282 346 422
#     4  12  24  44  64  93 124 169 219 285 359 417
#     4  12  26  42  68  92 129 171 230 285 359 416
#
# _framework density 21.684069000000001
#
# number of rings (size 3 to 8) (size 9 to 14) (size 15 to 20)
#    0.000    0.857    4.286    3.429    0.000    1.714 
#    0.000    0.714    0.000   16.286    0.000    0.000 
#    0.000    0.000    0.000    0.000    0.000    0.000 
#
# Total GULP energy -312187.469577 kJ/mol
# GULP energy per Si atom -5574.776242 kJ/mol
# Density = 2.163472 g / cm^3
# Si number density = 21.684069 Si / 1000 Ang^3
#
#
#
# Elastic Constant Matrix: (Units=GPa)
#
#
# Indices 1 2 3 4 5 6 
#
# 1 99.3093 27.0732 24.3216 0.0000 0.0000 0.0000
# 2 27.0732 105.2551 47.9760 0.0000 0.0000 0.0000
# 3 24.3216 47.9760 103.0917 0.0000 0.0000 0.0000
# 4 0.0000 0.0000 0.0000 45.6477 0.0000 0.0000
# 5 0.0000 0.0000 0.0000 0.0000 33.4292 0.0000
# 6 0.0000 0.0000 0.0000 0.0000 0.0000 36.8459
#
#
#
# Elastic Compliance Matrix: (Units=1/GPa)
#
#
# Indices 1 2 3 4 5 6 
#
# 1 0.011040 -0.002097 -0.001629 0.000000 0.000000 0.000000
# 2 -0.002097 0.012457 -0.005302 0.000000 0.000000 0.000000
# 3 -0.001629 -0.005302 0.012552 0.000000 0.000000 0.000000
# 4 0.000000 0.000000 0.000000 0.021907 0.000000 0.000000
# 5 0.000000 0.000000 0.000000 0.000000 0.029914 0.000000
# 6 0.000000 0.000000 0.000000 0.000000 0.000000 0.027140
#
#
# Mechanical properties :
#
#
# Convention : Reuss Voigt Hill
#
# Bulk Modulus (GPa) = 55.57864 56.26642 55.92253
# Shear Modulus (GPa) = 35.95464 37.07025 36.51244
#
# Velocity S-wave (km/s) = 4.07641 4.13917 4.10791
# Velocity P-wave (km/s) = 6.91686 6.98915 6.95310
#
# Compressibility (1/GPa) = 0.01799252
#
# Stress axis : x y z
#
# Youngs Moduli (GPa) = 90.57821 80.27583 79.66940
#
# Poissons Ratio (x) = 0.16837 0.12975
# Poissons Ratio (y) = 0.18998 0.42243
# Poissons Ratio (z) = 0.14751 0.42565
#
# Static dielectric constant tensor:
#      x y z
#    x 2.200790 0.000000 0.000000 
#    y 0.000000 1.933460 0.000000 
#    z 0.000000 0.000000 -0.016470 
# 
# From -- ./inp_files/31021.got.cif
#   From: 2010.05.17/outbox.cif.g08.bks.cpg/sg50_16_cif.got.tgz:31021.got - 2010.06.03 11:33:33.
