data_PCOD9397259
_publ_section_title
;
Structure prediction by ZEFSAII (Michael W. Deem and Ramdas Pophale) SiO2 
 PCOD9397259
Probable space group: P B A N
;
_chemical_formula_sum "Si O2"
_cell_formula_units_Z 24
_cell_length_a 13.660188
_cell_length_b 5.233921
_cell_length_c 14.638511
_cell_angle_alpha 90.000000
_cell_angle_beta 90.000000
_cell_angle_gamma 90.000000
_cell_volume 1046.600030
_symmetry_space_group_name_H-M "P B A N"
_symmetry_group_IT_number 50
_space_group.IT_coordinate_system_code '2'
_symmetry_cell_setting 'orthorhombic'
loop_
_space_group_symop_operation_xyz
x,y,z
1/2-x,1/2-y,z
x,1/2-y,-z
1/2-x,y,-z
-x,-y,-z
1/2+x,1/2+y,-z
-x,1/2+y,z
1/2+x,-y,z
loop_
_atom_site_type_symbol
_atom_site_label
_atom_site_fract_x
_atom_site_fract_y
_atom_site_fract_z
Si Si1 0.250000 0.250000 0.773991
Si Si2 0.250000 0.750000 0.345853
Si Si3 0.959310 0.435163 0.398409
Si Si4 0.940418 0.756248 0.109169
O O1 0.272501 0.499831 0.713739
O O2 0.157545 0.306590 0.837284
O O3 0.151840 0.837468 0.398769
O O4 0.000000 0.500000 0.500000
O O5 0.975459 0.712196 0.353549
O O6 0.019645 0.537794 0.130892
O O7 0.922760 0.750000 0.000000
#
# Coordination Sequence:
#
# PCOD9397259 Si02
#       4
#     4   4   8   8
#     4  12  25  40  64  97 138 172 212 278 336 389
#     4  12  26  41  65 102 132 168 218 272 341 398
#     4  10  23  44  68  92 123 165 211 265 323 395
#     4  10  22  41  65  93 130 180 229 267 316 389
#
# _framework density 22.931394999999998
#
# number of rings (size 3 to 8) (size 9 to 14) (size 15 to 20)
#    0.000    1.333    0.000    4.500    0.000   10.667 
#    0.000   13.333    0.000    0.000    0.000    0.000 
#    0.000    0.000    0.000    0.000    0.000    0.000 
#
# Total GULP energy -134260.386750 kJ/mol
# GULP energy per Si atom -5594.182781 kJ/mol
# Density = 2.287920 g / cm^3
# Si number density = 22.931395 Si / 1000 Ang^3
#
#
#
# Elastic Constant Matrix: (Units=GPa)
#
#
# Indices 1 2 3 4 5 6 
#
# 1 170.2089 37.2887 52.5439 0.0000 0.0000 0.0000
# 2 37.2887 183.6225 28.3768 0.0000 0.0000 0.0000
# 3 52.5439 28.3768 61.4441 0.0000 0.0000 0.0000
# 4 0.0000 0.0000 0.0000 7.4124 0.0000 0.0000
# 5 0.0000 0.0000 0.0000 0.0000 35.4459 0.0000
# 6 0.0000 0.0000 0.0000 0.0000 0.0000 46.0412
#
#
#
# Elastic Compliance Matrix: (Units=1/GPa)
#
#
# Indices 1 2 3 4 5 6 
#
# 1 0.008046 -0.000614 -0.006597 0.000000 0.000000 0.000000
# 2 -0.000614 0.005911 -0.002205 0.000000 0.000000 0.000000
# 3 -0.006597 -0.002205 0.022935 0.000000 0.000000 0.000000
# 4 0.000000 0.000000 0.000000 0.134908 0.000000 0.000000
# 5 0.000000 0.000000 0.000000 0.000000 0.028212 0.000000
# 6 0.000000 0.000000 0.000000 0.000000 0.000000 0.021720
#
#
# Mechanical properties :
#
#
# Convention : Reuss Voigt Hill
#
# Bulk Modulus (GPa) = 55.37073 72.41050 63.89061
# Shear Modulus (GPa) = 20.27705 37.58433 28.93069
#
# Velocity S-wave (km/s) = 2.97686 4.05284 3.55578
# Velocity P-wave (km/s) = 6.00119 7.31753 6.69180
#
# Compressibility (1/GPa) = 0.01806008
#
# Stress axis : x y z
#
# Youngs Moduli (GPa) = 124.28146 169.16352 43.60239
#
# Poissons Ratio (x) = 0.10395 0.28764
# Poissons Ratio (y) = 0.07637 0.09613
# Poissons Ratio (z) = 0.81988 0.37294
#
# Static dielectric constant tensor:
#      x y z
#    x 1.820460 0.000000 0.000000 
#    y 0.000000 1.567620 0.000000 
#    z 0.000000 0.000000 1.993200 
# 
# From -- ./inp_files/23502.got.cif
#   From: 2010.05.17/outbox.cif.g08.bks.cpg/sg50_12_cif.got.tgz:23502.got - 2010.06.03 11:33:33.
