data_PCOD9397275
_publ_section_title
;
Structure prediction by ZEFSAII (Michael W. Deem and Ramdas Pophale) SiO2 
 PCOD9397275
Probable space group: P B A N
;
_chemical_formula_sum "Si O2"
_cell_formula_units_Z 56
_cell_length_a 13.987150
_cell_length_b 28.564866
_cell_length_c 6.540548
_cell_angle_alpha 90.000000
_cell_angle_beta 90.000000
_cell_angle_gamma 90.000000
_cell_volume 2613.217517
_symmetry_space_group_name_H-M "P B A N"
_symmetry_group_IT_number 50
_space_group.IT_coordinate_system_code '2'
_symmetry_cell_setting 'orthorhombic'
loop_
_space_group_symop_operation_xyz
x,y,z
1/2-x,1/2-y,z
x,1/2-y,-z
1/2-x,y,-z
-x,-y,-z
1/2+x,1/2+y,-z
-x,1/2+y,z
1/2+x,-y,z
loop_
_atom_site_type_symbol
_atom_site_label
_atom_site_fract_x
_atom_site_fract_y
_atom_site_fract_z
Si Si1 0.988339 0.852216 0.288771
Si Si2 0.966040 0.545037 0.773198
Si Si3 0.149975 0.508468 0.560184
Si Si4 0.151406 0.178365 0.385073
Si Si5 0.658453 0.921986 0.148760
Si Si6 0.001110 0.702589 0.108479
Si Si7 0.362608 0.695262 0.528652
O O1 0.093554 0.840003 0.363844
O O2 0.953266 0.904243 0.327770
O O3 0.922826 0.820909 0.429909
O O4 0.980688 0.837048 0.057267
O O5 0.905962 0.506233 0.648267
O O6 0.076559 0.533927 0.716014
O O7 0.927613 0.556224 0.003505
O O8 0.250000 0.532728 0.500000
O O9 0.176772 0.460994 0.679861
O O10 0.250000 0.187552 0.500000
O O11 0.150069 0.127821 0.267138
O O12 0.099586 0.212052 0.222774
O O13 0.750000 0.917989 0.000000
O O14 0.084325 0.684269 0.258423
O O15 0.034077 0.750000 0.000000
O O16 0.389499 0.750000 0.500000
O O17 0.250000 0.692768 0.500000
#
# Coordination Sequence:
#
# PCOD9397275 Si02
#       7
#     8   8   8   8   8   8   8
#     4  11  22  42  64  95 130 165 214 271 324 388
#     4  11  23  39  65  91 127 175 209 264 340 384
#     4  11  23  41  61  94 128 166 216 273 322 397
#     4  11  24  39  65  96 130 172 223 270 322 386
#     4  12  21  38  66  93 122 168 227 266 315 396
#     4  11  23  42  68  92 132 171 215 270 326 387
#     4  10  22  41  67  97 125 164 216 270 322 389
#
# _framework density 21.429521000000001
#
# number of rings (size 3 to 8) (size 9 to 14) (size 15 to 20)
#    0.000    1.000    5.714    1.714    0.000    1.143 
#    0.000    2.143    3.143    0.000    0.000    0.000 
#    0.000    0.000    0.000    0.000    0.000    0.000 
#
# Total GULP energy -312093.711279 kJ/mol
# GULP energy per Si atom -5573.101987 kJ/mol
# Density = 2.138075 g / cm^3
# Si number density = 21.429521 Si / 1000 Ang^3
#
#
#
# Elastic Constant Matrix: (Units=GPa)
#
#
# Indices 1 2 3 4 5 6 
#
# 1 118.6622 -1.4787 49.5414 0.0000 0.0000 0.0000
# 2 -1.4787 16.6670 14.8746 0.0000 0.0000 0.0000
# 3 49.5414 14.8746 100.8875 0.0000 0.0000 0.0000
# 4 0.0000 0.0000 0.0000 29.0170 0.0000 0.0000
# 5 0.0000 0.0000 0.0000 0.0000 1.9701 0.0000
# 6 0.0000 0.0000 0.0000 0.0000 0.0000 12.6615
#
#
#
# Elastic Compliance Matrix: (Units=1/GPa)
#
#
# Indices 1 2 3 4 5 6 
#
# 1 0.011235 0.006818 -0.006522 0.000000 0.000000 0.000000
# 2 0.006818 0.073227 -0.014144 0.000000 0.000000 0.000000
# 3 -0.006522 -0.014144 0.015200 0.000000 0.000000 0.000000
# 4 0.000000 0.000000 0.000000 0.034463 0.000000 0.000000
# 5 0.000000 0.000000 0.000000 0.000000 0.507600 0.000000
# 6 0.000000 0.000000 0.000000 0.000000 0.000000 0.078980
#
#
# Mechanical properties :
#
#
# Convention : Reuss Voigt Hill
#
# Bulk Modulus (GPa) = 13.89575 40.23238 27.06407
# Shear Modulus (GPa) = 6.47341 20.28168 13.37755
#
# Velocity S-wave (km/s) = 1.73993 3.07976 2.50123
# Velocity P-wave (km/s) = 3.24576 5.60906 4.58239
#
# Compressibility (1/GPa) = 0.07196444
#
# Stress axis : x y z
#
# Youngs Moduli (GPa) = 89.00498 13.65624 65.78835
#
# Poissons Ratio (x) = -0.09310 0.42910
# Poissons Ratio (y) = -0.60681 0.93053
# Poissons Ratio (z) = 0.58052 0.19316
#
# Static dielectric constant tensor:
#      x y z
#    x 1.897940 0.000000 0.000000 
#    y 0.000000 1.791430 0.000000 
#    z 0.000000 0.000000 1.885020 
# 
# From -- ./inp_files/3762.got.cif
#   From: 2010.05.17/outbox.cif.g08.bks.cpg/sg50_2_cif.got.tgz:3762.got - 2010.06.03 11:33:33.
