data_PCOD9397010
_publ_section_title
;
Structure prediction by ZEFSAII (Michael W. Deem and Ramdas Pophale) SiO2 
 PCOD9397010
Probable space group: P B A N
;
_chemical_formula_sum "Si O2"
_cell_formula_units_Z 64
_cell_length_a 17.694205
_cell_length_b 11.117881
_cell_length_c 14.836812
_cell_angle_alpha 90.000000
_cell_angle_beta 90.000000
_cell_angle_gamma 90.000000
_cell_volume 2918.728303
_symmetry_space_group_name_H-M "P B A N"
_symmetry_group_IT_number 50
_space_group.IT_coordinate_system_code '2'
_symmetry_cell_setting 'orthorhombic'
loop_
_space_group_symop_operation_xyz
x,y,z
1/2-x,1/2-y,z
x,1/2-y,-z
1/2-x,y,-z
-x,-y,-z
1/2+x,1/2+y,-z
-x,1/2+y,z
1/2+x,-y,z
loop_
_atom_site_type_symbol
_atom_site_label
_atom_site_fract_x
_atom_site_fract_y
_atom_site_fract_z
Si Si1 0.460490 0.875503 0.024060
Si Si2 0.400950 0.514886 0.651049
Si Si3 0.162938 0.281494 0.246356
Si Si4 0.928024 0.939109 0.698931
Si Si5 0.144814 0.654778 0.183190
Si Si6 0.339568 0.107802 0.518589
Si Si7 0.364541 0.582225 0.150193
Si Si8 0.768143 0.564967 0.897781
O O1 0.434491 0.860889 0.127615
O O2 0.501754 0.750000 0.000000
O O3 0.392848 0.885320 0.950137
O O4 0.500000 0.000000 0.000000
O O5 0.372112 0.392889 0.699476
O O6 0.488877 0.549275 0.657712
O O7 0.360201 0.613402 0.713921
O O8 0.377880 0.486506 0.549598
O O9 0.250000 0.250000 0.281034
O O10 0.097010 0.183721 0.252078
O O11 0.182208 0.332384 0.147410
O O12 0.866490 0.934439 0.617548
O O13 0.923686 0.045477 0.772882
O O14 0.170098 0.791737 0.180115
O O15 0.192367 0.561668 0.123670
O O16 0.361715 0.250000 0.500000
O O17 0.250000 0.102699 0.500000
O O18 0.311272 0.465348 0.148999
O O19 0.750000 0.587877 0.000000
#
# Coordination Sequence:
#
# PCOD9397010 Si02
#       8
#     8   8   8   8   8   8   8   8
#     4  10  21  42  61  93 137 189 244 295 367 449
#     4  11  25  44  71 107 142 190 245 302 380 446
#     4  11  23  45  73 107 144 188 248 306 366 442
#     4  12  25  44  71 105 146 184 243 309 372 448
#     4  10  23  40  66  94 140 185 242 295 363 445
#     4  11  24  45  78 107 141 189 246 305 376 454
#     4  11  23  39  65  97 136 190 240 294 374 433
#     4  11  22  41  67 100 137 185 252 302 361 427
#
# _framework density 21.927358000000002
#
# number of rings (size 3 to 8) (size 9 to 14) (size 15 to 20)
#    0.000    1.125    3.750    2.250    3.500    0.750 
#    6.750    0.625    0.000    0.750    0.000    0.000 
#    0.000    0.000    0.000    0.000    0.000    0.000 
#
# Total GULP energy -356643.019378 kJ/mol
# GULP energy per Si atom -5572.547178 kJ/mol
# Density = 2.187745 g / cm^3
# Si number density = 21.927358 Si / 1000 Ang^3
#
#
#
# Elastic Constant Matrix: (Units=GPa)
#
#
# Indices 1 2 3 4 5 6 
#
# 1 72.8054 32.2227 5.9665 0.0000 0.0000 0.0000
# 2 32.2227 92.8867 19.5098 0.0000 0.0000 0.0000
# 3 5.9665 19.5098 98.7418 0.0000 0.0000 0.0000
# 4 0.0000 0.0000 0.0000 6.1629 0.0000 0.0000
# 5 0.0000 0.0000 0.0000 0.0000 25.6960 0.0000
# 6 0.0000 0.0000 0.0000 0.0000 0.0000 33.1340
#
#
#
# Elastic Compliance Matrix: (Units=1/GPa)
#
#
# Indices 1 2 3 4 5 6 
#
# 1 0.016228 -0.005659 0.000137 0.000000 0.000000 0.000000
# 2 -0.005659 0.013205 -0.002267 0.000000 0.000000 0.000000
# 3 0.000137 -0.002267 0.010567 0.000000 0.000000 0.000000
# 4 0.000000 0.000000 0.000000 0.162262 0.000000 0.000000
# 5 0.000000 0.000000 0.000000 0.000000 0.038916 0.000000
# 6 0.000000 0.000000 0.000000 0.000000 0.000000 0.030180
#
#
# Mechanical properties :
#
#
# Convention : Reuss Voigt Hill
#
# Bulk Modulus (GPa) = 40.94358 42.20355 41.57357
# Shear Modulus (GPa) = 16.94472 26.78092 21.86282
#
# Velocity S-wave (km/s) = 2.78288 3.49857 3.16105
# Velocity P-wave (km/s) = 5.38877 5.96731 5.68540
#
# Compressibility (1/GPa) = 0.02442385
#
# Stress axis : x y z
#
# Youngs Moduli (GPa) = 61.62046 75.72910 94.63360
#
# Poissons Ratio (x) = 0.42852 -0.01301
# Poissons Ratio (y) = 0.34868 0.21455
# Poissons Ratio (z) = -0.00847 0.17169
#
# Static dielectric constant tensor:
#      x y z
#    x 1.901470 0.000000 0.000000 
#    y 0.000000 5.288690 0.000000 
#    z 0.000000 0.000000 1.891630 
# 
# From -- ./inp_files/26992.got.cif
#   From: 2010.05.17/outbox.cif.g08.bks.cpg/sg50_14_cif.got.tgz:26992.got - 2010.06.03 11:33:33.
