data_PCOD9397156
_publ_section_title
;
Structure prediction by ZEFSAII (Michael W. Deem and Ramdas Pophale) SiO2 
 PCOD9397156
Probable space group: P B A N
;
_chemical_formula_sum "Si O2"
_cell_formula_units_Z 38
_cell_length_a 4.911763
_cell_length_b 11.524986
_cell_length_c 27.203033
_cell_angle_alpha 90.000000
_cell_angle_beta 90.000000
_cell_angle_gamma 90.000000
_cell_volume 1539.909287
_symmetry_space_group_name_H-M "P B A N"
_symmetry_group_IT_number 50
_space_group.IT_coordinate_system_code '2'
_symmetry_cell_setting 'orthorhombic'
loop_
_space_group_symop_operation_xyz
x,y,z
1/2-x,1/2-y,z
x,1/2-y,-z
1/2-x,y,-z
-x,-y,-z
1/2+x,1/2+y,-z
-x,1/2+y,z
1/2+x,-y,z
loop_
_atom_site_type_symbol
_atom_site_label
_atom_site_fract_x
_atom_site_fract_y
_atom_site_fract_z
Si Si1 0.250000 0.250000 0.842123
Si Si2 0.387987 0.417759 0.761533
Si Si3 0.362856 0.418499 0.549989
Si Si4 0.451578 0.415463 0.075957
Si Si5 0.028100 0.419968 0.345402
Si Si6 0.250000 0.750000 0.000000
O O1 0.426442 0.329697 0.805756
O O2 0.432559 0.166760 0.876303
O O3 0.590307 0.526464 0.764848
O O4 0.425875 0.363049 0.707392
O O5 0.250000 0.361919 0.500000
O O6 0.667083 0.468448 0.549364
O O7 0.372462 0.361749 0.603949
O O8 0.657052 0.524220 0.074488
O O9 0.555805 0.331475 0.032895
O O10 0.216154 0.536960 0.345489
#
# Coordination Sequence:
#
# PCOD9397156 Si02
#       6
#     4   8   8   8   8   2
#     4  12  26  45  70 100 135 180 220 268 330 386
#     4  10  22  39  60  88 123 165 215 268 322 386
#     4   8  12  18  32  57  90 130 179 237 302 371
#     4  12  28  49  75 109 145 180 225 275 323 386
#     4   8  14  26  43  66 101 143 190 249 310 371
#     4  12  28  54  84 112 144 190 224 266 334 396
#
# _framework density 24.676774999999999
#
# number of rings (size 3 to 8) (size 9 to 14) (size 15 to 20)
#    0.000    2.105    0.000    3.158    0.000    7.158 
#    0.000    0.000    0.000    0.000    0.000    0.737 
#    0.000    0.000    0.000   70.316    0.000    3.789 
#
# Total GULP energy -212054.209479 kJ/mol
# GULP energy per Si atom -5580.373934 kJ/mol
# Density = 2.462061 g / cm^3
# Si number density = 24.676775 Si / 1000 Ang^3
#
#
#
# Elastic Constant Matrix: (Units=GPa)
#
#
# Indices 1 2 3 4 5 6 
#
# 1 60.9114 -14.3910 17.4106 0.0000 0.0000 0.0000
# 2 -14.3910 64.4248 45.1413 0.0000 0.0000 0.0000
# 3 17.4106 45.1413 206.8713 0.0000 0.0000 0.0000
# 4 0.0000 0.0000 0.000011377.6613 0.0000 0.0000
# 5 0.0000 0.0000 0.0000 0.0000 22.1086 0.0000
# 6 0.0000 0.0000 0.0000 0.0000 0.0000 4.6423
#
#
#
# Elastic Compliance Matrix: (Units=1/GPa)
#
#
# Indices 1 2 3 4 5 6 
#
# 1 0.018732 0.006244 -0.002939 0.000000 0.000000 0.000000
# 2 0.006244 0.020405 -0.004978 0.000000 0.000000 0.000000
# 3 -0.002939 -0.004978 0.006168 0.000000 0.000000 0.000000
# 4 0.000000 0.000000 0.000000 0.000088 0.000000 0.000000
# 5 0.000000 0.000000 0.000000 0.000000 0.045231 0.000000
# 6 0.000000 0.000000 0.000000 0.000000 0.000000 0.215408
#
#
# Mechanical properties :
#
#
# Convention : Reuss Voigt Hill
#
# Bulk Modulus (GPa) = 23.83330 47.61438 35.72384
# Shear Modulus (GPa) = 15.46241 2299.81887 1157.64064
#
# Velocity S-wave (km/s) = 2.50591 30.56142 21.68271
# Velocity P-wave (km/s) = 4.24876 35.56221 25.32511
#
# Compressibility (1/GPa) = 0.04195809
#
# Stress axis : x y z
#
# Youngs Moduli (GPa) = 53.38320 49.00847 162.13983
#
# Poissons Ratio (x) = -0.30599 0.47653
# Poissons Ratio (y) = -0.33331 0.80713
# Poissons Ratio (z) = 0.15689 0.24396
#
# Static dielectric constant tensor:
#      x y z
#    x 1.894500 0.000000 0.000000 
#    y 0.000000 2.339690 0.000000 
#    z 0.000000 0.000000 2.060850 
# 
# From -- ./inp_files/31958.got.cif
#   From: 2010.05.17/outbox.cif.g08.bks.cpg/sg50_16_cif.got.tgz:31958.got - 2010.06.03 11:33:33.
