data_PCOD9397485
_publ_section_title
;
Structure prediction by ZEFSAII (Michael W. Deem and Ramdas Pophale) SiO2 
 PCOD9397485
Probable space group: P B A N
;
_chemical_formula_sum "Si O2"
_cell_formula_units_Z 32
_cell_length_a 13.625828
_cell_length_b 8.477599
_cell_length_c 11.480805
_cell_angle_alpha 90.000000
_cell_angle_beta 90.000000
_cell_angle_gamma 90.000000
_cell_volume 1326.197220
_symmetry_space_group_name_H-M "P B A N"
_symmetry_group_IT_number 50
_space_group.IT_coordinate_system_code '2'
_symmetry_cell_setting 'orthorhombic'
loop_
_space_group_symop_operation_xyz
x,y,z
1/2-x,1/2-y,z
x,1/2-y,-z
1/2-x,y,-z
-x,-y,-z
1/2+x,1/2+y,-z
-x,1/2+y,z
1/2+x,-y,z
loop_
_atom_site_type_symbol
_atom_site_label
_atom_site_fract_x
_atom_site_fract_y
_atom_site_fract_z
Si Si1 0.368568 0.929923 0.994757
Si Si2 0.119281 0.948198 0.748370
Si Si3 0.317232 0.404922 0.230295
Si Si4 0.019154 0.262845 0.365945
O O1 0.379636 0.035897 0.880564
O O2 0.405910 0.750000 0.000000
O O3 0.250000 0.918888 0.000000
O O4 0.400645 0.000286 0.118203
O O5 0.072256 0.781034 0.716741
O O6 0.236085 0.965552 0.734529
O O7 0.064405 0.068333 0.663752
O O8 0.250000 0.250000 0.201316
O O9 0.391449 0.354215 0.330921
O O10 0.992163 0.250000 0.500000
#
# Coordination Sequence:
#
# PCOD9397485 Si02
#       4
#     8   8   8   8
#     4   9  19  38  64  93 132 167 216 276 327 395
#     4  10  23  41  65  94 130 173 217 271 335 384
#     4   9  21  41  68  93 131 178 221 265 338 393
#     4  11  24  43  65  95 133 172 225 276 316 396
#
# _framework density 24.129138999999999
#
# number of rings (size 3 to 8) (size 9 to 14) (size 15 to 20)
#    0.000    2.250    0.000    0.750    3.500   17.000 
#    0.000    0.000    0.000    0.000    0.000    0.000 
#    0.000    0.000    0.000    0.000    0.000    0.000 
#
# Total GULP energy -178864.468801 kJ/mol
# GULP energy per Si atom -5589.514650 kJ/mol
# Density = 2.407422 g / cm^3
# Si number density = 24.129139 Si / 1000 Ang^3
#
#
#
# Elastic Constant Matrix: (Units=GPa)
#
#
# Indices 1 2 3 4 5 6 
#
# 1 113.4549 29.0913 15.0177 0.0000 0.0000 0.0000
# 2 29.0913 27.3475 27.5632 0.0000 0.0000 0.0000
# 3 15.0177 27.5632 120.2692 0.0000 0.0000 0.0000
# 4 0.0000 0.0000 0.0000 25.8493 0.0000 0.0000
# 5 0.0000 0.0000 0.0000 0.0000 24.7095 0.0000
# 6 0.0000 0.0000 0.0000 0.0000 0.0000 22.8379
#
#
#
# Elastic Compliance Matrix: (Units=1/GPa)
#
#
# Indices 1 2 3 4 5 6 
#
# 1 0.012454 -0.015189 0.001926 0.000000 0.000000 0.000000
# 2 -0.015189 0.066075 -0.013246 0.000000 0.000000 0.000000
# 3 0.001926 -0.013246 0.011110 0.000000 0.000000 0.000000
# 4 0.000000 0.000000 0.000000 0.038686 0.000000 0.000000
# 5 0.000000 0.000000 0.000000 0.000000 0.040470 0.000000
# 6 0.000000 0.000000 0.000000 0.000000 0.000000 0.043787
#
#
# Mechanical properties :
#
#
# Convention : Reuss Voigt Hill
#
# Bulk Modulus (GPa) = 27.30768 44.93510 36.12139
# Shear Modulus (GPa) = 17.99808 27.30597 22.65203
#
# Velocity S-wave (km/s) = 2.73409 3.36766 3.06728
# Velocity P-wave (km/s) = 4.61615 5.81246 5.24851
#
# Compressibility (1/GPa) = 0.03661973
#
# Stress axis : x y z
#
# Youngs Moduli (GPa) = 80.29665 15.13431 90.00897
#
# Poissons Ratio (x) = 0.22988 -0.17335
# Poissons Ratio (y) = 1.21963 1.19230
# Poissons Ratio (z) = -0.15465 0.20048
#
# Static dielectric constant tensor:
#      x y z
#    x 1.942050 0.000000 0.000000 
#    y 0.000000 2.017290 0.000000 
#    z 0.000000 0.000000 1.875010 
# 
# From -- ./inp_files/18370.got.cif
#   From: 2010.05.17/outbox.cif.g08.bks.cpg/sg50_10_cif.got.tgz:18370.got - 2010.06.03 11:33:33.
