data_PCOD9397716
_publ_section_title
;
Structure prediction by ZEFSAII (Michael W. Deem and Ramdas Pophale) SiO2 
 PCOD9397716
Probable space group: P B A N
;
_chemical_formula_sum "Si O2"
_cell_formula_units_Z 32
_cell_length_a 11.342786
_cell_length_b 9.476571
_cell_length_c 15.439862
_cell_angle_alpha 90.000000
_cell_angle_beta 90.000000
_cell_angle_gamma 90.000000
_cell_volume 1659.641835
_symmetry_space_group_name_H-M "P B A N"
_symmetry_group_IT_number 50
_space_group.IT_coordinate_system_code '2'
_symmetry_cell_setting 'orthorhombic'
loop_
_space_group_symop_operation_xyz
x,y,z
1/2-x,1/2-y,z
x,1/2-y,-z
1/2-x,y,-z
-x,-y,-z
1/2+x,1/2+y,-z
-x,1/2+y,z
1/2+x,-y,z
loop_
_atom_site_type_symbol
_atom_site_label
_atom_site_fract_x
_atom_site_fract_y
_atom_site_fract_z
Si Si1 0.952648 0.097976 0.756747
Si Si2 0.370601 0.314596 0.330095
Si Si3 0.750000 0.750000 0.000000
Si Si4 0.750000 0.250000 0.866782
Si Si5 0.596264 0.508115 0.076669
Si Si6 0.250000 0.250000 0.500000
O O1 0.847703 0.176130 0.806866
O O2 0.026729 0.205996 0.697173
O O3 0.034170 0.029929 0.831389
O O4 0.900864 0.967925 0.703817
O O5 0.250000 0.250000 0.290056
O O6 0.336778 0.326102 0.431813
O O7 0.671789 0.852942 0.942204
O O8 0.821213 0.370315 0.918950
O O9 0.500000 0.500000 0.000000
#
# Coordination Sequence:
#
# PCOD9397716 Si02
#       6
#     8   8   2   4   8   2
#     4  12  24  44  73 101 143 188 236 293 360 424
#     4  10  24  46  70 106 140 180 236 291 361 431
#     4  12  28  40  68  90 144 180 240 296 336 402
#     4  12  26  45  68 103 140 192 242 293 350 424
#     4  12  27  46  65 101 140 194 237 294 346 415
#     4   8  24  46  76 104 146 180 228 310 356 452
#
# _framework density 19.281269000000002
#
# number of rings (size 3 to 8) (size 9 to 14) (size 15 to 20)
#    0.750    0.000    2.500    4.500    5.250    4.500 
#    0.000    0.000    0.000    1.500    0.000    0.000 
#    0.000    0.000    0.000    0.000    0.000    0.000 
#
# Total GULP energy -178769.755412 kJ/mol
# GULP energy per Si atom -5586.554857 kJ/mol
# Density = 1.923738 g / cm^3
# Si number density = 19.281269 Si / 1000 Ang^3
#
#
#
# Elastic Constant Matrix: (Units=GPa)
#
#
# Indices 1 2 3 4 5 6 
#
# 1 134.7631 91.3321 62.7684 0.0000 0.0000 0.0000
# 2 91.3321 181.4837 73.7724 0.0000 0.0000 0.0000
# 3 62.7684 73.7724 137.0751 0.0000 0.0000 0.0000
# 4 0.0000 0.0000 0.0000 11.2965 0.0000 0.0000
# 5 0.0000 0.0000 0.0000 0.0000 65.6759 0.0000
# 6 0.0000 0.0000 0.0000 0.0000 0.0000 51.7169
#
#
#
# Elastic Compliance Matrix: (Units=1/GPa)
#
#
# Indices 1 2 3 4 5 6 
#
# 1 0.012098 -0.004911 -0.002897 0.000000 0.000000 0.000000
# 2 -0.004911 0.009046 -0.002620 0.000000 0.000000 0.000000
# 3 -0.002897 -0.002620 0.010032 0.000000 0.000000 0.000000
# 4 0.000000 0.000000 0.000000 0.088523 0.000000 0.000000
# 5 0.000000 0.000000 0.000000 0.000000 0.015226 0.000000
# 6 0.000000 0.000000 0.000000 0.000000 0.000000 0.019336
#
#
# Mechanical properties :
#
#
# Convention : Reuss Voigt Hill
#
# Bulk Modulus (GPa) = 96.89030 101.00752 98.94891
# Shear Modulus (GPa) = 28.00229 40.76781 34.38505
#
# Velocity S-wave (km/s) = 3.81505 4.60322 4.22754
# Velocity P-wave (km/s) = 8.35262 8.98626 8.67523
#
# Compressibility (1/GPa) = 0.01032095
#
# Stress axis : x y z
#
# Youngs Moduli (GPa) = 82.65982 110.54006 99.68234
#
# Poissons Ratio (x) = 0.54283 0.28876
# Poissons Ratio (y) = 0.40592 0.26117
# Poissons Ratio (z) = 0.23945 0.28962
#
# Static dielectric constant tensor:
#      x y z
#    x 1.701000 0.000000 0.000000 
#    y 0.000000 1.651680 0.000000 
#    z 0.000000 0.000000 1.737140 
# 
# From -- ./inp_files/24379.got.cif
#   From: 2010.05.17/outbox.cif.g08.bks.cpg/sg50_13_cif.got.tgz:24379.got - 2010.06.03 11:33:33.
