data_PCOD9397999
_publ_section_title
;
Structure prediction by ZEFSAII (Michael W. Deem and Ramdas Pophale) SiO2 
 PCOD9397999
Probable space group: P B A N
;
_chemical_formula_sum "Si O2"
_cell_formula_units_Z 24
_cell_length_a 8.543932
_cell_length_b 10.496211
_cell_length_c 10.727343
_cell_angle_alpha 90.000000
_cell_angle_beta 90.000000
_cell_angle_gamma 90.000000
_cell_volume 962.016460
_symmetry_space_group_name_H-M "P B A N"
_symmetry_group_IT_number 50
_space_group.IT_coordinate_system_code '2'
_symmetry_cell_setting 'orthorhombic'
loop_
_space_group_symop_operation_xyz
x,y,z
1/2-x,1/2-y,z
x,1/2-y,-z
1/2-x,y,-z
-x,-y,-z
1/2+x,1/2+y,-z
-x,1/2+y,z
1/2+x,-y,z
loop_
_atom_site_type_symbol
_atom_site_label
_atom_site_fract_x
_atom_site_fract_y
_atom_site_fract_z
Si Si1 0.927457 0.598867 0.552056
Si Si2 0.927312 0.299854 0.661219
Si Si3 0.575117 0.124407 0.945915
O O1 0.989639 0.750000 0.500000
O O2 0.750000 0.598551 0.500000
O O3 0.959022 0.440836 0.579168
O O4 0.966952 0.667733 0.682819
O O5 0.750000 0.250000 0.637228
O O6 0.924961 0.363807 0.797282
O O7 0.493769 0.250000 0.000000
O O8 0.750000 0.123909 0.000000
O O9 0.500000 0.000000 0.000000
#
# Coordination Sequence:
#
# PCOD9397999 Si02
#       3
#     8   8   8
#     4  11  24  42  68 108 141 188 245 306 383 453
#     4  11  22  43  70  97 145 188 242 306 372 438
#     4  11  26  50  72 107 149 197 255 309 368 443
#
# _framework density 24.947596999999998
#
# number of rings (size 3 to 8) (size 9 to 14) (size 15 to 20)
#    0.000    1.000    3.333    6.000    4.667    3.333 
#    6.000    0.000    0.000    0.000    0.000    0.000 
#    0.000    0.000    0.000    0.000    0.000    0.000 
#
# Total GULP energy -133621.671395 kJ/mol
# GULP energy per Si atom -5567.569641 kJ/mol
# Density = 2.489081 g / cm^3
# Si number density = 24.947597 Si / 1000 Ang^3
#
#
#
# Elastic Constant Matrix: (Units=GPa)
#
#
# Indices 1 2 3 4 5 6 
#
# 1 163.9686 91.4966 78.5326 0.0000 0.0000 0.0000
# 2 91.4966 318.4327 159.9946 0.0000 0.0000 0.0000
# 3 78.5326 159.9946 218.6398 0.0000 0.0000 0.0000
# 4 0.0000 0.0000 0.0000 53.9685 0.0000 0.0000
# 5 0.0000 0.0000 0.0000 0.0000 20.9814 0.0000
# 6 0.0000 0.0000 0.0000 0.0000 0.0000 84.0024
#
#
#
# Elastic Compliance Matrix: (Units=1/GPa)
#
#
# Indices 1 2 3 4 5 6 
#
# 1 0.007692 -0.001300 -0.001812 0.000000 0.000000 0.000000
# 2 -0.001300 0.005186 -0.003328 0.000000 0.000000 0.000000
# 3 -0.001812 -0.003328 0.007660 0.000000 0.000000 0.000000
# 4 0.000000 0.000000 0.000000 0.018529 0.000000 0.000000
# 5 0.000000 0.000000 0.000000 0.000000 0.047661 0.000000
# 6 0.000000 0.000000 0.000000 0.000000 0.000000 0.011904
#
#
# Mechanical properties :
#
#
# Convention : Reuss Voigt Hill
#
# Bulk Modulus (GPa) = 130.57342 151.23207 140.90275
# Shear Modulus (GPa) = 43.83476 56.52494 50.17985
#
# Velocity S-wave (km/s) = 4.19629 4.76515 4.48974
# Velocity P-wave (km/s) = 8.71385 9.54081 9.13669
#
# Compressibility (1/GPa) = 0.00765853
#
# Stress axis : x y z
#
# Youngs Moduli (GPa) = 130.00987 192.82371 130.55094
#
# Poissons Ratio (x) = 0.25065 0.23650
# Poissons Ratio (y) = 0.16900 0.43449
# Poissons Ratio (z) = 0.23552 0.64174
#
# Static dielectric constant tensor:
#      x y z
#    x 1.969010 0.000000 0.000000 
#    y 0.000000 2.024690 0.000000 
#    z 0.000000 0.000000 3.442120 
# 
# From -- ./inp_files/19606.got.cif
#   From: 2010.05.17/outbox.cif.g08.bks.cpg/sg50_10_cif.got.tgz:19606.got - 2010.06.03 11:33:33.
