data_PCOD9397306
_publ_section_title
;
Structure prediction by ZEFSAII (Michael W. Deem and Ramdas Pophale) SiO2 
 PCOD9397306
Probable space group: P B A N
;
_chemical_formula_sum "Si O2"
_cell_formula_units_Z 48
_cell_length_a 15.102158
_cell_length_b 9.422476
_cell_length_c 16.969008
_cell_angle_alpha 90.000000
_cell_angle_beta 90.000000
_cell_angle_gamma 90.000000
_cell_volume 2414.685109
_symmetry_space_group_name_H-M "P B A N"
_symmetry_group_IT_number 50
_space_group.IT_coordinate_system_code '2'
_symmetry_cell_setting 'orthorhombic'
loop_
_space_group_symop_operation_xyz
x,y,z
1/2-x,1/2-y,z
x,1/2-y,-z
1/2-x,y,-z
-x,-y,-z
1/2+x,1/2+y,-z
-x,1/2+y,z
1/2+x,-y,z
loop_
_atom_site_type_symbol
_atom_site_label
_atom_site_fract_x
_atom_site_fract_y
_atom_site_fract_z
Si Si1 0.596601 0.563453 0.079178
Si Si2 0.075091 0.102548 0.104617
Si Si3 0.750000 0.250000 0.300536
Si Si4 0.749604 0.516941 0.190751
Si Si5 0.088938 0.163334 0.418529
Si Si6 0.250000 0.250000 0.690049
Si Si7 0.087787 0.677269 0.584699
O O1 0.521748 0.463306 0.117282
O O2 0.575574 0.726887 0.101012
O O3 0.691525 0.522967 0.112768
O O4 0.597549 0.552207 0.984595
O O5 0.149190 0.049152 0.165804
O O6 0.736430 0.378070 0.241039
O O7 0.832554 0.289449 0.356262
O O8 0.712621 0.634866 0.250191
O O9 0.106142 0.250000 0.500000
O O10 0.173223 0.184974 0.363175
O O11 0.001429 0.243140 0.386510
O O12 0.075124 0.993050 0.426863
O O13 0.107116 0.750000 0.500000
#
# Coordination Sequence:
#
# PCOD9397306 Si02
#       7
#     8   8   4   8   8   4   8
#     4  10  22  42  67  92 125 167 214 265 309 379
#     4  10  22  42  67  93 123 168 216 259 318 371
#     4  12  29  42  63  96 134 168 210 260 323 374
#     4  12  25  43  61  95 129 170 206 260 318 382
#     4  11  25  43  70  96 124 168 215 261 311 375
#     4  12  25  42  65  94 130 166 212 256 321 382
#     4  11  25  45  68  94 126 169 213 262 312 374
#
# _framework density 19.878368999999999
#
# number of rings (size 3 to 8) (size 9 to 14) (size 15 to 20)
#    0.000    1.000    3.333    3.000    7.000    5.333 
#    0.000    0.833    0.000    0.000    0.000    0.000 
#    0.000    0.000    0.000    0.000    0.000    0.000 
#
# Total GULP energy -268049.297695 kJ/mol
# GULP energy per Si atom -5584.360369 kJ/mol
# Density = 1.983312 g / cm^3
# Si number density = 19.878369 Si / 1000 Ang^3
#
#
#
# Elastic Constant Matrix: (Units=GPa)
#
#
# Indices 1 2 3 4 5 6 
#
# 1 60.2443 18.9782 17.3966 0.0000 0.0000 0.0000
# 2 18.9782 130.7839 27.7913 0.0000 0.0000 0.0000
# 3 17.3966 27.7913 32.2969 0.0000 0.0000 0.0000
# 4 0.0000 0.0000 0.0000 31.9952 0.0000 0.0000
# 5 0.0000 0.0000 0.0000 0.0000 -13.5010 0.0000
# 6 0.0000 0.0000 0.0000 0.0000 0.0000 15.4507
#
#
#
# Elastic Compliance Matrix: (Units=1/GPa)
#
#
# Indices 1 2 3 4 5 6 
#
# 1 0.019715 -0.000739 -0.009983 0.000000 0.000000 0.000000
# 2 -0.000739 0.009385 -0.007677 0.000000 0.000000 0.000000
# 3 -0.009983 -0.007677 0.042946 0.000000 0.000000 0.000000
# 4 0.000000 0.000000 0.000000 0.031255 0.000000 0.000000
# 5 0.000000 0.000000 0.000000 0.000000 -0.074069 0.000000
# 6 0.000000 0.000000 0.000000 0.000000 0.000000 0.064722
#
#
# Mechanical properties :
#
#
# Convention : Reuss Voigt Hill
#
# Bulk Modulus (GPa) = 28.37166 39.07305 33.72235
# Shear Modulus (GPa) = 35.08709 17.39959 26.24334
#
# Velocity S-wave (km/s) = 4.20585 2.96176 3.63739
# Velocity P-wave (km/s) = 6.15542 5.60310 5.88575
#
# Compressibility (1/GPa) = 0.03524644
#
# Stress axis : x y z
#
# Youngs Moduli (GPa) = 50.72337 106.55374 23.28484
#
# Poissons Ratio (x) = 0.07879 0.23245
# Poissons Ratio (y) = 0.03751 0.17877
# Poissons Ratio (z) = 0.50637 0.81805
#
# Static dielectric constant tensor:
#      x y z
#    x 1.689160 0.000000 0.000000 
#    y 0.000000 1.649950 0.000000 
#    z 0.000000 0.000000 1.689520 
# 
# From -- ./inp_files/29476.got.cif
#   From: 2010.05.17/outbox.cif.g08.bks.cpg/sg50_15_cif.got.tgz:29476.got - 2010.06.03 11:33:33.
