data_PCOD9397900
_publ_section_title
;
Structure prediction by ZEFSAII (Michael W. Deem and Ramdas Pophale) SiO2 
 PCOD9397900
Probable space group: P B A N
;
_chemical_formula_sum "Si O2"
_cell_formula_units_Z 24
_cell_length_a 9.773117
_cell_length_b 14.721631
_cell_length_c 8.250861
_cell_angle_alpha 90.000000
_cell_angle_beta 90.000000
_cell_angle_gamma 90.000000
_cell_volume 1187.102711
_symmetry_space_group_name_H-M "P B A N"
_symmetry_group_IT_number 50
_space_group.IT_coordinate_system_code '2'
_symmetry_cell_setting 'orthorhombic'
loop_
_space_group_symop_operation_xyz
x,y,z
1/2-x,1/2-y,z
x,1/2-y,-z
1/2-x,y,-z
-x,-y,-z
1/2+x,1/2+y,-z
-x,1/2+y,z
1/2+x,-y,z
loop_
_atom_site_type_symbol
_atom_site_label
_atom_site_fract_x
_atom_site_fract_y
_atom_site_fract_z
Si Si1 0.815071 0.124351 0.822389
Si Si2 0.617421 0.544203 0.614097
Si Si3 0.448479 0.712426 0.680765
O O1 0.691458 0.156749 0.706730
O O2 0.932542 0.200876 0.799432
O O3 0.859940 0.027277 0.758288
O O4 0.750000 0.124057 0.000000
O O5 0.750000 0.555220 0.500000
O O6 0.500000 0.500000 0.500000
O O7 0.569162 0.639539 0.690233
O O8 0.453465 0.750000 0.500000
#
# Coordination Sequence:
#
# PCOD9397900 Si02
#       3
#     8   8   8
#     4  11  23  42  67  99 136 187 226 282 357 431
#     4  12  23  43  68 100 135 181 237 289 340 415
#     4  11  21  40  68  92 133 180 240 272 338 420
#
# _framework density 20.217289999999998
#
# number of rings (size 3 to 8) (size 9 to 14) (size 15 to 20)
#    0.000    0.667    6.667    4.000    0.000    2.000 
#    0.000    0.000    0.000    0.000    0.000    0.000 
#    0.000    0.000    0.000    0.000    0.000    0.000 
#
# Total GULP energy -134064.505509 kJ/mol
# GULP energy per Si atom -5586.021063 kJ/mol
# Density = 2.017127 g / cm^3
# Si number density = 20.217290 Si / 1000 Ang^3
#
#
#
# Elastic Constant Matrix: (Units=GPa)
#
#
# Indices 1 2 3 4 5 6 
#
# 1 90.5904 68.1019 29.2840 0.0000 0.0000 0.0000
# 2 68.1019 184.1712 102.3882 0.0000 0.0000 0.0000
# 3 29.2840 102.3882 113.7877 0.0000 0.0000 0.0000
# 4 0.0000 0.0000 0.0000 28.0492 0.0000 0.0000
# 5 0.0000 0.0000 0.0000 0.0000 10.1323 0.0000
# 6 0.0000 0.0000 0.0000 0.0000 0.0000 41.9436
#
#
#
# Elastic Compliance Matrix: (Units=1/GPa)
#
#
# Indices 1 2 3 4 5 6 
#
# 1 0.015597 -0.007075 0.002352 0.000000 0.000000 0.000000
# 2 -0.007075 0.014074 -0.010843 0.000000 0.000000 0.000000
# 3 0.002352 -0.010843 0.017940 0.000000 0.000000 0.000000
# 4 0.000000 0.000000 0.000000 0.035652 0.000000 0.000000
# 5 0.000000 0.000000 0.000000 0.000000 0.098695 0.000000
# 6 0.000000 0.000000 0.000000 0.000000 0.000000 0.023842
#
#
# Mechanical properties :
#
#
# Convention : Reuss Voigt Hill
#
# Bulk Modulus (GPa) = 60.68376 87.56638 74.12507
# Shear Modulus (GPa) = 20.62498 28.61002 24.61750
#
# Velocity S-wave (km/s) = 3.19747 3.76590 3.49326
# Velocity P-wave (km/s) = 6.61156 7.89405 7.28109
#
# Compressibility (1/GPa) = 0.01647887
#
# Stress axis : x y z
#
# Youngs Moduli (GPa) = 64.11447 71.05175 55.74138
#
# Poissons Ratio (x) = 0.50271 -0.13112
# Poissons Ratio (y) = 0.45362 0.60443
# Poissons Ratio (z) = -0.15082 0.77044
#
# Static dielectric constant tensor:
#      x y z
#    x 1.732740 0.000000 0.000000 
#    y 0.000000 1.763950 0.000000 
#    z 0.000000 0.000000 1.709420 
# 
# From -- ./inp_files/8472.got.cif
#   From: 2010.05.17/outbox.cif.g08.bks.cpg/sg50_5_cif.got.tgz:8472.got - 2010.06.03 11:33:33.
