data_PCOD9397394
_publ_section_title
;
Structure prediction by ZEFSAII (Michael W. Deem and Ramdas Pophale) SiO2 
 PCOD9397394
Probable space group: P B A N
;
_chemical_formula_sum "Si O2"
_cell_formula_units_Z 58
_cell_length_a 20.385215
_cell_length_b 8.584130
_cell_length_c 13.466925
_cell_angle_alpha 90.000000
_cell_angle_beta 90.000000
_cell_angle_gamma 90.000000
_cell_volume 2356.568259
_symmetry_space_group_name_H-M "P B A N"
_symmetry_group_IT_number 50
_space_group.IT_coordinate_system_code '2'
_symmetry_cell_setting 'orthorhombic'
loop_
_space_group_symop_operation_xyz
x,y,z
1/2-x,1/2-y,z
x,1/2-y,-z
1/2-x,y,-z
-x,-y,-z
1/2+x,1/2+y,-z
-x,1/2+y,z
1/2+x,-y,z
loop_
_atom_site_type_symbol
_atom_site_label
_atom_site_fract_x
_atom_site_fract_y
_atom_site_fract_z
Si Si1 0.645792 0.583773 0.058227
Si Si2 0.153855 0.406661 0.664952
Si Si3 0.250000 0.250000 0.500000
Si Si4 0.880794 0.258022 0.609599
Si Si5 0.812014 0.133894 0.214558
Si Si6 0.362200 0.941266 0.865327
Si Si7 0.017499 0.257586 0.306613
Si Si8 0.011368 0.989428 0.836597
O O1 0.687382 0.527348 0.154802
O O2 0.571631 0.545964 0.096654
O O3 0.668908 0.032028 0.028245
O O4 0.648785 0.750000 0.000000
O O5 0.204616 0.347563 0.580241
O O6 0.133833 0.584678 0.646653
O O7 0.168039 0.435733 0.783811
O O8 0.088205 0.302826 0.661316
O O9 0.855487 0.250000 0.500000
O O10 0.842304 0.382803 0.676140
O O11 0.958914 0.274554 0.617835
O O12 0.750000 0.250000 0.222587
O O13 0.858663 0.259604 0.161021
O O14 0.438925 0.979358 0.876541
O O15 0.019983 0.435957 0.273747
O O16 0.995953 0.188261 0.198990
#
# Coordination Sequence:
#
# PCOD9397394 Si02
#       8
#     8   8   2   8   8   8   8   8
#     4  12  24  40  69 114 141 191 250 311 387 459
#     4  10  25  47  69 108 146 201 254 315 387 471
#     4  12  28  52  74 100 158 224 262 326 412 454
#     4  11  24  45  75 111 142 190 261 321 389 471
#     4  11  25  48  71  96 146 206 251 314 382 467
#     4  10  22  45  68 100 149 190 249 304 376 473
#     4  11  20  42  71 105 150 190 245 317 385 454
#     4  11  20  40  70 104 150 192 231 309 395 454
#
# _framework density 24.612061000000001
#
# number of rings (size 3 to 8) (size 9 to 14) (size 15 to 20)
#    0.000    1.103    5.517    2.483    0.966    6.345 
#   12.414    0.690    0.000    0.000    0.000    0.000 
#    0.000    0.000    0.000    0.000    0.000    0.000 
#
# Total GULP energy -323236.992899 kJ/mol
# GULP energy per Si atom -5573.051602 kJ/mol
# Density = 2.455604 g / cm^3
# Si number density = 24.612061 Si / 1000 Ang^3
#
#
#
# Elastic Constant Matrix: (Units=GPa)
#
#
# Indices 1 2 3 4 5 6 
#
# 1 133.8011 24.7926 45.5309 0.0000 0.0000 0.0000
# 2 24.7926 72.9225 28.4453 0.0000 0.0000 0.0000
# 3 45.5309 28.4453 136.1164 0.0000 0.0000 0.0000
# 4 0.0000 0.0000 0.0000 28.6210 0.0000 0.0000
# 5 0.0000 0.0000 0.0000 0.0000 25.6313 0.0000
# 6 0.0000 0.0000 0.0000 0.0000 0.0000 -723.4235
#
#
#
# Elastic Compliance Matrix: (Units=1/GPa)
#
#
# Indices 1 2 3 4 5 6 
#
# 1 0.008689 -0.001982 -0.002492 0.000000 0.000000 0.000000
# 2 -0.001982 0.015382 -0.002552 0.000000 0.000000 0.000000
# 3 -0.002492 -0.002552 0.008714 0.000000 0.000000 0.000000
# 4 0.000000 0.000000 0.000000 0.034939 0.000000 0.000000
# 5 0.000000 0.000000 0.000000 0.000000 0.039015 0.000000
# 6 0.000000 0.000000 0.000000 0.000000 0.000000 -0.001382
#
#
# Mechanical properties :
#
#
# Convention : Reuss Voigt Hill
#
# Bulk Modulus (GPa) = 53.38105 60.04196 56.71150
# Shear Modulus (GPa) = 39.79209 -117.56283 -38.88537
#
# Velocity S-wave (km/s) = 4.02527 -6.91882 -3.97915
# Velocity P-wave (km/s) = 6.58330 6.27522 1.40737
#
# Compressibility (1/GPa) = 0.01873324
#
# Stress axis : x y z
#
# Youngs Moduli (GPa) = 115.08623 65.00958 114.76371
#
# Poissons Ratio (x) = 0.12885 0.28603
# Poissons Ratio (y) = 0.22810 0.29283
# Poissons Ratio (z) = 0.28683 0.16588
#
# Static dielectric constant tensor:
#      x y z
#    x 2.089250 0.000000 0.000000 
#    y 0.000000 2.023820 0.000000 
#    z 0.000000 0.000000 1.922620 
# 
# From -- ./inp_files/27479.got.cif
#   From: 2010.05.17/outbox.cif.g08.bks.cpg/sg50_14_cif.got.tgz:27479.got - 2010.06.03 11:33:33.
