data_PCOD9397566
_publ_section_title
;
Structure prediction by ZEFSAII (Michael W. Deem and Ramdas Pophale) SiO2 
 PCOD9397566
Probable space group: P B A N
;
_chemical_formula_sum "Si O2"
_cell_formula_units_Z 24
_cell_length_a 18.080170
_cell_length_b 5.354199
_cell_length_c 10.193727
_cell_angle_alpha 90.000000
_cell_angle_beta 90.000000
_cell_angle_gamma 90.000000
_cell_volume 986.801990
_symmetry_space_group_name_H-M "P B A N"
_symmetry_group_IT_number 50
_space_group.IT_coordinate_system_code '2'
_symmetry_cell_setting 'orthorhombic'
loop_
_space_group_symop_operation_xyz
x,y,z
1/2-x,1/2-y,z
x,1/2-y,-z
1/2-x,y,-z
-x,-y,-z
1/2+x,1/2+y,-z
-x,1/2+y,z
1/2+x,-y,z
loop_
_atom_site_type_symbol
_atom_site_label
_atom_site_fract_x
_atom_site_fract_y
_atom_site_fract_z
Si Si1 0.163039 0.230013 0.222274
Si Si2 0.930690 0.442312 0.408977
Si Si3 0.588833 0.256257 0.139626
O O1 0.250000 0.250000 0.240102
O O2 0.129379 0.482443 0.163261
O O3 0.119758 0.165232 0.356680
O O4 0.145022 0.980267 0.137646
O O5 0.884862 0.250000 0.500000
O O6 0.955613 0.306627 0.272569
O O7 0.000000 0.500000 0.500000
O O8 0.548200 0.250000 0.000000
#
# Coordination Sequence:
#
# PCOD9397566 Si02
#       3
#     8   8   8
#     4  10  23  43  75 111 150 193 248 307 382 459
#     4  10  26  44  75 102 149 201 255 308 382 443
#     4  10  23  43  73 112 151 192 248 307 382 461
#
# _framework density 24.320989999999998
#
# number of rings (size 3 to 8) (size 9 to 14) (size 15 to 20)
#    2.000    0.000    0.000    2.000    4.667    4.000 
#    0.000    6.667    0.000    0.000    0.000    0.000 
#    0.000    0.000    0.000    0.000    0.000    0.000 
#
# Total GULP energy -133996.466168 kJ/mol
# GULP energy per Si atom -5583.186090 kJ/mol
# Density = 2.426563 g / cm^3
# Si number density = 24.320990 Si / 1000 Ang^3
#
#
#
# Elastic Constant Matrix: (Units=GPa)
#
#
# Indices 1 2 3 4 5 6 
#
# 1 94.6273 56.3021 50.7598 0.0000 0.0000 0.0000
# 2 56.3021 217.7583 55.1969 0.0000 0.0000 0.0000
# 3 50.7598 55.1969 234.8386 0.0000 0.0000 0.0000
# 4 0.0000 0.0000 0.0000 -25.8040 0.0000 0.0000
# 5 0.0000 0.0000 0.0000 0.0000 -36.2987 0.0000
# 6 0.0000 0.0000 0.0000 0.0000 0.0000 30.5732
#
#
#
# Elastic Compliance Matrix: (Units=1/GPa)
#
#
# Indices 1 2 3 4 5 6 
#
# 1 0.013506 -0.002926 -0.002231 0.000000 0.000000 0.000000
# 2 -0.002926 0.005517 -0.000664 0.000000 0.000000 0.000000
# 3 -0.002231 -0.000664 0.004897 0.000000 0.000000 0.000000
# 4 0.000000 0.000000 0.000000 -0.038754 0.000000 0.000000
# 5 0.000000 0.000000 0.000000 0.000000 -0.027549 0.000000
# 6 0.000000 0.000000 0.000000 0.000000 0.000000 0.032708
#
#
# Mechanical properties :
#
#
# Convention : Reuss Voigt Hill
#
# Bulk Modulus (GPa) = 81.46176 96.86020 89.16098
# Shear Modulus (GPa) = 824.88543 19.35846 422.12195
#
# Velocity S-wave (km/s) = 18.43644 2.82433 13.18862
# Velocity P-wave (km/s) = 22.06287 7.10971 16.39083
#
# Compressibility (1/GPa) = 0.01227570
#
# Stress axis : x y z
#
# Youngs Moduli (GPa) = 74.04159 181.24991 204.21943
#
# Poissons Ratio (x) = 0.53041 0.45571
# Poissons Ratio (y) = 0.21667 0.13565
# Poissons Ratio (z) = 0.16522 0.12040
#
# Static dielectric constant tensor:
#      x y z
#    x 1.855370 0.000000 0.000000 
#    y 0.000000 2.199730 0.000000 
#    z 0.000000 0.000000 2.012880 
# 
# From -- ./inp_files/15644.got.cif
#   From: 2010.05.17/outbox.cif.g08.bks.cpg/sg50_8_cif.got.tgz:15644.got - 2010.06.03 11:33:33.
