data_PCOD9397470
_publ_section_title
;
Structure prediction by ZEFSAII (Michael W. Deem and Ramdas Pophale) SiO2 
 PCOD9397470
Probable space group: P B A N
;
_chemical_formula_sum "Si O2"
_cell_formula_units_Z 58
_cell_length_a 12.728427
_cell_length_b 8.519254
_cell_length_c 26.468151
_cell_angle_alpha 90.000000
_cell_angle_beta 90.000000
_cell_angle_gamma 90.000000
_cell_volume 2870.119019
_symmetry_space_group_name_H-M "P B A N"
_symmetry_group_IT_number 50
_space_group.IT_coordinate_system_code '2'
_symmetry_cell_setting 'orthorhombic'
loop_
_space_group_symop_operation_xyz
x,y,z
1/2-x,1/2-y,z
x,1/2-y,-z
1/2-x,y,-z
-x,-y,-z
1/2+x,1/2+y,-z
-x,1/2+y,z
1/2+x,-y,z
loop_
_atom_site_type_symbol
_atom_site_label
_atom_site_fract_x
_atom_site_fract_y
_atom_site_fract_z
Si Si1 0.654380 0.945458 0.589905
Si Si2 0.204727 0.924555 0.220187
Si Si3 0.149860 0.460089 0.138922
Si Si4 0.150935 0.998220 0.331445
Si Si5 0.057128 0.810274 0.130053
Si Si6 0.750000 0.750000 0.500000
Si Si7 0.290812 0.570617 0.055497
Si Si8 0.471177 0.783124 0.372398
O O1 0.752289 0.954376 0.630543
O O2 0.691969 0.869382 0.537932
O O3 0.558673 0.832468 0.605630
O O4 0.598300 0.114899 0.588770
O O5 0.250000 0.750000 0.230297
O O6 0.291864 0.026474 0.191719
O O7 0.114162 0.893587 0.178052
O O8 0.178366 0.004542 0.272791
O O9 0.092628 0.629511 0.131069
O O10 0.234161 0.456684 0.094507
O O11 0.065923 0.325035 0.136130
O O12 0.045940 0.100832 0.340705
O O13 0.113197 0.820780 0.342630
O O14 0.092657 0.900811 0.078309
O O15 0.250000 0.750000 0.061850
O O16 0.250000 0.526071 0.000000
#
# Coordination Sequence:
#
# PCOD9397470 Si02
#       8
#     8   8   8   8   8   2   8   8
#     4  11  23  44  63  93 124 158 198 244 292 350
#     4   9  19  34  54  77 110 150 184 228 281 340
#     4   9  18  33  51  75 104 140 182 230 278 337
#     4  11  21  41  62  91 123 156 199 248 295 356
#     4   9  18  32  50  74 104 137 186 227 276 345
#     4  12  24  44  70  88 130 160 194 256 290 344
#     4   8  15  30  50  70  98 140 182 224 278 339
#     4  10  23  40  66  92 122 158 199 243 295 355
#
# _framework density 20.208221999999999
#
# number of rings (size 3 to 8) (size 9 to 14) (size 15 to 20)
#    0.000    2.345    1.379    2.897    0.000    5.517 
#    0.000    4.828    0.000    0.828    0.000    0.000 
#    0.000    0.000    0.000    0.000    0.000    0.000 
#
# Total GULP energy -322985.470216 kJ/mol
# GULP energy per Si atom -5568.715004 kJ/mol
# Density = 2.016223 g / cm^3
# Si number density = 20.208222 Si / 1000 Ang^3
#
#
#
# Elastic Constant Matrix: (Units=GPa)
#
#
# Indices 1 2 3 4 5 6 
#
# 1 60.3745 25.4091 23.3378 0.0000 0.0000 0.0000
# 2 25.4091 52.8080 30.9810 0.0000 0.0000 0.0000
# 3 23.3378 30.9810 104.2606 0.0000 0.0000 0.0000
# 4 0.0000 0.0000 0.0000 22.5847 0.0000 0.0000
# 5 0.0000 0.0000 0.0000 0.0000 30.8953 0.0000
# 6 0.0000 0.0000 0.0000 0.0000 0.0000 2.8986
#
#
#
# Elastic Compliance Matrix: (Units=1/GPa)
#
#
# Indices 1 2 3 4 5 6 
#
# 1 0.021131 -0.008953 -0.002070 0.000000 0.000000 0.000000
# 2 -0.008953 0.026728 -0.005938 0.000000 0.000000 0.000000
# 3 -0.002070 -0.005938 0.011819 0.000000 0.000000 0.000000
# 4 0.000000 0.000000 0.000000 0.044278 0.000000 0.000000
# 5 0.000000 0.000000 0.000000 0.000000 0.032367 0.000000
# 6 0.000000 0.000000 0.000000 0.000000 0.000000 0.344989
#
#
# Mechanical properties :
#
#
# Convention : Reuss Voigt Hill
#
# Bulk Modulus (GPa) = 38.82513 41.87767 40.35140
# Shear Modulus (GPa) = 9.54525 20.45676 15.00100
#
# Velocity S-wave (km/s) = 2.17571 3.18512 2.72751
# Velocity P-wave (km/s) = 5.05627 5.85617 5.47086
#
# Compressibility (1/GPa) = 0.02575651
#
# Stress axis : x y z
#
# Youngs Moduli (GPa) = 47.32299 37.41349 84.60861
#
# Poissons Ratio (x) = 0.33498 0.17510
# Poissons Ratio (y) = 0.42370 0.50242
# Poissons Ratio (z) = 0.09794 0.22217
#
# Static dielectric constant tensor:
#      x y z
#    x 1.740240 0.000000 0.000000 
#    y 0.000000 1.756720 0.000000 
#    z 0.000000 0.000000 1.726000 
# 
# From -- ./inp_files/32188.got.cif
#   From: 2010.05.17/outbox.cif.g08.bks.cpg/sg50_17_cif.got.tgz:32188.got - 2010.06.03 11:33:33.
