data_PCOD9397542
_publ_section_title
;
Structure prediction by ZEFSAII (Michael W. Deem and Ramdas Pophale) SiO2 
 PCOD9397542
Probable space group: P B A N
;
_chemical_formula_sum "Si O2"
_cell_formula_units_Z 30
_cell_length_a 19.674175
_cell_length_b 11.016972
_cell_length_c 6.248312
_cell_angle_alpha 90.000000
_cell_angle_beta 90.000000
_cell_angle_gamma 90.000000
_cell_volume 1354.320596
_symmetry_space_group_name_H-M "P B A N"
_symmetry_group_IT_number 50
_space_group.IT_coordinate_system_code '2'
_symmetry_cell_setting 'orthorhombic'
loop_
_space_group_symop_operation_xyz
x,y,z
1/2-x,1/2-y,z
x,1/2-y,-z
1/2-x,y,-z
-x,-y,-z
1/2+x,1/2+y,-z
-x,1/2+y,z
1/2+x,-y,z
loop_
_atom_site_type_symbol
_atom_site_label
_atom_site_fract_x
_atom_site_fract_y
_atom_site_fract_z
Si Si1 0.509119 0.875589 0.138993
Si Si2 0.750000 0.750000 0.000000
Si Si3 0.250000 0.900765 0.500000
Si Si4 0.861189 0.359636 0.833326
Si Si5 0.344989 0.057598 0.802554
O O1 0.437450 0.863966 0.263084
O O2 0.579402 0.900100 0.261152
O O3 0.516707 0.750000 0.000000
O O4 0.500000 0.000000 0.000000
O O5 0.701342 0.671204 0.853238
O O6 0.300186 0.839644 0.328837
O O7 0.304812 0.979089 0.631565
O O8 0.861810 0.250000 0.000000
O O9 0.849312 0.479929 0.976239
#
# Coordination Sequence:
#
# PCOD9397542 Si02
#       5
#     8   2   4   8   8
#     4   9  19  39  66  88 128 179 218 269 334 393
#     4  12  20  42  62  92 134 164 214 272 332 384
#     4  12  24  40  66 102 128 171 223 274 328 402
#     4  10  23  43  64  95 130 172 221 271 333 392
#     4  11  23  40  64  94 131 173 214 273 334 390
#
# _framework density 22.151326999999998
#
# number of rings (size 3 to 8) (size 9 to 14) (size 15 to 20)
#    0.000    1.600    4.000    0.000    0.000    5.867 
#    0.000    0.000    0.000    9.600    0.000    0.000 
#    0.000    0.000    0.000    0.000    0.000    0.000 
#
# Total GULP energy -167526.261388 kJ/mol
# GULP energy per Si atom -5584.208713 kJ/mol
# Density = 2.210091 g / cm^3
# Si number density = 22.151327 Si / 1000 Ang^3
#
#
#
# Elastic Constant Matrix: (Units=GPa)
#
#
# Indices 1 2 3 4 5 6 
#
# 1 279.7054 47.3060 65.0061 0.0000 0.0000 0.0000
# 2 47.3060 96.4206 3.1729 0.0000 0.0000 0.0000
# 3 65.0061 3.1729 41.3283 0.0000 0.0000 0.0000
# 4 0.0000 0.0000 0.0000 23.1223 0.0000 0.0000
# 5 0.0000 0.0000 0.0000 0.0000 -42.4211 0.0000
# 6 0.0000 0.0000 0.0000 0.0000 0.0000 50.1780
#
#
#
# Elastic Compliance Matrix: (Units=1/GPa)
#
#
# Indices 1 2 3 4 5 6 
#
# 1 0.006296 -0.002770 -0.009690 0.000000 0.000000 0.000000
# 2 -0.002770 0.011616 0.003465 0.000000 0.000000 0.000000
# 3 -0.009690 0.003465 0.039172 0.000000 0.000000 0.000000
# 4 0.000000 0.000000 0.000000 0.043248 0.000000 0.000000
# 5 0.000000 0.000000 0.000000 0.000000 -0.023573 0.000000
# 6 0.000000 0.000000 0.000000 0.000000 0.000000 0.019929
#
#
# Mechanical properties :
#
#
# Convention : Reuss Voigt Hill
#
# Bulk Modulus (GPa) = 25.57920 72.04716 48.81318
# Shear Modulus (GPa) = 39.15140 26.30711 32.72925
#
# Velocity S-wave (km/s) = 4.20867 3.44991 3.84804
# Velocity P-wave (km/s) = 5.93209 6.96166 6.46740
#
# Compressibility (1/GPa) = 0.03909427
#
# Stress axis : x y z
#
# Youngs Moduli (GPa) = 158.83834 86.08668 25.52839
#
# Poissons Ratio (x) = 0.23846 0.24737
# Poissons Ratio (y) = 0.43997 -0.08846
# Poissons Ratio (z) = 1.53914 -0.29830
#
# Static dielectric constant tensor:
#      x y z
#    x 1.830160 0.000000 0.000000 
#    y 0.000000 2.197720 0.000000 
#    z 0.000000 0.000000 1.733950 
# 
# From -- ./inp_files/2012.got.cif
#   From: 2010.05.17/outbox.cif.g08.bks.cpg/sg50_2_cif.got.tgz:2012.got - 2010.06.03 11:33:33.
