data_PCOD9397730
_publ_section_title
;
Structure prediction by ZEFSAII (Michael W. Deem and Ramdas Pophale) SiO2 
 PCOD9397730
Probable space group: P B A N
;
_chemical_formula_sum "Si O2"
_cell_formula_units_Z 38
_cell_length_a 12.613855
_cell_length_b 13.104689
_cell_length_c 11.293479
_cell_angle_alpha 90.000000
_cell_angle_beta 90.000000
_cell_angle_gamma 90.000000
_cell_volume 1866.819384
_symmetry_space_group_name_H-M "P B A N"
_symmetry_group_IT_number 50
_space_group.IT_coordinate_system_code '2'
_symmetry_cell_setting 'orthorhombic'
loop_
_space_group_symop_operation_xyz
x,y,z
1/2-x,1/2-y,z
x,1/2-y,-z
1/2-x,y,-z
-x,-y,-z
1/2+x,1/2+y,-z
-x,1/2+y,z
1/2+x,-y,z
loop_
_atom_site_type_symbol
_atom_site_label
_atom_site_fract_x
_atom_site_fract_y
_atom_site_fract_z
Si Si1 0.427527 0.837716 0.908442
Si Si2 0.250000 0.750000 0.500000
Si Si3 0.880913 0.958965 0.207283
Si Si4 0.866127 0.775269 0.361996
Si Si5 0.593859 0.311884 0.294049
Si Si6 0.750000 0.488209 0.000000
O O1 0.523114 0.906558 0.862789
O O2 0.374680 0.777331 0.798446
O O3 0.346220 0.913620 0.969251
O O4 0.462600 0.750000 0.000000
O O5 0.331535 0.692904 0.589612
O O6 0.877019 0.893899 0.327928
O O7 0.896919 0.076941 0.237485
O O8 0.781393 0.950559 0.117967
O O9 0.750000 0.750000 0.310530
O O10 0.863191 0.750000 0.500000
O O11 0.969645 0.714752 0.316640
#
# Coordination Sequence:
#
# PCOD9397730 Si02
#       6
#     8   2   8   8   8   4
#     4  11  24  43  67  99 142 173 223 289 340 403
#     4  12  24  44  68 104 138 176 228 304 324 412
#     4  11  26  40  72  99 133 186 224 278 346 414
#     4  10  24  47  65  95 137 181 229 287 336 399
#     4  11  24  44  69 102 135 181 232 282 344 406
#     4  12  23  40  65 104 136 182 221 284 339 422
#
# _framework density 20.355478000000002
#
# number of rings (size 3 to 8) (size 9 to 14) (size 15 to 20)
#    0.000    1.053    3.158    2.211    2.947    4.211 
#    0.000    0.000    0.000    0.000    0.000    0.000 
#    0.000    0.000    0.000    0.000    0.000    0.000 
#
# Total GULP energy -212019.815194 kJ/mol
# GULP energy per Si atom -5579.468821 kJ/mol
# Density = 2.030915 g / cm^3
# Si number density = 20.355478 Si / 1000 Ang^3
#
#
#
# Elastic Constant Matrix: (Units=GPa)
#
#
# Indices 1 2 3 4 5 6 
#
# 1 98.6167 33.5329 30.8663 0.0000 0.0000 0.0000
# 2 33.5329 90.3396 54.1436 0.0000 0.0000 0.0000
# 3 30.8663 54.1436 116.9993 0.0000 0.0000 0.0000
# 4 0.0000 0.0000 0.0000 15.8695 0.0000 0.0000
# 5 0.0000 0.0000 0.0000 0.0000 23.6064 0.0000
# 6 0.0000 0.0000 0.0000 0.0000 0.0000 -31.4437
#
#
#
# Elastic Compliance Matrix: (Units=1/GPa)
#
#
# Indices 1 2 3 4 5 6 
#
# 1 0.011793 -0.003477 -0.001502 0.000000 0.000000 0.000000
# 2 -0.003477 0.016343 -0.006646 0.000000 0.000000 0.000000
# 3 -0.001502 -0.006646 0.012019 0.000000 0.000000 0.000000
# 4 0.000000 0.000000 0.000000 0.063014 0.000000 0.000000
# 5 0.000000 0.000000 0.000000 0.000000 0.042361 0.000000
# 6 0.000000 0.000000 0.000000 0.000000 0.000000 -0.031803
#
#
# Mechanical properties :
#
#
# Convention : Reuss Voigt Hill
#
# Bulk Modulus (GPa) = 59.15478 60.33792 59.74635
# Shear Modulus (GPa) = 35.06020 14.10059 24.58040
#
# Velocity S-wave (km/s) = 4.15468 2.63481 3.47876
# Velocity P-wave (km/s) = 7.22074 6.24201 6.74914
#
# Compressibility (1/GPa) = 0.01690480
#
# Stress axis : x y z
#
# Youngs Moduli (GPa) = 84.79804 61.18823 83.20328
#
# Poissons Ratio (x) = 0.21276 0.12497
# Poissons Ratio (y) = 0.29485 0.55295
# Poissons Ratio (z) = 0.12737 0.40664
#
# Static dielectric constant tensor:
#      x y z
#    x 1.773440 0.000000 0.000000 
#    y 0.000000 1.679610 0.000000 
#    z 0.000000 0.000000 1.755700 
# 
# From -- ./inp_files/20030.got.cif
#   From: 2010.05.17/outbox.cif.g08.bks.cpg/sg50_11_cif.got.tgz:20030.got - 2010.06.03 11:33:33.
