data_PCOD9397741
_publ_section_title
;
Structure prediction by ZEFSAII (Michael W. Deem and Ramdas Pophale) SiO2 
 PCOD9397741
Probable space group: P B A N
;
_chemical_formula_sum "Si O2"
_cell_formula_units_Z 48
_cell_length_a 18.550112
_cell_length_b 8.553954
_cell_length_c 13.813207
_cell_angle_alpha 90.000000
_cell_angle_beta 90.000000
_cell_angle_gamma 90.000000
_cell_volume 2191.835550
_symmetry_space_group_name_H-M "P B A N"
_symmetry_group_IT_number 50
_space_group.IT_coordinate_system_code '2'
_symmetry_cell_setting 'orthorhombic'
loop_
_space_group_symop_operation_xyz
x,y,z
1/2-x,1/2-y,z
x,1/2-y,-z
1/2-x,y,-z
-x,-y,-z
1/2+x,1/2+y,-z
-x,1/2+y,z
1/2+x,-y,z
loop_
_atom_site_type_symbol
_atom_site_label
_atom_site_fract_x
_atom_site_fract_y
_atom_site_fract_z
Si Si1 0.605416 0.441502 0.757723
Si Si2 0.950001 0.987805 0.135040
Si Si3 0.328620 0.224157 0.217336
Si Si4 0.798665 0.552795 0.593054
Si Si5 0.511832 0.250000 0.000000
Si Si6 0.074677 0.571285 0.529491
Si Si7 0.250000 0.750000 0.280957
O O1 0.522758 0.446233 0.802608
O O2 0.632814 0.610443 0.792502
O O3 0.593489 0.442714 0.642222
O O4 0.674434 0.316967 0.770805
O O5 0.878106 0.921012 0.184172
O O6 0.959866 0.879831 0.042071
O O7 0.947016 0.162178 0.088669
O O8 0.250000 0.250000 0.170564
O O9 0.314543 0.186766 0.329830
O O10 0.750000 0.583664 0.500000
O O11 0.871964 0.514314 0.541372
O O12 0.771196 0.399789 0.652701
O O13 0.077311 0.750000 0.500000
O O14 0.000000 0.500000 0.500000
#
# Coordination Sequence:
#
# PCOD9397741 Si02
#       7
#     8   8   8   8   4   8   4
#     4  12  26  44  68 103 146 192 254 306 378 456
#     4  11  25  48  78 111 144 189 239 307 393 470
#     4  12  26  45  72 111 147 193 249 315 366 446
#     4  12  23  44  64  94 145 200 250 297 366 430
#     4  10  24  48  83 105 140 186 236 298 398 487
#     4  12  26  39  59  93 140 194 252 309 358 427
#     4  12  23  44  68  95 142 202 248 307 364 434
#
# _framework density 21.899453000000001
#
# number of rings (size 3 to 8) (size 9 to 14) (size 15 to 20)
#    0.000    0.333    6.667    1.250    7.000    1.667 
#    0.000    0.417    0.000    3.500    0.000    0.000 
#    0.000    0.000    0.000    0.000    0.000    0.000 
#
# Total GULP energy -267404.670930 kJ/mol
# GULP energy per Si atom -5570.930644 kJ/mol
# Density = 2.184961 g / cm^3
# Si number density = 21.899453 Si / 1000 Ang^3
#
#
#
# Elastic Constant Matrix: (Units=GPa)
#
#
# Indices 1 2 3 4 5 6 
#
# 1 179.5236 32.4793 33.1366 0.0000 0.0000 0.0000
# 2 32.4793 65.6913 9.1170 0.0000 0.0000 0.0000
# 3 33.1366 9.1170 54.9487 0.0000 0.0000 0.0000
# 4 0.0000 0.0000 0.0000 -942.1289 0.0000 0.0000
# 5 0.0000 0.0000 0.0000 0.0000 31.9888 0.0000
# 6 0.0000 0.0000 0.0000 0.0000 0.0000 44.2146
#
#
#
# Elastic Compliance Matrix: (Units=1/GPa)
#
#
# Indices 1 2 3 4 5 6 
#
# 1 0.006748 -0.002837 -0.003599 0.000000 0.000000 0.000000
# 2 -0.002837 0.016774 -0.001072 0.000000 0.000000 0.000000
# 3 -0.003599 -0.001072 0.020547 0.000000 0.000000 0.000000
# 4 0.000000 0.000000 0.000000 -0.001061 0.000000 0.000000
# 5 0.000000 0.000000 0.000000 0.000000 0.031261 0.000000
# 6 0.000000 0.000000 0.000000 0.000000 0.000000 0.022617
#
#
# Mechanical properties :
#
#
# Convention : Reuss Voigt Hill
#
# Bulk Modulus (GPa) = 34.41961 49.95882 42.18921
# Shear Modulus (GPa) = 41.12348 -158.15638 -58.51645
#
# Velocity S-wave (km/s) = 4.33810 -8.50742 -5.17480
# Velocity P-wave (km/s) = 6.39088 8.58133 4.04943
#
# Compressibility (1/GPa) = 0.02905321
#
# Stress axis : x y z
#
# Youngs Moduli (GPa) = 148.19749 59.61555 48.66940
#
# Poissons Ratio (x) = 0.16912 0.17514
# Poissons Ratio (y) = 0.42041 0.05219
# Poissons Ratio (z) = 0.53329 0.06393
#
# Static dielectric constant tensor:
#      x y z
#    x 1.851900 0.000000 0.000000 
#    y 0.000000 1.857470 0.000000 
#    z 0.000000 0.000000 1.809640 
# 
# From -- ./inp_files/26894.got.cif
#   From: 2010.05.17/outbox.cif.g08.bks.cpg/sg50_14_cif.got.tgz:26894.got - 2010.06.03 11:33:33.
