data_PCOD9397646
_publ_section_title
;
Structure prediction by ZEFSAII (Michael W. Deem and Ramdas Pophale) SiO2 
 PCOD9397646
Probable space group: P B A N
;
_chemical_formula_sum "Si O2"
_cell_formula_units_Z 20
_cell_length_a 10.865491
_cell_length_b 10.734376
_cell_length_c 7.471155
_cell_angle_alpha 90.000000
_cell_angle_beta 90.000000
_cell_angle_gamma 90.000000
_cell_volume 871.392678
_symmetry_space_group_name_H-M "P B A N"
_symmetry_group_IT_number 50
_space_group.IT_coordinate_system_code '2'
_symmetry_cell_setting 'orthorhombic'
loop_
_space_group_symop_operation_xyz
x,y,z
1/2-x,1/2-y,z
x,1/2-y,-z
1/2-x,y,-z
-x,-y,-z
1/2+x,1/2+y,-z
-x,1/2+y,z
1/2+x,-y,z
loop_
_atom_site_type_symbol
_atom_site_label
_atom_site_fract_x
_atom_site_fract_y
_atom_site_fract_z
Si Si1 0.250000 0.750000 0.762366
Si Si2 0.047189 0.750000 0.500000
Si Si3 0.750000 0.036097 0.000000
Si Si4 0.176622 0.118938 0.669452
O O1 0.140613 0.806910 0.644477
O O2 0.314653 0.860847 0.873448
O O3 0.957504 0.847250 0.404071
O O4 0.821189 0.952172 0.142555
O O5 0.250000 0.250000 0.699670
O O6 0.250000 0.059545 0.500000
#
# Coordination Sequence:
#
# PCOD9397646 Si02
#       4
#     4   4   4   8
#     4  10  24  42  59 103 134 169 207 262 337 383
#     4   9  21  46  66  88 139 169 214 262 322 385
#     4  11  23  42  64  96 133 165 220 266 316 385
#     4   9  21  44  66  92 120 172 225 265 308 378
#
# _framework density 22.951765000000002
#
# number of rings (size 3 to 8) (size 9 to 14) (size 15 to 20)
#    0.000    2.800    0.000    0.600    5.600    3.200 
#   36.000    0.000    0.000    0.000    0.000    0.000 
#    0.000    0.000    0.000    0.000    0.000    0.000 
#
# Total GULP energy -111354.411369 kJ/mol
# GULP energy per Si atom -5567.720568 kJ/mol
# Density = 2.289953 g / cm^3
# Si number density = 22.951765 Si / 1000 Ang^3
#
#
#
# Elastic Constant Matrix: (Units=GPa)
#
#
# Indices 1 2 3 4 5 6 
#
# 1 127.2521 38.7186 81.0211 0.0000 0.0000 0.0000
# 2 38.7186 99.4241 80.9250 0.0000 0.0000 0.0000
# 3 81.0211 80.9250 184.1160 0.0000 0.0000 0.0000
# 4 0.0000 0.0000 0.0000 48.1348 0.0000 0.0000
# 5 0.0000 0.0000 0.0000 0.0000 10.3867 0.0000
# 6 0.0000 0.0000 0.0000 0.0000 0.0000 6.4909
#
#
#
# Elastic Compliance Matrix: (Units=1/GPa)
#
#
# Indices 1 2 3 4 5 6 
#
# 1 0.010935 -0.000532 -0.004578 0.000000 0.000000 0.000000
# 2 -0.000532 0.015686 -0.006661 0.000000 0.000000 0.000000
# 3 -0.004578 -0.006661 0.010374 0.000000 0.000000 0.000000
# 4 0.000000 0.000000 0.000000 0.020775 0.000000 0.000000
# 5 0.000000 0.000000 0.000000 0.000000 0.096277 0.000000
# 6 0.000000 0.000000 0.000000 0.000000 0.000000 0.154063
#
#
# Mechanical properties :
#
#
# Convention : Reuss Voigt Hill
#
# Bulk Modulus (GPa) = 74.33028 90.23576 82.28302
# Shear Modulus (GPa) = 14.87493 27.01096 20.94294
#
# Velocity S-wave (km/s) = 2.54853 3.43426 3.02400
# Velocity P-wave (km/s) = 6.41216 7.42470 6.93693
#
# Compressibility (1/GPa) = 0.01345347
#
# Stress axis : x y z
#
# Youngs Moduli (GPa) = 91.44715 63.74951 96.39896
#
# Poissons Ratio (x) = 0.03392 0.44134
# Poissons Ratio (y) = 0.04866 0.64207
# Poissons Ratio (z) = 0.41867 0.42461
#
# Static dielectric constant tensor:
#      x y z
#    x 1.785280 0.000000 0.000000 
#    y 0.000000 1.933090 0.000000 
#    z 0.000000 0.000000 1.992540 
# 
# From -- ./inp_files/10312.got.cif
#   From: 2010.05.17/outbox.cif.g08.bks.cpg/sg50_6_cif.got.tgz:10312.got - 2010.06.03 11:33:33.
