data_PCOD9397471
_publ_section_title
;
Structure prediction by ZEFSAII (Michael W. Deem and Ramdas Pophale) SiO2 
 PCOD9397471
Probable space group: P B A N
;
_chemical_formula_sum "Si O2"
_cell_formula_units_Z 64
_cell_length_a 18.456408
_cell_length_b 11.966540
_cell_length_c 15.676370
_cell_angle_alpha 90.000000
_cell_angle_beta 90.000000
_cell_angle_gamma 90.000000
_cell_volume 3462.272804
_symmetry_space_group_name_H-M "P B A N"
_symmetry_group_IT_number 50
_space_group.IT_coordinate_system_code '2'
_symmetry_cell_setting 'orthorhombic'
loop_
_space_group_symop_operation_xyz
x,y,z
1/2-x,1/2-y,z
x,1/2-y,-z
1/2-x,y,-z
-x,-y,-z
1/2+x,1/2+y,-z
-x,1/2+y,z
1/2+x,-y,z
loop_
_atom_site_type_symbol
_atom_site_label
_atom_site_fract_x
_atom_site_fract_y
_atom_site_fract_z
Si Si1 0.433234 0.554124 0.674726
Si Si2 0.910561 0.642181 0.808620
Si Si3 0.682709 0.308695 0.092124
Si Si4 0.164586 0.883781 0.512311
Si Si5 0.716987 0.570459 0.089950
Si Si6 0.308912 0.335690 0.252137
Si Si7 0.433617 0.776951 0.780673
Si Si8 0.598724 0.476193 0.658197
O O1 0.403282 0.462517 0.742999
O O2 0.374863 0.574130 0.599060
O O3 0.447581 0.674472 0.717010
O O4 0.514003 0.511100 0.651774
O O5 0.863002 0.617060 0.891548
O O6 0.874448 0.754408 0.773084
O O7 0.994554 0.667515 0.819292
O O8 0.750000 0.250000 0.138524
O O9 0.704301 0.437520 0.086506
O O10 0.612843 0.279026 0.145425
O O11 0.675661 0.250000 0.000000
O O12 0.157993 0.750000 0.500000
O O13 0.250000 0.910881 0.500000
O O14 0.122485 0.937927 0.434252
O O15 0.768011 0.610541 0.169042
O O16 0.750000 0.607061 0.000000
O O17 0.250000 0.250000 0.292066
O O18 0.345468 0.429550 0.309647
O O19 0.396120 0.874915 0.726266
#
# Coordination Sequence:
#
# PCOD9397471 Si02
#       8
#     8   8   8   8   8   8   8   8
#     4  11  22  43  68  95 129 174 221 268 336 390
#     4  10  23  42  65  95 129 169 224 265 324 400
#     4  11  22  39  61  95 130 163 218 264 327 385
#     4  11  25  41  63 101 133 163 218 277 328 395
#     4  11  22  41  66  94 130 174 215 274 325 390
#     4  10  23  40  66  93 128 172 227 263 326 395
#     4  11  22  41  68  95 125 175 218 277 327 387
#     4  11  23  42  68  92 131 174 219 270 335 394
#
# _framework density 18.484967999999999
#
# number of rings (size 3 to 8) (size 9 to 14) (size 15 to 20)
#    0.000    1.250    5.000    1.125    3.500    3.250 
#    2.250    1.250    0.000    0.000    0.000    0.000 
#    0.000    0.000    0.000    0.000    0.000    0.000 
#
# Total GULP energy -356851.418705 kJ/mol
# GULP energy per Si atom -5575.803417 kJ/mol
# Density = 1.844289 g / cm^3
# Si number density = 18.484968 Si / 1000 Ang^3
#
#
#
# Elastic Constant Matrix: (Units=GPa)
#
#
# Indices 1 2 3 4 5 6 
#
# 1 97.5472 33.2175 62.3845 0.0000 0.0000 0.0000
# 2 33.2175 108.3593 33.7930 0.0000 0.0000 0.0000
# 3 62.3845 33.7930 81.7107 0.0000 0.0000 0.0000
# 4 0.0000 0.0000 0.0000 29.2035 0.0000 0.0000
# 5 0.0000 0.0000 0.0000 0.0000 35.1786 0.0000
# 6 0.0000 0.0000 0.0000 0.0000 0.0000 31.6140
#
#
#
# Elastic Compliance Matrix: (Units=1/GPa)
#
#
# Indices 1 2 3 4 5 6 
#
# 1 0.020270 -0.001593 -0.014817 0.000000 0.000000 0.000000
# 2 -0.001593 0.010720 -0.003217 0.000000 0.000000 0.000000
# 3 -0.014817 -0.003217 0.024881 0.000000 0.000000 0.000000
# 4 0.000000 0.000000 0.000000 0.034243 0.000000 0.000000
# 5 0.000000 0.000000 0.000000 0.000000 0.028426 0.000000
# 6 0.000000 0.000000 0.000000 0.000000 0.000000 0.031632
#
#
# Mechanical properties :
#
#
# Convention : Reuss Voigt Hill
#
# Bulk Modulus (GPa) = 60.17921 60.71194 60.44557
# Shear Modulus (GPa) = 25.64570 29.74735 27.69653
#
# Velocity S-wave (km/s) = 3.72880 4.01593 3.87502
# Velocity P-wave (km/s) = 7.15297 7.37691 7.26580
#
# Compressibility (1/GPa) = 0.01661704
#
# Stress axis : x y z
#
# Youngs Moduli (GPa) = 49.33494 93.28138 40.19104
#
# Poissons Ratio (x) = 0.14859 0.59550
# Poissons Ratio (y) = 0.07859 0.12931
# Poissons Ratio (z) = 0.73098 0.30012
#
# Static dielectric constant tensor:
#      x y z
#    x 1.677620 0.000000 0.000000 
#    y 0.000000 1.667190 0.000000 
#    z 0.000000 0.000000 1.627090 
# 
# From -- ./inp_files/27002.got.cif
#   From: 2010.05.17/outbox.cif.g08.bks.cpg/sg50_14_cif.got.tgz:27002.got - 2010.06.03 11:33:33.
