data_PCOD9397661
_publ_section_title
;
Structure prediction by ZEFSAII (Michael W. Deem and Ramdas Pophale) SiO2 
 PCOD9397661
Probable space group: P B A N
;
_chemical_formula_sum "Si O2"
_cell_formula_units_Z 44
_cell_length_a 27.232833
_cell_length_b 9.310414
_cell_length_c 7.910688
_cell_angle_alpha 90.000000
_cell_angle_beta 90.000000
_cell_angle_gamma 90.000000
_cell_volume 2005.746633
_symmetry_space_group_name_H-M "P B A N"
_symmetry_group_IT_number 50
_space_group.IT_coordinate_system_code '2'
_symmetry_cell_setting 'orthorhombic'
loop_
_space_group_symop_operation_xyz
x,y,z
1/2-x,1/2-y,z
x,1/2-y,-z
1/2-x,y,-z
-x,-y,-z
1/2+x,1/2+y,-z
-x,1/2+y,z
1/2+x,-y,z
loop_
_atom_site_type_symbol
_atom_site_label
_atom_site_fract_x
_atom_site_fract_y
_atom_site_fract_z
Si Si1 0.646198 0.147421 0.145265
Si Si2 0.750000 0.995314 0.500000
Si Si3 0.991857 0.982110 0.701566
Si Si4 0.750000 0.250000 0.249634
Si Si5 0.168101 0.250000 0.500000
Si Si6 0.605965 0.669537 0.821255
Si Si7 0.558992 0.257213 0.303755
O O1 0.702826 0.185833 0.157843
O O2 0.615033 0.208634 0.300386
O O3 0.634968 0.979570 0.137199
O O4 0.624544 0.250000 0.000000
O O5 0.765516 0.109476 0.356345
O O6 0.796251 0.888624 0.523419
O O7 0.946511 0.876105 0.742158
O O8 0.042107 0.910500 0.765436
O O9 0.974075 0.132014 0.778851
O O10 0.000000 0.000000 0.500000
O O11 0.135250 0.252720 0.328988
O O12 0.601287 0.750000 0.000000
O O13 0.545442 0.250000 0.500000
#
# Coordination Sequence:
#
# PCOD9397661 Si02
#       7
#     8   4   8   4   4   8   8
#     4  11  25  44  64  98 139 181 228 293 358 423
#     4  10  24  42  72 102 128 186 242 294 354 442
#     4   9  20  39  66  97 135 179 229 282 351 418
#     4  11  23  44  68 100 136 174 242 287 357 430
#     4  11  24  48  72 100 142 184 238 293 368 420
#     4  11  26  46  71 106 142 186 240 292 364 432
#     4   9  20  38  63  95 129 174 228 276 340 415
#
# _framework density 21.936969000000001
#
# number of rings (size 3 to 8) (size 9 to 14) (size 15 to 20)
#    0.000    1.818    1.818    0.273    8.909    3.636 
#    0.000    5.455    0.000    0.000    0.000    0.000 
#    0.000    0.000    0.000    0.000    0.000    0.000 
#
# Total GULP energy -245029.082823 kJ/mol
# GULP energy per Si atom -5568.842791 kJ/mol
# Density = 2.188704 g / cm^3
# Si number density = 21.936969 Si / 1000 Ang^3
#
#
#
# Elastic Constant Matrix: (Units=GPa)
#
#
# Indices 1 2 3 4 5 6 
#
# 1 97.8263 46.9418 26.1596 0.0000 0.0000 0.0000
# 2 46.9418 79.6475 42.3568 0.0000 0.0000 0.0000
# 3 26.1596 42.3568 93.7509 0.0000 0.0000 0.0000
# 4 0.0000 0.0000 0.0000 32.2359 0.0000 0.0000
# 5 0.0000 0.0000 0.0000 0.0000 6.7376 0.0000
# 6 0.0000 0.0000 0.0000 0.0000 0.0000 32.0996
#
#
#
# Elastic Compliance Matrix: (Units=1/GPa)
#
#
# Indices 1 2 3 4 5 6 
#
# 1 0.014257 -0.008275 -0.000239 0.000000 0.000000 0.000000
# 2 -0.008275 0.021329 -0.007328 0.000000 0.000000 0.000000
# 3 -0.000239 -0.007328 0.014044 0.000000 0.000000 0.000000
# 4 0.000000 0.000000 0.000000 0.031021 0.000000 0.000000
# 5 0.000000 0.000000 0.000000 0.000000 0.148421 0.000000
# 6 0.000000 0.000000 0.000000 0.000000 0.000000 0.031153
#
#
# Mechanical properties :
#
#
# Convention : Reuss Voigt Hill
#
# Bulk Modulus (GPa) = 55.72324 55.79348 55.75836
# Shear Modulus (GPa) = 16.78459 24.59906 20.69182
#
# Velocity S-wave (km/s) = 2.76910 3.35229 3.07455
# Velocity P-wave (km/s) = 5.97332 6.36181 6.17062
#
# Compressibility (1/GPa) = 0.01794583
#
# Stress axis : x y z
#
# Youngs Moduli (GPa) = 70.14010 46.88358 71.20507
#
# Poissons Ratio (x) = 0.38798 0.01704
# Poissons Ratio (y) = 0.58044 0.52176
# Poissons Ratio (z) = 0.01679 0.34354
#
# Static dielectric constant tensor:
#      x y z
#    x 1.770900 0.000000 0.000000 
#    y 0.000000 1.844500 0.000000 
#    z 0.000000 0.000000 1.750650 
# 
# From -- ./inp_files/16875.got.cif
#   From: 2010.05.17/outbox.cif.g08.bks.cpg/sg50_9_cif.got.tgz:16875.got - 2010.06.03 11:33:33.
