data_PCOD9397390
_publ_section_title
;
Structure prediction by ZEFSAII (Michael W. Deem and Ramdas Pophale) SiO2 
 PCOD9397390
Probable space group: P B A N
;
_chemical_formula_sum "Si O2"
_cell_formula_units_Z 32
_cell_length_a 13.237270
_cell_length_b 8.405816
_cell_length_c 12.942378
_cell_angle_alpha 90.000000
_cell_angle_beta 90.000000
_cell_angle_gamma 90.000000
_cell_volume 1440.099124
_symmetry_space_group_name_H-M "P B A N"
_symmetry_group_IT_number 50
_space_group.IT_coordinate_system_code '2'
_symmetry_cell_setting 'orthorhombic'
loop_
_space_group_symop_operation_xyz
x,y,z
1/2-x,1/2-y,z
x,1/2-y,-z
1/2-x,y,-z
-x,-y,-z
1/2+x,1/2+y,-z
-x,1/2+y,z
1/2+x,-y,z
loop_
_atom_site_type_symbol
_atom_site_label
_atom_site_fract_x
_atom_site_fract_y
_atom_site_fract_z
Si Si1 0.883675 0.186844 0.329864
Si Si2 0.750000 0.506083 0.000000
Si Si3 0.111670 0.429337 0.672754
Si Si4 0.250000 0.001105 0.500000
Si Si5 0.750000 0.750000 0.837828
Si Si6 0.250000 0.750000 0.852335
O O1 0.886677 0.378390 0.328110
O O2 0.819457 0.105780 0.422096
O O3 0.825382 0.155308 0.222683
O O4 0.996738 0.124696 0.332663
O O5 0.800904 0.623822 0.917282
O O6 0.694304 0.379829 0.924726
O O7 0.175268 0.396642 0.570031
O O8 0.169761 0.341465 0.766032
#
# Coordination Sequence:
#
# PCOD9397390 Si02
#       6
#     8   4   8   4   4   4
#     4  12  25  46  73 107 148 188 241 289 358 424
#     4  10  22  44  80  96 134 198 236 294 366 416
#     4  12  27  45  73 108 146 192 235 297 351 432
#     4  12  25  51  74 105 150 197 236 287 352 433
#     4  11  24  49  68 104 146 183 244 299 352 422
#     4  11  22  47  74 100 144 191 234 299 358 416
#
# _framework density 22.220690999999999
#
# number of rings (size 3 to 8) (size 9 to 14) (size 15 to 20)
#    0.000    0.500    5.000    2.250    7.000    0.500 
#    0.000    7.500    0.000    0.000    0.000    0.000 
#    0.000    0.000    0.000    0.000    0.000    0.000 
#
# Total GULP energy -178453.112920 kJ/mol
# GULP energy per Si atom -5576.659779 kJ/mol
# Density = 2.217012 g / cm^3
# Si number density = 22.220691 Si / 1000 Ang^3
#
#
#
# Elastic Constant Matrix: (Units=GPa)
#
#
# Indices 1 2 3 4 5 6 
#
# 1 174.4706 54.0103 82.1068 0.0000 0.0000 0.0000
# 2 54.0103 115.2571 85.8928 0.0000 0.0000 0.0000
# 3 82.1068 85.8928 189.0343 0.0000 0.0000 0.0000
# 4 0.0000 0.0000 0.0000 62.0038 0.0000 0.0000
# 5 0.0000 0.0000 0.0000 0.0000 1.2643 0.0000
# 6 0.0000 0.0000 0.0000 0.0000 0.0000 36.2442
#
#
#
# Elastic Compliance Matrix: (Units=1/GPa)
#
#
# Indices 1 2 3 4 5 6 
#
# 1 0.007399 -0.001621 -0.002477 0.000000 0.000000 0.000000
# 2 -0.001621 0.013474 -0.005418 0.000000 0.000000 0.000000
# 3 -0.002477 -0.005418 0.008828 0.000000 0.000000 0.000000
# 4 0.000000 0.000000 0.000000 0.016128 0.000000 0.000000
# 5 0.000000 0.000000 0.000000 0.000000 0.790950 0.000000
# 6 0.000000 0.000000 0.000000 0.000000 0.000000 0.027591
#
#
# Mechanical properties :
#
#
# Convention : Reuss Voigt Hill
#
# Bulk Modulus (GPa) = 93.73905 102.53132 98.13519
# Shear Modulus (GPa) = 5.63725 37.01927 21.32826
#
# Velocity S-wave (km/s) = 1.59450 4.08607 3.10149
# Velocity P-wave (km/s) = 6.75774 8.27670 7.55549
#
# Compressibility (1/GPa) = 0.01066791
#
# Stress axis : x y z
#
# Youngs Moduli (GPa) = 135.14773 74.21950 113.27895
#
# Poissons Ratio (x) = 0.12033 0.28062
# Poissons Ratio (y) = 0.21911 0.61373
# Poissons Ratio (z) = 0.33479 0.40211
#
# Static dielectric constant tensor:
#      x y z
#    x 1.757330 0.000000 0.000000 
#    y 0.000000 1.930880 0.000000 
#    z 0.000000 0.000000 1.896700 
# 
# From -- ./inp_files/20818.got.cif
#   From: 2010.05.17/outbox.cif.g08.bks.cpg/sg50_11_cif.got.tgz:20818.got - 2010.06.03 11:33:33.
