data_PCOD9397177
_publ_section_title
;
Structure prediction by ZEFSAII (Michael W. Deem and Ramdas Pophale) SiO2 
 PCOD9397177
Probable space group: P B A N
;
_chemical_formula_sum "Si O2"
_cell_formula_units_Z 56
_cell_length_a 8.281513
_cell_length_b 22.513730
_cell_length_c 13.670629
_cell_angle_alpha 90.000000
_cell_angle_beta 90.000000
_cell_angle_gamma 90.000000
_cell_volume 2548.857986
_symmetry_space_group_name_H-M "P B A N"
_symmetry_group_IT_number 50
_space_group.IT_coordinate_system_code '2'
_symmetry_cell_setting 'orthorhombic'
loop_
_space_group_symop_operation_xyz
x,y,z
1/2-x,1/2-y,z
x,1/2-y,-z
1/2-x,y,-z
-x,-y,-z
1/2+x,1/2+y,-z
-x,1/2+y,z
1/2+x,-y,z
loop_
_atom_site_type_symbol
_atom_site_label
_atom_site_fract_x
_atom_site_fract_y
_atom_site_fract_z
Si Si1 0.574553 0.349055 0.950050
Si Si2 0.564998 0.766103 0.781622
Si Si3 0.310212 0.929424 0.795280
Si Si4 0.565236 0.063617 0.535784
Si Si5 0.170450 0.061002 0.287929
Si Si6 0.489944 0.357677 0.158578
Si Si7 0.968811 0.629877 0.636482
O O1 0.520485 0.302839 0.868025
O O2 0.583778 0.411365 0.890707
O O3 0.750000 0.335766 0.000000
O O4 0.463178 0.346845 0.044604
O O5 0.750000 0.750000 0.805902
O O6 0.476640 0.702491 0.781870
O O7 0.565296 0.805896 0.683276
O O8 0.137864 0.903186 0.826754
O O9 0.382952 0.894555 0.702166
O O10 0.311006 0.997185 0.761526
O O11 0.750000 0.061050 0.500000
O O12 0.489983 0.065872 0.644504
O O13 0.503286 0.121865 0.477617
O O14 0.500000 0.000000 0.500000
O O15 0.324746 0.082108 0.348435
O O16 0.162312 0.110178 0.204141
#
# Coordination Sequence:
#
# PCOD9397177 Si02
#       7
#     8   8   8   8   8   8   8
#     4   9  22  41  66  96 132 184 238 288 335 405
#     4  11  23  45  69 100 135 181 239 287 343 412
#     4  10  22  39  63  98 137 178 231 281 342 410
#     4  12  25  43  71 106 132 176 228 280 347 424
#     4  12  23  41  68 101 139 179 222 284 353 420
#     4  11  23  41  66  95 136 185 231 283 349 400
#     4  11  23  42  67 103 134 174 231 288 345 406
#
# _framework density 21.970623
#
# number of rings (size 3 to 8) (size 9 to 14) (size 15 to 20)
#    0.000    1.143    2.857    3.429    0.000    8.571 
#    0.000    5.000    0.000    0.857    0.000    0.000 
#    0.000    0.000    0.000    0.000    0.000    0.000 
#
# Total GULP energy -312503.460699 kJ/mol
# GULP energy per Si atom -5580.418941 kJ/mol
# Density = 2.192062 g / cm^3
# Si number density = 21.970623 Si / 1000 Ang^3
#
#
#
# Elastic Constant Matrix: (Units=GPa)
#
#
# Indices 1 2 3 4 5 6 
#
# 1 57.9756 15.9844 14.9672 0.0000 0.0000 0.0000
# 2 15.9844 138.7744 64.3717 0.0000 0.0000 0.0000
# 3 14.9672 64.3717 73.2090 0.0000 0.0000 0.0000
# 4 0.0000 0.0000 0.0000 25.1724 0.0000 0.0000
# 5 0.0000 0.0000 0.0000 0.0000 28.0285 0.0000
# 6 0.0000 0.0000 0.0000 0.0000 0.0000 15.3736
#
#
#
# Elastic Compliance Matrix: (Units=1/GPa)
#
#
# Indices 1 2 3 4 5 6 
#
# 1 0.018242 -0.000627 -0.003178 0.000000 0.000000 0.000000
# 2 -0.000627 0.012191 -0.010591 0.000000 0.000000 0.000000
# 3 -0.003178 -0.010591 0.023622 0.000000 0.000000 0.000000
# 4 0.000000 0.000000 0.000000 0.039726 0.000000 0.000000
# 5 0.000000 0.000000 0.000000 0.000000 0.035678 0.000000
# 6 0.000000 0.000000 0.000000 0.000000 0.000000 0.065046
#
#
# Mechanical properties :
#
#
# Convention : Reuss Voigt Hill
#
# Bulk Modulus (GPa) = 39.58476 51.17842 45.38159
# Shear Modulus (GPa) = 21.57788 25.35729 23.46759
#
# Velocity S-wave (km/s) = 3.13729 3.40096 3.27178
# Velocity P-wave (km/s) = 5.58388 6.22628 5.91381
#
# Compressibility (1/GPa) = 0.02526225
#
# Stress axis : x y z
#
# Youngs Moduli (GPa) = 54.81861 82.02792 42.33337
#
# Poissons Ratio (x) = 0.05142 0.13455
# Poissons Ratio (y) = 0.03437 0.44836
# Poissons Ratio (z) = 0.17423 0.86877
#
# Static dielectric constant tensor:
#      x y z
#    x 1.939140 0.000000 0.000000 
#    y 0.000000 1.793580 0.000000 
#    z 0.000000 0.000000 1.864270 
# 
# From -- ./inp_files/25221.got.cif
#   From: 2010.05.17/outbox.cif.g08.bks.cpg/sg50_13_cif.got.tgz:25221.got - 2010.06.03 11:33:33.
