data_PCOD9397701
_publ_section_title
;
Structure prediction by ZEFSAII (Michael W. Deem and Ramdas Pophale) SiO2 
 PCOD9397701
Probable space group: P B A N
;
_chemical_formula_sum "Si O2"
_cell_formula_units_Z 54
_cell_length_a 13.526411
_cell_length_b 13.296269
_cell_length_c 12.695492
_cell_angle_alpha 90.000000
_cell_angle_beta 90.000000
_cell_angle_gamma 90.000000
_cell_volume 2283.294383
_symmetry_space_group_name_H-M "P B A N"
_symmetry_group_IT_number 50
_space_group.IT_coordinate_system_code '2'
_symmetry_cell_setting 'orthorhombic'
loop_
_space_group_symop_operation_xyz
x,y,z
1/2-x,1/2-y,z
x,1/2-y,-z
1/2-x,y,-z
-x,-y,-z
1/2+x,1/2+y,-z
-x,1/2+y,z
1/2+x,-y,z
loop_
_atom_site_type_symbol
_atom_site_label
_atom_site_fract_x
_atom_site_fract_y
_atom_site_fract_z
Si Si1 0.089084 0.888399 0.120826
Si Si2 0.750000 0.250000 0.000000
Si Si3 0.148634 0.311760 0.597777
Si Si4 0.141168 0.662560 0.670985
Si Si5 0.884268 0.013013 0.488551
Si Si6 0.147560 0.612521 0.280735
Si Si7 0.058712 0.250000 0.000000
Si Si8 0.940456 0.617180 0.180002
O O1 0.180276 0.822676 0.070787
O O2 0.058712 0.857801 0.241114
O O3 0.003862 0.844787 0.045284
O O4 0.094330 0.008865 0.134890
O O5 0.250000 0.250000 0.619467
O O6 0.097139 0.250000 0.500000
O O7 0.163976 0.419457 0.545264
O O8 0.092163 0.344879 0.703757
O O9 0.142236 0.608119 0.560695
O O10 0.138772 0.781075 0.658807
O O11 0.235059 0.618018 0.737690
O O12 0.866380 0.025563 0.365434
O O13 0.000000 0.000000 0.500000
O O14 0.062176 0.611959 0.192187
O O15 0.105000 0.300061 0.898170
#
# Coordination Sequence:
#
# PCOD9397701 Si02
#       8
#     8   2   8   8   8   8   4   8
#     4  11  23  46  74 103 142 193 250 311 382 448
#     4  10  24  44  76 102 140 192 254 326 376 444
#     4  11  28  48  69 104 154 204 245 299 376 459
#     4  11  23  42  68 106 140 184 248 306 372 434
#     4  12  24  42  68 102 143 198 248 298 372 454
#     4  11  24  40  72 105 143 184 241 317 362 442
#     4  11  26  47  75 110 149 188 254 325 373 455
#     4  12  25  50  73 110 148 198 253 306 392 453
#
# _framework density 23.650039
#
# number of rings (size 3 to 8) (size 9 to 14) (size 15 to 20)
#    0.000    0.741    4.444    2.222    8.296    2.370 
#    2.667    0.000    0.000    0.000    0.000    0.000 
#    0.000    0.000    0.000    0.000    0.000    0.000 
#
# Total GULP energy -300790.152946 kJ/mol
# GULP energy per Si atom -5570.188018 kJ/mol
# Density = 2.359621 g / cm^3
# Si number density = 23.650039 Si / 1000 Ang^3
#
#
#
# Elastic Constant Matrix: (Units=GPa)
#
#
# Indices 1 2 3 4 5 6 
#
# 1 70.3002 20.4134 -0.6456 0.0000 0.0000 0.0000
# 2 20.4134 132.0799 41.0537 0.0000 0.0000 0.0000
# 3 -0.6456 41.0537 121.3437 0.0000 0.0000 0.0000
# 4 0.0000 0.0000 0.0000 54.0134 0.0000 0.0000
# 5 0.0000 0.0000 0.0000 0.0000 14.5497 0.0000
# 6 0.0000 0.0000 0.0000 0.0000 0.0000 25.1196
#
#
#
# Elastic Compliance Matrix: (Units=1/GPa)
#
#
# Indices 1 2 3 4 5 6 
#
# 1 0.014994 -0.002617 0.000965 0.000000 0.000000 0.000000
# 2 -0.002617 0.008918 -0.003031 0.000000 0.000000 0.000000
# 3 0.000965 -0.003031 0.009272 0.000000 0.000000 0.000000
# 4 0.000000 0.000000 0.000000 0.018514 0.000000 0.000000
# 5 0.000000 0.000000 0.000000 0.000000 0.068730 0.000000
# 6 0.000000 0.000000 0.000000 0.000000 0.000000 0.039809
#
#
# Mechanical properties :
#
#
# Convention : Reuss Voigt Hill
#
# Bulk Modulus (GPa) = 41.98707 49.48521 45.73614
# Shear Modulus (GPa) = 28.16241 36.26337 32.21289
#
# Velocity S-wave (km/s) = 3.45454 3.92003 3.69462
# Velocity P-wave (km/s) = 5.80550 6.43880 6.13033
#
# Compressibility (1/GPa) = 0.02381685
#
# Stress axis : x y z
#
# Youngs Moduli (GPa) = 66.69517 112.13495 107.85537
#
# Poissons Ratio (x) = 0.29350 -0.10411
# Poissons Ratio (y) = 0.17456 0.32692
# Poissons Ratio (z) = -0.06438 0.33989
#
# Static dielectric constant tensor:
#      x y z
#    x 2.006890 0.000000 0.000000 
#    y 0.000000 2.416540 0.000000 
#    z 0.000000 0.000000 2.028090 
# 
# From -- ./inp_files/26515.got.cif
#   From: 2010.05.17/outbox.cif.g08.bks.cpg/sg50_14_cif.got.tgz:26515.got - 2010.06.03 11:33:33.
