data_PCOD9397811
_publ_section_title
;
Structure prediction by ZEFSAII (Michael W. Deem and Ramdas Pophale) SiO2 
 PCOD9397811
Probable space group: P B A N
;
_chemical_formula_sum "Si O2"
_cell_formula_units_Z 42
_cell_length_a 8.406267
_cell_length_b 18.150544
_cell_length_c 11.511562
_cell_angle_alpha 90.000000
_cell_angle_beta 90.000000
_cell_angle_gamma 90.000000
_cell_volume 1756.414780
_symmetry_space_group_name_H-M "P B A N"
_symmetry_group_IT_number 50
_space_group.IT_coordinate_system_code '2'
_symmetry_cell_setting 'orthorhombic'
loop_
_space_group_symop_operation_xyz
x,y,z
1/2-x,1/2-y,z
x,1/2-y,-z
1/2-x,y,-z
-x,-y,-z
1/2+x,1/2+y,-z
-x,1/2+y,z
1/2+x,-y,z
loop_
_atom_site_type_symbol
_atom_site_label
_atom_site_fract_x
_atom_site_fract_y
_atom_site_fract_z
Si Si1 0.750000 0.250000 0.500000
Si Si2 0.089852 0.348202 0.073881
Si Si3 0.391875 0.512630 0.836212
Si Si4 0.250000 0.629297 0.000000
Si Si5 0.134407 0.496594 0.676676
Si Si6 0.750000 0.890940 0.500000
Si Si7 0.003649 0.662493 0.664383
O O1 0.631804 0.208593 0.409363
O O2 0.095333 0.437913 0.090873
O O3 0.056228 0.317930 0.204765
O O4 0.250000 0.329346 0.000000
O O5 0.919730 0.331778 0.013493
O O6 0.321056 0.498422 0.708098
O O7 0.565327 0.539089 0.796317
O O8 0.285386 0.574393 0.893579
O O9 0.125272 0.443608 0.567501
O O10 0.081961 0.580785 0.668593
O O11 0.655976 0.842368 0.590384
#
# Coordination Sequence:
#
# PCOD9397811 Si02
#       7
#     2   8   8   4   8   4   8
#     4  12  30  54  72  94 134 186 268 308 356 442
#     4  11  22  39  63 107 145 183 231 284 350 433
#     4  11  19  32  54  95 152 187 215 259 341 438
#     4  12  20  32  60  97 150 200 211 264 352 426
#     4  11  21  36  60 103 143 178 218 280 355 434
#     4  12  23  39  68 101 141 178 228 292 368 428
#     4  11  26  45  69 103 138 189 235 301 358 423
#
# _framework density 23.912347
#
# number of rings (size 3 to 8) (size 9 to 14) (size 15 to 20)
#    0.000    0.762    8.571    2.857    2.667    0.381 
#    0.000    0.000    0.000    0.571    0.000    0.000 
#    0.000    0.000    0.000    0.000    0.000    0.000 
#
# Total GULP energy -234196.800559 kJ/mol
# GULP energy per Si atom -5576.114299 kJ/mol
# Density = 2.385792 g / cm^3
# Si number density = 23.912347 Si / 1000 Ang^3
#
#
#
# Elastic Constant Matrix: (Units=GPa)
#
#
# Indices 1 2 3 4 5 6 
#
# 1 152.3978 47.3653 81.2114 0.0000 0.0000 0.0000
# 2 47.3653 62.1805 35.7173 0.0000 0.0000 0.0000
# 3 81.2114 35.7173 151.3077 0.0000 0.0000 0.0000
# 4 0.0000 0.0000 0.0000 5.3953 0.0000 0.0000
# 5 0.0000 0.0000 0.0000 0.0000 61.0615 0.0000
# 6 0.0000 0.0000 0.0000 0.0000 0.0000 -29.3292
#
#
#
# Elastic Compliance Matrix: (Units=1/GPa)
#
#
# Indices 1 2 3 4 5 6 
#
# 1 0.010636 -0.005579 -0.004392 0.000000 0.000000 0.000000
# 2 -0.005579 0.021532 -0.002088 0.000000 0.000000 0.000000
# 3 -0.004392 -0.002088 0.009459 0.000000 0.000000 0.000000
# 4 0.000000 0.000000 0.000000 0.185346 0.000000 0.000000
# 5 0.000000 0.000000 0.000000 0.000000 0.016377 0.000000
# 6 0.000000 0.000000 0.000000 0.000000 0.000000 -0.034096
#
#
# Mechanical properties :
#
#
# Convention : Reuss Voigt Hill
#
# Bulk Modulus (GPa) = 57.11463 77.16375 67.13919
# Shear Modulus (GPa) = 20.90224 20.86500 20.88362
#
# Velocity S-wave (km/s) = 2.95976 2.95712 2.95844
# Velocity P-wave (km/s) = 5.96800 6.63317 6.30936
#
# Compressibility (1/GPa) = 0.01750865
#
# Stress axis : x y z
#
# Youngs Moduli (GPa) = 94.01927 46.44333 105.71807
#
# Poissons Ratio (x) = 0.25912 0.46428
# Poissons Ratio (y) = 0.52456 0.22075
# Poissons Ratio (z) = 0.41290 0.09698
#
# Static dielectric constant tensor:
#      x y z
#    x 1.948360 0.000000 0.000000 
#    y 0.000000 1.885820 0.000000 
#    z 0.000000 0.000000 1.929800 
# 
# From -- ./inp_files/19033.got.cif
#   From: 2010.05.17/outbox.cif.g08.bks.cpg/sg50_10_cif.got.tgz:19033.got - 2010.06.03 11:33:33.
