data_PCOD9397260
_publ_section_title
;
Structure prediction by ZEFSAII (Michael W. Deem and Ramdas Pophale) SiO2 
 PCOD9397260
Probable space group: P B A N
;
_chemical_formula_sum "Si O2"
_cell_formula_units_Z 34
_cell_length_a 5.393905
_cell_length_b 13.018012
_cell_length_c 20.454293
_cell_angle_alpha 90.000000
_cell_angle_beta 90.000000
_cell_angle_gamma 90.000000
_cell_volume 1436.257910
_symmetry_space_group_name_H-M "P B A N"
_symmetry_group_IT_number 50
_space_group.IT_coordinate_system_code '2'
_symmetry_cell_setting 'orthorhombic'
loop_
_space_group_symop_operation_xyz
x,y,z
1/2-x,1/2-y,z
x,1/2-y,-z
1/2-x,y,-z
-x,-y,-z
1/2+x,1/2+y,-z
-x,1/2+y,z
1/2+x,-y,z
loop_
_atom_site_type_symbol
_atom_site_label
_atom_site_fract_x
_atom_site_fract_y
_atom_site_fract_z
Si Si1 0.113306 0.059049 0.921674
Si Si2 0.750000 0.750000 0.674740
Si Si3 0.250000 0.750000 0.760255
Si Si4 0.250000 0.250000 0.000000
Si Si5 0.654976 0.473976 0.220766
Si Si6 0.240618 0.435068 0.424907
O O1 0.375727 0.008135 0.940453
O O2 0.130007 0.047261 0.842781
O O3 0.101843 0.172515 0.952084
O O4 0.500267 0.765035 0.717832
O O5 0.722400 0.653851 0.627125
O O6 0.310864 0.644967 0.798569
O O7 0.398496 0.489464 0.257546
O O8 0.250000 0.396115 0.500000
O O9 0.470345 0.513517 0.417438
#
# Coordination Sequence:
#
# PCOD9397260 Si02
#       6
#     8   4   4   2   8   8
#     4  10  24  42  65  96 127 161 203 257 318 383
#     4  12  25  40  65  98 126 166 218 268 310 372
#     4  12  26  40  63  91 124 170 216 264 316 364
#     4  12  24  42  70 100 128 160 208 266 322 376
#     4  10  23  43  64  89 123 166 211 257 314 379
#     4  10  22  41  65  94 131 170 207 260 326 380
#
# _framework density 23.672630000000002
#
# number of rings (size 3 to 8) (size 9 to 14) (size 15 to 20)
#    0.000    1.412    0.000    3.882    0.000   15.059 
#    0.000    4.706    0.000    0.000    0.000    0.000 
#    0.000    0.000    0.000    0.000    0.000    0.000 
#
# Total GULP energy -190084.136156 kJ/mol
# GULP energy per Si atom -5590.709887 kJ/mol
# Density = 2.361875 g / cm^3
# Si number density = 23.672630 Si / 1000 Ang^3
#
#
#
# Elastic Constant Matrix: (Units=GPa)
#
#
# Indices 1 2 3 4 5 6 
#
# 1 174.4120 15.3317 17.6838 0.0000 0.0000 0.0000
# 2 15.3317 130.9204 39.1689 0.0000 0.0000 0.0000
# 3 17.6838 39.1689 105.5101 0.0000 0.0000 0.0000
# 4 0.0000 0.0000 0.0000 31.3288 0.0000 0.0000
# 5 0.0000 0.0000 0.0000 0.0000 15.9798 0.0000
# 6 0.0000 0.0000 0.0000 0.0000 0.0000 28.5376
#
#
#
# Elastic Compliance Matrix: (Units=1/GPa)
#
#
# Indices 1 2 3 4 5 6 
#
# 1 0.005855 -0.000441 -0.000818 0.000000 0.000000 0.000000
# 2 -0.000441 0.008626 -0.003128 0.000000 0.000000 0.000000
# 3 -0.000818 -0.003128 0.010776 0.000000 0.000000 0.000000
# 4 0.000000 0.000000 0.000000 0.031919 0.000000 0.000000
# 5 0.000000 0.000000 0.000000 0.000000 0.062579 0.000000
# 6 0.000000 0.000000 0.000000 0.000000 0.000000 0.035042
#
#
# Mechanical properties :
#
#
# Convention : Reuss Voigt Hill
#
# Bulk Modulus (GPa) = 60.66766 61.69014 61.17890
# Shear Modulus (GPa) = 29.57436 37.74645 33.66040
#
# Velocity S-wave (km/s) = 3.53839 3.99747 3.77492
# Velocity P-wave (km/s) = 6.50976 6.88641 6.70073
#
# Compressibility (1/GPa) = 0.01648325
#
# Stress axis : x y z
#
# Youngs Moduli (GPa) = 170.78769 115.93133 92.79780
#
# Poissons Ratio (x) = 0.05113 0.07587
# Poissons Ratio (y) = 0.07533 0.29030
# Poissons Ratio (z) = 0.13964 0.36266
#
# Static dielectric constant tensor:
#      x y z
#    x 1.969560 0.000000 0.000000 
#    y 0.000000 1.880710 0.000000 
#    z 0.000000 0.000000 1.956060 
# 
# From -- ./inp_files/31364.got.cif
#   From: 2010.05.17/outbox.cif.g08.bks.cpg/sg50_16_cif.got.tgz:31364.got - 2010.06.03 11:33:33.
