data_PCOD9397950
_publ_section_title
;
Structure prediction by ZEFSAII (Michael W. Deem and Ramdas Pophale) SiO2 
 PCOD9397950
Probable space group: P B A N
;
_chemical_formula_sum "Si O2"
_cell_formula_units_Z 28
_cell_length_a 8.928290
_cell_length_b 18.026289
_cell_length_c 7.077515
_cell_angle_alpha 90.000000
_cell_angle_beta 90.000000
_cell_angle_gamma 90.000000
_cell_volume 1139.083120
_symmetry_space_group_name_H-M "P B A N"
_symmetry_group_IT_number 50
_space_group.IT_coordinate_system_code '2'
_symmetry_cell_setting 'orthorhombic'
loop_
_space_group_symop_operation_xyz
x,y,z
1/2-x,1/2-y,z
x,1/2-y,-z
1/2-x,y,-z
-x,-y,-z
1/2+x,1/2+y,-z
-x,1/2+y,z
1/2+x,-y,z
loop_
_atom_site_type_symbol
_atom_site_label
_atom_site_fract_x
_atom_site_fract_y
_atom_site_fract_z
Si Si1 0.512413 0.250000 0.000000
Si Si2 0.146656 0.142394 0.265526
Si Si3 0.007628 0.338842 0.343053
Si Si4 0.873558 0.023276 0.854474
O O1 0.419559 0.179894 0.920341
O O2 0.578333 0.284693 0.805343
O O3 0.314819 0.171109 0.298100
O O4 0.027450 0.163056 0.430480
O O5 0.169190 0.053902 0.246299
O O6 0.937194 0.418036 0.292035
O O7 0.750000 0.054261 0.000000
O O8 0.000000 0.000000 0.000000
#
# Coordination Sequence:
#
# PCOD9397950 Si02
#       4
#     4   8   8   8
#     4  12  21  38  63  94 131 166 215 268 325 384
#     4  11  22  38  63  96 128 167 218 265 325 388
#     4  11  23  38  63  95 129 168 213 271 323 388
#     4  12  22  42  67  93 127 169 213 267 329 387
#
# _framework density 24.581175999999999
#
# number of rings (size 3 to 8) (size 9 to 14) (size 15 to 20)
#    0.000    0.571    5.714    4.286    0.000    2.286 
#    0.000    0.714    0.000    0.000    7.429    0.000 
#    0.000    0.000    0.000    0.000    0.000    0.000 
#
# Total GULP energy -156149.565524 kJ/mol
# GULP energy per Si atom -5576.770197 kJ/mol
# Density = 2.452523 g / cm^3
# Si number density = 24.581176 Si / 1000 Ang^3
#
#
#
# Elastic Constant Matrix: (Units=GPa)
#
#
# Indices 1 2 3 4 5 6 
#
# 1 61.0919 3.3421 19.0368 0.0000 0.0000 0.0000
# 2 3.3421 123.0033 36.0751 0.0000 0.0000 0.0000
# 3 19.0368 36.0751 181.5203 0.0000 0.0000 0.0000
# 4 0.0000 0.0000 0.0000 36.5439 0.0000 0.0000
# 5 0.0000 0.0000 0.0000 0.0000 17.5221 0.0000
# 6 0.0000 0.0000 0.0000 0.0000 0.0000 10.9460
#
#
#
# Elastic Compliance Matrix: (Units=1/GPa)
#
#
# Indices 1 2 3 4 5 6 
#
# 1 0.016922 0.000064 -0.001788 0.000000 0.000000 0.000000
# 2 0.000064 0.008633 -0.001723 0.000000 0.000000 0.000000
# 3 -0.001788 -0.001723 0.006039 0.000000 0.000000 0.000000
# 4 0.000000 0.000000 0.000000 0.027364 0.000000 0.000000
# 5 0.000000 0.000000 0.000000 0.000000 0.057071 0.000000
# 6 0.000000 0.000000 0.000000 0.000000 0.000000 0.091357
#
#
# Mechanical properties :
#
#
# Convention : Reuss Voigt Hill
#
# Bulk Modulus (GPa) = 40.48056 53.61373 47.04715
# Shear Modulus (GPa) = 22.47066 33.47985 27.97525
#
# Velocity S-wave (km/s) = 3.02676 3.69455 3.37720
# Velocity P-wave (km/s) = 5.35900 6.32912 5.86416
#
# Compressibility (1/GPa) = 0.02470322
#
# Stress axis : x y z
#
# Youngs Moduli (GPa) = 59.09374 115.83050 165.59511
#
# Poissons Ratio (x) = -0.00747 0.29601
# Poissons Ratio (y) = -0.00381 0.28524
# Poissons Ratio (z) = 0.10563 0.19952
#
# Static dielectric constant tensor:
#      x y z
#    x 1.904610 0.000000 0.000000 
#    y 0.000000 2.053610 0.000000 
#    z 0.000000 0.000000 1.846950 
# 
# From -- ./inp_files/10860.got.cif
#   From: 2010.05.17/outbox.cif.g08.bks.cpg/sg50_6_cif.got.tgz:10860.got - 2010.06.03 11:33:33.
