data_PCOD9397617
_publ_section_title
;
Structure prediction by ZEFSAII (Michael W. Deem and Ramdas Pophale) SiO2 
 PCOD9397617
Probable space group: P B A N
;
_chemical_formula_sum "Si O2"
_cell_formula_units_Z 52
_cell_length_a 14.080142
_cell_length_b 7.767392
_cell_length_c 21.389764
_cell_angle_alpha 90.000000
_cell_angle_beta 90.000000
_cell_angle_gamma 90.000000
_cell_volume 2339.312552
_symmetry_space_group_name_H-M "P B A N"
_symmetry_group_IT_number 50
_space_group.IT_coordinate_system_code '2'
_symmetry_cell_setting 'orthorhombic'
loop_
_space_group_symop_operation_xyz
x,y,z
1/2-x,1/2-y,z
x,1/2-y,-z
1/2-x,y,-z
-x,-y,-z
1/2+x,1/2+y,-z
-x,1/2+y,z
1/2+x,-y,z
loop_
_atom_site_type_symbol
_atom_site_label
_atom_site_fract_x
_atom_site_fract_y
_atom_site_fract_z
Si Si1 0.547197 0.013945 0.596582
Si Si2 0.143228 0.457899 0.161708
Si Si3 0.555430 0.750000 0.500000
Si Si4 0.133618 0.758594 0.071360
Si Si5 0.625675 0.934359 0.161704
Si Si6 0.163345 0.022581 0.699988
Si Si7 0.385963 0.070567 0.696213
O O1 0.511491 0.136442 0.543085
O O2 0.454830 0.992738 0.643026
O O3 0.600510 0.866478 0.554811
O O4 0.620380 0.090265 0.645451
O O5 0.107019 0.591385 0.111228
O O6 0.258462 0.441387 0.161252
O O7 0.103373 0.266652 0.151540
O O8 0.129475 0.529620 0.231532
O O9 0.250000 0.750000 0.070341
O O10 0.101067 0.928151 0.108667
O O11 0.100652 0.750000 0.000000
O O12 0.589210 0.977075 0.231691
O O13 0.275613 0.020410 0.692212
O O14 0.121514 0.218684 0.691773
#
# Coordination Sequence:
#
# PCOD9397617 Si02
#       7
#     8   8   4   8   8   8   8
#     4  11  20  40  56  82 109 146 176 228 273 338
#     4   8  15  28  46  71 102 135 180 232 270 317
#     4  10  24  36  54  78 120 140 172 226 280 324
#     4   9  16  25  40  69 109 147 177 215 277 336
#     4   8  15  28  46  71 102 135 180 232 270 317
#     4   9  18  35  59  81 107 146 186 226 278 331
#     4   9  18  35  59  81 107 146 186 226 278 331
#
# _framework density 22.228753999999999
#
# number of rings (size 3 to 8) (size 9 to 14) (size 15 to 20)
#    0.000    2.923    1.538    1.846    0.000    1.846 
#    0.000   10.000    0.000    0.000    0.000    1.077 
#    0.000    0.000    0.000    0.000    0.000    0.000 
#
# Total GULP energy -289611.115368 kJ/mol
# GULP energy per Si atom -5569.444526 kJ/mol
# Density = 2.217816 g / cm^3
# Si number density = 22.228754 Si / 1000 Ang^3
#
#
#
# Elastic Constant Matrix: (Units=GPa)
#
#
# Indices 1 2 3 4 5 6 
#
# 1 83.3630 9.3101 30.5666 0.0000 0.0000 0.0000
# 2 9.3101 55.8393 78.8053 0.0000 0.0000 0.0000
# 3 30.5666 78.8053 231.5327 0.0000 0.0000 0.0000
# 4 0.0000 0.0000 0.0000 30.8467 0.0000 0.0000
# 5 0.0000 0.0000 0.0000 0.0000 51.6803 0.0000
# 6 0.0000 0.0000 0.0000 0.0000 0.0000 10.7921
#
#
#
# Elastic Compliance Matrix: (Units=1/GPa)
#
#
# Indices 1 2 3 4 5 6 
#
# 1 0.012613 0.000475 -0.001827 0.000000 0.000000 0.000000
# 2 0.000475 0.034481 -0.011799 0.000000 0.000000 0.000000
# 3 -0.001827 -0.011799 0.008576 0.000000 0.000000 0.000000
# 4 0.000000 0.000000 0.000000 0.032418 0.000000 0.000000
# 5 0.000000 0.000000 0.000000 0.000000 0.019350 0.000000
# 6 0.000000 0.000000 0.000000 0.000000 0.000000 0.092661
#
#
# Mechanical properties :
#
#
# Convention : Reuss Voigt Hill
#
# Bulk Modulus (GPa) = 34.04975 67.56655 50.80815
# Shear Modulus (GPa) = 21.16957 35.46734 28.31846
#
# Velocity S-wave (km/s) = 3.08937 3.99878 3.57312
# Velocity P-wave (km/s) = 5.29875 7.19599 6.31898
#
# Compressibility (1/GPa) = 0.02936879
#
# Stress axis : x y z
#
# Youngs Moduli (GPa) = 79.28640 29.00174 116.60338
#
# Poissons Ratio (x) = -0.01379 0.21302
# Poissons Ratio (y) = -0.03769 1.37577
# Poissons Ratio (z) = 0.14485 0.34218
#
# Static dielectric constant tensor:
#      x y z
#    x 1.926950 0.000000 0.000000 
#    y 0.000000 1.920040 0.000000 
#    z 0.000000 0.000000 1.846470 
# 
# From -- ./inp_files/29677.got.cif
#   From: 2010.05.17/outbox.cif.g08.bks.cpg/sg50_15_cif.got.tgz:29677.got - 2010.06.03 11:33:33.
