data_PCOD9397680
_publ_section_title
;
Structure prediction by ZEFSAII (Michael W. Deem and Ramdas Pophale) SiO2 
 PCOD9397680
Probable space group: P B A N
;
_chemical_formula_sum "Si O2"
_cell_formula_units_Z 58
_cell_length_a 14.548950
_cell_length_b 8.668136
_cell_length_c 20.710806
_cell_angle_alpha 90.000000
_cell_angle_beta 90.000000
_cell_angle_gamma 90.000000
_cell_volume 2611.886908
_symmetry_space_group_name_H-M "P B A N"
_symmetry_group_IT_number 50
_space_group.IT_coordinate_system_code '2'
_symmetry_cell_setting 'orthorhombic'
loop_
_space_group_symop_operation_xyz
x,y,z
1/2-x,1/2-y,z
x,1/2-y,-z
1/2-x,y,-z
-x,-y,-z
1/2+x,1/2+y,-z
-x,1/2+y,z
1/2+x,-y,z
loop_
_atom_site_type_symbol
_atom_site_label
_atom_site_fract_x
_atom_site_fract_y
_atom_site_fract_z
Si Si1 0.640498 0.925142 0.489327
Si Si2 0.200267 0.414761 0.160823
Si Si3 0.546818 0.742110 0.078663
Si Si4 0.243872 0.931705 0.718750
Si Si5 0.631903 0.076504 0.101189
Si Si6 0.900562 0.091582 0.382596
Si Si7 0.250000 0.750000 0.000000
Si Si8 0.916975 0.048502 0.648239
O O1 0.609128 0.750000 0.500000
O O2 0.750000 0.932709 0.500000
O O3 0.597347 0.038019 0.543232
O O4 0.616443 0.965063 0.416522
O O5 0.250000 0.250000 0.165485
O O6 0.120893 0.382302 0.107703
O O7 0.179282 0.474109 0.232338
O O8 0.278346 0.541844 0.143766
O O9 0.449481 0.699477 0.111595
O O10 0.581849 0.912131 0.096017
O O11 0.540266 0.750000 0.000000
O O12 0.250000 0.750000 0.734823
O O13 0.197560 0.946487 0.648512
O O14 0.348722 0.986658 0.707814
O O15 0.681672 0.137191 0.037447
O O16 0.913604 0.271606 0.369549
O O17 0.979248 0.003897 0.343160
#
# Coordination Sequence:
#
# PCOD9397680 Si02
#       8
#     8   8   8   8   8   8   2   8
#     4  11  22  37  62  96 128 171 223 284 345 404
#     4  10  25  44  66  96 135 178 219 275 335 406
#     4  11  23  44  67 100 139 172 221 271 335 402
#     4  10  24  44  66  91 127 177 227 273 335 400
#     4  11  25  40  67 101 132 176 215 271 329 400
#     4  11  23  41  64  93 128 176 221 281 341 398
#     4  12  24  40  70 104 134 176 222 262 344 396
#     4  11  23  41  64  93 130 170 224 281 338 407
#
# _framework density 22.206168999999999
#
# number of rings (size 3 to 8) (size 9 to 14) (size 15 to 20)
#    0.000    1.241    2.069    2.897    2.897    5.793 
#    0.000    5.517    0.000    0.000    0.000    0.000 
#    0.000    0.000    0.000    0.000    0.000    0.000 
#
# Total GULP energy -323648.555632 kJ/mol
# GULP energy per Si atom -5580.147511 kJ/mol
# Density = 2.215563 g / cm^3
# Si number density = 22.206169 Si / 1000 Ang^3
#
#
#
# Elastic Constant Matrix: (Units=GPa)
#
#
# Indices 1 2 3 4 5 6 
#
# 1 103.1235 34.1492 10.9223 0.0000 0.0000 0.0000
# 2 34.1492 62.5017 23.2785 0.0000 0.0000 0.0000
# 3 10.9223 23.2785 61.6542 0.0000 0.0000 0.0000
# 4 0.0000 0.0000 0.0000 27.7682 0.0000 0.0000
# 5 0.0000 0.0000 0.0000 0.0000 23.7088 0.0000
# 6 0.0000 0.0000 0.0000 0.0000 0.0000 51.8348
#
#
#
# Elastic Compliance Matrix: (Units=1/GPa)
#
#
# Indices 1 2 3 4 5 6 
#
# 1 0.011848 -0.006623 0.000402 0.000000 0.000000 0.000000
# 2 -0.006623 0.022320 -0.007254 0.000000 0.000000 0.000000
# 3 0.000402 -0.007254 0.018887 0.000000 0.000000 0.000000
# 4 0.000000 0.000000 0.000000 0.036012 0.000000 0.000000
# 5 0.000000 0.000000 0.000000 0.000000 0.042178 0.000000
# 6 0.000000 0.000000 0.000000 0.000000 0.000000 0.019292
#
#
# Mechanical properties :
#
#
# Convention : Reuss Voigt Hill
#
# Bulk Modulus (GPa) = 38.30758 40.44216 39.37487
# Shear Modulus (GPa) = 26.85440 31.25765 29.05602
#
# Velocity S-wave (km/s) = 3.48130 3.75588 3.62120
# Velocity P-wave (km/s) = 5.78339 6.08774 5.93752
#
# Compressibility (1/GPa) = 0.02610449
#
# Stress axis : x y z
#
# Youngs Moduli (GPa) = 84.40444 44.80327 52.94602
#
# Poissons Ratio (x) = 0.29673 -0.02127
# Poissons Ratio (y) = 0.55900 0.38407
# Poissons Ratio (z) = -0.03390 0.32500
#
# Static dielectric constant tensor:
#      x y z
#    x 1.848170 0.000000 0.000000 
#    y 0.000000 2.801450 0.000000 
#    z 0.000000 0.000000 1.951720 
# 
# From -- ./inp_files/31753.got.cif
#   From: 2010.05.17/outbox.cif.g08.bks.cpg/sg50_16_cif.got.tgz:31753.got - 2010.06.03 11:33:33.
