data_PCOD9397847
_publ_section_title
;
Structure prediction by ZEFSAII (Michael W. Deem and Ramdas Pophale) SiO2 
 PCOD9397847
Probable space group: P B A N
;
_chemical_formula_sum "Si O2"
_cell_formula_units_Z 40
_cell_length_a 25.329359
_cell_length_b 8.380840
_cell_length_c 8.350690
_cell_angle_alpha 90.000000
_cell_angle_beta 90.000000
_cell_angle_gamma 90.000000
_cell_volume 1772.695372
_symmetry_space_group_name_H-M "P B A N"
_symmetry_group_IT_number 50
_space_group.IT_coordinate_system_code '2'
_symmetry_cell_setting 'orthorhombic'
loop_
_space_group_symop_operation_xyz
x,y,z
1/2-x,1/2-y,z
x,1/2-y,-z
1/2-x,y,-z
-x,-y,-z
1/2+x,1/2+y,-z
-x,1/2+y,z
1/2+x,-y,z
loop_
_atom_site_type_symbol
_atom_site_label
_atom_site_fract_x
_atom_site_fract_y
_atom_site_fract_z
Si Si1 0.135301 0.892882 0.385146
Si Si2 0.755030 0.069910 0.693884
Si Si3 0.048071 0.700037 0.186553
Si Si4 0.338252 0.139217 0.366153
Si Si5 0.563509 0.817783 0.821135
O O1 0.156603 0.750000 0.500000
O O2 0.183137 0.961763 0.277482
O O3 0.089238 0.810291 0.284490
O O4 0.125587 0.023917 0.521212
O O5 0.750000 0.250000 0.755831
O O6 0.750000 0.066870 0.500000
O O7 0.706300 0.954359 0.735755
O O8 0.058107 0.510216 0.186547
O O9 0.989388 0.739381 0.250768
O O10 0.050578 0.750000 0.000000
O O11 0.311441 0.250000 0.500000
O O12 0.381319 0.225688 0.259400
O O13 0.565111 0.750000 0.000000
#
# Coordination Sequence:
#
# PCOD9397847 Si02
#       5
#     8   8   8   8   8
#     4  11  20  39  65  97 125 164 219 271 319 393
#     4   9  15  34  60  88 121 158 201 259 318 377
#     4  11  24  41  66  93 127 180 216 266 336 393
#     4  11  24  37  66 101 128 167 214 277 330 382
#     4  11  24  43  63  92 134 175 218 269 330 398
#
# _framework density 22.564509000000001
#
# number of rings (size 3 to 8) (size 9 to 14) (size 15 to 20)
#    0.000    1.400    6.000    2.400    5.600    5.200 
#    0.000    0.000    0.000    7.800    0.000    0.000 
#    0.000    0.000    0.000    0.000    0.000    0.000 
#
# Total GULP energy -222884.038670 kJ/mol
# GULP energy per Si atom -5572.100967 kJ/mol
# Density = 2.251315 g / cm^3
# Si number density = 22.564509 Si / 1000 Ang^3
#
#
#
# Elastic Constant Matrix: (Units=GPa)
#
#
# Indices 1 2 3 4 5 6 
#
# 1 197.9851 51.0473 49.2929 0.0000 0.0000 0.0000
# 2 51.0473 100.6791 22.8026 0.0000 0.0000 0.0000
# 3 49.2929 22.8026 30.3740 0.0000 0.0000 0.0000
# 4 0.0000 0.0000 0.0000 28.2570 0.0000 0.0000
# 5 0.0000 0.0000 0.0000 0.0000 35.1928 0.0000
# 6 0.0000 0.0000 0.0000 0.0000 0.0000 36.2388
#
#
#
# Elastic Compliance Matrix: (Units=1/GPa)
#
#
# Indices 1 2 3 4 5 6 
#
# 1 0.008648 -0.001453 -0.012944 0.000000 0.000000 0.000000
# 2 -0.001453 0.012212 -0.006809 0.000000 0.000000 0.000000
# 3 -0.012944 -0.006809 0.059041 0.000000 0.000000 0.000000
# 4 0.000000 0.000000 0.000000 0.035389 0.000000 0.000000
# 5 0.000000 0.000000 0.000000 0.000000 0.028415 0.000000
# 6 0.000000 0.000000 0.000000 0.000000 0.000000 0.027595
#
#
# Mechanical properties :
#
#
# Convention : Reuss Voigt Hill
#
# Bulk Modulus (GPa) = 26.67513 63.92487 45.30000
# Shear Modulus (GPa) = 22.10350 33.66409 27.88380
#
# Velocity S-wave (km/s) = 3.13320 3.86671 3.51912
# Velocity P-wave (km/s) = 4.99366 6.95173 6.05241
#
# Compressibility (1/GPa) = 0.03748810
#
# Stress axis : x y z
#
# Youngs Moduli (GPa) = 115.62983 81.88951 16.93741
#
# Poissons Ratio (x) = 0.11901 0.21924
# Poissons Ratio (y) = 0.16804 0.11533
# Poissons Ratio (z) = 1.49671 0.55759
#
# Static dielectric constant tensor:
#      x y z
#    x 1.914740 0.000000 0.000000 
#    y 0.000000 2.003350 0.000000 
#    z 0.000000 0.000000 1.823080 
# 
# From -- ./inp_files/16359.got.cif
#   From: 2010.05.17/outbox.cif.g08.bks.cpg/sg50_9_cif.got.tgz:16359.got - 2010.06.03 11:33:33.
