data_PCOD9397996
_publ_section_title
;
Structure prediction by ZEFSAII (Michael W. Deem and Ramdas Pophale) SiO2 
 PCOD9397996
Probable space group: P B A N
;
_chemical_formula_sum "Si O2"
_cell_formula_units_Z 44
_cell_length_a 16.847772
_cell_length_b 9.515991
_cell_length_c 11.755898
_cell_angle_alpha 90.000000
_cell_angle_beta 90.000000
_cell_angle_gamma 90.000000
_cell_volume 1884.743735
_symmetry_space_group_name_H-M "P B A N"
_symmetry_group_IT_number 50
_space_group.IT_coordinate_system_code '2'
_symmetry_cell_setting 'orthorhombic'
loop_
_space_group_symop_operation_xyz
x,y,z
1/2-x,1/2-y,z
x,1/2-y,-z
1/2-x,y,-z
-x,-y,-z
1/2+x,1/2+y,-z
-x,1/2+y,z
1/2+x,-y,z
loop_
_atom_site_type_symbol
_atom_site_label
_atom_site_fract_x
_atom_site_fract_y
_atom_site_fract_z
Si Si1 0.052874 0.387568 0.566915
Si Si2 0.250000 0.250000 0.000000
Si Si3 0.823087 0.414154 0.711500
Si Si4 0.537127 0.261267 0.780983
Si Si5 0.250000 0.750000 0.500000
Si Si6 0.132101 0.313117 0.174828
Si Si7 0.346551 0.004166 0.738404
O O1 0.075085 0.250000 0.500000
O O2 0.132895 0.463131 0.607635
O O3 0.000000 0.500000 0.500000
O O4 0.002290 0.318121 0.671392
O O5 0.189874 0.347915 0.071415
O O6 0.884789 0.333943 0.793719
O O7 0.807754 0.338176 0.588369
O O8 0.855511 0.574962 0.723014
O O9 0.733482 0.421350 0.756545
O O10 0.459932 0.291082 0.856573
O O11 0.576422 0.414299 0.769699
O O12 0.159882 0.157151 0.208402
#
# Coordination Sequence:
#
# PCOD9397996 Si02
#       7
#     8   2   8   8   2   8   8
#     4  11  23  36  60  94 143 201 258 293 347 435
#     4  12  24  52  88 108 138 184 248 342 416 450
#     4  12  25  45  67 108 154 204 252 298 363 444
#     4  11  24  43  68  99 150 194 238 314 364 434
#     4  12  28  40  78 106 168 218 242 288 364 438
#     4  11  25  48  78 104 142 188 249 320 387 458
#     4  11  22  43  66 101 148 195 237 311 369 421
#
# _framework density 23.345348999999999
#
# number of rings (size 3 to 8) (size 9 to 14) (size 15 to 20)
#    0.000    0.727    5.455    2.182    6.364    0.000 
#    0.000    4.545    0.000    3.818    0.000    0.000 
#    0.000    0.000    0.000    0.000    0.000    0.000 
#
# Total GULP energy -245091.914751 kJ/mol
# GULP energy per Si atom -5570.270790 kJ/mol
# Density = 2.329221 g / cm^3
# Si number density = 23.345349 Si / 1000 Ang^3
#
#
#
# Elastic Constant Matrix: (Units=GPa)
#
#
# Indices 1 2 3 4 5 6 
#
# 1 186.1341 43.1112 40.6233 0.0000 0.0000 0.0000
# 2 43.1112 118.3426 32.1012 0.0000 0.0000 0.0000
# 3 40.6233 32.1012 46.3056 0.0000 0.0000 0.0000
# 4 0.0000 0.0000 0.0000 11.9961 0.0000 0.0000
# 5 0.0000 0.0000 0.0000 0.0000 16.5984 0.0000
# 6 0.0000 0.0000 0.0000 0.0000 0.0000 42.3680
#
#
#
# Elastic Compliance Matrix: (Units=1/GPa)
#
#
# Indices 1 2 3 4 5 6 
#
# 1 0.006749 -0.001050 -0.005193 0.000000 0.000000 0.000000
# 2 -0.001050 0.010570 -0.006407 0.000000 0.000000 0.000000
# 3 -0.005193 -0.006407 0.030593 0.000000 0.000000 0.000000
# 4 0.000000 0.000000 0.000000 0.083360 0.000000 0.000000
# 5 0.000000 0.000000 0.000000 0.000000 0.060247 0.000000
# 6 0.000000 0.000000 0.000000 0.000000 0.000000 0.023603
#
#
# Mechanical properties :
#
#
# Convention : Reuss Voigt Hill
#
# Bulk Modulus (GPa) = 44.22258 64.71709 54.46983
# Shear Modulus (GPa) = 20.16462 29.85561 25.01012
#
# Velocity S-wave (km/s) = 2.94216 3.58001 3.27664
# Velocity P-wave (km/s) = 5.52500 6.69854 6.13987
#
# Compressibility (1/GPa) = 0.02261288
#
# Stress axis : x y z
#
# Youngs Moduli (GPa) = 148.17000 94.60362 32.68743
#
# Poissons Ratio (x) = 0.09933 0.16974
# Poissons Ratio (y) = 0.15558 0.20942
# Poissons Ratio (z) = 0.76943 0.60610
#
# Static dielectric constant tensor:
#      x y z
#    x 1.923600 0.000000 0.000000 
#    y 0.000000 2.071620 0.000000 
#    z 0.000000 0.000000 1.603520 
# 
# From -- ./inp_files/26812.got.cif
#   From: 2010.05.17/outbox.cif.g08.bks.cpg/sg50_14_cif.got.tgz:26812.got - 2010.06.03 11:33:33.
