data_PCOD9397533
_publ_section_title
;
Structure prediction by ZEFSAII (Michael W. Deem and Ramdas Pophale) SiO2 
 PCOD9397533
Probable space group: P B A N
;
_chemical_formula_sum "Si O2"
_cell_formula_units_Z 32
_cell_length_a 14.632834
_cell_length_b 8.135914
_cell_length_c 11.973466
_cell_angle_alpha 90.000000
_cell_angle_beta 90.000000
_cell_angle_gamma 90.000000
_cell_volume 1425.458836
_symmetry_space_group_name_H-M "P B A N"
_symmetry_group_IT_number 50
_space_group.IT_coordinate_system_code '2'
_symmetry_cell_setting 'orthorhombic'
loop_
_space_group_symop_operation_xyz
x,y,z
1/2-x,1/2-y,z
x,1/2-y,-z
1/2-x,y,-z
-x,-y,-z
1/2+x,1/2+y,-z
-x,1/2+y,z
1/2+x,-y,z
loop_
_atom_site_type_symbol
_atom_site_label
_atom_site_fract_x
_atom_site_fract_y
_atom_site_fract_z
Si Si1 0.469336 0.750000 0.000000
Si Si2 0.250000 0.250000 0.000000
Si Si3 0.651055 0.189531 0.678787
Si Si4 0.250000 0.250000 0.500000
Si Si5 0.894168 0.953018 0.125397
Si Si6 0.604912 0.014746 0.454773
O O1 0.530653 0.688701 0.104252
O O2 0.412823 0.906335 0.034479
O O3 0.196172 0.134653 0.914809
O O4 0.750000 0.250000 0.719481
O O5 0.655863 0.099142 0.559720
O O6 0.599593 0.359358 0.648914
O O7 0.609665 0.053723 0.760689
O O8 0.174065 0.361048 0.568046
O O9 0.500000 0.000000 0.500000
#
# Coordination Sequence:
#
# PCOD9397533 Si02
#       6
#     4   2   8   2   8   8
#     4   9  22  46  64  97 140 178 230 297 350 432
#     4  10  24  44  64 110 134 176 244 288 360 436
#     4  11  23  44  65  97 140 183 234 294 362 433
#     4  12  20  44  68  90 148 192 232 310 356 420
#     4  10  23  42  70  96 138 179 230 292 360 424
#     4  11  24  44  67 101 143 188 246 304 365 443
#
# _framework density 22.448910999999999
#
# number of rings (size 3 to 8) (size 9 to 14) (size 15 to 20)
#    0.000    1.500    2.500    2.250    7.000    1.000 
#    0.000    0.000    0.000    0.000    0.000    0.000 
#    0.000    0.000    0.000    0.000    0.000    0.000 
#
# Total GULP energy -178201.532306 kJ/mol
# GULP energy per Si atom -5568.797885 kJ/mol
# Density = 2.239782 g / cm^3
# Si number density = 22.448911 Si / 1000 Ang^3
#
#
#
# Elastic Constant Matrix: (Units=GPa)
#
#
# Indices 1 2 3 4 5 6 
#
# 1 125.0764 75.2390 29.4230 0.0000 0.0000 0.0000
# 2 75.2390 138.7134 39.2630 0.0000 0.0000 0.0000
# 3 29.4230 39.2630 85.2705 0.0000 0.0000 0.0000
# 4 0.0000 0.0000 0.0000 64.4061 0.0000 0.0000
# 5 0.0000 0.0000 0.0000 0.0000 1.6569 0.0000
# 6 0.0000 0.0000 0.0000 0.0000 0.0000 31.7747
#
#
#
# Elastic Compliance Matrix: (Units=1/GPa)
#
#
# Indices 1 2 3 4 5 6 
#
# 1 0.011994 -0.006134 -0.001314 0.000000 0.000000 0.000000
# 2 -0.006134 0.011426 -0.003145 0.000000 0.000000 0.000000
# 3 -0.001314 -0.003145 0.013629 0.000000 0.000000 0.000000
# 4 0.000000 0.000000 0.000000 0.015526 0.000000 0.000000
# 5 0.000000 0.000000 0.000000 0.000000 0.603537 0.000000
# 6 0.000000 0.000000 0.000000 0.000000 0.000000 0.031472
#
#
# Mechanical properties :
#
#
# Convention : Reuss Voigt Hill
#
# Bulk Modulus (GPa) = 63.03733 70.76779 66.90256
# Shear Modulus (GPa) = 7.00224 33.24322 20.12273
#
# Velocity S-wave (km/s) = 1.76804 3.85234 2.99721
# Velocity P-wave (km/s) = 5.68412 7.16797 6.46873
#
# Compressibility (1/GPa) = 0.01586362
#
# Stress axis : x y z
#
# Youngs Moduli (GPa) = 83.37573 87.51890 73.37339
#
# Poissons Ratio (x) = 0.53680 0.09644
# Poissons Ratio (y) = 0.51139 0.23074
# Poissons Ratio (z) = 0.10959 0.27523
#
# Static dielectric constant tensor:
#      x y z
#    x 1.908520 0.000000 0.000000 
#    y 0.000000 1.907740 0.000000 
#    z 0.000000 0.000000 1.833670 
# 
# From -- ./inp_files/18563.got.cif
#   From: 2010.05.17/outbox.cif.g08.bks.cpg/sg50_10_cif.got.tgz:18563.got - 2010.06.03 11:33:33.
