data_PCOD9397954
_publ_section_title
;
Structure prediction by ZEFSAII (Michael W. Deem and Ramdas Pophale) SiO2 
 PCOD9397954
Probable space group: P B A N
;
_chemical_formula_sum "Si O2"
_cell_formula_units_Z 56
_cell_length_a 21.099858
_cell_length_b 14.639656
_cell_length_c 9.178452
_cell_angle_alpha 90.000000
_cell_angle_beta 90.000000
_cell_angle_gamma 90.000000
_cell_volume 2835.174835
_symmetry_space_group_name_H-M "P B A N"
_symmetry_group_IT_number 50
_space_group.IT_coordinate_system_code '2'
_symmetry_cell_setting 'orthorhombic'
loop_
_space_group_symop_operation_xyz
x,y,z
1/2-x,1/2-y,z
x,1/2-y,-z
1/2-x,y,-z
-x,-y,-z
1/2+x,1/2+y,-z
-x,1/2+y,z
1/2+x,-y,z
loop_
_atom_site_type_symbol
_atom_site_label
_atom_site_fract_x
_atom_site_fract_y
_atom_site_fract_z
Si Si1 0.319725 0.230011 0.326988
Si Si2 0.940956 0.847238 0.677430
Si Si3 0.400853 0.435250 0.614004
Si Si4 0.488293 0.977165 0.831426
Si Si5 0.956258 0.268847 0.160971
Si Si6 0.820210 0.248447 0.741535
Si Si7 0.180039 0.595459 0.506824
O O1 0.250000 0.250000 0.264706
O O2 0.315448 0.250000 0.500000
O O3 0.376781 0.295281 0.276028
O O4 0.345637 0.126970 0.315916
O O5 0.936578 0.871632 0.505562
O O6 0.000898 0.785258 0.722679
O O7 0.947523 0.942101 0.762204
O O8 0.447246 0.471886 0.737514
O O9 0.371453 0.519443 0.525806
O O10 0.459180 0.876848 0.815448
O O11 0.500000 0.000000 0.000000
O O12 0.883450 0.237103 0.166960
O O13 0.983088 0.250000 0.000000
O O14 0.750000 0.250000 0.810933
O O15 0.820107 0.327889 0.619545
O O16 0.827473 0.152684 0.654780
O O17 0.250000 0.551832 0.500000
#
# Coordination Sequence:
#
# PCOD9397954 Si02
#       7
#     8   8   8   8   8   8   8
#     4   9  20  38  62  93 131 161 200 265 320 371
#     4  11  23  41  64  95 124 163 218 260 321 381
#     4  11  22  38  65  98 124 162 219 262 312 388
#     4  12  25  41  62  91 131 170 213 265 324 383
#     4  12  24  41  64  86 127 174 205 269 323 372
#     4   9  20  40  60  89 127 162 207 253 318 384
#     4   9  19  35  61  95 127 157 197 262 320 373
#
# _framework density 19.751868000000002
#
# number of rings (size 3 to 8) (size 9 to 14) (size 15 to 20)
#    0.000    1.571    2.857    3.000    4.000    2.571 
#    0.000    0.000    0.000    3.857    0.000    0.000 
#    0.000    0.000    0.000    0.000    0.000    0.000 
#
# Total GULP energy -312635.394500 kJ/mol
# GULP energy per Si atom -5582.774902 kJ/mol
# Density = 1.970691 g / cm^3
# Si number density = 19.751868 Si / 1000 Ang^3
#
#
#
# Elastic Constant Matrix: (Units=GPa)
#
#
# Indices 1 2 3 4 5 6 
#
# 1 137.9802 48.1906 41.4948 0.0000 0.0000 0.0000
# 2 48.1906 110.9804 16.2351 0.0000 0.0000 0.0000
# 3 41.4948 16.2351 69.4550 0.0000 0.0000 0.0000
# 4 0.0000 0.0000 0.0000 13.6720 0.0000 0.0000
# 5 0.0000 0.0000 0.0000 0.0000 -3.9853 0.0000
# 6 0.0000 0.0000 0.0000 0.0000 0.0000 29.4438
#
#
#
# Elastic Compliance Matrix: (Units=1/GPa)
#
#
# Indices 1 2 3 4 5 6 
#
# 1 0.010064 -0.003614 -0.005168 0.000000 0.000000 0.000000
# 2 -0.003614 0.010627 -0.000325 0.000000 0.000000 0.000000
# 3 -0.005168 -0.000325 0.017561 0.000000 0.000000 0.000000
# 4 0.000000 0.000000 0.000000 0.073142 0.000000 0.000000
# 5 0.000000 0.000000 0.000000 0.000000 -0.250925 0.000000
# 6 0.000000 0.000000 0.000000 0.000000 0.000000 0.033963
#
#
# Mechanical properties :
#
#
# Convention : Reuss Voigt Hill
#
# Bulk Modulus (GPa) = 49.90284 58.91740 54.41012
# Shear Modulus (GPa) = -61.97749 21.99243 -19.99253
#
# Velocity S-wave (km/s) = -5.60769 3.34044 -3.18494
# Velocity P-wave (km/s) = 4.07535 6.69116 3.75254
#
# Compressibility (1/GPa) = 0.02003894
#
# Stress axis : x y z
#
# Youngs Moduli (GPa) = 99.36725 94.09614 56.94397
#
# Poissons Ratio (x) = 0.34006 0.29427
# Poissons Ratio (y) = 0.35911 0.01851
# Poissons Ratio (z) = 0.51349 0.03059
#
# Static dielectric constant tensor:
#      x y z
#    x 1.724810 0.000000 0.000000 
#    y 0.000000 1.685380 0.000000 
#    z 0.000000 0.000000 1.673280 
# 
# From -- ./inp_files/15376.got.cif
#   From: 2010.05.17/outbox.cif.g08.bks.cpg/sg50_8_cif.got.tgz:15376.got - 2010.06.03 11:33:33.
