data_PCOD9397621
_publ_section_title
;
Structure prediction by ZEFSAII (Michael W. Deem and Ramdas Pophale) SiO2 
 PCOD9397621
Probable space group: P B A N
;
_chemical_formula_sum "Si O2"
_cell_formula_units_Z 28
_cell_length_a 8.303470
_cell_length_b 13.316469
_cell_length_c 12.272695
_cell_angle_alpha 90.000000
_cell_angle_beta 90.000000
_cell_angle_gamma 90.000000
_cell_volume 1357.027487
_symmetry_space_group_name_H-M "P B A N"
_symmetry_group_IT_number 50
_space_group.IT_coordinate_system_code '2'
_symmetry_cell_setting 'orthorhombic'
loop_
_space_group_symop_operation_xyz
x,y,z
1/2-x,1/2-y,z
x,1/2-y,-z
1/2-x,y,-z
-x,-y,-z
1/2+x,1/2+y,-z
-x,1/2+y,z
1/2+x,-y,z
loop_
_atom_site_type_symbol
_atom_site_label
_atom_site_fract_x
_atom_site_fract_y
_atom_site_fract_z
Si Si1 0.750000 0.484311 0.500000
Si Si2 0.944988 0.253888 0.810916
Si Si3 0.459273 0.155926 0.583730
Si Si4 0.441942 0.889908 0.986113
O O1 0.882819 0.409060 0.549532
O O2 0.673220 0.566386 0.583080
O O3 0.750000 0.250000 0.796127
O O4 0.020517 0.291394 0.699892
O O5 0.998485 0.325669 0.910331
O O6 0.988727 0.147994 0.865735
O O7 0.435308 0.250000 0.500000
O O8 0.250000 0.881582 0.000000
O O9 0.500000 0.000000 0.000000
#
# Coordination Sequence:
#
# PCOD9397621 Si02
#       4
#     4   8   8   8
#     4  10  24  38  58  90 116 158 208 244 306 370
#     4   9  19  36  58  82 113 155 194 236 296 356
#     4  11  22  40  60  85 121 157 200 254 304 361
#     4   9  19  36  57  83 114 150 193 238 291 355
#
# _framework density 20.633333
#
# number of rings (size 3 to 8) (size 9 to 14) (size 15 to 20)
#    0.000    2.286    0.000    4.286    0.000    9.143 
#    0.000    5.714    0.000    0.000    0.000    0.000 
#    0.000    0.000    0.000    0.000    0.000    0.000 
#
# Total GULP energy -155945.271251 kJ/mol
# GULP energy per Si atom -5569.473973 kJ/mol
# Density = 2.058637 g / cm^3
# Si number density = 20.633333 Si / 1000 Ang^3
#
#
#
# Elastic Constant Matrix: (Units=GPa)
#
#
# Indices 1 2 3 4 5 6 
#
# 1 17.3618 26.4206 15.2158 0.0000 0.0000 0.0000
# 2 26.4206 155.9557 68.4948 0.0000 0.0000 0.0000
# 3 15.2158 68.4948 155.0194 0.0000 0.0000 0.0000
# 4 0.0000 0.0000 0.0000 33.1125 0.0000 0.0000
# 5 0.0000 0.0000 0.0000 0.0000 12.7279 0.0000
# 6 0.0000 0.0000 0.0000 0.0000 0.0000 39.9590
#
#
#
# Elastic Compliance Matrix: (Units=1/GPa)
#
#
# Indices 1 2 3 4 5 6 
#
# 1 0.078239 -0.012261 -0.002262 0.000000 0.000000 0.000000
# 2 -0.012261 0.009877 -0.003161 0.000000 0.000000 0.000000
# 3 -0.002262 -0.003161 0.008069 0.000000 0.000000 0.000000
# 4 0.000000 0.000000 0.000000 0.030200 0.000000 0.000000
# 5 0.000000 0.000000 0.000000 0.000000 0.078567 0.000000
# 6 0.000000 0.000000 0.000000 0.000000 0.000000 0.025026
#
#
# Mechanical properties :
#
#
# Convention : Reuss Voigt Hill
#
# Bulk Modulus (GPa) = 16.44252 60.95548 38.69900
# Shear Modulus (GPa) = 17.50584 31.70694 24.60639
#
# Velocity S-wave (km/s) = 2.91593 3.92431 3.45709
# Velocity P-wave (km/s) = 4.39581 7.08096 5.89335
#
# Compressibility (1/GPa) = 0.06081792
#
# Stress axis : x y z
#
# Youngs Moduli (GPa) = 12.78139 101.24049 123.92443
#
# Poissons Ratio (x) = 1.24132 0.28031
# Poissons Ratio (y) = 0.15671 0.39171
# Poissons Ratio (z) = 0.02891 0.32001
#
# Static dielectric constant tensor:
#      x y z
#    x 1.815210 0.000000 0.000000 
#    y 0.000000 1.735450 0.000000 
#    z 0.000000 0.000000 1.714800 
# 
# From -- ./inp_files/18261.got.cif
#   From: 2010.05.17/outbox.cif.g08.bks.cpg/sg50_10_cif.got.tgz:18261.got - 2010.06.03 11:33:33.
