data_PCOD9397697
_publ_section_title
;
Structure prediction by ZEFSAII (Michael W. Deem and Ramdas Pophale) SiO2 
 PCOD9397697
Probable space group: P B A N
;
_chemical_formula_sum "Si O2"
_cell_formula_units_Z 32
_cell_length_a 9.864637
_cell_length_b 8.975173
_cell_length_c 14.877566
_cell_angle_alpha 90.000000
_cell_angle_beta 90.000000
_cell_angle_gamma 90.000000
_cell_volume 1317.212437
_symmetry_space_group_name_H-M "P B A N"
_symmetry_group_IT_number 50
_space_group.IT_coordinate_system_code '2'
_symmetry_cell_setting 'orthorhombic'
loop_
_space_group_symop_operation_xyz
x,y,z
1/2-x,1/2-y,z
x,1/2-y,-z
1/2-x,y,-z
-x,-y,-z
1/2+x,1/2+y,-z
-x,1/2+y,z
1/2+x,-y,z
loop_
_atom_site_type_symbol
_atom_site_label
_atom_site_fract_x
_atom_site_fract_y
_atom_site_fract_z
Si Si1 0.459928 0.160270 0.670970
Si Si2 0.836726 0.373238 0.408142
Si Si3 0.192325 0.909355 0.101448
Si Si4 0.590443 0.921940 0.800573
O O1 0.523888 0.276506 0.597940
O O2 0.406322 0.269902 0.746632
O O3 0.360696 0.038349 0.627267
O O4 0.557350 0.048394 0.726611
O O5 0.750000 0.250000 0.353119
O O6 0.750000 0.390980 0.500000
O O7 0.250000 0.750000 0.133462
O O8 0.033300 0.917603 0.126192
O O9 0.269888 0.037585 0.153713
O O10 0.250000 0.920604 0.000000
#
# Coordination Sequence:
#
# PCOD9397697 Si02
#       4
#     8   8   8   8
#     4  10  24  44  74 110 142 198 251 314 385 461
#     4  10  24  47  75 103 151 185 249 320 394 459
#     4  11  24  45  73 115 160 204 253 317 380 451
#     4  11  23  45  75 111 154 202 259 308 383 455
#
# _framework density 24.293724999999998
#
# number of rings (size 3 to 8) (size 9 to 14) (size 15 to 20)
#    0.000    1.500    2.500    0.750    7.000    5.000 
#    4.500    6.250    0.000    0.000    0.000    0.000 
#    0.000    0.000    0.000    0.000    0.000    0.000 
#
# Total GULP energy -178480.837297 kJ/mol
# GULP energy per Si atom -5577.526166 kJ/mol
# Density = 2.423843 g / cm^3
# Si number density = 24.293725 Si / 1000 Ang^3
#
#
#
# Elastic Constant Matrix: (Units=GPa)
#
#
# Indices 1 2 3 4 5 6 
#
# 1 102.1709 60.8581 49.7946 0.0000 0.0000 0.0000
# 2 60.8581 223.1513 76.6009 0.0000 0.0000 0.0000
# 3 49.7946 76.6009 140.9055 0.0000 0.0000 0.0000
# 4 0.0000 0.0000 0.0000 18.6884 0.0000 0.0000
# 5 0.0000 0.0000 0.0000 0.0000 23.0166 0.0000
# 6 0.0000 0.0000 0.0000 0.0000 0.0000 33.6565
#
#
#
# Elastic Compliance Matrix: (Units=1/GPa)
#
#
# Indices 1 2 3 4 5 6 
#
# 1 0.012774 -0.002378 -0.003221 0.000000 0.000000 0.000000
# 2 -0.002378 0.005952 -0.002395 0.000000 0.000000 0.000000
# 3 -0.003221 -0.002395 0.009538 0.000000 0.000000 0.000000
# 4 0.000000 0.000000 0.000000 0.053509 0.000000 0.000000
# 5 0.000000 0.000000 0.000000 0.000000 0.043447 0.000000
# 6 0.000000 0.000000 0.000000 0.000000 0.000000 0.029712
#
#
# Mechanical properties :
#
#
# Convention : Reuss Voigt Hill
#
# Bulk Modulus (GPa) = 81.47271 93.41498 87.44385
# Shear Modulus (GPa) = 28.56942 33.67059 31.12000
#
# Velocity S-wave (km/s) = 3.43301 3.72691 3.58297
# Velocity P-wave (km/s) = 7.02306 7.55352 7.29311
#
# Compressibility (1/GPa) = 0.01227405
#
# Stress axis : x y z
#
# Youngs Moduli (GPa) = 78.28428 168.00985 104.84803
#
# Poissons Ratio (x) = 0.39951 0.33777
# Poissons Ratio (y) = 0.18615 0.25115
# Poissons Ratio (z) = 0.25219 0.40245
#
# Static dielectric constant tensor:
#      x y z
#    x 2.278380 0.000000 0.000000 
#    y 0.000000 1.940390 0.000000 
#    z 0.000000 0.000000 2.018680 
# 
# From -- ./inp_files/25602.got.cif
#   From: 2010.05.17/outbox.cif.g08.bks.cpg/sg50_13_cif.got.tgz:25602.got - 2010.06.03 11:33:33.
