data_PCOD9397907
_publ_section_title
;
Structure prediction by ZEFSAII (Michael W. Deem and Ramdas Pophale) SiO2 
 PCOD9397907
Probable space group: P B A N
;
_chemical_formula_sum "Si O2"
_cell_formula_units_Z 56
_cell_length_a 15.027354
_cell_length_b 9.546220
_cell_length_c 20.213880
_cell_angle_alpha 90.000000
_cell_angle_beta 90.000000
_cell_angle_gamma 90.000000
_cell_volume 2899.770579
_symmetry_space_group_name_H-M "P B A N"
_symmetry_group_IT_number 50
_space_group.IT_coordinate_system_code '2'
_symmetry_cell_setting 'orthorhombic'
loop_
_space_group_symop_operation_xyz
x,y,z
1/2-x,1/2-y,z
x,1/2-y,-z
1/2-x,y,-z
-x,-y,-z
1/2+x,1/2+y,-z
-x,1/2+y,z
1/2+x,-y,z
loop_
_atom_site_type_symbol
_atom_site_label
_atom_site_fract_x
_atom_site_fract_y
_atom_site_fract_z
Si Si1 0.749974 0.917464 0.605212
Si Si2 0.404178 0.960594 0.843801
Si Si3 0.854180 0.288186 0.927470
Si Si4 0.405926 0.082864 0.500062
Si Si5 0.396165 0.032630 0.157657
Si Si6 0.645789 0.714896 0.926979
Si Si7 0.750683 0.419678 0.257852
O O1 0.750000 0.750000 0.619750
O O2 0.660671 0.945958 0.561913
O O3 0.839404 0.946055 0.562078
O O4 0.749650 0.011071 0.670378
O O5 0.402137 0.803876 0.872375
O O6 0.337240 0.967303 0.783101
O O7 0.503103 0.000714 0.824662
O O8 0.370948 0.056549 0.904633
O O9 0.750000 0.250000 0.923284
O O10 0.868605 0.447712 0.908406
O O11 0.886224 0.250000 0.000000
O O12 0.424595 0.250000 0.500000
O O13 0.500000 0.000000 0.500000
O O14 0.330680 0.981224 0.214667
O O15 0.389503 0.192029 0.133951
O O16 0.750000 0.750000 0.929476
O O17 0.608537 0.750000 0.000000
O O18 0.750000 0.250000 0.259879
#
# Coordination Sequence:
#
# PCOD9397907 Si02
#       7
#     8   8   8   8   8   8   8
#     4   9  22  42  68  95 133 175 203 247 300 349
#     4  12  24  40  60  85 118 157 205 260 318 376
#     4  11  21  41  65  82 113 157 200 260 329 381
#     4   9  19  41  70 106 138 165 207 247 292 350
#     4  12  24  40  60  85 118 157 205 260 318 376
#     4  11  23  39  61  88 115 149 202 266 327 387
#     4  12  25  45  60  87 127 167 214 251 301 369
#
# _framework density 19.311872999999999
#
# number of rings (size 3 to 8) (size 9 to 14) (size 15 to 20)
#    0.000    1.143    4.286    2.571    2.000    8.000 
#    0.000    4.286    0.000    0.000    0.000    0.000 
#    0.000    0.000    0.000    0.000    0.000    0.000 
#
# Total GULP energy -312766.012590 kJ/mol
# GULP energy per Si atom -5585.107368 kJ/mol
# Density = 1.926792 g / cm^3
# Si number density = 19.311873 Si / 1000 Ang^3
#
#
#
# Elastic Constant Matrix: (Units=GPa)
#
#
# Indices 1 2 3 4 5 6 
#
# 1 172.2752 32.2018 59.5884 0.0000 0.0000 0.0000
# 2 32.2018 60.5497 37.9956 0.0000 0.0000 0.0000
# 3 59.5884 37.9956 138.6915 0.0000 0.0000 0.0000
# 4 0.0000 0.0000 0.0000 34.2703 0.0000 0.0000
# 5 0.0000 0.0000 0.0000 0.0000 -160.3339 0.0000
# 6 0.0000 0.0000 0.0000 0.0000 0.0000 29.6782
#
#
#
# Elastic Compliance Matrix: (Units=1/GPa)
#
#
# Indices 1 2 3 4 5 6 
#
# 1 0.007060 -0.002236 -0.002421 0.000000 0.000000 0.000000
# 2 -0.002236 0.020652 -0.004697 0.000000 0.000000 0.000000
# 3 -0.002421 -0.004697 0.009537 0.000000 0.000000 0.000000
# 4 0.000000 0.000000 0.000000 0.029180 0.000000 0.000000
# 5 0.000000 0.000000 0.000000 0.000000 -0.006237 0.000000
# 6 0.000000 0.000000 0.000000 0.000000 0.000000 0.033695
#
#
# Mechanical properties :
#
#
# Convention : Reuss Voigt Hill
#
# Bulk Modulus (GPa) = 53.93238 70.12088 62.02663
# Shear Modulus (GPa) = 42.09668 -3.16172 19.46748
#
# Velocity S-wave (km/s) = 4.67393 -1.28092 3.17844
# Velocity P-wave (km/s) = 7.55746 5.84815 6.75708
#
# Compressibility (1/GPa) = 0.01854174
#
# Stress axis : x y z
#
# Youngs Moduli (GPa) = 141.64566 48.42189 104.85273
#
# Poissons Ratio (x) = 0.10825 0.25383
# Poissons Ratio (y) = 0.31665 0.49252
# Poissons Ratio (z) = 0.34290 0.22745
#
# Static dielectric constant tensor:
#      x y z
#    x 1.699550 0.000000 0.000000 
#    y 0.000000 1.671760 0.000000 
#    z 0.000000 0.000000 1.663460 
# 
# From -- ./inp_files/30981.got.cif
#   From: 2010.05.17/outbox.cif.g08.bks.cpg/sg50_16_cif.got.tgz:30981.got - 2010.06.03 11:33:33.
