data_PCOD9397893
_publ_section_title
;
Structure prediction by ZEFSAII (Michael W. Deem and Ramdas Pophale) SiO2 
 PCOD9397893
Probable space group: P B A N
;
_chemical_formula_sum "Si O2"
_cell_formula_units_Z 40
_cell_length_a 13.011388
_cell_length_b 28.072028
_cell_length_c 4.782904
_cell_angle_alpha 90.000000
_cell_angle_beta 90.000000
_cell_angle_gamma 90.000000
_cell_volume 1746.984614
_symmetry_space_group_name_H-M "P B A N"
_symmetry_group_IT_number 50
_space_group.IT_coordinate_system_code '2'
_symmetry_cell_setting 'orthorhombic'
loop_
_space_group_symop_operation_xyz
x,y,z
1/2-x,1/2-y,z
x,1/2-y,-z
1/2-x,y,-z
-x,-y,-z
1/2+x,1/2+y,-z
-x,1/2+y,z
1/2+x,-y,z
loop_
_atom_site_type_symbol
_atom_site_label
_atom_site_fract_x
_atom_site_fract_y
_atom_site_fract_z
Si Si1 0.365370 0.361547 0.911952
Si Si2 0.055772 0.301985 0.617894
Si Si3 0.322127 0.824409 0.276969
Si Si4 0.356640 0.926710 0.570911
Si Si5 0.020079 0.945825 0.921333
O O1 0.406806 0.342128 0.610604
O O2 0.250000 0.376159 0.000000
O O3 0.383275 0.315977 0.107763
O O4 0.435611 0.406405 0.002791
O O5 0.077141 0.250000 0.500000
O O6 0.936362 0.303039 0.724740
O O7 0.250000 0.798934 0.500000
O O8 0.346066 0.875046 0.427717
O O9 0.250000 0.827887 0.000000
O O10 0.250000 0.952575 0.500000
O O11 0.453086 0.946817 0.404398
O O12 0.381635 0.928161 0.895919
O O13 0.000000 0.000000 0.000000
#
# Coordination Sequence:
#
# PCOD9397893 Si02
#       5
#     8   8   8   8   8
#     4  12  26  47  70  99 142 187 240 300 353 412
#     4  12  26  46  71 102 141 187 241 297 353 427
#     4  11  21  39  70  99 134 179 222 277 355 421
#     4  11  22  40  69  99 133 175 224 275 345 427
#     4  12  24  44  69 103 138 180 228 288 357 428
#
# _framework density 22.896597
#
# number of rings (size 3 to 8) (size 9 to 14) (size 15 to 20)
#    0.000    0.400    4.000    6.000    0.000    4.400 
#    0.000    1.000    0.000    0.000    0.000    0.000 
#    0.000    0.000    0.000    0.000    0.000    0.000 
#
# Total GULP energy -223044.293419 kJ/mol
# GULP energy per Si atom -5576.107335 kJ/mol
# Density = 2.284448 g / cm^3
# Si number density = 22.896597 Si / 1000 Ang^3
#
#
#
# Elastic Constant Matrix: (Units=GPa)
#
#
# Indices 1 2 3 4 5 6 
#
# 1 124.3459 5.4221 8.3890 0.0000 0.0000 0.0000
# 2 5.4221 103.6735 6.4658 0.0000 0.0000 0.0000
# 3 8.3890 6.4658 96.5229 0.0000 0.0000 0.0000
# 4 0.0000 0.0000 0.0000 -1.0665 0.0000 0.0000
# 5 0.0000 0.0000 0.0000 0.0000 39.1408 0.0000
# 6 0.0000 0.0000 0.0000 0.0000 0.0000 -14.9509
#
#
#
# Elastic Compliance Matrix: (Units=1/GPa)
#
#
# Indices 1 2 3 4 5 6 
#
# 1 0.008105 -0.000382 -0.000679 0.000000 0.000000 0.000000
# 2 -0.000382 0.009704 -0.000617 0.000000 0.000000 0.000000
# 3 -0.000679 -0.000617 0.010461 0.000000 0.000000 0.000000
# 4 0.000000 0.000000 0.000000 -0.937674 0.000000 0.000000
# 5 0.000000 0.000000 0.000000 0.000000 0.025549 0.000000
# 6 0.000000 0.000000 0.000000 0.000000 0.000000 -0.066886
#
#
# Mechanical properties :
#
#
# Convention : Reuss Voigt Hill
#
# Bulk Modulus (GPa) = 40.13697 40.56623 40.35160
# Shear Modulus (GPa) = -5.32435 24.90905 9.79235
#
# Velocity S-wave (km/s) = -1.52658 3.30190 2.07028
# Velocity P-wave (km/s) = 3.80269 5.68263 4.83492
#
# Compressibility (1/GPa) = 0.02491469
#
# Stress axis : x y z
#
# Youngs Moduli (GPa) = 123.38799 103.04925 95.59721
#
# Poissons Ratio (x) = 0.03932 0.06489
# Poissons Ratio (y) = 0.04708 0.05897
# Poissons Ratio (z) = 0.08376 0.06357
#
# Static dielectric constant tensor:
#      x y z
#    x 2.049560 0.000000 0.000000 
#    y 0.000000 1.917550 0.000000 
#    z 0.000000 0.000000 1.855600 
# 
# From -- ./inp_files/2397.got.cif
#   From: 2010.05.17/outbox.cif.g08.bks.cpg/sg50_2_cif.got.tgz:2397.got - 2010.06.03 11:33:33.
