data_PCOD9397111
_publ_section_title
;
Structure prediction by ZEFSAII (Michael W. Deem and Ramdas Pophale) SiO2 
 PCOD9397111
Probable space group: P B A N
;
_chemical_formula_sum "Si O2"
_cell_formula_units_Z 32
_cell_length_a 28.682164
_cell_length_b 5.389440
_cell_length_c 8.853849
_cell_angle_alpha 90.000000
_cell_angle_beta 90.000000
_cell_angle_gamma 90.000000
_cell_volume 1368.635079
_symmetry_space_group_name_H-M "P B A N"
_symmetry_group_IT_number 50
_space_group.IT_coordinate_system_code '2'
_symmetry_cell_setting 'orthorhombic'
loop_
_space_group_symop_operation_xyz
x,y,z
1/2-x,1/2-y,z
x,1/2-y,-z
1/2-x,y,-z
-x,-y,-z
1/2+x,1/2+y,-z
-x,1/2+y,z
1/2+x,-y,z
loop_
_atom_site_type_symbol
_atom_site_label
_atom_site_fract_x
_atom_site_fract_y
_atom_site_fract_z
Si Si1 0.383333 0.656518 0.331423
Si Si2 0.981128 0.960233 0.673377
Si Si3 0.305384 0.282315 0.322076
Si Si4 0.131566 0.496232 0.095404
O O1 0.378612 0.750000 0.500000
O O2 0.425184 0.460185 0.327459
O O3 0.333924 0.534280 0.285677
O O4 0.399640 0.886863 0.228504
O O5 0.999238 0.213396 0.746266
O O6 0.000000 0.000000 0.500000
O O7 0.250000 0.250000 0.315175
O O8 0.317842 0.250000 0.500000
O O9 0.324885 0.094348 0.196594
O O10 0.139249 0.750000 0.000000
O O11 0.117339 0.250000 0.000000
#
# Coordination Sequence:
#
# PCOD9397111 Si02
#       4
#     8   8   8   8
#     4  12  24  44  79 105 150 196 253 320 371 437
#     4  10  22  37  67 113 141 178 249 318 368 434
#     4  11  26  47  75 110 147 192 256 314 369 437
#     4  12  27  49  71 107 147 203 244 298 377 456
#
# _framework density 23.380959000000001
#
# number of rings (size 3 to 8) (size 9 to 14) (size 15 to 20)
#    0.000    0.750    7.500    0.000    7.000    1.500 
#    4.500    0.000    0.000    4.500    0.000    0.000 
#    0.000    0.000    0.000    0.000    0.000    0.000 
#
# Total GULP energy -178269.274232 kJ/mol
# GULP energy per Si atom -5570.914820 kJ/mol
# Density = 2.332774 g / cm^3
# Si number density = 23.380959 Si / 1000 Ang^3
#
#
#
# Elastic Constant Matrix: (Units=GPa)
#
#
# Indices 1 2 3 4 5 6 
#
# 1 99.7363 42.7283 2.1496 0.0000 0.0000 0.0000
# 2 42.7283 199.1232 56.9301 0.0000 0.0000 0.0000
# 3 2.1496 56.9301 96.0492 0.0000 0.0000 0.0000
# 4 0.0000 0.0000 0.0000 47.1136 0.0000 0.0000
# 5 0.0000 0.0000 0.0000 0.0000 -60.0115 0.0000
# 6 0.0000 0.0000 0.0000 0.0000 0.0000 47.8695
#
#
#
# Elastic Compliance Matrix: (Units=1/GPa)
#
#
# Indices 1 2 3 4 5 6 
#
# 1 0.011199 -0.002807 0.001413 0.000000 0.000000 0.000000
# 2 -0.002807 0.006750 -0.003938 0.000000 0.000000 0.000000
# 3 0.001413 -0.003938 0.012714 0.000000 0.000000 0.000000
# 4 0.000000 0.000000 0.000000 0.021225 0.000000 0.000000
# 5 0.000000 0.000000 0.000000 0.000000 -0.016663 0.000000
# 6 0.000000 0.000000 0.000000 0.000000 0.000000 0.020890
#
#
# Mechanical properties :
#
#
# Convention : Reuss Voigt Hill
#
# Bulk Modulus (GPa) = 50.00343 66.50274 58.25308
# Shear Modulus (GPa) = 68.07805 26.53438 47.30621
#
# Velocity S-wave (km/s) = 5.40186 3.37244 4.50297
# Velocity P-wave (km/s) = 7.76786 6.60828 7.21141
#
# Compressibility (1/GPa) = 0.01999863
#
# Stress axis : x y z
#
# Youngs Moduli (GPa) = 89.29726 148.14150 78.65377
#
# Poissons Ratio (x) = 0.41584 -0.11115
# Poissons Ratio (y) = 0.25066 0.30975
# Poissons Ratio (z) = -0.12619 0.58341
#
# Static dielectric constant tensor:
#      x y z
#    x 1.862260 0.000000 0.000000 
#    y 0.000000 1.985560 0.000000 
#    z 0.000000 0.000000 2.005740 
# 
# From -- ./inp_files/16659.got.cif
#   From: 2010.05.17/outbox.cif.g08.bks.cpg/sg50_9_cif.got.tgz:16659.got - 2010.06.03 11:33:33.
