data_PCOD9397435
_publ_section_title
;
Structure prediction by ZEFSAII (Michael W. Deem and Ramdas Pophale) SiO2 
 PCOD9397435
Probable space group: P B A N
;
_chemical_formula_sum "Si O2"
_cell_formula_units_Z 48
_cell_length_a 7.964689
_cell_length_b 14.720943
_cell_length_c 18.581159
_cell_angle_alpha 90.000000
_cell_angle_beta 90.000000
_cell_angle_gamma 90.000000
_cell_volume 2178.598765
_symmetry_space_group_name_H-M "P B A N"
_symmetry_group_IT_number 50
_space_group.IT_coordinate_system_code '2'
_symmetry_cell_setting 'orthorhombic'
loop_
_space_group_symop_operation_xyz
x,y,z
1/2-x,1/2-y,z
x,1/2-y,-z
1/2-x,y,-z
-x,-y,-z
1/2+x,1/2+y,-z
-x,1/2+y,z
1/2+x,-y,z
loop_
_atom_site_type_symbol
_atom_site_label
_atom_site_fract_x
_atom_site_fract_y
_atom_site_fract_z
Si Si1 0.008529 0.616978 0.697430
Si Si2 0.560951 0.371033 0.147897
Si Si3 0.749818 0.977125 0.917296
Si Si4 0.407991 0.910766 0.308726
Si Si5 0.954196 0.261785 0.581730
Si Si6 0.080077 0.189820 0.854450
O O1 0.210524 0.610031 0.697787
O O2 0.967626 0.685353 0.633030
O O3 0.935781 0.517403 0.685522
O O4 0.948510 0.654599 0.773830
O O5 0.720641 0.434626 0.132343
O O6 0.418659 0.425227 0.104451
O O7 0.517630 0.376502 0.232721
O O8 0.558975 0.265581 0.126707
O O9 0.609489 0.898639 0.903259
O O10 0.750000 0.004239 0.000000
O O11 0.481044 0.856682 0.376804
O O12 0.750000 0.250000 0.580594
O O13 0.012254 0.250000 0.500000
O O14 0.250000 0.250000 0.857400
#
# Coordination Sequence:
#
# PCOD9397435 Si02
#       6
#     8   8   8   8   8   8
#     4  11  22  38  63  93 127 163 212 263 305 385
#     4  11  22  40  64  92 122 167 212 259 314 381
#     4  11  24  43  64  91 128 166 208 266 327 378
#     4  11  22  37  65  94 122 168 213 255 318 374
#     4   9  20  39  61  90 128 165 206 261 318 371
#     4  10  23  38  65  91 124 167 208 260 317 379
#
# _framework density 22.032509000000001
#
# number of rings (size 3 to 8) (size 9 to 14) (size 15 to 20)
#    0.000    1.500    3.333    1.500    2.333    3.667 
#    0.000    0.000    0.000    3.500    0.000    0.000 
#    0.000    0.000    0.000    0.000    0.000    0.000 
#
# Total GULP energy -268424.536639 kJ/mol
# GULP energy per Si atom -5592.177847 kJ/mol
# Density = 2.198236 g / cm^3
# Si number density = 22.032509 Si / 1000 Ang^3
#
#
#
# Elastic Constant Matrix: (Units=GPa)
#
#
# Indices 1 2 3 4 5 6 
#
# 1 33.9443 -0.2263 -2.8171 0.0000 0.0000 0.0000
# 2 -0.2263 154.7293 38.7462 0.0000 0.0000 0.0000
# 3 -2.8171 38.7462 123.3957 0.0000 0.0000 0.0000
# 4 0.0000 0.0000 0.0000 31.0919 0.0000 0.0000
# 5 0.0000 0.0000 0.0000 0.0000 19.5061 0.0000
# 6 0.0000 0.0000 0.0000 0.0000 0.0000 26.6244
#
#
#
# Elastic Compliance Matrix: (Units=1/GPa)
#
#
# Indices 1 2 3 4 5 6 
#
# 1 0.029519 -0.000136 0.000717 0.000000 0.000000 0.000000
# 2 -0.000136 0.007015 -0.002206 0.000000 0.000000 0.000000
# 3 0.000717 -0.002206 0.008813 0.000000 0.000000 0.000000
# 4 0.000000 0.000000 0.000000 0.032163 0.000000 0.000000
# 5 0.000000 0.000000 0.000000 0.000000 0.051266 0.000000
# 6 0.000000 0.000000 0.000000 0.000000 0.000000 0.037560
#
#
# Mechanical properties :
#
#
# Convention : Reuss Voigt Hill
#
# Bulk Modulus (GPa) = 23.75534 42.60832 33.18183
# Shear Modulus (GPa) = 27.23047 33.86890 30.54968
#
# Velocity S-wave (km/s) = 3.51938 3.92500 3.72771
# Velocity P-wave (km/s) = 5.22686 6.31836 5.79835
#
# Compressibility (1/GPa) = 0.04209580
#
# Stress axis : x y z
#
# Youngs Moduli (GPa) = 33.87696 142.55018 113.46860
#
# Poissons Ratio (x) = 0.01943 -0.08132
# Poissons Ratio (y) = 0.00462 0.25029
# Poissons Ratio (z) = -0.02428 0.31444
#
# Static dielectric constant tensor:
#      x y z
#    x 1.918220 0.000000 0.000000 
#    y 0.000000 1.794730 0.000000 
#    z 0.000000 0.000000 1.751880 
# 
# From -- ./inp_files/28698.got.cif
#   From: 2010.05.17/outbox.cif.g08.bks.cpg/sg50_15_cif.got.tgz:28698.got - 2010.06.03 11:33:33.
