data_PCOD9397387
_publ_section_title
;
Structure prediction by ZEFSAII (Michael W. Deem and Ramdas Pophale) SiO2 
 PCOD9397387
Probable space group: P B A N
;
_chemical_formula_sum "Si O2"
_cell_formula_units_Z 32
_cell_length_a 17.840412
_cell_length_b 5.638389
_cell_length_c 15.173240
_cell_angle_alpha 90.000000
_cell_angle_beta 90.000000
_cell_angle_gamma 90.000000
_cell_volume 1526.294158
_symmetry_space_group_name_H-M "P B A N"
_symmetry_group_IT_number 50
_space_group.IT_coordinate_system_code '2'
_symmetry_cell_setting 'orthorhombic'
loop_
_space_group_symop_operation_xyz
x,y,z
1/2-x,1/2-y,z
x,1/2-y,-z
1/2-x,y,-z
-x,-y,-z
1/2+x,1/2+y,-z
-x,1/2+y,z
1/2+x,-y,z
loop_
_atom_site_type_symbol
_atom_site_label
_atom_site_fract_x
_atom_site_fract_y
_atom_site_fract_z
Si Si1 0.250000 0.250000 0.000000
Si Si2 0.750000 0.250000 0.500000
Si Si3 0.872570 0.597024 0.417552
Si Si4 0.250000 0.250000 0.699099
Si Si5 0.693258 0.442394 0.851689
Si Si6 0.456882 0.910611 0.745424
O O1 0.306628 0.371953 0.069394
O O2 0.806022 0.421612 0.447577
O O3 0.903136 0.750000 0.500000
O O4 0.825777 0.780419 0.356366
O O5 0.927133 0.444854 0.355621
O O6 0.236337 0.465370 0.764689
O O7 0.750000 0.250000 0.888946
O O8 0.612027 0.386540 0.813659
O O9 0.503452 0.668033 0.757605
#
# Coordination Sequence:
#
# PCOD9397387 Si02
#       6
#     2   2   8   4   8   8
#     4  10  22  44  74 118 130 160 234 296 334 414
#     4  12  22  36  64  98 128 178 252 312 358 384
#     4  11  23  37  63  93 136 180 246 298 353 395
#     4   9  19  35  59  98 124 168 231 295 335 397
#     4  10  23  41  77 100 138 176 233 284 347 412
#     4  11  29  47  68 100 148 193 232 281 358 428
#
# _framework density 20.965813000000001
#
# number of rings (size 3 to 8) (size 9 to 14) (size 15 to 20)
#    0.000    1.500    2.500    0.375   21.000    1.000 
#    0.000    1.250    0.000    0.000    0.000    0.000 
#    0.000    0.000    0.000    0.000    0.000    0.000 
#
# Total GULP energy -178263.440471 kJ/mol
# GULP energy per Si atom -5570.732515 kJ/mol
# Density = 2.091809 g / cm^3
# Si number density = 20.965813 Si / 1000 Ang^3
#
#
#
# Elastic Constant Matrix: (Units=GPa)
#
#
# Indices 1 2 3 4 5 6 
#
# 1 88.3023 56.1612 31.4054 0.0000 0.0000 0.0000
# 2 56.1612 87.5727 21.0740 0.0000 0.0000 0.0000
# 3 31.4054 21.0740 103.1456 0.0000 0.0000 0.0000
# 4 0.0000 0.0000 0.0000 -7.8466 0.0000 0.0000
# 5 0.0000 0.0000 0.0000 0.0000 17.6808 0.0000
# 6 0.0000 0.0000 0.0000 0.0000 0.0000 25.8919
#
#
#
# Elastic Compliance Matrix: (Units=1/GPa)
#
#
# Indices 1 2 3 4 5 6 
#
# 1 0.020399 -0.012187 -0.003721 0.000000 0.000000 0.000000
# 2 -0.012187 0.019290 -0.000231 0.000000 0.000000 0.000000
# 3 -0.003721 -0.000231 0.010875 0.000000 0.000000 0.000000
# 4 0.000000 0.000000 0.000000 -0.127444 0.000000 0.000000
# 5 0.000000 0.000000 0.000000 0.000000 0.056559 0.000000
# 6 0.000000 0.000000 0.000000 0.000000 0.000000 0.038622
#
#
# Mechanical properties :
#
#
# Convention : Reuss Voigt Hill
#
# Bulk Modulus (GPa) = 54.68265 55.14466 54.91366
# Shear Modulus (GPa) = 88.22421 18.50388 53.36404
#
# Velocity S-wave (km/s) = 6.49395 2.97404 5.05056
# Velocity P-wave (km/s) = 9.07562 6.17677 7.76271
#
# Compressibility (1/GPa) = 0.01828734
#
# Stress axis : x y z
#
# Youngs Moduli (GPa) = 49.02205 51.84040 91.95273
#
# Poissons Ratio (x) = 0.63176 0.34217
# Poissons Ratio (y) = 0.59741 0.02121
# Poissons Ratio (z) = 0.18242 0.01196
#
# Static dielectric constant tensor:
#      x y z
#    x 1.956190 0.000000 0.000000 
#    y 0.000000 1.609010 0.000000 
#    z 0.000000 0.000000 1.782900 
# 
# From -- ./inp_files/23692.got.cif
#   From: 2010.05.17/outbox.cif.g08.bks.cpg/sg50_12_cif.got.tgz:23692.got - 2010.06.03 11:33:33.
