data_PCOD9397802
_publ_section_title
;
Structure prediction by ZEFSAII (Michael W. Deem and Ramdas Pophale) SiO2 
 PCOD9397802
Probable space group: P B A N
;
_chemical_formula_sum "Si O2"
_cell_formula_units_Z 54
_cell_length_a 13.615279
_cell_length_b 10.837360
_cell_length_c 16.211410
_cell_angle_alpha 90.000000
_cell_angle_beta 90.000000
_cell_angle_gamma 90.000000
_cell_volume 2392.053204
_symmetry_space_group_name_H-M "P B A N"
_symmetry_group_IT_number 50
_space_group.IT_coordinate_system_code '2'
_symmetry_cell_setting 'orthorhombic'
loop_
_space_group_symop_operation_xyz
x,y,z
1/2-x,1/2-y,z
x,1/2-y,-z
1/2-x,y,-z
-x,-y,-z
1/2+x,1/2+y,-z
-x,1/2+y,z
1/2+x,-y,z
loop_
_atom_site_type_symbol
_atom_site_label
_atom_site_fract_x
_atom_site_fract_y
_atom_site_fract_z
Si Si1 0.593752 0.220725 0.629269
Si Si2 0.189675 0.923964 0.913724
Si Si3 0.980820 0.627612 0.046431
Si Si4 0.628363 0.886227 0.207865
Si Si5 0.507244 0.480785 0.661115
Si Si6 0.250000 0.750000 0.775477
Si Si7 0.750000 0.250000 0.500000
Si Si8 0.643836 0.885392 0.783350
O O1 0.546846 0.357976 0.616355
O O2 0.655368 0.231282 0.715639
O O3 0.676102 0.183576 0.562293
O O4 0.511580 0.114423 0.620674
O O5 0.091154 0.841118 0.921400
O O6 0.253247 0.864549 0.839559
O O7 0.144722 0.048846 0.872826
O O8 0.250000 0.931640 0.000000
O O9 0.899843 0.591678 0.113932
O O10 0.946324 0.750000 0.000000
O O11 0.000000 0.500000 0.000000
O O12 0.589339 0.745877 0.218338
O O13 0.740981 0.875654 0.230521
O O14 0.580636 0.987116 0.264940
O O15 0.405282 0.456970 0.708666
#
# Coordination Sequence:
#
# PCOD9397802 Si02
#       8
#     8   8   8   8   8   4   2   8
#     4  11  25  46  79 107 152 181 241 285 362 435
#     4  12  23  38  60  94 137 187 253 310 367 422
#     4  12  25  40  57  84 127 183 241 307 377 428
#     4  11  24  41  66  95 138 177 244 302 360 431
#     4  12  23  44  76 109 138 194 233 294 352 435
#     4  11  21  41  65 100 132 192 241 309 353 429
#     4  10  28  52  78 122 148 196 226 290 344 446
#     4  11  23  42  64 100 136 184 241 301 367 418
#
# _framework density 22.574748
#
# number of rings (size 3 to 8) (size 9 to 14) (size 15 to 20)
#    0.000    0.593    4.444    3.778    2.074    0.593 
#    0.000    1.481    0.000    0.889    0.000    0.000 
#    0.000    0.000    0.000    0.000    0.000    0.000 
#
# Total GULP energy -301141.331184 kJ/mol
# GULP energy per Si atom -5576.691318 kJ/mol
# Density = 2.252337 g / cm^3
# Si number density = 22.574748 Si / 1000 Ang^3
#
#
#
# Elastic Constant Matrix: (Units=GPa)
#
#
# Indices 1 2 3 4 5 6 
#
# 1 75.4830 9.5229 18.6478 0.0000 0.0000 0.0000
# 2 9.5229 135.8068 20.2530 0.0000 0.0000 0.0000
# 3 18.6478 20.2530 71.2252 0.0000 0.0000 0.0000
# 4 0.0000 0.0000 0.0000 0.1617 0.0000 0.0000
# 5 0.0000 0.0000 0.0000 0.0000 125.5287 0.0000
# 6 0.0000 0.0000 0.0000 0.0000 0.0000 17.4871
#
#
#
# Elastic Compliance Matrix: (Units=1/GPa)
#
#
# Indices 1 2 3 4 5 6 
#
# 1 0.014192 -0.000461 -0.003585 0.000000 0.000000 0.000000
# 2 -0.000461 0.007704 -0.002070 0.000000 0.000000 0.000000
# 3 -0.003585 -0.002070 0.015567 0.000000 0.000000 0.000000
# 4 0.000000 0.000000 0.000000 6.184060 0.000000 0.000000
# 5 0.000000 0.000000 0.000000 0.000000 0.007966 0.000000
# 6 0.000000 0.000000 0.000000 0.000000 0.000000 0.057185
#
#
# Mechanical properties :
#
#
# Convention : Reuss Voigt Hill
#
# Bulk Modulus (GPa) = 39.63142 42.15139 40.89140
# Shear Modulus (GPa) = 0.79273 44.24158 22.51716
#
# Velocity S-wave (km/s) = 0.59323 4.43174 3.16167
# Velocity P-wave (km/s) = 4.25006 6.70072 5.61082
#
# Compressibility (1/GPa) = 0.02523250
#
# Stress axis : x y z
#
# Youngs Moduli (GPa) = 70.46382 129.79556 64.23790
#
# Poissons Ratio (x) = 0.05978 0.23027
# Poissons Ratio (y) = 0.03245 0.13298
# Poissons Ratio (z) = 0.25259 0.26870
#
# Static dielectric constant tensor:
#      x y z
#    x 1.856360 0.000000 0.000000 
#    y 0.000000 1.923340 0.000000 
#    z 0.000000 0.000000 1.912990 
# 
# From -- ./inp_files/26537.got.cif
#   From: 2010.05.17/outbox.cif.g08.bks.cpg/sg50_14_cif.got.tgz:26537.got - 2010.06.03 11:33:33.
