data_PCOD9397796
_publ_section_title
;
Structure prediction by ZEFSAII (Michael W. Deem and Ramdas Pophale) SiO2 
 PCOD9397796
Probable space group: P B A N
;
_chemical_formula_sum "Si O2"
_cell_formula_units_Z 18
_cell_length_a 20.320117
_cell_length_b 6.884532
_cell_length_c 5.148757
_cell_angle_alpha 90.000000
_cell_angle_beta 90.000000
_cell_angle_gamma 90.000000
_cell_volume 720.282764
_symmetry_space_group_name_H-M "P B A N"
_symmetry_group_IT_number 50
_space_group.IT_coordinate_system_code '2'
_symmetry_cell_setting 'orthorhombic'
loop_
_space_group_symop_operation_xyz
x,y,z
1/2-x,1/2-y,z
x,1/2-y,-z
1/2-x,y,-z
-x,-y,-z
1/2+x,1/2+y,-z
-x,1/2+y,z
1/2+x,-y,z
loop_
_atom_site_type_symbol
_atom_site_label
_atom_site_fract_x
_atom_site_fract_y
_atom_site_fract_z
Si Si1 0.536974 0.750000 0.500000
Si Si2 0.642482 0.456613 0.360718
Si Si3 0.750000 0.750000 0.500000
Si Si4 0.944321 0.250000 0.000000
O O1 0.586178 0.568949 0.521119
O O2 0.492078 0.771118 0.753902
O O3 0.657907 0.250000 0.500000
O O4 0.703419 0.602332 0.341805
O O5 0.606709 0.416396 0.088008
#
# Coordination Sequence:
#
# PCOD9397796 Si02
#       4
#     4   8   2   4
#     4  11  26  43  78 119 158 181 242 318 392 463
#     4  11  25  46  79 109 151 205 252 313 378 453
#     4  10  26  56  70 106 154 210 272 314 362 444
#     4  12  24  46  79 119 150 194 242 314 394 456
#
# _framework density 24.990185
#
# number of rings (size 3 to 8) (size 9 to 14) (size 15 to 20)
#    0.000    0.889    2.222    3.333    6.222    0.000 
#    0.000    6.667    0.000    0.000    0.000    0.000 
#    0.000    0.000    0.000    0.000    0.000    0.000 
#
# Total GULP energy -100726.241328 kJ/mol
# GULP energy per Si atom -5595.902296 kJ/mol
# Density = 2.493331 g / cm^3
# Si number density = 24.990185 Si / 1000 Ang^3
#
#
#
# Elastic Constant Matrix: (Units=GPa)
#
#
# Indices 1 2 3 4 5 6 
#
# 1 193.7405 101.0209 78.3124 0.0000 0.0000 0.0000
# 2 101.0209 193.3676 55.3232 0.0000 0.0000 0.0000
# 3 78.3124 55.3232 154.8951 0.0000 0.0000 0.0000
# 4 0.0000 0.0000 0.0000 20.3768 0.0000 0.0000
# 5 0.0000 0.0000 0.0000 0.0000 5.3177 0.0000
# 6 0.0000 0.0000 0.0000 0.0000 0.0000 45.3882
#
#
#
# Elastic Compliance Matrix: (Units=1/GPa)
#
#
# Indices 1 2 3 4 5 6 
#
# 1 0.008103 -0.003410 -0.002879 0.000000 0.000000 0.000000
# 2 -0.003410 0.007195 -0.000846 0.000000 0.000000 0.000000
# 3 -0.002879 -0.000846 0.008214 0.000000 0.000000 0.000000
# 4 0.000000 0.000000 0.000000 0.049075 0.000000 0.000000
# 5 0.000000 0.000000 0.000000 0.000000 0.188051 0.000000
# 6 0.000000 0.000000 0.000000 0.000000 0.000000 0.022032
#
#
# Mechanical properties :
#
#
# Convention : Reuss Voigt Hill
#
# Bulk Modulus (GPa) = 108.19492 112.36848 110.28170
# Shear Modulus (GPa) = 16.66555 34.70631 25.68593
#
# Velocity S-wave (km/s) = 2.58521 3.73070 3.20947
# Velocity P-wave (km/s) = 7.23188 7.97622 7.61315
#
# Compressibility (1/GPa) = 0.00924258
#
# Stress axis : x y z
#
# Youngs Moduli (GPa) = 123.40908 138.98937 121.74806
#
# Poissons Ratio (x) = 0.47390 0.35051
# Poissons Ratio (y) = 0.42078 0.10298
# Poissons Ratio (z) = 0.35530 0.11757
#
# Static dielectric constant tensor:
#      x y z
#    x 1.969180 0.000000 0.000000 
#    y 0.000000 2.112800 0.000000 
#    z 0.000000 0.000000 1.966920 
# 
# From -- ./inp_files/4797.got.cif
#   From: 2010.05.17/outbox.cif.g08.bks.cpg/sg50_3_cif.got.tgz:4797.got - 2010.06.03 11:33:33.
