data_PCOD9397201
_publ_section_title
;
Structure prediction by ZEFSAII (Michael W. Deem and Ramdas Pophale) SiO2 
 PCOD9397201
Probable space group: P B A N
;
_chemical_formula_sum "Si O2"
_cell_formula_units_Z 32
_cell_length_a 34.735222
_cell_length_b 4.829165
_cell_length_c 8.747323
_cell_angle_alpha 90.000000
_cell_angle_beta 90.000000
_cell_angle_gamma 90.000000
_cell_volume 1467.294490
_symmetry_space_group_name_H-M "P B A N"
_symmetry_group_IT_number 50
_space_group.IT_coordinate_system_code '2'
_symmetry_cell_setting 'orthorhombic'
loop_
_space_group_symop_operation_xyz
x,y,z
1/2-x,1/2-y,z
x,1/2-y,-z
1/2-x,y,-z
-x,-y,-z
1/2+x,1/2+y,-z
-x,1/2+y,z
1/2+x,-y,z
loop_
_atom_site_type_symbol
_atom_site_label
_atom_site_fract_x
_atom_site_fract_y
_atom_site_fract_z
Si Si1 0.705332 0.663024 0.168505
Si Si2 0.974513 0.766818 0.179876
Si Si3 0.828469 0.344830 0.328093
Si Si4 0.088917 0.505211 0.605838
O O1 0.750000 0.750000 0.174765
O O2 0.694637 0.349586 0.209960
O O3 0.684476 0.845385 0.295453
O O4 0.691307 0.750000 0.000000
O O5 0.940942 0.640472 0.281445
O O6 0.012455 0.579518 0.209358
O O7 0.964906 0.750000 0.000000
O O8 0.819592 0.250000 0.500000
O O9 0.874713 0.349370 0.312325
O O10 0.071688 0.750000 0.500000
O O11 0.103465 0.250000 0.500000
#
# Coordination Sequence:
#
# PCOD9397201 Si02
#       4
#     8   8   8   8
#     4  11  24  42  64  92 125 161 206 258 311 373
#     4  10  22  40  62  90 124 163 209 258 309 370
#     4  11  23  41  63  91 126 163 207 255 310 373
#     4  11  23  40  62  91 127 164 208 260 310 370
#
# _framework density 21.808845999999999
#
# number of rings (size 3 to 8) (size 9 to 14) (size 15 to 20)
#    0.000    1.250    0.000    6.750    0.000    9.000 
#    0.000   10.000    0.000    0.000    0.000    0.000 
#    0.000    0.000    0.000    0.000    0.000    0.000 
#
# Total GULP energy -178850.622905 kJ/mol
# GULP energy per Si atom -5589.081966 kJ/mol
# Density = 2.175921 g / cm^3
# Si number density = 21.808846 Si / 1000 Ang^3
#
#
#
# Elastic Constant Matrix: (Units=GPa)
#
#
# Indices 1 2 3 4 5 6 
#
# 1 69.9195 1.2218 48.9820 0.0000 0.0000 0.0000
# 2 1.2218 90.0274 14.3769 0.0000 0.0000 0.0000
# 3 48.9820 14.3769 76.8625 0.0000 0.0000 0.0000
# 4 0.0000 0.0000 0.0000 39.6538 0.0000 0.0000
# 5 0.0000 0.0000 0.0000 0.0000 28.1177 0.0000
# 6 0.0000 0.0000 0.0000 0.0000 0.0000 33.0491
#
#
#
# Elastic Compliance Matrix: (Units=1/GPa)
#
#
# Indices 1 2 3 4 5 6 
#
# 1 0.026328 0.002394 -0.017225 0.000000 0.000000 0.000000
# 2 0.002394 0.011667 -0.003708 0.000000 0.000000 0.000000
# 3 -0.017225 -0.003708 0.024681 0.000000 0.000000 0.000000
# 4 0.000000 0.000000 0.000000 0.025218 0.000000 0.000000
# 5 0.000000 0.000000 0.000000 0.000000 0.035565 0.000000
# 6 0.000000 0.000000 0.000000 0.000000 0.000000 0.030258
#
#
# Mechanical properties :
#
#
# Convention : Reuss Voigt Hill
#
# Bulk Modulus (GPa) = 39.06745 40.66342 39.86544
# Shear Modulus (GPa) = 25.08427 31.64604 28.36515
#
# Velocity S-wave (km/s) = 3.39512 3.81342 3.61033
# Velocity P-wave (km/s) = 5.77249 6.17053 5.97482
#
# Compressibility (1/GPa) = 0.02559675
#
# Stress axis : x y z
#
# Youngs Moduli (GPa) = 37.98305 85.70941 40.51714
#
# Poissons Ratio (x) = -0.20515 0.69792
# Poissons Ratio (y) = -0.09091 0.15022
# Poissons Ratio (z) = 0.65427 0.31778
#
# Static dielectric constant tensor:
#      x y z
#    x 1.808280 0.000000 0.000000 
#    y 0.000000 1.749570 0.000000 
#    z 0.000000 0.000000 1.789280 
# 
# From -- ./inp_files/16706.got.cif
#   From: 2010.05.17/outbox.cif.g08.bks.cpg/sg50_9_cif.got.tgz:16706.got - 2010.06.03 11:33:33.
