data_PCOD9397093
_publ_section_title
;
Structure prediction by ZEFSAII (Michael W. Deem and Ramdas Pophale) SiO2 
 PCOD9397093
Probable space group: P B A N
;
_chemical_formula_sum "Si O2"
_cell_formula_units_Z 60
_cell_length_a 20.624524
_cell_length_b 21.582844
_cell_length_c 5.612003
_cell_angle_alpha 90.000000
_cell_angle_beta 90.000000
_cell_angle_gamma 90.000000
_cell_volume 2498.103917
_symmetry_space_group_name_H-M "P B A N"
_symmetry_group_IT_number 50
_space_group.IT_coordinate_system_code '2'
_symmetry_cell_setting 'orthorhombic'
loop_
_space_group_symop_operation_xyz
x,y,z
1/2-x,1/2-y,z
x,1/2-y,-z
1/2-x,y,-z
-x,-y,-z
1/2+x,1/2+y,-z
-x,1/2+y,z
1/2+x,-y,z
loop_
_atom_site_type_symbol
_atom_site_label
_atom_site_fract_x
_atom_site_fract_y
_atom_site_fract_z
Si Si1 0.037072 0.330761 0.184203
Si Si2 0.357444 0.360240 0.211526
Si Si3 0.681816 0.509147 0.890493
Si Si4 0.959475 0.565390 0.461897
Si Si5 0.635362 0.750000 0.500000
Si Si6 0.322637 0.896907 0.554311
Si Si7 0.392843 0.783918 0.762274
Si Si8 0.079524 0.548623 0.237148
O O1 0.016939 0.395415 0.311771
O O2 0.086014 0.291364 0.347822
O O3 0.968590 0.296095 0.181363
O O4 0.083181 0.338795 0.955608
O O5 0.391417 0.402057 0.411488
O O6 0.327330 0.298878 0.330133
O O7 0.316362 0.415937 0.099339
O O8 0.616521 0.488946 0.033986
O O9 0.750000 0.487538 0.000000
O O10 0.680673 0.467309 0.653023
O O11 0.939695 0.497175 0.544226
O O12 0.006342 0.574508 0.230747
O O13 0.250000 0.876343 0.500000
O O14 0.356457 0.849546 0.733488
O O15 0.369978 0.900578 0.326692
O O16 0.387092 0.750000 0.500000
O O17 0.366705 0.750000 0.000000
#
# Coordination Sequence:
#
# PCOD9397093 Si02
#       8
#     8   8   8   8   4   8   8   8
#     4  11  21  39  65 102 143 185 231 294 365 443
#     4  11  23  39  66 104 137 183 230 290 367 438
#     4  12  26  43  71 103 139 190 242 304 364 448
#     4  10  22  36  65 102 147 175 224 297 369 446
#     4  10  22  40  64  95 141 176 230 282 360 434
#     4  12  27  47  72 100 140 193 247 301 368 443
#     4  12  29  49  74 108 148 197 252 313 378 453
#     4  11  22  41  62 103 144 178 229 291 369 438
#
# _framework density 24.018215000000001
#
# number of rings (size 3 to 8) (size 9 to 14) (size 15 to 20)
#    0.000    0.800    6.000    1.200    5.600    0.800 
#    0.000    0.667    0.000    2.400    0.000    0.000 
#    0.000    0.000    0.000    0.000    0.000    0.000 
#
# Total GULP energy -334331.210443 kJ/mol
# GULP energy per Si atom -5572.186841 kJ/mol
# Density = 2.396355 g / cm^3
# Si number density = 24.018215 Si / 1000 Ang^3
#
#
#
# Elastic Constant Matrix: (Units=GPa)
#
#
# Indices 1 2 3 4 5 6 
#
# 1 38.7917 1.8041 19.0325 0.0000 0.0000 0.0000
# 2 1.8041 84.5377 30.4098 0.0000 0.0000 0.0000
# 3 19.0325 30.4098 65.8817 0.0000 0.0000 0.0000
# 4 0.0000 0.0000 0.0000 41.2594 0.0000 0.0000
# 5 0.0000 0.0000 0.0000 0.0000 14.2600 0.0000
# 6 0.0000 0.0000 0.0000 0.0000 0.0000 5.1507
#
#
#
# Elastic Compliance Matrix: (Units=1/GPa)
#
#
# Indices 1 2 3 4 5 6 
#
# 1 0.030673 0.003037 -0.010263 0.000000 0.000000 0.000000
# 2 0.003037 0.014485 -0.007563 0.000000 0.000000 0.000000
# 3 -0.010263 -0.007563 0.021635 0.000000 0.000000 0.000000
# 4 0.000000 0.000000 0.000000 0.024237 0.000000 0.000000
# 5 0.000000 0.000000 0.000000 0.000000 0.070126 0.000000
# 6 0.000000 0.000000 0.000000 0.000000 0.000000 0.194147
#
#
# Mechanical properties :
#
#
# Convention : Reuss Voigt Hill
#
# Bulk Modulus (GPa) = 26.87154 32.41155 29.64155
# Shear Modulus (GPa) = 12.58542 21.33169 16.95856
#
# Velocity S-wave (km/s) = 2.29158 2.98341 2.66008
# Velocity P-wave (km/s) = 4.26779 5.03900 4.66934
#
# Compressibility (1/GPa) = 0.03721409
#
# Stress axis : x y z
#
# Youngs Moduli (GPa) = 32.60221 69.03738 46.22204
#
# Poissons Ratio (x) = -0.20968 0.47437
# Poissons Ratio (y) = -0.09902 0.34959
# Poissons Ratio (z) = 0.33459 0.52216
#
# Static dielectric constant tensor:
#      x y z
#    x 2.006190 0.000000 0.000000 
#    y 0.000000 3.111650 0.000000 
#    z 0.000000 0.000000 2.047780 
# 
# From -- ./inp_files/5482.got.cif
#   From: 2010.05.17/outbox.cif.g08.bks.cpg/sg50_3_cif.got.tgz:5482.got - 2010.06.03 11:33:33.
