data_PCOD9397709
_publ_section_title
;
Structure prediction by ZEFSAII (Michael W. Deem and Ramdas Pophale) SiO2 
 PCOD9397709
Probable space group: P B A N
;
_chemical_formula_sum "Si O2"
_cell_formula_units_Z 32
_cell_length_a 11.328564
_cell_length_b 9.127884
_cell_length_c 14.157732
_cell_angle_alpha 90.000000
_cell_angle_beta 90.000000
_cell_angle_gamma 90.000000
_cell_volume 1463.991860
_symmetry_space_group_name_H-M "P B A N"
_symmetry_group_IT_number 50
_space_group.IT_coordinate_system_code '2'
_symmetry_cell_setting 'orthorhombic'
loop_
_space_group_symop_operation_xyz
x,y,z
1/2-x,1/2-y,z
x,1/2-y,-z
1/2-x,y,-z
-x,-y,-z
1/2+x,1/2+y,-z
-x,1/2+y,z
1/2+x,-y,z
loop_
_atom_site_type_symbol
_atom_site_label
_atom_site_fract_x
_atom_site_fract_y
_atom_site_fract_z
Si Si1 0.618409 0.918779 0.035225
Si Si2 0.585634 0.494697 0.411258
Si Si3 0.105532 0.486207 0.743636
Si Si4 0.250000 0.750000 0.341246
Si Si5 0.250000 0.250000 0.626946
O O1 0.609319 0.942393 0.147591
O O2 0.610980 0.750000 0.000000
O O3 0.750000 0.970556 0.000000
O O4 0.500000 0.000000 0.000000
O O5 0.500000 0.500000 0.500000
O O6 0.518552 0.507300 0.310486
O O7 0.661449 0.347294 0.403475
O O8 0.667782 0.634387 0.424319
O O9 0.178499 0.633996 0.722204
O O10 0.166862 0.352660 0.689602
#
# Coordination Sequence:
#
# PCOD9397709 Si02
#       5
#     8   8   8   4   4
#     4  11  28  48  76 113 154 201 262 321 393 467
#     4  11  26  46  73 110 147 203 254 313 389 469
#     4  11  25  44  75 104 149 196 248 317 383 465
#     4  10  26  45  75 106 154 190 261 310 387 464
#     4  10  24  45  71  98 150 188 241 310 381 440
#
# _framework density 21.858046999999999
#
# number of rings (size 3 to 8) (size 9 to 14) (size 15 to 20)
#    0.000    1.250    0.000    3.000   14.000   10.500 
#    0.000    3.750    0.000    0.000    0.000    0.000 
#    0.000    0.000    0.000    0.000    0.000    0.000 
#
# Total GULP energy -179050.502815 kJ/mol
# GULP energy per Si atom -5595.328213 kJ/mol
# Density = 2.180830 g / cm^3
# Si number density = 21.858047 Si / 1000 Ang^3
#
#
#
# Elastic Constant Matrix: (Units=GPa)
#
#
# Indices 1 2 3 4 5 6 
#
# 1 173.3647 85.3407 95.4838 0.0000 0.0000 0.0000
# 2 85.3407 179.4992 80.0348 0.0000 0.0000 0.0000
# 3 95.4838 80.0348 190.6301 0.0000 0.0000 0.0000
# 4 0.0000 0.0000 0.0000 22.1044 0.0000 0.0000
# 5 0.0000 0.0000 0.0000 0.0000 34.9501 0.0000
# 6 0.0000 0.0000 0.0000 0.0000 0.0000 252.3912
#
#
#
# Elastic Compliance Matrix: (Units=1/GPa)
#
#
# Indices 1 2 3 4 5 6 
#
# 1 0.008968 -0.002782 -0.003324 0.000000 0.000000 0.000000
# 2 -0.002782 0.007717 -0.001847 0.000000 0.000000 0.000000
# 3 -0.003324 -0.001847 0.007686 0.000000 0.000000 0.000000
# 4 0.000000 0.000000 0.000000 0.045240 0.000000 0.000000
# 5 0.000000 0.000000 0.000000 0.000000 0.028612 0.000000
# 6 0.000000 0.000000 0.000000 0.000000 0.000000 0.003962
#
#
# Mechanical properties :
#
#
# Convention : Reuss Voigt Hill
#
# Bulk Modulus (GPa) = 118.11473 118.35696 118.23584
# Shear Modulus (GPa) = 41.35205 80.73145 61.04175
#
# Velocity S-wave (km/s) = 4.35425 6.08396 5.29028
# Velocity P-wave (km/s) = 8.91257 10.17931 9.56693
#
# Compressibility (1/GPa) = 0.00846634
#
# Stress axis : x y z
#
# Youngs Moduli (GPa) = 111.50241 129.58503 130.10468
#
# Poissons Ratio (x) = 0.36047 0.43250
# Poissons Ratio (y) = 0.31017 0.24025
# Poissons Ratio (z) = 0.37066 0.23929
#
# Static dielectric constant tensor:
#      x y z
#    x 1.899820 0.000000 0.000000 
#    y 0.000000 1.765220 0.000000 
#    z 0.000000 0.000000 1.777640 
# 
# From -- ./inp_files/25686.got.cif
#   From: 2010.05.17/outbox.cif.g08.bks.cpg/sg50_13_cif.got.tgz:25686.got - 2010.06.03 11:33:33.
