data_PCOD9397337
_publ_section_title
;
Structure prediction by ZEFSAII (Michael W. Deem and Ramdas Pophale) SiO2 
 PCOD9397337
Probable space group: P B A N
;
_chemical_formula_sum "Si O2"
_cell_formula_units_Z 34
_cell_length_a 8.935704
_cell_length_b 11.821004
_cell_length_c 16.423286
_cell_angle_alpha 90.000000
_cell_angle_beta 90.000000
_cell_angle_gamma 90.000000
_cell_volume 1734.775157
_symmetry_space_group_name_H-M "P B A N"
_symmetry_group_IT_number 50
_space_group.IT_coordinate_system_code '2'
_symmetry_cell_setting 'orthorhombic'
loop_
_space_group_symop_operation_xyz
x,y,z
1/2-x,1/2-y,z
x,1/2-y,-z
1/2-x,y,-z
-x,-y,-z
1/2+x,1/2+y,-z
-x,1/2+y,z
1/2+x,-y,z
loop_
_atom_site_type_symbol
_atom_site_label
_atom_site_fract_x
_atom_site_fract_y
_atom_site_fract_z
Si Si1 0.183201 0.864468 0.658302
Si Si2 0.981693 0.604019 0.894341
Si Si3 0.250000 0.750000 0.500000
Si Si4 0.250000 0.250000 0.823469
Si Si5 0.607350 0.961547 0.259238
Si Si6 0.250000 0.953183 0.000000
O O1 0.250000 0.750000 0.697330
O O2 0.163532 0.830308 0.563587
O O3 0.030157 0.900560 0.697993
O O4 0.304041 0.960449 0.677249
O O5 0.899152 0.720987 0.873711
O O6 0.041474 0.536745 0.814817
O O7 0.128132 0.616029 0.949488
O O8 0.853185 0.530909 0.940668
O O9 0.283512 0.136521 0.773558
#
# Coordination Sequence:
#
# PCOD9397337 Si02
#       6
#     8   8   2   4   8   4
#     4  10  23  43  67  99 136 174 220 284 332 411
#     4  11  22  42  64  98 133 177 230 282 337 409
#     4   8  24  44  64 104 140 170 220 282 350 404
#     4  12  24  39  70  99 132 178 236 282 330 411
#     4  12  22  42  71  97 135 179 232 274 339 409
#     4  10  22  43  65  88 142 174 221 291 350 378
#
# _framework density 19.599081999999999
#
# number of rings (size 3 to 8) (size 9 to 14) (size 15 to 20)
#    0.706    0.471    4.706    1.412    0.000    1.412 
#    0.000    1.176    0.000    1.412    0.000    0.000 
#    0.000    0.000    0.000    0.000    0.000    0.000 
#
# Total GULP energy -189730.778286 kJ/mol
# GULP energy per Si atom -5580.317008 kJ/mol
# Density = 1.955447 g / cm^3
# Si number density = 19.599082 Si / 1000 Ang^3
#
#
#
# Elastic Constant Matrix: (Units=GPa)
#
#
# Indices 1 2 3 4 5 6 
#
# 1 127.4348 39.4066 41.2130 0.0000 0.0000 0.0000
# 2 39.4066 89.0310 27.6471 0.0000 0.0000 0.0000
# 3 41.2130 27.6471 99.4612 0.0000 0.0000 0.0000
# 4 0.0000 0.0000 0.0000 67.4800 0.0000 0.0000
# 5 0.0000 0.0000 0.0000 0.0000 15.3500 0.0000
# 6 0.0000 0.0000 0.0000 0.0000 0.0000 40.1589
#
#
#
# Elastic Compliance Matrix: (Units=1/GPa)
#
#
# Indices 1 2 3 4 5 6 
#
# 1 0.009925 -0.003410 -0.003165 0.000000 0.000000 0.000000
# 2 -0.003410 0.013465 -0.002330 0.000000 0.000000 0.000000
# 3 -0.003165 -0.002330 0.012013 0.000000 0.000000 0.000000
# 4 0.000000 0.000000 0.000000 0.014819 0.000000 0.000000
# 5 0.000000 0.000000 0.000000 0.000000 0.065146 0.000000
# 6 0.000000 0.000000 0.000000 0.000000 0.000000 0.024901
#
#
# Mechanical properties :
#
#
# Convention : Reuss Voigt Hill
#
# Bulk Modulus (GPa) = 56.83818 59.16227 58.00023
# Shear Modulus (GPa) = 30.49823 38.44181 34.47002
#
# Velocity S-wave (km/s) = 3.94903 4.43358 4.19830
# Velocity P-wave (km/s) = 7.06091 7.51403 7.29099
#
# Compressibility (1/GPa) = 0.01759381
#
# Stress axis : x y z
#
# Youngs Moduli (GPa) = 100.75375 74.26675 83.24262
#
# Poissons Ratio (x) = 0.25327 0.26343
# Poissons Ratio (y) = 0.34360 0.19393
# Poissons Ratio (z) = 0.31885 0.17302
#
# Static dielectric constant tensor:
#      x y z
#    x 1.710410 0.000000 0.000000 
#    y 0.000000 1.712500 0.000000 
#    z 0.000000 0.000000 1.715930 
# 
# From -- ./inp_files/28473.got.cif
#   From: 2010.05.17/outbox.cif.g08.bks.cpg/sg50_15_cif.got.tgz:28473.got - 2010.06.03 11:33:33.
