data_PCOD9397354
_publ_section_title
;
Structure prediction by ZEFSAII (Michael W. Deem and Ramdas Pophale) SiO2 
 PCOD9397354
Probable space group: P B A N
;
_chemical_formula_sum "Si O2"
_cell_formula_units_Z 56
_cell_length_a 9.626596
_cell_length_b 13.229501
_cell_length_c 21.379829
_cell_angle_alpha 90.000000
_cell_angle_beta 90.000000
_cell_angle_gamma 90.000000
_cell_volume 2722.829435
_symmetry_space_group_name_H-M "P B A N"
_symmetry_group_IT_number 50
_space_group.IT_coordinate_system_code '2'
_symmetry_cell_setting 'orthorhombic'
loop_
_space_group_symop_operation_xyz
x,y,z
1/2-x,1/2-y,z
x,1/2-y,-z
1/2-x,y,-z
-x,-y,-z
1/2+x,1/2+y,-z
-x,1/2+y,z
1/2+x,-y,z
loop_
_atom_site_type_symbol
_atom_site_label
_atom_site_fract_x
_atom_site_fract_y
_atom_site_fract_z
Si Si1 0.664268 0.400697 0.851954
Si Si2 0.616548 0.941747 0.040320
Si Si3 0.750000 0.250000 0.395097
Si Si4 0.063717 0.057630 0.251148
Si Si5 0.116294 0.446203 0.460408
Si Si6 0.290552 0.961985 0.332210
Si Si7 0.526235 0.310897 0.145214
Si Si8 0.477409 0.750000 0.500000
O O1 0.669200 0.474266 0.910906
O O2 0.601734 0.464942 0.794920
O O3 0.561340 0.306460 0.861544
O O4 0.821748 0.361750 0.843885
O O5 0.545001 0.855545 0.082933
O O6 0.750000 0.907708 0.000000
O O7 0.500000 0.000000 0.000000
O O8 0.770964 0.351889 0.353603
O O9 0.625023 0.279378 0.442650
O O10 0.911618 0.053181 0.281502
O O11 0.064475 0.155566 0.205650
O O12 0.175336 0.039471 0.305922
O O13 0.250000 0.469826 0.500000
O O14 0.136921 0.486750 0.391597
O O15 0.000000 0.500000 0.500000
O O16 0.075834 0.330488 0.466994
#
# Coordination Sequence:
#
# PCOD9397354 Si02
#       8
#     8   8   4   8   8   8   8   4
#     4  10  22  43  70  94 133 186 230 271 343 404
#     4  11  22  41  68 103 141 172 222 285 336 394
#     4  11  24  40  72  98 124 182 225 276 342 428
#     4  11  24  42  66  98 133 175 225 291 329 397
#     4  12  24  45  67  96 136 176 218 282 351 417
#     4  12  25  42  69  98 134 172 233 284 346 408
#     4  10  22  43  69  97 134 186 229 272 336 410
#     4  11  23  44  66  98 132 170 220 274 354 418
#
# _framework density 20.566839999999999
#
# number of rings (size 3 to 8) (size 9 to 14) (size 15 to 20)
#    0.000    1.000    4.286    2.786    2.000    0.571 
#    0.000    3.571    0.000    0.000    0.000    0.000 
#    0.000    0.000    0.000    0.000    0.000    0.000 
#
# Total GULP energy -312624.825017 kJ/mol
# GULP energy per Si atom -5582.586161 kJ/mol
# Density = 2.052003 g / cm^3
# Si number density = 20.566840 Si / 1000 Ang^3
#
#
#
# Elastic Constant Matrix: (Units=GPa)
#
#
# Indices 1 2 3 4 5 6 
#
# 1 96.7704 18.1255 40.5126 0.0000 0.0000 0.0000
# 2 18.1255 86.7738 35.8120 0.0000 0.0000 0.0000
# 3 40.5126 35.8120 104.9577 0.0000 0.0000 0.0000
# 4 0.0000 0.0000 0.0000 24.9753 0.0000 0.0000
# 5 0.0000 0.0000 0.0000 0.0000 93.5856 0.0000
# 6 0.0000 0.0000 0.0000 0.0000 0.0000 42.3655
#
#
#
# Elastic Compliance Matrix: (Units=1/GPa)
#
#
# Indices 1 2 3 4 5 6 
#
# 1 0.012363 -0.000713 -0.004529 0.000000 0.000000 0.000000
# 2 -0.000713 0.013454 -0.004315 0.000000 0.000000 0.000000
# 3 -0.004529 -0.004315 0.012748 0.000000 0.000000 0.000000
# 4 0.000000 0.000000 0.000000 0.040040 0.000000 0.000000
# 5 0.000000 0.000000 0.000000 0.000000 0.010685 0.000000
# 6 0.000000 0.000000 0.000000 0.000000 0.000000 0.023604
#
#
# Mechanical properties :
#
#
# Convention : Reuss Voigt Hill
#
# Bulk Modulus (GPa) = 51.41184 53.04468 52.22826
# Shear Modulus (GPa) = 36.10297 45.12208 40.61252
#
# Velocity S-wave (km/s) = 4.19429 4.68902 4.44854
# Velocity P-wave (km/s) = 6.96475 7.42719 7.19969
#
# Compressibility (1/GPa) = 0.01945077
#
# Stress axis : x y z
#
# Youngs Moduli (GPa) = 80.88472 74.32642 78.44353
#
# Poissons Ratio (x) = 0.05303 0.35524
# Poissons Ratio (y) = 0.05771 0.33850
# Poissons Ratio (z) = 0.36630 0.32073
#
# Static dielectric constant tensor:
#      x y z
#    x 1.716670 0.000000 0.000000 
#    y 0.000000 1.398520 0.000000 
#    z 0.000000 0.000000 1.743770 
# 
# From -- ./inp_files/30692.got.cif
#   From: 2010.05.17/outbox.cif.g08.bks.cpg/sg50_16_cif.got.tgz:30692.got - 2010.06.03 11:33:33.
