data_PCOD9397591
_publ_section_title
;
Structure prediction by ZEFSAII (Michael W. Deem and Ramdas Pophale) SiO2 
 PCOD9397591
Probable space group: P B A N
;
_chemical_formula_sum "Si O2"
_cell_formula_units_Z 48
_cell_length_a 10.492514
_cell_length_b 24.205051
_cell_length_c 7.887067
_cell_angle_alpha 90.000000
_cell_angle_beta 90.000000
_cell_angle_gamma 90.000000
_cell_volume 2003.092890
_symmetry_space_group_name_H-M "P B A N"
_symmetry_group_IT_number 50
_space_group.IT_coordinate_system_code '2'
_symmetry_cell_setting 'orthorhombic'
loop_
_space_group_symop_operation_xyz
x,y,z
1/2-x,1/2-y,z
x,1/2-y,-z
1/2-x,y,-z
-x,-y,-z
1/2+x,1/2+y,-z
-x,1/2+y,z
1/2+x,-y,z
loop_
_atom_site_type_symbol
_atom_site_label
_atom_site_fract_x
_atom_site_fract_y
_atom_site_fract_z
Si Si1 0.819227 0.558775 0.328722
Si Si2 0.037566 0.339961 0.749780
Si Si3 0.256728 0.840555 0.699432
Si Si4 0.358940 0.549657 0.141809
Si Si5 0.497680 0.725473 0.192106
Si Si6 0.607337 0.884109 0.896717
O O1 0.750000 0.541727 0.500000
O O2 0.914540 0.609915 0.366249
O O3 0.884614 0.506388 0.242532
O O4 0.711121 0.579075 0.196576
O O5 0.884960 0.341455 0.777400
O O6 0.052045 0.276266 0.698478
O O7 0.116237 0.353543 0.921188
O O8 0.250000 0.829971 0.500000
O O9 0.310892 0.901449 0.735185
O O10 0.353823 0.795348 0.774577
O O11 0.488640 0.575133 0.070227
O O12 0.250000 0.541632 0.000000
O O13 0.575701 0.669151 0.217779
O O14 0.503198 0.750000 0.000000
#
# Coordination Sequence:
#
# PCOD9397591 Si02
#       6
#     8   8   8   8   8   8
#     4  12  29  44  64  99 141 187 234 286 346 417
#     4  11  23  43  69  97 138 183 228 276 348 420
#     4  11  24  41  69 112 141 173 225 291 362 405
#     4  11  23  44  75 100 136 178 230 291 350 419
#     4   9  22  42  73 101 137 177 224 287 334 411
#     4  10  23  45  69 101 130 178 234 279 345 416
#
# _framework density 23.962945000000001
#
# number of rings (size 3 to 8) (size 9 to 14) (size 15 to 20)
#    0.000    1.333    1.667    2.500    7.000    6.000 
#    0.000    3.333    0.000    0.000    0.000    0.000 
#    0.000    0.000    0.000    0.000    0.000    0.000 
#
# Total GULP energy -268168.093342 kJ/mol
# GULP energy per Si atom -5586.835278 kJ/mol
# Density = 2.390840 g / cm^3
# Si number density = 23.962945 Si / 1000 Ang^3
#
#
#
# Elastic Constant Matrix: (Units=GPa)
#
#
# Indices 1 2 3 4 5 6 
#
# 1 30.8100 23.1556 -5.6430 0.0000 0.0000 0.0000
# 2 23.1556 176.7947 30.6899 0.0000 0.0000 0.0000
# 3 -5.6430 30.6899 54.9554 0.0000 0.0000 0.0000
# 4 0.0000 0.0000 0.0000 -2.5920 0.0000 0.0000
# 5 0.0000 0.0000 0.0000 0.0000 19.6666 0.0000
# 6 0.0000 0.0000 0.0000 0.0000 0.0000 -82.0796
#
#
#
# Elastic Compliance Matrix: (Units=1/GPa)
#
#
# Indices 1 2 3 4 5 6 
#
# 1 0.038616 -0.006363 0.007519 0.000000 0.000000 0.000000
# 2 -0.006363 0.007312 -0.004737 0.000000 0.000000 0.000000
# 3 0.007519 -0.004737 0.021614 0.000000 0.000000 0.000000
# 4 0.000000 0.000000 0.000000 -0.385805 0.000000 0.000000
# 5 0.000000 0.000000 0.000000 0.000000 0.050848 0.000000
# 6 0.000000 0.000000 0.000000 0.000000 0.000000 -0.012183
#
#
# Mechanical properties :
#
#
# Convention : Reuss Voigt Hill
#
# Bulk Modulus (GPa) = 16.56181 39.88501 28.22341
# Shear Modulus (GPa) = -19.81684 1.28952 -9.26366
#
# Velocity S-wave (km/s) = -2.87884 0.73437 -1.96830
# Velocity P-wave (km/s) = 2.03074 4.17129 2.57641
#
# Compressibility (1/GPa) = 0.06037986
#
# Stress axis : x y z
#
# Youngs Moduli (GPa) = 25.89592 136.76329 46.26671
#
# Poissons Ratio (x) = 0.87021 -0.34786
# Poissons Ratio (y) = 0.16477 0.21915
# Poissons Ratio (z) = -0.19470 0.64781
#
# Static dielectric constant tensor:
#      x y z
#    x 2.017440 0.000000 0.000000 
#    y 0.000000 1.945450 0.000000 
#    z 0.000000 0.000000 1.970650 
# 
# From -- ./inp_files/11529.got.cif
#   From: 2010.05.17/outbox.cif.g08.bks.cpg/sg50_6_cif.got.tgz:11529.got - 2010.06.03 11:33:33.
