data_PCOD9397615
_publ_section_title
;
Structure prediction by ZEFSAII (Michael W. Deem and Ramdas Pophale) SiO2 
 PCOD9397615
Probable space group: P B A N
;
_chemical_formula_sum "Si O2"
_cell_formula_units_Z 44
_cell_length_a 9.193836
_cell_length_b 17.359285
_cell_length_c 12.318754
_cell_angle_alpha 90.000000
_cell_angle_beta 90.000000
_cell_angle_gamma 90.000000
_cell_volume 1966.053667
_symmetry_space_group_name_H-M "P B A N"
_symmetry_group_IT_number 50
_space_group.IT_coordinate_system_code '2'
_symmetry_cell_setting 'orthorhombic'
loop_
_space_group_symop_operation_xyz
x,y,z
1/2-x,1/2-y,z
x,1/2-y,-z
1/2-x,y,-z
-x,-y,-z
1/2+x,1/2+y,-z
-x,1/2+y,z
1/2+x,-y,z
loop_
_atom_site_type_symbol
_atom_site_label
_atom_site_fract_x
_atom_site_fract_y
_atom_site_fract_z
Si Si1 0.503728 0.714578 0.645336
Si Si2 0.549002 0.610810 0.291347
Si Si3 0.295293 0.996138 0.741100
Si Si4 0.088192 0.160354 0.961175
Si Si5 0.961311 0.099654 0.159710
Si Si6 0.750000 0.750000 0.500000
Si Si7 0.250000 0.750000 0.500000
O O1 0.524731 0.806203 0.656946
O O2 0.491637 0.671870 0.759755
O O3 0.646542 0.696895 0.574995
O O4 0.357395 0.701561 0.577100
O O5 0.408397 0.559224 0.320158
O O6 0.689857 0.558209 0.316582
O O7 0.565745 0.635012 0.163034
O O8 0.185213 0.941389 0.805080
O O9 0.404820 0.042949 0.817302
O O10 0.080416 0.250000 0.000000
O O11 0.250000 0.136370 0.000000
O O12 0.966707 0.121090 0.034989
#
# Coordination Sequence:
#
# PCOD9397615 Si02
#       7
#     8   8   8   8   8   2   2
#     4  11  22  43  69  90 121 158 210 264 312 371
#     4  11  22  41  63  91 129 168 204 258 301 368
#     4  10  24  37  60  93 130 168 208 245 312 363
#     4  11  22  36  62  99 126 172 214 253 296 368
#     4  11  22  41  63  91 129 168 204 258 301 368
#     4  10  24  34  68  98 108 150 216 260 312 380
#     4  10  24  42  68 102 116 150 212 276 328 356
#
# _framework density 22.379857999999999
#
# number of rings (size 3 to 8) (size 9 to 14) (size 15 to 20)
#    0.000    1.273    3.636    2.182    0.000    5.091 
#    0.000    0.909    0.000   76.364    0.000    0.000 
#    0.000    0.000    0.000    0.000    0.000    0.000 
#
# Total GULP energy -245594.772890 kJ/mol
# GULP energy per Si atom -5581.699384 kJ/mol
# Density = 2.232892 g / cm^3
# Si number density = 22.379858 Si / 1000 Ang^3
#
#
#
# Elastic Constant Matrix: (Units=GPa)
#
#
# Indices 1 2 3 4 5 6 
#
# 1 137.6701 34.3327 16.7609 0.0000 0.0000 0.0000
# 2 34.3327 111.3847 14.6784 0.0000 0.0000 0.0000
# 3 16.7609 14.6784 63.5298 0.0000 0.0000 0.0000
# 4 0.0000 0.0000 0.0000 9.3765 0.0000 0.0000
# 5 0.0000 0.0000 0.0000 0.0000 -10.3860 0.0000
# 6 0.0000 0.0000 0.0000 0.0000 0.0000 279.9009
#
#
#
# Elastic Compliance Matrix: (Units=1/GPa)
#
#
# Indices 1 2 3 4 5 6 
#
# 1 0.008022 -0.002263 -0.001594 0.000000 0.000000 0.000000
# 2 -0.002263 0.009898 -0.001690 0.000000 0.000000 0.000000
# 3 -0.001594 -0.001690 0.016552 0.000000 0.000000 0.000000
# 4 0.000000 0.000000 0.000000 0.106650 0.000000 0.000000
# 5 0.000000 0.000000 0.000000 0.000000 -0.096284 0.000000
# 6 0.000000 0.000000 0.000000 0.000000 0.000000 0.003573
#
#
# Mechanical properties :
#
#
# Convention : Reuss Voigt Hill
#
# Bulk Modulus (GPa) = 42.77330 49.34761 46.06046
# Shear Modulus (GPa) = 74.29844 72.23246 73.26545
#
# Velocity S-wave (km/s) = 5.76809 5.68733 5.72785
# Velocity P-wave (km/s) = 7.96963 8.07623 8.02311
#
# Compressibility (1/GPa) = 0.02337907
#
# Stress axis : x y z
#
# Youngs Moduli (GPa) = 124.65667 101.03023 60.41726
#
# Poissons Ratio (x) = 0.22860 0.09628
# Poissons Ratio (y) = 0.28206 0.10210
# Poissons Ratio (z) = 0.19866 0.17074
#
# Static dielectric constant tensor:
#      x y z
#    x 1.859970 0.000000 0.000000 
#    y 0.000000 1.863100 0.000000 
#    z 0.000000 0.000000 1.823000 
# 
# From -- ./inp_files/24919.got.cif
#   From: 2010.05.17/outbox.cif.g08.bks.cpg/sg50_13_cif.got.tgz:24919.got - 2010.06.03 11:33:33.
