data_PCOD9397899
_publ_section_title
;
Structure prediction by ZEFSAII (Michael W. Deem and Ramdas Pophale) SiO2 
 PCOD9397899
Probable space group: P B A N
;
_chemical_formula_sum "Si O2"
_cell_formula_units_Z 50
_cell_length_a 17.798529
_cell_length_b 14.893304
_cell_length_c 9.223427
_cell_angle_alpha 90.000000
_cell_angle_beta 90.000000
_cell_angle_gamma 90.000000
_cell_volume 2444.935912
_symmetry_space_group_name_H-M "P B A N"
_symmetry_group_IT_number 50
_space_group.IT_coordinate_system_code '2'
_symmetry_cell_setting 'orthorhombic'
loop_
_space_group_symop_operation_xyz
x,y,z
1/2-x,1/2-y,z
x,1/2-y,-z
1/2-x,y,-z
-x,-y,-z
1/2+x,1/2+y,-z
-x,1/2+y,z
1/2+x,-y,z
loop_
_atom_site_type_symbol
_atom_site_label
_atom_site_fract_x
_atom_site_fract_y
_atom_site_fract_z
Si Si1 0.836078 0.487982 0.451540
Si Si2 0.519429 0.713076 0.167899
Si Si3 0.840023 0.506997 0.000425
Si Si4 0.250000 0.750000 0.000000
Si Si5 0.137323 0.649848 0.790960
Si Si6 0.436654 0.490344 0.733560
Si Si7 0.913027 0.889608 0.772827
O O1 0.750000 0.495095 0.500000
O O2 0.844265 0.394201 0.363273
O O3 0.899216 0.497973 0.576108
O O4 0.855003 0.567378 0.339353
O O5 0.432245 0.716493 0.214298
O O6 0.542140 0.611879 0.217596
O O7 0.568776 0.786082 0.251283
O O8 0.520315 0.750000 0.000000
O O9 0.879623 0.435560 0.106751
O O10 0.874374 0.597454 0.069167
O O11 0.750000 0.506317 0.000000
O O12 0.870203 0.484476 0.843382
O O13 0.201886 0.692799 0.887450
O O14 0.508656 0.554656 0.756821
#
# Coordination Sequence:
#
# PCOD9397899 Si02
#       7
#     8   8   8   2   8   8   8
#     4  11  26  48  68 100 141 191 238 292 369 434
#     4  12  23  41  69 108 135 175 248 300 350 429
#     4  11  21  40  68 100 137 187 230 289 361 424
#     4  12  24  40  70 112 140 182 232 300 392 440
#     4  11  24  41  70 102 141 180 231 300 365 441
#     4  12  23  43  70  97 140 183 238 294 354 434
#     4  11  24  42  69 102 137 188 239 292 360 432
#
# _framework density 20.450431999999999
#
# number of rings (size 3 to 8) (size 9 to 14) (size 15 to 20)
#    0.000    0.640    6.400    3.840    0.000    0.640 
#    0.000    6.800    0.000    0.000    0.000    0.000 
#    0.000    0.000    0.000    0.000    0.000    0.000 
#
# Total GULP energy -278773.500176 kJ/mol
# GULP energy per Si atom -5575.470004 kJ/mol
# Density = 2.040389 g / cm^3
# Si number density = 20.450432 Si / 1000 Ang^3
#
#
#
# Elastic Constant Matrix: (Units=GPa)
#
#
# Indices 1 2 3 4 5 6 
#
# 1 91.7999 24.7879 35.4056 0.0000 0.0000 0.0000
# 2 24.7879 68.6625 12.1058 0.0000 0.0000 0.0000
# 3 35.4056 12.1058 105.1504 0.0000 0.0000 0.0000
# 4 0.0000 0.0000 0.0000 18.5757 0.0000 0.0000
# 5 0.0000 0.0000 0.0000 0.0000 42.1389 0.0000
# 6 0.0000 0.0000 0.0000 0.0000 0.0000 59.3815
#
#
#
# Elastic Compliance Matrix: (Units=1/GPa)
#
#
# Indices 1 2 3 4 5 6 
#
# 1 0.013605 -0.004189 -0.004099 0.000000 0.000000 0.000000
# 2 -0.004189 0.016155 -0.000449 0.000000 0.000000 0.000000
# 3 -0.004099 -0.000449 0.010942 0.000000 0.000000 0.000000
# 4 0.000000 0.000000 0.000000 0.053834 0.000000 0.000000
# 5 0.000000 0.000000 0.000000 0.000000 0.023731 0.000000
# 6 0.000000 0.000000 0.000000 0.000000 0.000000 0.016840
#
#
# Mechanical properties :
#
#
# Convention : Reuss Voigt Hill
#
# Bulk Modulus (GPa) = 43.05096 45.57905 44.31501
# Shear Modulus (GPa) = 31.18666 36.90680 34.04673
#
# Velocity S-wave (km/s) = 3.90935 4.25278 4.08467
# Velocity P-wave (km/s) = 6.44006 6.81548 6.63043
#
# Compressibility (1/GPa) = 0.02322828
#
# Stress axis : x y z
#
# Youngs Moduli (GPa) = 73.50136 61.89847 91.39052
#
# Poissons Ratio (x) = 0.25929 0.37459
# Poissons Ratio (y) = 0.30789 0.04108
# Poissons Ratio (z) = 0.30127 0.02782
#
# Static dielectric constant tensor:
#      x y z
#    x 1.752460 0.000000 0.000000 
#    y 0.000000 1.850240 0.000000 
#    z 0.000000 0.000000 1.789780 
# 
# From -- ./inp_files/14272.got.cif
#   From: 2010.05.17/outbox.cif.g08.bks.cpg/sg50_8_cif.got.tgz:14272.got - 2010.06.03 11:33:33.
