data_PCOD9397174
_publ_section_title
;
Structure prediction by ZEFSAII (Michael W. Deem and Ramdas Pophale) SiO2 
 PCOD9397174
Probable space group: P B A N
;
_chemical_formula_sum "Si O2"
_cell_formula_units_Z 48
_cell_length_a 27.675645
_cell_length_b 9.876523
_cell_length_c 8.821564
_cell_angle_alpha 90.000000
_cell_angle_beta 90.000000
_cell_angle_gamma 90.000000
_cell_volume 2411.278756
_symmetry_space_group_name_H-M "P B A N"
_symmetry_group_IT_number 50
_space_group.IT_coordinate_system_code '2'
_symmetry_cell_setting 'orthorhombic'
loop_
_space_group_symop_operation_xyz
x,y,z
1/2-x,1/2-y,z
x,1/2-y,-z
1/2-x,y,-z
-x,-y,-z
1/2+x,1/2+y,-z
-x,1/2+y,z
1/2+x,-y,z
loop_
_atom_site_type_symbol
_atom_site_label
_atom_site_fract_x
_atom_site_fract_y
_atom_site_fract_z
Si Si1 0.639254 0.255030 0.828052
Si Si2 0.196608 0.283359 0.322315
Si Si3 0.956522 0.281960 0.676292
Si Si4 0.023689 0.495610 0.835288
Si Si5 0.634899 0.560999 0.845490
Si Si6 0.702529 0.482939 0.110173
O O1 0.599271 0.189557 0.720358
O O2 0.647141 0.410420 0.780036
O O3 0.687876 0.170081 0.849693
O O4 0.617428 0.250000 0.000000
O O5 0.250000 0.250000 0.261711
O O6 0.194663 0.250000 0.500000
O O7 0.158239 0.184890 0.243585
O O8 0.196293 0.437985 0.268668
O O9 0.960987 0.250000 0.500000
O O10 0.990523 0.403892 0.727892
O O11 0.970564 0.146392 0.768893
O O12 0.077304 0.432888 0.848786
O O13 0.000000 0.500000 0.000000
O O14 0.660145 0.550469 0.008651
O O15 0.750000 0.491322 0.000000
#
# Coordination Sequence:
#
# PCOD9397174 Si02
#       6
#     8   8   8   8   8   8
#     4   9  21  40  62  93 123 159 208 261 313 372
#     4  11  24  41  58  85 126 163 201 256 312 373
#     4  11  23  40  63  93 132 169 210 266 327 383
#     4  11  23  41  64  93 128 169 216 267 316 384
#     4  10  22  39  63  92 120 161 210 254 315 374
#     4  11  21  38  64  91 115 158 209 257 312 370
#
# _framework density 19.906448999999999
#
# number of rings (size 3 to 8) (size 9 to 14) (size 15 to 20)
#    0.000    1.500    1.667    4.500    0.000   10.333 
#    0.000    0.000    0.000    2.000    0.000    0.000 
#    0.000    0.000    0.000    0.000    0.000    0.000 
#
# Total GULP energy -267653.281171 kJ/mol
# GULP energy per Si atom -5576.110024 kJ/mol
# Density = 1.986114 g / cm^3
# Si number density = 19.906449 Si / 1000 Ang^3
#
#
#
# Elastic Constant Matrix: (Units=GPa)
#
#
# Indices 1 2 3 4 5 6 
#
# 1 76.4776 53.2875 20.8488 0.0000 0.0000 0.0000
# 2 53.2875 77.9529 23.6208 0.0000 0.0000 0.0000
# 3 20.8488 23.6208 67.1075 0.0000 0.0000 0.0000
# 4 0.0000 0.0000 0.0000 28.1763 0.0000 0.0000
# 5 0.0000 0.0000 0.0000 0.0000 19.3501 0.0000
# 6 0.0000 0.0000 0.0000 0.0000 0.0000 27.8492
#
#
#
# Elastic Compliance Matrix: (Units=1/GPa)
#
#
# Indices 1 2 3 4 5 6 
#
# 1 0.025200 -0.016628 -0.001976 0.000000 0.000000 0.000000
# 2 -0.016628 0.025331 -0.003750 0.000000 0.000000 0.000000
# 3 -0.001976 -0.003750 0.016836 0.000000 0.000000 0.000000
# 4 0.000000 0.000000 0.000000 0.035491 0.000000 0.000000
# 5 0.000000 0.000000 0.000000 0.000000 0.051679 0.000000
# 6 0.000000 0.000000 0.000000 0.000000 0.000000 0.035908
#
#
# Mechanical properties :
#
#
# Convention : Reuss Voigt Hill
#
# Bulk Modulus (GPa) = 44.13447 46.33913 45.23680
# Shear Modulus (GPa) = 20.60104 23.32718 21.96411
#
# Velocity S-wave (km/s) = 3.22046 3.42693 3.32530
# Velocity P-wave (km/s) = 6.00397 6.24399 6.12515
#
# Compressibility (1/GPa) = 0.02265802
#
# Stress axis : x y z
#
# Youngs Moduli (GPa) = 39.68216 39.47716 59.39807
#
# Poissons Ratio (x) = 0.65641 0.11740
# Poissons Ratio (y) = 0.65982 0.22276
# Poissons Ratio (z) = 0.07843 0.14805
#
# Static dielectric constant tensor:
#      x y z
#    x 1.716970 0.000000 0.000000 
#    y 0.000000 -2.267900 0.000000 
#    z 0.000000 0.000000 1.757730 
# 
# From -- ./inp_files/16944.got.cif
#   From: 2010.05.17/outbox.cif.g08.bks.cpg/sg50_9_cif.got.tgz:16944.got - 2010.06.03 11:33:33.
