data_PCOD9397329
_publ_section_title
;
Structure prediction by ZEFSAII (Michael W. Deem and Ramdas Pophale) SiO2 
 PCOD9397329
Probable space group: P B A N
;
_chemical_formula_sum "Si O2"
_cell_formula_units_Z 38
_cell_length_a 14.284621
_cell_length_b 19.700005
_cell_length_c 5.558618
_cell_angle_alpha 90.000000
_cell_angle_beta 90.000000
_cell_angle_gamma 90.000000
_cell_volume 1564.234600
_symmetry_space_group_name_H-M "P B A N"
_symmetry_group_IT_number 50
_space_group.IT_coordinate_system_code '2'
_symmetry_cell_setting 'orthorhombic'
loop_
_space_group_symop_operation_xyz
x,y,z
1/2-x,1/2-y,z
x,1/2-y,-z
1/2-x,y,-z
-x,-y,-z
1/2+x,1/2+y,-z
-x,1/2+y,z
1/2+x,-y,z
loop_
_atom_site_type_symbol
_atom_site_label
_atom_site_fract_x
_atom_site_fract_y
_atom_site_fract_z
Si Si1 0.636221 0.028123 0.473134
Si Si2 0.856126 0.534127 0.975708
Si Si3 0.085167 0.836733 0.199797
Si Si4 0.913888 0.674261 0.090130
Si Si5 0.555992 0.750000 0.500000
Si Si6 0.250000 0.750000 0.000000
O O1 0.750000 0.029981 0.500000
O O2 0.606687 0.981790 0.244085
O O3 0.601256 0.101085 0.378658
O O4 0.603965 0.000226 0.733961
O O5 0.859073 0.615208 0.956427
O O6 0.750000 0.508757 0.000000
O O7 0.015237 0.783153 0.314598
O O8 0.182109 0.799777 0.146469
O O9 0.022863 0.849533 0.958327
O O10 0.893660 0.687145 0.371588
O O11 0.887741 0.750000 0.000000
#
# Coordination Sequence:
#
# PCOD9397329 Si02
#       6
#     8   8   8   8   4   2
#     4  10  25  42  67  98 139 175 231 286 337 411
#     4  10  24  46  69  99 133 182 228 285 344 409
#     4  11  25  40  65  96 136 182 227 284 344 418
#     4  10  23  44  67  96 138 172 231 288 344 408
#     4  10  22  43  60 101 132 178 226 294 335 413
#     4  12  24  42  64 100 136 192 232 280 370 420
#
# _framework density 24.293030000000002
#
# number of rings (size 3 to 8) (size 9 to 14) (size 15 to 20)
#    0.000    1.684    3.158    0.000   16.211    2.105 
#    0.000    0.000    0.000    0.000    0.000    0.000 
#    0.000    0.000    0.000    0.000    0.000    0.000 
#
# Total GULP energy -211657.246577 kJ/mol
# GULP energy per Si atom -5569.927541 kJ/mol
# Density = 2.423774 g / cm^3
# Si number density = 24.293030 Si / 1000 Ang^3
#
#
#
# Elastic Constant Matrix: (Units=GPa)
#
#
# Indices 1 2 3 4 5 6 
#
# 1 41.5727 -3.2442 11.8745 0.0000 0.0000 0.0000
# 2 -3.2442 121.6208 71.4246 0.0000 0.0000 0.0000
# 3 11.8745 71.4246 162.8348 0.0000 0.0000 0.0000
# 4 0.0000 0.0000 0.0000 -190.1279 0.0000 0.0000
# 5 0.0000 0.0000 0.0000 0.0000 -3.2041 0.0000
# 6 0.0000 0.0000 0.0000 0.0000 0.0000 94.2200
#
#
#
# Elastic Compliance Matrix: (Units=1/GPa)
#
#
# Indices 1 2 3 4 5 6 
#
# 1 0.025053 0.002345 -0.002856 0.000000 0.000000 0.000000
# 2 0.002345 0.011295 -0.005125 0.000000 0.000000 0.000000
# 3 -0.002856 -0.005125 0.008598 0.000000 0.000000 0.000000
# 4 0.000000 0.000000 0.000000 -0.005260 0.000000 0.000000
# 5 0.000000 0.000000 0.000000 0.000000 -0.312102 0.000000
# 6 0.000000 0.000000 0.000000 0.000000 0.000000 0.010613
#
#
# Mechanical properties :
#
#
# Convention : Reuss Voigt Hill
#
# Bulk Modulus (GPa) = 29.69645 54.01534 41.85590
# Shear Modulus (GPa) = -20.89372 -3.42417 -12.15894
#
# Velocity S-wave (km/s) = -2.93588 -1.18852 -2.23964
# Velocity P-wave (km/s) = 0.87081 4.51661 3.25254
#
# Compressibility (1/GPa) = 0.03367406
#
# Stress axis : x y z
#
# Youngs Moduli (GPa) = 39.91542 88.53644 116.31211
#
# Poissons Ratio (x) = -0.20765 0.33215
# Poissons Ratio (y) = -0.09362 0.59613
# Poissons Ratio (z) = 0.11399 0.45377
#
# Static dielectric constant tensor:
#      x y z
#    x 1.957580 0.000000 0.000000 
#    y 0.000000 2.266630 0.000000 
#    z 0.000000 0.000000 -8.634400 
# 
# From -- ./inp_files/4240.got.cif
#   From: 2010.05.17/outbox.cif.g08.bks.cpg/sg50_3_cif.got.tgz:4240.got - 2010.06.03 11:33:33.
