data_PCOD9397688
_publ_section_title
;
Structure prediction by ZEFSAII (Michael W. Deem and Ramdas Pophale) SiO2 
 PCOD9397688
Probable space group: P B A N
;
_chemical_formula_sum "Si O2"
_cell_formula_units_Z 32
_cell_length_a 8.903723
_cell_length_b 10.538245
_cell_length_c 12.808971
_cell_angle_alpha 90.000000
_cell_angle_beta 90.000000
_cell_angle_gamma 90.000000
_cell_volume 1201.860810
_symmetry_space_group_name_H-M "P B A N"
_symmetry_group_IT_number 50
_space_group.IT_coordinate_system_code '2'
_symmetry_cell_setting 'orthorhombic'
loop_
_space_group_symop_operation_xyz
x,y,z
1/2-x,1/2-y,z
x,1/2-y,-z
1/2-x,y,-z
-x,-y,-z
1/2+x,1/2+y,-z
-x,1/2+y,z
1/2+x,-y,z
loop_
_atom_site_type_symbol
_atom_site_label
_atom_site_fract_x
_atom_site_fract_y
_atom_site_fract_z
Si Si1 0.995488 0.778990 0.877287
Si Si2 0.154601 0.870419 0.684244
Si Si3 0.815041 0.620180 0.382732
Si Si4 0.625270 0.472603 0.914958
O O1 0.115561 0.855314 0.806763
O O2 0.046190 0.634421 0.841084
O O3 0.003451 0.750000 0.000000
O O4 0.856653 0.882356 0.868730
O O5 0.250000 0.750000 0.647844
O O6 0.994753 0.876358 0.625490
O O7 0.248769 0.995847 0.668891
O O8 0.750000 0.750000 0.335108
O O9 0.750000 0.616004 0.500000
O O10 0.750000 0.429992 0.000000
O O11 0.500000 0.500000 0.000000
#
# Coordination Sequence:
#
# PCOD9397688 Si02
#       4
#     8   8   8   8
#     4  10  26  45  74 110 167 221 275 332 401 476
#     4  12  28  48  84 124 169 217 279 342 421 512
#     4  11  27  54  85 122 165 210 277 352 432 501
#     4  10  24  44  69 101 148 213 279 329 388 459
#
# _framework density 26.62538
#
# number of rings (size 3 to 8) (size 9 to 14) (size 15 to 20)
#    0.000    1.250    0.000    2.250   14.000    8.000 
#    4.500    0.000    0.000    0.000    0.000    0.000 
#    0.000    0.000    0.000    0.000    0.000    0.000 
#
# Total GULP energy -178307.754346 kJ/mol
# GULP energy per Si atom -5572.117323 kJ/mol
# Density = 2.656478 g / cm^3
# Si number density = 26.625380 Si / 1000 Ang^3
#
#
#
# Elastic Constant Matrix: (Units=GPa)
#
#
# Indices 1 2 3 4 5 6 
#
# 1 124.7148 66.8803 45.1996 0.0000 0.0000 0.0000
# 2 66.8803 300.3872 63.3238 0.0000 0.0000 0.0000
# 3 45.1996 63.3238 119.5306 0.0000 0.0000 0.0000
# 4 0.0000 0.0000 0.0000 30.9826 0.0000 0.0000
# 5 0.0000 0.0000 0.0000 0.0000 33.2886 0.0000
# 6 0.0000 0.0000 0.0000 0.0000 0.0000 40.5757
#
#
#
# Elastic Compliance Matrix: (Units=1/GPa)
#
#
# Indices 1 2 3 4 5 6 
#
# 1 0.009929 -0.001598 -0.002908 0.000000 0.000000 0.000000
# 2 -0.001598 0.004005 -0.001517 0.000000 0.000000 0.000000
# 3 -0.002908 -0.001517 0.010270 0.000000 0.000000 0.000000
# 4 0.000000 0.000000 0.000000 0.032276 0.000000 0.000000
# 5 0.000000 0.000000 0.000000 0.000000 0.030040 0.000000
# 6 0.000000 0.000000 0.000000 0.000000 0.000000 0.024645
#
#
# Mechanical properties :
#
#
# Convention : Reuss Voigt Hill
#
# Bulk Modulus (GPa) = 82.25819 99.49334 90.87577
# Shear Modulus (GPa) = 39.28844 45.58463 42.43653
#
# Velocity S-wave (km/s) = 3.84552 4.14221 3.99662
# Velocity P-wave (km/s) = 7.11893 7.76699 7.45001
#
# Compressibility (1/GPa) = 0.01215684
#
# Stress axis : x y z
#
# Youngs Moduli (GPa) = 100.71461 249.71170 97.37419
#
# Poissons Ratio (x) = 0.39894 0.28319
# Poissons Ratio (y) = 0.16090 0.14776
# Poissons Ratio (z) = 0.29290 0.37891
#
# Static dielectric constant tensor:
#      x y z
#    x 2.249280 0.000000 0.000000 
#    y 0.000000 2.329150 0.000000 
#    z 0.000000 0.000000 2.072830 
# 
# From -- ./inp_files/24346.got.cif
#   From: 2010.05.17/outbox.cif.g08.bks.cpg/sg50_13_cif.got.tgz:24346.got - 2010.06.03 11:33:33.
