data_PCOD9397146
_publ_section_title
;
Structure prediction by ZEFSAII (Michael W. Deem and Ramdas Pophale) SiO2 
 PCOD9397146
Probable space group: P B A N
;
_chemical_formula_sum "Si O2"
_cell_formula_units_Z 38
_cell_length_a 5.214705
_cell_length_b 12.195042
_cell_length_c 25.377667
_cell_angle_alpha 90.000000
_cell_angle_beta 90.000000
_cell_angle_gamma 90.000000
_cell_volume 1613.855846
_symmetry_space_group_name_H-M "P B A N"
_symmetry_group_IT_number 50
_space_group.IT_coordinate_system_code '2'
_symmetry_cell_setting 'orthorhombic'
loop_
_space_group_symop_operation_xyz
x,y,z
1/2-x,1/2-y,z
x,1/2-y,-z
1/2-x,y,-z
-x,-y,-z
1/2+x,1/2+y,-z
-x,1/2+y,z
1/2+x,-y,z
loop_
_atom_site_type_symbol
_atom_site_label
_atom_site_fract_x
_atom_site_fract_y
_atom_site_fract_z
Si Si1 0.097878 0.422693 0.082575
Si Si2 0.287652 0.428900 0.190173
Si Si3 0.501253 0.550393 0.440770
Si Si4 0.750000 0.750000 0.606076
Si Si5 0.213951 0.427713 0.691638
Si Si6 0.750000 0.750000 0.000000
O O1 0.336128 0.508240 0.077970
O O2 0.170189 0.368634 0.139384
O O3 0.094749 0.330832 0.038062
O O4 0.584408 0.468093 0.187375
O O5 0.278777 0.380772 0.248740
O O6 0.500000 0.500000 0.500000
O O7 0.230845 0.520517 0.417017
O O8 0.569132 0.677037 0.432012
O O9 0.855095 0.838082 0.647692
O O10 0.499761 0.477617 0.687497
#
# Coordination Sequence:
#
# PCOD9397146 Si02
#       6
#     8   8   8   4   8   2
#     4  10  22  39  58  83 116 158 205 255 312 369
#     4   8  16  35  58  80 118 160 195 246 305 366
#     4  10  24  45  65  92 124 159 206 247 288 351
#     4  12  24  40  70  96 128 168 198 252 312 352
#     4  10  22  39  61  95 129 159 202 251 304 371
#     4  12  24  36  60  84 116 156 208 266 312 362
#
# _framework density 23.546094
#
# number of rings (size 3 to 8) (size 9 to 14) (size 15 to 20)
#    0.000    2.105    0.000    1.895    0.000    7.579 
#    0.000    4.211    0.000   15.158    0.000    0.000 
#    0.000    0.000    0.000    0.000    0.000    0.000 
#
# Total GULP energy -211649.205245 kJ/mol
# GULP energy per Si atom -5569.715927 kJ/mol
# Density = 2.349250 g / cm^3
# Si number density = 23.546094 Si / 1000 Ang^3
#
#
#
# Elastic Constant Matrix: (Units=GPa)
#
#
# Indices 1 2 3 4 5 6 
#
# 1 147.6527 28.2390 17.4241 0.0000 0.0000 0.0000
# 2 28.2390 102.4224 53.1064 0.0000 0.0000 0.0000
# 3 17.4241 53.1064 170.8459 0.0000 0.0000 0.0000
# 4 0.0000 0.0000 0.0000 -3.7569 0.0000 0.0000
# 5 0.0000 0.0000 0.0000 0.0000 6.9591 0.0000
# 6 0.0000 0.0000 0.0000 0.0000 0.0000 6.2140
#
#
#
# Elastic Compliance Matrix: (Units=1/GPa)
#
#
# Indices 1 2 3 4 5 6 
#
# 1 0.007152 -0.001900 -0.000139 0.000000 0.000000 0.000000
# 2 -0.001900 0.012144 -0.003581 0.000000 0.000000 0.000000
# 3 -0.000139 -0.003581 0.006981 0.000000 0.000000 0.000000
# 4 0.000000 0.000000 0.000000 -0.266177 0.000000 0.000000
# 5 0.000000 0.000000 0.000000 0.000000 0.143697 0.000000
# 6 0.000000 0.000000 0.000000 0.000000 0.000000 0.160928
#
#
# Mechanical properties :
#
#
# Convention : Reuss Voigt Hill
#
# Bulk Modulus (GPa) = 66.50205 68.71777 67.60991
# Shear Modulus (GPa) = 61.74557 23.36000 42.55279
#
# Velocity S-wave (km/s) = 5.12642 3.15317 4.25574
# Velocity P-wave (km/s) = 7.95895 6.51954 7.27493
#
# Compressibility (1/GPa) = 0.01503713
#
# Stress axis : x y z
#
# Youngs Moduli (GPa) = 139.81292 82.34392 143.25469
#
# Poissons Ratio (x) = 0.15645 0.01989
# Poissons Ratio (y) = 0.26564 0.51302
# Poissons Ratio (z) = 0.01941 0.29489
#
# Static dielectric constant tensor:
#      x y z
#    x 1.881290 0.000000 0.000000 
#    y 0.000000 1.912670 0.000000 
#    z 0.000000 0.000000 1.577800 
# 
# From -- ./inp_files/31955.got.cif
#   From: 2010.05.17/outbox.cif.g08.bks.cpg/sg50_16_cif.got.tgz:31955.got - 2010.06.03 11:33:33.
