data_PCOD9397468
_publ_section_title
;
Structure prediction by ZEFSAII (Michael W. Deem and Ramdas Pophale) SiO2 
 PCOD9397468
Probable space group: P B A N
;
_chemical_formula_sum "Si O2"
_cell_formula_units_Z 24
_cell_length_a 25.518674
_cell_length_b 5.170018
_cell_length_c 7.874112
_cell_angle_alpha 90.000000
_cell_angle_beta 90.000000
_cell_angle_gamma 90.000000
_cell_volume 1038.847375
_symmetry_space_group_name_H-M "P B A N"
_symmetry_group_IT_number 50
_space_group.IT_coordinate_system_code '2'
_symmetry_cell_setting 'orthorhombic'
loop_
_space_group_symop_operation_xyz
x,y,z
1/2-x,1/2-y,z
x,1/2-y,-z
1/2-x,y,-z
-x,-y,-z
1/2+x,1/2+y,-z
-x,1/2+y,z
1/2+x,-y,z
loop_
_atom_site_type_symbol
_atom_site_label
_atom_site_fract_x
_atom_site_fract_y
_atom_site_fract_z
Si Si1 0.020192 0.430706 0.309673
Si Si2 0.809565 0.286214 0.702955
Si Si3 0.628262 0.782593 0.196750
O O1 0.076814 0.300801 0.300932
O O2 0.000000 0.500000 0.500000
O O3 0.017918 0.715511 0.228377
O O4 0.750000 0.250000 0.763836
O O5 0.810133 0.250000 0.500000
O O6 0.828481 0.570916 0.751903
O O7 0.848739 0.066784 0.772239
O O8 0.614846 0.750000 0.000000
#
# Coordination Sequence:
#
# PCOD9397468 Si02
#       3
#     8   8   8
#     4  10  23  40  65  98 131 185 229 280 336 410
#     4  11  26  46  72 102 137 185 234 280 340 425
#     4  12  26  43  71 106 141 179 229 292 353 409
#
# _framework density 23.102526000000001
#
# number of rings (size 3 to 8) (size 9 to 14) (size 15 to 20)
#    0.000    1.000    0.000    5.000   14.000    8.000 
#    0.000    0.000    0.000    0.000    0.000    0.000 
#    0.000    0.000    0.000    0.000    0.000    0.000 
#
# Total GULP energy -134214.007929 kJ/mol
# GULP energy per Si atom -5592.250330 kJ/mol
# Density = 2.304994 g / cm^3
# Si number density = 23.102526 Si / 1000 Ang^3
#
#
#
# Elastic Constant Matrix: (Units=GPa)
#
#
# Indices 1 2 3 4 5 6 
#
# 1 102.3495 -20.7610 3.9949 0.0000 0.0000 0.0000
# 2 -20.7610 97.3249 -23.0452 0.0000 0.0000 0.0000
# 3 3.9949 -23.0452 87.8495 0.0000 0.0000 0.0000
# 4 0.0000 0.0000 0.0000 25.6680 0.0000 0.0000
# 5 0.0000 0.0000 0.0000 0.0000 100.5778 0.0000
# 6 0.0000 0.0000 0.0000 0.0000 0.0000 47.8102
#
#
#
# Elastic Compliance Matrix: (Units=1/GPa)
#
#
# Indices 1 2 3 4 5 6 
#
# 1 0.010213 0.002206 0.000114 0.000000 0.000000 0.000000
# 2 0.002206 0.011432 0.002899 0.000000 0.000000 0.000000
# 3 0.000114 0.002899 0.012138 0.000000 0.000000 0.000000
# 4 0.000000 0.000000 0.000000 0.038959 0.000000 0.000000
# 5 0.000000 0.000000 0.000000 0.000000 0.009943 0.000000
# 6 0.000000 0.000000 0.000000 0.000000 0.000000 0.020916
#
#
# Mechanical properties :
#
#
# Convention : Reuss Voigt Hill
#
# Bulk Modulus (GPa) = 22.61407 23.10013 22.85710
# Shear Modulus (GPa) = 46.33741 56.63355 51.48548
#
# Velocity S-wave (km/s) = 4.48340 4.95653 4.72589
# Velocity P-wave (km/s) = 6.05070 6.54041 6.30031
#
# Compressibility (1/GPa) = 0.04422026
#
# Stress axis : x y z
#
# Youngs Moduli (GPa) = 97.91053 87.47593 82.38400
#
# Poissons Ratio (x) = -0.19295 -0.00941
# Poissons Ratio (y) = -0.21596 -0.23879
# Poissons Ratio (z) = -0.01118 -0.25355
#
# Static dielectric constant tensor:
#      x y z
#    x 1.886070 0.000000 0.000000 
#    y 0.000000 1.970440 0.000000 
#    z 0.000000 0.000000 1.938090 
# 
# From -- ./inp_files/7637.got.cif
#   From: 2010.05.17/outbox.cif.g08.bks.cpg/sg50_4_cif.got.tgz:7637.got - 2010.06.03 11:33:33.
