data_PCOD9397918
_publ_section_title
;
Structure prediction by ZEFSAII (Michael W. Deem and Ramdas Pophale) SiO2 
 PCOD9397918
Probable space group: P B A N
;
_chemical_formula_sum "Si O2"
_cell_formula_units_Z 64
_cell_length_a 29.288557
_cell_length_b 12.287340
_cell_length_c 8.361495
_cell_angle_alpha 90.000000
_cell_angle_beta 90.000000
_cell_angle_gamma 90.000000
_cell_volume 3009.121927
_symmetry_space_group_name_H-M "P B A N"
_symmetry_group_IT_number 50
_space_group.IT_coordinate_system_code '2'
_symmetry_cell_setting 'orthorhombic'
loop_
_space_group_symop_operation_xyz
x,y,z
1/2-x,1/2-y,z
x,1/2-y,-z
1/2-x,y,-z
-x,-y,-z
1/2+x,1/2+y,-z
-x,1/2+y,z
1/2+x,-y,z
loop_
_atom_site_type_symbol
_atom_site_label
_atom_site_fract_x
_atom_site_fract_y
_atom_site_fract_z
Si Si1 0.436209 0.533587 0.658609
Si Si2 0.659165 0.015440 0.806359
Si Si3 0.260535 0.374571 0.688237
Si Si4 0.322371 0.990564 0.816778
Si Si5 0.196750 0.749472 0.194609
Si Si6 0.005833 0.287270 0.684287
Si Si7 0.084744 0.462242 0.696872
Si Si8 0.511974 0.422106 0.851249
O O1 0.394504 0.505430 0.773819
O O2 0.456711 0.653096 0.677852
O O3 0.420391 0.505379 0.482037
O O4 0.481228 0.465778 0.703607
O O5 0.689020 0.921469 0.722074
O O6 0.673985 0.136985 0.749245
O O7 0.670171 0.009196 0.993686
O O8 0.250000 0.250000 0.739584
O O9 0.250000 0.380328 0.500000
O O10 0.225976 0.456149 0.777022
O O11 0.363093 0.058741 0.737231
O O12 0.323980 0.865630 0.755183
O O13 0.250000 0.750000 0.240399
O O14 0.194836 0.750000 0.000000
O O15 0.013097 0.250000 0.500000
O O16 0.049703 0.362771 0.720067
O O17 0.000548 0.202836 0.830077
O O18 0.064714 0.556040 0.812636
O O19 0.500000 0.500000 0.000000
#
# Coordination Sequence:
#
# PCOD9397918 Si02
#       8
#     8   8   8   8   8   8   8   8
#     4  11  23  39  63  97 129 171 222 274 340 408
#     4  11  23  41  67  99 132 170 223 281 342 404
#     4  11  25  46  67  92 131 178 224 275 334 403
#     4  11  23  42  66  99 134 171 225 278 338 406
#     4   9  18  37  64  93 129 168 206 273 342 390
#     4  11  21  43  69  91 133 185 223 278 348 408
#     4  11  23  40  64  95 132 175 224 273 339 416
#     4  11  23  42  64  94 128 167 223 286 331 402
#
# _framework density 21.268664000000001
#
# number of rings (size 3 to 8) (size 9 to 14) (size 15 to 20)
#    0.000    1.250    3.750    2.625    1.750    4.000 
#    4.500    3.750    0.000    0.000    0.000    0.000 
#    0.000    0.000    0.000    0.000    0.000    0.000 
#
# Total GULP energy -357176.134532 kJ/mol
# GULP energy per Si atom -5580.877102 kJ/mol
# Density = 2.122026 g / cm^3
# Si number density = 21.268664 Si / 1000 Ang^3
#
#
#
# Elastic Constant Matrix: (Units=GPa)
#
#
# Indices 1 2 3 4 5 6 
#
# 1 74.8947 3.3452 -8.5891 0.0000 0.0000 0.0000
# 2 3.3452 97.4424 18.7263 0.0000 0.0000 0.0000
# 3 -8.5891 18.7263 64.1809 0.0000 0.0000 0.0000
# 4 0.0000 0.0000 0.0000 28.4581 0.0000 0.0000
# 5 0.0000 0.0000 0.0000 0.0000 29.7770 0.0000
# 6 0.0000 0.0000 0.0000 0.0000 0.0000 18.9363
#
#
#
# Elastic Compliance Matrix: (Units=1/GPa)
#
#
# Indices 1 2 3 4 5 6 
#
# 1 0.013629 -0.000867 0.002077 0.000000 0.000000 0.000000
# 2 -0.000867 0.010927 -0.003304 0.000000 0.000000 0.000000
# 3 0.002077 -0.003304 0.016823 0.000000 0.000000 0.000000
# 4 0.000000 0.000000 0.000000 0.035139 0.000000 0.000000
# 5 0.000000 0.000000 0.000000 0.000000 0.033583 0.000000
# 6 0.000000 0.000000 0.000000 0.000000 0.000000 0.052809
#
#
# Mechanical properties :
#
#
# Convention : Reuss Voigt Hill
#
# Bulk Modulus (GPa) = 26.88868 29.27587 28.08227
# Shear Modulus (GPa) = 27.85579 30.30333 29.07956
#
# Velocity S-wave (km/s) = 3.62292 3.77873 3.70164
# Velocity P-wave (km/s) = 5.49277 5.73002 5.61265
#
# Compressibility (1/GPa) = 0.03719038
#
# Stress axis : x y z
#
# Youngs Moduli (GPa) = 73.37302 91.51428 59.44240
#
# Poissons Ratio (x) = 0.07934 -0.12346
# Poissons Ratio (y) = 0.06362 0.19642
# Poissons Ratio (z) = -0.15239 0.30239
#
# Static dielectric constant tensor:
#      x y z
#    x 1.713510 0.000000 0.000000 
#    y 0.000000 1.799690 0.000000 
#    z 0.000000 0.000000 1.773480 
# 
# From -- ./inp_files/17098.got.cif
#   From: 2010.05.17/outbox.cif.g08.bks.cpg/sg50_9_cif.got.tgz:17098.got - 2010.06.03 11:33:33.
