data_PCOD9397154
_publ_section_title
;
Structure prediction by ZEFSAII (Michael W. Deem and Ramdas Pophale) SiO2 
 PCOD9397154
Probable space group: P B A N
;
_chemical_formula_sum "Si O2"
_cell_formula_units_Z 52
_cell_length_a 9.723164
_cell_length_b 26.857939
_cell_length_c 10.389941
_cell_angle_alpha 90.000000
_cell_angle_beta 90.000000
_cell_angle_gamma 90.000000
_cell_volume 2713.272265
_symmetry_space_group_name_H-M "P B A N"
_symmetry_group_IT_number 50
_space_group.IT_coordinate_system_code '2'
_symmetry_cell_setting 'orthorhombic'
loop_
_space_group_symop_operation_xyz
x,y,z
1/2-x,1/2-y,z
x,1/2-y,-z
1/2-x,y,-z
-x,-y,-z
1/2+x,1/2+y,-z
-x,1/2+y,z
1/2+x,-y,z
loop_
_atom_site_type_symbol
_atom_site_label
_atom_site_fract_x
_atom_site_fract_y
_atom_site_fract_z
Si Si1 0.250000 0.883170 0.500000
Si Si2 0.909859 0.049435 0.701352
Si Si3 0.576605 0.141515 0.135890
Si Si4 0.258763 0.132063 0.144257
Si Si5 0.266360 0.451826 0.653379
Si Si6 0.011639 0.298233 0.909347
Si Si7 0.700347 0.198093 0.692187
O O1 0.149151 0.916991 0.415700
O O2 0.332610 0.845519 0.407761
O O3 0.891820 0.084274 0.827747
O O4 0.071528 0.039639 0.681316
O O5 0.822469 0.999311 0.696788
O O6 0.415299 0.148270 0.171109
O O7 0.677472 0.175389 0.219507
O O8 0.574605 0.159849 0.989167
O O9 0.220159 0.094509 0.257936
O O10 0.157089 0.178422 0.128892
O O11 0.250000 0.107798 0.000000
O O12 0.250000 0.443894 0.500000
O O13 0.926149 0.288409 0.782598
O O14 0.022344 0.250000 0.000000
O O15 0.750000 0.250000 0.635101
#
# Coordination Sequence:
#
# PCOD9397154 Si02
#       7
#     4   8   8   8   8   8   8
#     4  10  23  38  58  84 124 160 198 247 308 358
#     4  10  22  39  60  88 117 159 203 251 303 365
#     4   9  20  38  56  85 123 150 194 250 296 357
#     4   9  22  41  58  89 122 160 197 252 306 355
#     4  11  22  38  65  86 122 155 207 251 304 365
#     4  11  21  37  63  89 116 155 206 241 298 365
#     4  11  21  36  58  86 121 154 202 247 299 352
#
# _framework density 19.165050999999998
#
# number of rings (size 3 to 8) (size 9 to 14) (size 15 to 20)
#    0.000    1.846    2.308    1.154    2.154    4.000 
#    0.000   10.000    0.000    0.000    0.000    6.462 
#    0.000    0.000    0.000    0.000    0.000    0.000 
#
# Total GULP energy -290045.002076 kJ/mol
# GULP energy per Si atom -5577.788501 kJ/mol
# Density = 1.912143 g / cm^3
# Si number density = 19.165051 Si / 1000 Ang^3
#
#
#
# Elastic Constant Matrix: (Units=GPa)
#
#
# Indices 1 2 3 4 5 6 
#
# 1 69.3417 45.9580 21.7031 0.0000 0.0000 0.0000
# 2 45.9580 88.7575 43.4466 0.0000 0.0000 0.0000
# 3 21.7031 43.4466 65.0021 0.0000 0.0000 0.0000
# 4 0.0000 0.0000 0.0000 33.3100 0.0000 0.0000
# 5 0.0000 0.0000 0.0000 0.0000 14.7715 0.0000
# 6 0.0000 0.0000 0.0000 0.0000 0.0000 25.3148
#
#
#
# Elastic Compliance Matrix: (Units=1/GPa)
#
#
# Indices 1 2 3 4 5 6 
#
# 1 0.021963 -0.011567 0.000398 0.000000 0.000000 0.000000
# 2 -0.011567 0.022838 -0.011402 0.000000 0.000000 0.000000
# 3 0.000398 -0.011402 0.022872 0.000000 0.000000 0.000000
# 4 0.000000 0.000000 0.000000 0.030021 0.000000 0.000000
# 5 0.000000 0.000000 0.000000 0.000000 0.067698 0.000000
# 6 0.000000 0.000000 0.000000 0.000000 0.000000 0.039503
#
#
# Mechanical properties :
#
#
# Convention : Reuss Voigt Hill
#
# Bulk Modulus (GPa) = 44.38424 49.47965 46.93195
# Shear Modulus (GPa) = 19.41394 22.14551 20.77973
#
# Velocity S-wave (km/s) = 3.18620 3.40298 3.29637
# Velocity P-wave (km/s) = 6.06177 6.42760 6.24736
#
# Compressibility (1/GPa) = 0.02253052
#
# Stress axis : x y z
#
# Youngs Moduli (GPa) = 45.53059 43.78762 43.72128
#
# Poissons Ratio (x) = 0.50651 -0.01742
# Poissons Ratio (y) = 0.52667 0.49852
# Poissons Ratio (z) = -0.01814 0.49927
#
# Static dielectric constant tensor:
#      x y z
#    x 1.658240 0.000000 0.000000 
#    y 0.000000 1.675370 0.000000 
#    z 0.000000 0.000000 1.698120 
# 
# From -- ./inp_files/19366.got.cif
#   From: 2010.05.17/outbox.cif.g08.bks.cpg/sg50_10_cif.got.tgz:19366.got - 2010.06.03 11:33:33.
