data_PCOD9397543
_publ_section_title
;
Structure prediction by ZEFSAII (Michael W. Deem and Ramdas Pophale) SiO2 
 PCOD9397543
Probable space group: P B A N
;
_chemical_formula_sum "Si O2"
_cell_formula_units_Z 60
_cell_length_a 13.707013
_cell_length_b 14.193571
_cell_length_c 15.572694
_cell_angle_alpha 90.000000
_cell_angle_beta 90.000000
_cell_angle_gamma 90.000000
_cell_volume 3029.690388
_symmetry_space_group_name_H-M "P B A N"
_symmetry_group_IT_number 50
_space_group.IT_coordinate_system_code '2'
_symmetry_cell_setting 'orthorhombic'
loop_
_space_group_symop_operation_xyz
x,y,z
1/2-x,1/2-y,z
x,1/2-y,-z
1/2-x,y,-z
-x,-y,-z
1/2+x,1/2+y,-z
-x,1/2+y,z
1/2+x,-y,z
loop_
_atom_site_type_symbol
_atom_site_label
_atom_site_fract_x
_atom_site_fract_y
_atom_site_fract_z
Si Si1 0.150706 0.464567 0.618707
Si Si2 0.029818 0.646514 0.323253
Si Si3 0.428433 0.396560 0.861611
Si Si4 0.227470 0.360458 0.900203
Si Si5 0.001808 0.600652 0.126502
Si Si6 0.032739 0.862619 0.319340
Si Si7 0.502621 0.250000 0.000000
Si Si8 0.870855 0.526264 0.585194
O O1 0.081640 0.379765 0.650444
O O2 0.116994 0.558979 0.669110
O O3 0.130916 0.479701 0.517409
O O4 0.265449 0.447742 0.622809
O O5 0.035805 0.621876 0.222759
O O6 0.057563 0.754611 0.337429
O O7 0.095218 0.573458 0.376123
O O8 0.313029 0.410526 0.846527
O O9 0.472780 0.493850 0.894659
O O10 0.485508 0.368847 0.775486
O O11 0.443127 0.315693 0.933306
O O12 0.250000 0.250000 0.886628
O O13 0.115671 0.384051 0.879215
O O14 0.250000 0.383141 0.000000
O O15 0.052464 0.673901 0.061323
O O16 0.949729 0.897917 0.384602
#
# Coordination Sequence:
#
# PCOD9397543 Si02
#       8
#     8   8   8   8   8   8   4   8
#     4  10  23  43  65  92 126 162 204 254 312 376
#     4  11  22  39  63  94 125 162 206 257 307 367
#     4  12  23  39  64  92 126 165 209 259 312 359
#     4  11  20  38  60  88 117 159 212 257 296 362
#     4  12  23  39  64  92 126 165 209 259 312 359
#     4  11  22  39  63  94 125 162 206 257 307 367
#     4  12  22  41  60  95 126 164 212 257 304 367
#     4  10  23  43  65  92 126 162 204 254 312 376
#
# _framework density 19.804003999999999
#
# number of rings (size 3 to 8) (size 9 to 14) (size 15 to 20)
#    0.000    0.933    6.667    2.000    1.867    3.200 
#    0.000    2.667    0.000    1.600    0.000    0.000 
#    0.000    0.000    0.000    0.000    0.000    0.000 
#
# Total GULP energy -335013.390052 kJ/mol
# GULP energy per Si atom -5583.556501 kJ/mol
# Density = 1.975893 g / cm^3
# Si number density = 19.804004 Si / 1000 Ang^3
#
#
#
# Elastic Constant Matrix: (Units=GPa)
#
#
# Indices 1 2 3 4 5 6 
#
# 1 28.0161 -11.6236 -7.2378 0.0000 0.0000 0.0000
# 2 -11.6236 87.6982 6.3779 0.0000 0.0000 0.0000
# 3 -7.2378 6.3779 74.9487 0.0000 0.0000 0.0000
# 4 0.0000 0.0000 0.0000 -48.9327 0.0000 0.0000
# 5 0.0000 0.0000 0.0000 0.0000 15.8110 0.0000
# 6 0.0000 0.0000 0.0000 0.0000 0.0000 15.8720
#
#
#
# Elastic Compliance Matrix: (Units=1/GPa)
#
#
# Indices 1 2 3 4 5 6 
#
# 1 0.038570 0.004871 0.003310 0.000000 0.000000 0.000000
# 2 0.004871 0.012089 -0.000558 0.000000 0.000000 0.000000
# 3 0.003310 -0.000558 0.013710 0.000000 0.000000 0.000000
# 4 0.000000 0.000000 0.000000 -0.020436 0.000000 0.000000
# 5 0.000000 0.000000 0.000000 0.000000 0.063247 0.000000
# 6 0.000000 0.000000 0.000000 0.000000 0.000000 0.063004
#
#
# Mechanical properties :
#
#
# Convention : Reuss Voigt Hill
#
# Bulk Modulus (GPa) = 12.56043 18.41067 15.48555
# Shear Modulus (GPa) = 27.55192 10.09315 18.82253
#
# Velocity S-wave (km/s) = 3.73397 2.26000 3.08627
# Velocity P-wave (km/s) = 4.99461 4.01581 4.53171
#
# Compressibility (1/GPa) = 0.07961511
#
# Stress axis : x y z
#
# Youngs Moduli (GPa) = 25.92687 82.71988 72.94145
#
# Poissons Ratio (x) = -0.40296 -0.24145
# Poissons Ratio (y) = -0.12630 0.04072
# Poissons Ratio (z) = -0.08582 0.04618
#
# Static dielectric constant tensor:
#      x y z
#    x 1.710250 0.000000 0.000000 
#    y 0.000000 1.687890 0.000000 
#    z 0.000000 0.000000 1.720640 
# 
# From -- ./inp_files/26594.got.cif
#   From: 2010.05.17/outbox.cif.g08.bks.cpg/sg50_14_cif.got.tgz:26594.got - 2010.06.03 11:33:33.
