data_PCOD9397388
_publ_section_title
;
Structure prediction by ZEFSAII (Michael W. Deem and Ramdas Pophale) SiO2 
 PCOD9397388
Probable space group: P B A N
;
_chemical_formula_sum "Si O2"
_cell_formula_units_Z 44
_cell_length_a 32.236772
_cell_length_b 7.954674
_cell_length_c 8.312489
_cell_angle_alpha 90.000000
_cell_angle_beta 90.000000
_cell_angle_gamma 90.000000
_cell_volume 2131.596592
_symmetry_space_group_name_H-M "P B A N"
_symmetry_group_IT_number 50
_space_group.IT_coordinate_system_code '2'
_symmetry_cell_setting 'orthorhombic'
loop_
_space_group_symop_operation_xyz
x,y,z
1/2-x,1/2-y,z
x,1/2-y,-z
1/2-x,y,-z
-x,-y,-z
1/2+x,1/2+y,-z
-x,1/2+y,z
1/2+x,-y,z
loop_
_atom_site_type_symbol
_atom_site_label
_atom_site_fract_x
_atom_site_fract_y
_atom_site_fract_z
Si Si1 0.816858 0.250000 0.500000
Si Si2 0.678509 0.750000 0.000000
Si Si3 0.750000 0.991295 0.000000
Si Si4 0.250000 0.750000 0.260839
Si Si5 0.582939 0.750000 0.500000
Si Si6 0.448942 0.673479 0.173768
Si Si7 0.633496 0.512550 0.728888
Si Si8 0.023655 0.006032 0.667676
O O1 0.784947 0.333095 0.627443
O O2 0.840707 0.379399 0.382419
O O3 0.654047 0.641013 0.862573
O O4 0.711903 0.883836 0.929756
O O5 0.732482 0.108858 0.141257
O O6 0.611233 0.621958 0.593752
O O7 0.555708 0.656229 0.363760
O O8 0.404152 0.588633 0.187702
O O9 0.487276 0.548822 0.207664
O O10 0.454141 0.830873 0.295192
O O11 0.453786 0.750000 0.000000
O O12 0.000000 0.000000 0.500000
#
# Coordination Sequence:
#
# PCOD9397388 Si02
#       8
#     4   4   4   4   4   8   8   8
#     4  11  24  45  70 105 138 182 240 293 344 431
#     4  11  26  46  68 104 144 184 224 290 358 434
#     4  10  22  48  74 100 140 188 226 280 362 434
#     4  10  22  44  76 104 132 186 234 282 344 446
#     4  12  26  41  70  94 142 182 236 290 350 415
#     4  12  26  43  70  99 137 183 235 295 351 422
#     4  12  27  45  67 106 143 182 232 297 364 411
#     4  12  22  46  68  95 133 188 239 285 349 424
#
# _framework density 20.641805000000002
#
# number of rings (size 3 to 8) (size 9 to 14) (size 15 to 20)
#    0.000    0.545    5.455    1.636    5.091    1.455 
#    1.636    0.000    0.000    0.000    0.000    0.000 
#    0.000    0.000    0.000    0.000    0.000    0.000 
#
# Total GULP energy -245179.977873 kJ/mol
# GULP energy per Si atom -5572.272224 kJ/mol
# Density = 2.059482 g / cm^3
# Si number density = 20.641805 Si / 1000 Ang^3
#
#
#
# Elastic Constant Matrix: (Units=GPa)
#
#
# Indices 1 2 3 4 5 6 
#
# 1 115.5446 56.0640 52.8974 0.0000 0.0000 0.0000
# 2 56.0640 95.8699 38.1472 0.0000 0.0000 0.0000
# 3 52.8974 38.1472 113.3265 0.0000 0.0000 0.0000
# 4 0.0000 0.0000 0.0000 48.3657 0.0000 0.0000
# 5 0.0000 0.0000 0.0000 0.0000 41.4528 0.0000
# 6 0.0000 0.0000 0.0000 0.0000 0.0000 50.6937
#
#
#
# Elastic Compliance Matrix: (Units=1/GPa)
#
#
# Indices 1 2 3 4 5 6 
#
# 1 0.013656 -0.006293 -0.004256 0.000000 0.000000 0.000000
# 2 -0.006293 0.014943 -0.002093 0.000000 0.000000 0.000000
# 3 -0.004256 -0.002093 0.011515 0.000000 0.000000 0.000000
# 4 0.000000 0.000000 0.000000 0.020676 0.000000 0.000000
# 5 0.000000 0.000000 0.000000 0.000000 0.024124 0.000000
# 6 0.000000 0.000000 0.000000 0.000000 0.000000 0.019726
#
#
# Mechanical properties :
#
#
# Convention : Reuss Voigt Hill
#
# Bulk Modulus (GPa) = 67.42382 68.77313 68.09847
# Shear Modulus (GPa) = 37.07307 39.94459 38.50883
#
# Velocity S-wave (km/s) = 4.24254 4.40378 4.32392
# Velocity P-wave (km/s) = 7.53217 7.69724 7.61515
#
# Compressibility (1/GPa) = 0.01483155
#
# Stress axis : x y z
#
# Youngs Moduli (GPa) = 73.22526 66.91882 86.84115
#
# Poissons Ratio (x) = 0.42109 0.36962
# Poissons Ratio (y) = 0.46078 0.18176
# Poissons Ratio (z) = 0.31167 0.14006
#
# Static dielectric constant tensor:
#      x y z
#    x 1.846660 0.000000 0.000000 
#    y 0.000000 1.848270 0.000000 
#    z 0.000000 0.000000 1.722360 
# 
# From -- ./inp_files/16886.got.cif
#   From: 2010.05.17/outbox.cif.g08.bks.cpg/sg50_9_cif.got.tgz:16886.got - 2010.06.03 11:33:33.
