data_PCOD9397537
_publ_section_title
;
Structure prediction by ZEFSAII (Michael W. Deem and Ramdas Pophale) SiO2 
 PCOD9397537
Probable space group: P B A N
;
_chemical_formula_sum "Si O2"
_cell_formula_units_Z 38
_cell_length_a 25.025939
_cell_length_b 12.397239
_cell_length_c 5.337568
_cell_angle_alpha 90.000000
_cell_angle_beta 90.000000
_cell_angle_gamma 90.000000
_cell_volume 1655.994067
_symmetry_space_group_name_H-M "P B A N"
_symmetry_group_IT_number 50
_space_group.IT_coordinate_system_code '2'
_symmetry_cell_setting 'orthorhombic'
loop_
_space_group_symop_operation_xyz
x,y,z
1/2-x,1/2-y,z
x,1/2-y,-z
1/2-x,y,-z
-x,-y,-z
1/2+x,1/2+y,-z
-x,1/2+y,z
1/2+x,-y,z
loop_
_atom_site_type_symbol
_atom_site_label
_atom_site_fract_x
_atom_site_fract_y
_atom_site_fract_z
Si Si1 0.250000 0.750000 0.000000
Si Si2 0.819430 0.822096 0.246177
Si Si3 0.564655 0.675839 0.249470
Si Si4 0.949744 0.324318 0.249271
Si Si5 0.334339 0.861151 0.658103
Si Si6 0.750000 0.972479 0.500000
O O1 0.291395 0.671464 0.134526
O O2 0.819906 0.750000 0.500000
O O3 0.877741 0.881134 0.243052
O O4 0.767844 0.896496 0.273371
O O5 0.818041 0.750000 0.000000
O O6 0.564677 0.750000 0.500000
O O7 0.507240 0.616091 0.246793
O O8 0.563443 0.750000 0.000000
O O9 0.950658 0.250000 0.500000
O O10 0.894287 0.389458 0.260037
O O11 0.946125 0.250000 0.000000
O O12 0.337746 0.750000 0.500000
O O13 0.302699 0.956009 0.526480
#
# Coordination Sequence:
#
# PCOD9397537 Si02
#       6
#     2   8   8   8   8   4
#     4  12  18  36  60  78 134 168 202 248 304 364
#     4  10  23  43  62  87 122 161 213 270 311 365
#     4   8  15  32  58  82 110 155 204 253 313 361
#     4   9  17  31  56  85 116 160 201 246 310 369
#     4  11  22  38  55  92 130 164 206 254 306 384
#     4  12  24  40  62  92 126 174 212 252 324 378
#
# _framework density 22.946943000000001
#
# number of rings (size 3 to 8) (size 9 to 14) (size 15 to 20)
#    0.000    2.105    3.158    0.316    0.000    3.368 
#    0.000    1.053    0.000    0.000    0.000   23.579 
#    0.000    0.000    0.000    0.632    0.000    0.000 
#
# Total GULP energy -211721.497414 kJ/mol
# GULP energy per Si atom -5571.618353 kJ/mol
# Density = 2.289471 g / cm^3
# Si number density = 22.946943 Si / 1000 Ang^3
#
#
#
# Elastic Constant Matrix: (Units=GPa)
#
#
# Indices 1 2 3 4 5 6 
#
# 1 237.9922 49.6326 20.0329 0.0000 0.0000 0.0000
# 2 49.6326 32.1071 21.1803 0.0000 0.0000 0.0000
# 3 20.0329 21.1803 134.2526 0.0000 0.0000 0.0000
# 4 0.0000 0.0000 0.0000 13.9019 0.0000 0.0000
# 5 0.0000 0.0000 0.0000 0.0000 13.2948 0.0000
# 6 0.0000 0.0000 0.0000 0.0000 0.0000 48.8379
#
#
#
# Elastic Compliance Matrix: (Units=1/GPa)
#
#
# Indices 1 2 3 4 5 6 
#
# 1 0.006253 -0.010102 0.000661 0.000000 0.000000 0.000000
# 2 -0.010102 0.051084 -0.006552 0.000000 0.000000 0.000000
# 3 0.000661 -0.006552 0.008384 0.000000 0.000000 0.000000
# 4 0.000000 0.000000 0.000000 0.071932 0.000000 0.000000
# 5 0.000000 0.000000 0.000000 0.000000 0.075217 0.000000
# 6 0.000000 0.000000 0.000000 0.000000 0.000000 0.020476
#
#
# Mechanical properties :
#
#
# Convention : Reuss Voigt Hill
#
# Bulk Modulus (GPa) = 29.64340 65.11596 47.37968
# Shear Modulus (GPa) = 18.07814 36.10733 27.09274
#
# Velocity S-wave (km/s) = 2.80986 3.97106 3.43981
# Velocity P-wave (km/s) = 4.84494 7.03307 6.03894
#
# Compressibility (1/GPa) = 0.03373432
#
# Stress axis : x y z
#
# Youngs Moduli (GPa) = 159.92503 19.57568 119.27891
#
# Poissons Ratio (x) = 0.19775 -0.07880
# Poissons Ratio (y) = 1.61555 0.78150
# Poissons Ratio (z) = -0.10566 0.12826
#
# Static dielectric constant tensor:
#      x y z
#    x 1.941060 0.000000 0.000000 
#    y 0.000000 2.042900 0.000000 
#    z 0.000000 0.000000 1.644430 
# 
# From -- ./inp_files/6434.got.cif
#   From: 2010.05.17/outbox.cif.g08.bks.cpg/sg50_4_cif.got.tgz:6434.got - 2010.06.03 11:33:33.
