data_PCOD9397294
_publ_section_title
;
Structure prediction by ZEFSAII (Michael W. Deem and Ramdas Pophale) SiO2 
 PCOD9397294
Probable space group: P B A N
;
_chemical_formula_sum "Si O2"
_cell_formula_units_Z 32
_cell_length_a 30.197859
_cell_length_b 8.818069
_cell_length_c 5.135801
_cell_angle_alpha 90.000000
_cell_angle_beta 90.000000
_cell_angle_gamma 90.000000
_cell_volume 1367.596036
_symmetry_space_group_name_H-M "P B A N"
_symmetry_group_IT_number 50
_space_group.IT_coordinate_system_code '2'
_symmetry_cell_setting 'orthorhombic'
loop_
_space_group_symop_operation_xyz
x,y,z
1/2-x,1/2-y,z
x,1/2-y,-z
1/2-x,y,-z
-x,-y,-z
1/2+x,1/2+y,-z
-x,1/2+y,z
1/2+x,-y,z
loop_
_atom_site_type_symbol
_atom_site_label
_atom_site_fract_x
_atom_site_fract_y
_atom_site_fract_z
Si Si1 0.299492 0.181715 0.745365
Si Si2 0.048613 0.070204 0.465428
Si Si3 0.820394 0.154255 0.768049
Si Si4 0.915275 0.079976 0.028506
O O1 0.250000 0.250000 0.747612
O O2 0.324377 0.250000 0.500000
O O3 0.295810 0.002929 0.719869
O O4 0.321812 0.250000 0.000000
O O5 0.049162 0.250000 0.500000
O O6 0.061759 0.032310 0.171116
O O7 0.000000 0.000000 0.500000
O O8 0.079785 0.983542 0.679113
O O9 0.825657 0.250000 0.500000
O O10 0.866267 0.101331 0.906215
O O11 0.798686 0.250000 0.000000
O O12 0.935315 0.250000 0.000000
#
# Coordination Sequence:
#
# PCOD9397294 Si02
#       4
#     8   8   8   8
#     4  10  22  42  64  94 132 172 213 269 332 392
#     4  12  25  42  64  94 129 172 217 269 328 393
#     4  11  23  42  67  96 129 173 222 275 333 399
#     4  11  23  42  64  92 128 169 217 273 329 390
#
# _framework density 23.398724000000001
#
# number of rings (size 3 to 8) (size 9 to 14) (size 15 to 20)
#    0.000    1.000    0.000    8.250    0.000    3.000 
#    0.000   15.000    0.000    0.000    0.000    0.000 
#    0.000    0.000    0.000    0.000    0.000    0.000 
#
# Total GULP energy -178874.165822 kJ/mol
# GULP energy per Si atom -5589.817682 kJ/mol
# Density = 2.334547 g / cm^3
# Si number density = 23.398724 Si / 1000 Ang^3
#
#
#
# Elastic Constant Matrix: (Units=GPa)
#
#
# Indices 1 2 3 4 5 6 
#
# 1 64.2483 15.0961 -1.8201 0.0000 0.0000 0.0000
# 2 15.0961 203.4412 41.0994 0.0000 0.0000 0.0000
# 3 -1.8201 41.0994 168.6450 0.0000 0.0000 0.0000
# 4 0.0000 0.0000 0.0000 58.6476 0.0000 0.0000
# 5 0.0000 0.0000 0.0000 0.0000 160.0254 0.0000
# 6 0.0000 0.0000 0.0000 0.0000 0.0000 36.3795
#
#
#
# Elastic Compliance Matrix: (Units=1/GPa)
#
#
# Indices 1 2 3 4 5 6 
#
# 1 0.015878 -0.001276 0.000482 0.000000 0.000000 0.000000
# 2 -0.001276 0.005272 -0.001299 0.000000 0.000000 0.000000
# 3 0.000482 -0.001299 0.006251 0.000000 0.000000 0.000000
# 4 0.000000 0.000000 0.000000 0.017051 0.000000 0.000000
# 5 0.000000 0.000000 0.000000 0.000000 0.006249 0.000000
# 6 0.000000 0.000000 0.000000 0.000000 0.000000 0.027488
#
#
# Mechanical properties :
#
#
# Convention : Reuss Voigt Hill
#
# Bulk Modulus (GPa) = 43.07075 60.56503 51.81789
# Shear Modulus (GPa) = 55.48579 76.47442 65.98011
#
# Velocity S-wave (km/s) = 4.87490 5.72312 5.31596
# Velocity P-wave (km/s) = 7.08050 8.34340 7.73776
#
# Compressibility (1/GPa) = 0.02321761
#
# Stress axis : x y z
#
# Youngs Moduli (GPa) = 62.98023 189.66541 159.96635
#
# Poissons Ratio (x) = 0.24194 -0.07714
# Poissons Ratio (y) = 0.08034 0.20775
# Poissons Ratio (z) = -0.03037 0.24631
#
# Static dielectric constant tensor:
#      x y z
#    x 1.907880 0.000000 0.000000 
#    y 0.000000 1.906770 0.000000 
#    z 0.000000 0.000000 1.893830 
# 
# From -- ./inp_files/6934.got.cif
#   From: 2010.05.17/outbox.cif.g08.bks.cpg/sg50_4_cif.got.tgz:6934.got - 2010.06.03 11:33:33.
