data_PCOD9397574
_publ_section_title
;
Structure prediction by ZEFSAII (Michael W. Deem and Ramdas Pophale) SiO2 
 PCOD9397574
Probable space group: P B A N
;
_chemical_formula_sum "Si O2"
_cell_formula_units_Z 64
_cell_length_a 13.447692
_cell_length_b 13.379821
_cell_length_c 18.232708
_cell_angle_alpha 90.000000
_cell_angle_beta 90.000000
_cell_angle_gamma 90.000000
_cell_volume 3280.569431
_symmetry_space_group_name_H-M "P B A N"
_symmetry_group_IT_number 50
_space_group.IT_coordinate_system_code '2'
_symmetry_cell_setting 'orthorhombic'
loop_
_space_group_symop_operation_xyz
x,y,z
1/2-x,1/2-y,z
x,1/2-y,-z
1/2-x,y,-z
-x,-y,-z
1/2+x,1/2+y,-z
-x,1/2+y,z
1/2+x,-y,z
loop_
_atom_site_type_symbol
_atom_site_label
_atom_site_fract_x
_atom_site_fract_y
_atom_site_fract_z
Si Si1 0.662253 0.823662 0.199913
Si Si2 0.537405 0.523391 0.582885
Si Si3 0.630941 0.761322 0.415075
Si Si4 0.823681 0.004752 0.701252
Si Si5 0.967388 0.639459 0.842341
Si Si6 0.896713 0.575121 0.684188
Si Si7 0.699170 0.142143 0.161665
Si Si8 0.215543 0.047645 0.916848
O O1 0.750000 0.750000 0.232467
O O2 0.576414 0.750449 0.172092
O O3 0.717475 0.878766 0.133217
O O4 0.625241 0.913220 0.252284
O O5 0.500000 0.500000 0.500000
O O6 0.588881 0.629213 0.595785
O O7 0.620560 0.458723 0.627578
O O8 0.443560 0.510530 0.634653
O O9 0.750000 0.750000 0.409913
O O10 0.604285 0.750000 0.500000
O O11 0.588172 0.678229 0.360667
O O12 0.805736 0.095880 0.756529
O O13 0.718154 0.952447 0.687868
O O14 0.945745 0.585028 0.764001
O O15 0.897020 0.583283 0.900848
O O16 0.083057 0.642660 0.862004
O O17 0.750000 0.250000 0.159554
O O18 0.761557 0.062907 0.113571
O O19 0.250000 0.055947 0.000000
#
# Coordination Sequence:
#
# PCOD9397574 Si02
#       8
#     8   8   8   8   8   8   8   8
#     4   9  18  36  65  98 123 157 222 278 328 391
#     4  12  25  39  60  97 136 169 220 282 345 398
#     4  11  23  39  64  90 123 168 220 274 327 398
#     4  11  22  41  63  93 130 171 222 283 328 401
#     4  11  22  39  68 103 132 173 226 281 344 399
#     4  12  22  40  68  96 124 174 227 278 341 394
#     4  11  25  43  65 100 139 180 228 272 341 410
#     4  10  23  44  68  98 137 175 222 278 334 408
#
# _framework density 19.508808999999999
#
# number of rings (size 3 to 8) (size 9 to 14) (size 15 to 20)
#    0.000    1.125    7.500    0.750    0.000    7.500 
#    0.000    1.250    0.000    0.000    0.000    0.000 
#    0.000    0.000    0.000    0.000    0.000    0.000 
#
# Total GULP energy -356813.984455 kJ/mol
# GULP energy per Si atom -5575.218507 kJ/mol
# Density = 1.946441 g / cm^3
# Si number density = 19.508809 Si / 1000 Ang^3
#
#
#
# Elastic Constant Matrix: (Units=GPa)
#
#
# Indices 1 2 3 4 5 6 
#
# 1 102.2156 51.3145 34.4264 0.0000 0.0000 0.0000
# 2 51.3145 90.5536 36.5515 0.0000 0.0000 0.0000
# 3 34.4264 36.5515 128.8779 0.0000 0.0000 0.0000
# 4 0.0000 0.0000 0.0000 14.4533 0.0000 0.0000
# 5 0.0000 0.0000 0.0000 0.0000 22.4072 0.0000
# 6 0.0000 0.0000 0.0000 0.0000 0.0000 23.5193
#
#
#
# Elastic Compliance Matrix: (Units=1/GPa)
#
#
# Indices 1 2 3 4 5 6 
#
# 1 0.013988 -0.007248 -0.001681 0.000000 0.000000 0.000000
# 2 -0.007248 0.016227 -0.002666 0.000000 0.000000 0.000000
# 3 -0.001681 -0.002666 0.008964 0.000000 0.000000 0.000000
# 4 0.000000 0.000000 0.000000 0.069188 0.000000 0.000000
# 5 0.000000 0.000000 0.000000 0.000000 0.044629 0.000000
# 6 0.000000 0.000000 0.000000 0.000000 0.000000 0.042518
#
#
# Mechanical properties :
#
#
# Convention : Reuss Voigt Hill
#
# Bulk Modulus (GPa) = 62.54262 62.91468 62.72865
# Shear Modulus (GPa) = 22.31800 25.36625 23.84213
#
# Velocity S-wave (km/s) = 3.38597 3.60980 3.49968
# Velocity P-wave (km/s) = 6.88583 7.04937 6.96808
#
# Compressibility (1/GPa) = 0.01598910
#
# Stress axis : x y z
#
# Youngs Moduli (GPa) = 71.48901 61.62690 111.55275
#
# Poissons Ratio (x) = 0.44669 0.18751
# Poissons Ratio (y) = 0.51817 0.29739
# Poissons Ratio (z) = 0.12016 0.16429
#
# Static dielectric constant tensor:
#      x y z
#    x 1.713510 0.000000 0.000000 
#    y 0.000000 2.165680 0.000000 
#    z 0.000000 0.000000 1.395540 
# 
# From -- ./inp_files/29539.got.cif
#   From: 2010.05.17/outbox.cif.g08.bks.cpg/sg50_15_cif.got.tgz:29539.got - 2010.06.03 11:33:33.
