data_PCOD9397946
_publ_section_title
;
Structure prediction by ZEFSAII (Michael W. Deem and Ramdas Pophale) SiO2 
 PCOD9397946
Probable space group: P B A N
;
_chemical_formula_sum "Si O2"
_cell_formula_units_Z 40
_cell_length_a 8.083169
_cell_length_b 13.756100
_cell_length_c 15.182116
_cell_angle_alpha 90.000000
_cell_angle_beta 90.000000
_cell_angle_gamma 90.000000
_cell_volume 1688.143219
_symmetry_space_group_name_H-M "P B A N"
_symmetry_group_IT_number 50
_space_group.IT_coordinate_system_code '2'
_symmetry_cell_setting 'orthorhombic'
loop_
_space_group_symop_operation_xyz
x,y,z
1/2-x,1/2-y,z
x,1/2-y,-z
1/2-x,y,-z
-x,-y,-z
1/2+x,1/2+y,-z
-x,1/2+y,z
1/2+x,-y,z
loop_
_atom_site_type_symbol
_atom_site_label
_atom_site_fract_x
_atom_site_fract_y
_atom_site_fract_z
Si Si1 0.410957 0.856783 0.259918
Si Si2 0.389347 0.094844 0.104599
Si Si3 0.953939 0.062930 0.712777
Si Si4 0.559248 0.718481 0.402515
Si Si5 0.499772 0.126327 0.926094
O O1 0.233157 0.903398 0.276260
O O2 0.453941 0.775587 0.329980
O O3 0.426522 0.820842 0.159163
O O4 0.534909 0.947169 0.276749
O O5 0.445470 0.106347 0.204227
O O6 0.197460 0.120113 0.093141
O O7 0.416030 0.980485 0.082905
O O8 0.499607 0.149426 0.030355
O O9 0.030869 0.106165 0.623341
O O10 0.750000 0.750000 0.393066
O O11 0.506612 0.750000 0.500000
#
# Coordination Sequence:
#
# PCOD9397946 Si02
#       5
#     8   8   8   8   8
#     4  11  22  38  62  90 122 158 196 240 290 349
#     4   9  16  28  50  81 117 156 196 237 282 336
#     4  11  22  38  62  90 122 158 196 240 290 349
#     4  11  25  45  66  87 114 149 193 248 304 355
#     4   9  16  28  50  81 117 156 196 237 282 336
#
# _framework density 23.694673000000002
#
# number of rings (size 3 to 8) (size 9 to 14) (size 15 to 20)
#    0.000    1.800    0.000    7.800    0.000    4.800 
#    0.000    1.000    0.000    6.000    0.000    0.000 
#    0.000    0.000    0.000    0.000    0.000    0.000 
#
# Total GULP energy -223754.363908 kJ/mol
# GULP energy per Si atom -5593.859098 kJ/mol
# Density = 2.364074 g / cm^3
# Si number density = 23.694673 Si / 1000 Ang^3
#
#
#
# Elastic Constant Matrix: (Units=GPa)
#
#
# Indices 1 2 3 4 5 6 
#
# 1 73.2742 -5.6125 7.6654 0.0000 0.0000 0.0000
# 2 -5.6125 66.6616 23.2698 0.0000 0.0000 0.0000
# 3 7.6654 23.2698 138.8765 0.0000 0.0000 0.0000
# 4 0.0000 0.0000 0.0000 66.8209 0.0000 0.0000
# 5 0.0000 0.0000 0.0000 0.0000 23.8618 0.0000
# 6 0.0000 0.0000 0.0000 0.0000 0.0000 25.1138
#
#
#
# Elastic Compliance Matrix: (Units=1/GPa)
#
#
# Indices 1 2 3 4 5 6 
#
# 1 0.013871 0.001524 -0.001021 0.000000 0.000000 0.000000
# 2 0.001524 0.016101 -0.002782 0.000000 0.000000 0.000000
# 3 -0.001021 -0.002782 0.007723 0.000000 0.000000 0.000000
# 4 0.000000 0.000000 0.000000 0.014965 0.000000 0.000000
# 5 0.000000 0.000000 0.000000 0.000000 0.041908 0.000000
# 6 0.000000 0.000000 0.000000 0.000000 0.000000 0.039819
#
#
# Mechanical properties :
#
#
# Convention : Reuss Voigt Hill
#
# Bulk Modulus (GPa) = 30.17747 36.60641 33.39194
# Shear Modulus (GPa) = 33.33558 40.05859 36.69708
#
# Velocity S-wave (km/s) = 3.75491 4.11617 3.93968
# Velocity P-wave (km/s) = 5.61807 6.17035 5.90068
#
# Compressibility (1/GPa) = 0.03313731
#
# Stress axis : x y z
#
# Youngs Moduli (GPa) = 72.09319 62.10961 129.48120
#
# Poissons Ratio (x) = -0.09467 0.13220
# Poissons Ratio (y) = -0.10989 0.36020
# Poissons Ratio (z) = 0.07361 0.17278
#
# Static dielectric constant tensor:
#      x y z
#    x 1.864060 0.000000 0.000000 
#    y 0.000000 2.034610 0.000000 
#    z 0.000000 0.000000 1.892950 
# 
# From -- ./inp_files/24678.got.cif
#   From: 2010.05.17/outbox.cif.g08.bks.cpg/sg50_13_cif.got.tgz:24678.got - 2010.06.03 11:33:33.
