data_PCOD9397353
_publ_section_title
;
Structure prediction by ZEFSAII (Michael W. Deem and Ramdas Pophale) SiO2 
 PCOD9397353
Probable space group: P B A N
;
_chemical_formula_sum "Si O2"
_cell_formula_units_Z 40
_cell_length_a 9.495973
_cell_length_b 24.351992
_cell_length_c 8.374662
_cell_angle_alpha 90.000000
_cell_angle_beta 90.000000
_cell_angle_gamma 90.000000
_cell_volume 1936.605904
_symmetry_space_group_name_H-M "P B A N"
_symmetry_group_IT_number 50
_space_group.IT_coordinate_system_code '2'
_symmetry_cell_setting 'orthorhombic'
loop_
_space_group_symop_operation_xyz
x,y,z
1/2-x,1/2-y,z
x,1/2-y,-z
1/2-x,y,-z
-x,-y,-z
1/2+x,1/2+y,-z
-x,1/2+y,z
1/2+x,-y,z
loop_
_atom_site_type_symbol
_atom_site_label
_atom_site_fract_x
_atom_site_fract_y
_atom_site_fract_z
Si Si1 0.628354 0.006816 0.119409
Si Si2 0.605378 0.684409 0.894138
Si Si3 0.027058 0.880051 0.178290
Si Si4 0.914009 0.265017 0.315045
Si Si5 0.773079 0.590245 0.313752
O O1 0.635858 0.070022 0.172284
O O2 0.638697 0.963091 0.260808
O O3 0.750000 0.991459 0.000000
O O4 0.500000 0.000000 0.000000
O O5 0.520856 0.734636 0.810300
O O6 0.651443 0.644511 0.751488
O O7 0.750000 0.693965 0.000000
O O8 0.502515 0.649326 0.008649
O O9 0.067478 0.830078 0.292689
O O10 0.880963 0.907594 0.233433
O O11 0.750000 0.250000 0.281353
O O12 0.944732 0.250000 0.500000
O O13 0.750000 0.591512 0.500000
#
# Coordination Sequence:
#
# PCOD9397353 Si02
#       5
#     8   8   8   8   8
#     4  12  23  45  67  98 136 179 232 285 337 412
#     4  10  22  43  69  95 130 177 233 282 340 419
#     4  11  24  42  68  96 132 182 231 278 345 408
#     4  11  26  46  66 103 143 178 226 290 360 422
#     4  11  23  42  68 102 137 176 227 286 349 414
#
# _framework density 20.654693000000002
#
# number of rings (size 3 to 8) (size 9 to 14) (size 15 to 20)
#    0.000    1.000    4.000    2.400    2.800    7.200 
#    3.600    5.000    0.000    0.000    0.000    0.000 
#    0.000    0.000    0.000    0.000    0.000    0.000 
#
# Total GULP energy -223333.368804 kJ/mol
# GULP energy per Si atom -5583.334220 kJ/mol
# Density = 2.060768 g / cm^3
# Si number density = 20.654693 Si / 1000 Ang^3
#
#
#
# Elastic Constant Matrix: (Units=GPa)
#
#
# Indices 1 2 3 4 5 6 
#
# 1 68.0871 17.4216 32.2870 0.0000 0.0000 0.0000
# 2 17.4216 148.3227 79.9062 0.0000 0.0000 0.0000
# 3 32.2870 79.9062 137.4772 0.0000 0.0000 0.0000
# 4 0.0000 0.0000 0.0000 33.0627 0.0000 0.0000
# 5 0.0000 0.0000 0.0000 0.0000 22.6934 0.0000
# 6 0.0000 0.0000 0.0000 0.0000 0.0000 36.5127
#
#
#
# Elastic Compliance Matrix: (Units=1/GPa)
#
#
# Indices 1 2 3 4 5 6 
#
# 1 0.016533 0.000218 -0.004010 0.000000 0.000000 0.000000
# 2 0.000218 0.009818 -0.005758 0.000000 0.000000 0.000000
# 3 -0.004010 -0.005758 0.011562 0.000000 0.000000 0.000000
# 4 0.000000 0.000000 0.000000 0.030246 0.000000 0.000000
# 5 0.000000 0.000000 0.000000 0.000000 0.044066 0.000000
# 6 0.000000 0.000000 0.000000 0.000000 0.000000 0.027388
#
#
# Mechanical properties :
#
#
# Convention : Reuss Voigt Hill
#
# Bulk Modulus (GPa) = 53.15027 68.12407 60.63717
# Shear Modulus (GPa) = 30.30618 33.40523 31.85571
#
# Velocity S-wave (km/s) = 3.83466 4.02595 3.93147
# Velocity P-wave (km/s) = 6.73757 7.39358 7.07318
#
# Compressibility (1/GPa) = 0.01881458
#
# Stress axis : x y z
#
# Youngs Moduli (GPa) = 60.48660 101.84873 86.48745
#
# Poissons Ratio (x) = -0.02222 0.34678
# Poissons Ratio (y) = -0.01320 0.49800
# Poissons Ratio (z) = 0.24253 0.58645
#
# Static dielectric constant tensor:
#      x y z
#    x 1.750570 0.000000 0.000000 
#    y 0.000000 1.770170 0.000000 
#    z 0.000000 0.000000 1.696960 
# 
# From -- ./inp_files/9530.got.cif
#   From: 2010.05.17/outbox.cif.g08.bks.cpg/sg50_5_cif.got.tgz:9530.got - 2010.06.03 11:33:33.
