data_PCOD9397554
_publ_section_title
;
Structure prediction by ZEFSAII (Michael W. Deem and Ramdas Pophale) SiO2 
 PCOD9397554
Probable space group: P B A N
;
_chemical_formula_sum "Si O2"
_cell_formula_units_Z 32
_cell_length_a 10.032307
_cell_length_b 13.588525
_cell_length_c 8.980668
_cell_angle_alpha 90.000000
_cell_angle_beta 90.000000
_cell_angle_gamma 90.000000
_cell_volume 1224.282870
_symmetry_space_group_name_H-M "P B A N"
_symmetry_group_IT_number 50
_space_group.IT_coordinate_system_code '2'
_symmetry_cell_setting 'orthorhombic'
loop_
_space_group_symop_operation_xyz
x,y,z
1/2-x,1/2-y,z
x,1/2-y,-z
1/2-x,y,-z
-x,-y,-z
1/2+x,1/2+y,-z
-x,1/2+y,z
1/2+x,-y,z
loop_
_atom_site_type_symbol
_atom_site_label
_atom_site_fract_x
_atom_site_fract_y
_atom_site_fract_z
Si Si1 0.960333 0.786700 0.332850
Si Si2 0.954026 0.901881 0.838513
Si Si3 0.632403 0.388213 0.888508
Si Si4 0.628499 0.996729 0.606432
O O1 0.983308 0.750000 0.500000
O O2 0.903872 0.696340 0.238006
O O3 0.096584 0.820430 0.250422
O O4 0.868888 0.883558 0.340908
O O5 0.085721 0.933931 0.743048
O O6 0.000504 0.884021 0.006582
O O7 0.860286 0.997822 0.836767
O O8 0.750000 0.361063 0.000000
O O9 0.750000 0.023539 0.500000
O O10 0.500000 0.000000 0.500000
#
# Coordination Sequence:
#
# PCOD9397554 Si02
#       4
#     8   8   8   8
#     4  11  23  43  71 108 145 189 257 308 375 455
#     4  10  23  43  68 102 144 193 248 307 375 447
#     4  10  24  44  70  98 146 196 245 310 382 448
#     4  11  25  46  72 108 152 198 249 312 379 444
#
# _framework density 26.13775
#
# number of rings (size 3 to 8) (size 9 to 14) (size 15 to 20)
#    0.000    1.500    2.500    0.750    7.000    2.500 
#    0.000    2.500    0.000    0.000    0.000    0.000 
#    0.000    0.000    0.000    0.000    0.000    0.000 
#
# Total GULP energy -179421.912809 kJ/mol
# GULP energy per Si atom -5606.934775 kJ/mol
# Density = 2.607826 g / cm^3
# Si number density = 26.137750 Si / 1000 Ang^3
#
#
#
# Elastic Constant Matrix: (Units=GPa)
#
#
# Indices 1 2 3 4 5 6 
#
# 1 89.5362 0.9571 2.3709 0.0000 0.0000 0.0000
# 2 0.9571 159.2470 35.8686 0.0000 0.0000 0.0000
# 3 2.3709 35.8686 125.3893 0.0000 0.0000 0.0000
# 4 0.0000 0.0000 0.0000 58.5917 0.0000 0.0000
# 5 0.0000 0.0000 0.0000 0.0000 29.8842 0.0000
# 6 0.0000 0.0000 0.0000 0.0000 0.0000 13.0815
#
#
#
# Elastic Compliance Matrix: (Units=1/GPa)
#
#
# Indices 1 2 3 4 5 6 
#
# 1 0.011174 -0.000021 -0.000205 0.000000 0.000000 0.000000
# 2 -0.000021 0.006712 -0.001920 0.000000 0.000000 0.000000
# 3 -0.000205 -0.001920 0.008528 0.000000 0.000000 0.000000
# 4 0.000000 0.000000 0.000000 0.017067 0.000000 0.000000
# 5 0.000000 0.000000 0.000000 0.000000 0.033462 0.000000
# 6 0.000000 0.000000 0.000000 0.000000 0.000000 0.076444
#
#
# Mechanical properties :
#
#
# Convention : Reuss Voigt Hill
#
# Bulk Modulus (GPa) = 45.20216 50.28507 47.74362
# Shear Modulus (GPa) = 30.29305 42.64321 36.46813
#
# Velocity S-wave (km/s) = 3.40807 4.04354 3.73933
# Velocity P-wave (km/s) = 5.72869 6.40941 6.07859
#
# Compressibility (1/GPa) = 0.02212283
#
# Stress axis : x y z
#
# Youngs Moduli (GPa) = 89.49081 148.98565 117.25845
#
# Poissons Ratio (x) = 0.00312 0.02407
# Poissons Ratio (y) = 0.00187 0.22509
# Poissons Ratio (z) = 0.01837 0.28600
#
# Static dielectric constant tensor:
#      x y z
#    x 2.099590 0.000000 0.000000 
#    y 0.000000 2.068000 0.000000 
#    z 0.000000 0.000000 2.038280 
# 
# From -- ./inp_files/10683.got.cif
#   From: 2010.05.17/outbox.cif.g08.bks.cpg/sg50_6_cif.got.tgz:10683.got - 2010.06.03 11:33:33.
