data_PCOD9397546
_publ_section_title
;
Structure prediction by ZEFSAII (Michael W. Deem and Ramdas Pophale) SiO2 
 PCOD9397546
Probable space group: P B A N
;
_chemical_formula_sum "Si O2"
_cell_formula_units_Z 24
_cell_length_a 5.269695
_cell_length_b 27.320693
_cell_length_c 7.193856
_cell_angle_alpha 90.000000
_cell_angle_beta 90.000000
_cell_angle_gamma 90.000000
_cell_volume 1035.711817
_symmetry_space_group_name_H-M "P B A N"
_symmetry_group_IT_number 50
_space_group.IT_coordinate_system_code '2'
_symmetry_cell_setting 'orthorhombic'
loop_
_space_group_symop_operation_xyz
x,y,z
1/2-x,1/2-y,z
x,1/2-y,-z
1/2-x,y,-z
-x,-y,-z
1/2+x,1/2+y,-z
-x,1/2+y,z
1/2+x,-y,z
loop_
_atom_site_type_symbol
_atom_site_label
_atom_site_fract_x
_atom_site_fract_y
_atom_site_fract_z
Si Si1 0.492939 0.627422 0.876732
Si Si2 0.002544 0.271924 0.708571
Si Si3 0.784191 0.474623 0.723180
O O1 0.519763 0.669810 0.722596
O O2 0.405888 0.576288 0.786547
O O3 0.750000 0.623997 0.000000
O O4 0.250000 0.642267 0.000000
O O5 0.250000 0.250000 0.800842
O O6 0.002242 0.250000 0.500000
O O7 0.750000 0.250000 0.793973
O O8 0.750000 0.475396 0.500000
O O9 0.496051 0.485628 0.787083
#
# Coordination Sequence:
#
# PCOD9397546 Si02
#       3
#     8   8   8
#     4  12  26  42  68 104 137 174 223 286 346 403
#     4  10  23  43  66  95 126 183 223 275 331 408
#     4  10  23  44  68  99 135 181 228 271 327 411
#
# _framework density 23.172469
#
# number of rings (size 3 to 8) (size 9 to 14) (size 15 to 20)
#    0.000    1.333    0.000    4.000    4.667    8.000 
#   12.000    0.000    0.000    0.000    0.000    0.000 
#    0.000    0.000    0.000    0.000    0.000    0.000 
#
# Total GULP energy -134052.573027 kJ/mol
# GULP energy per Si atom -5585.523876 kJ/mol
# Density = 2.311973 g / cm^3
# Si number density = 23.172469 Si / 1000 Ang^3
#
#
#
# Elastic Constant Matrix: (Units=GPa)
#
#
# Indices 1 2 3 4 5 6 
#
# 1 218.4320 56.3827 54.1065 0.0000 0.0000 0.0000
# 2 56.3827 175.6335 41.2222 0.0000 0.0000 0.0000
# 3 54.1065 41.2222 113.2928 0.0000 0.0000 0.0000
# 4 0.0000 0.0000 0.0000 50.4254 0.0000 0.0000
# 5 0.0000 0.0000 0.0000 0.0000 -10.5397 0.0000
# 6 0.0000 0.0000 0.0000 0.0000 0.0000 29.6962
#
#
#
# Elastic Compliance Matrix: (Units=1/GPa)
#
#
# Indices 1 2 3 4 5 6 
#
# 1 0.005429 -0.001240 -0.002141 0.000000 0.000000 0.000000
# 2 -0.001240 0.006509 -0.001776 0.000000 0.000000 0.000000
# 3 -0.002141 -0.001776 0.010496 0.000000 0.000000 0.000000
# 4 0.000000 0.000000 0.000000 0.019831 0.000000 0.000000
# 5 0.000000 0.000000 0.000000 0.000000 -0.094880 0.000000
# 6 0.000000 0.000000 0.000000 0.000000 0.000000 0.033674
#
#
# Mechanical properties :
#
#
# Convention : Reuss Voigt Hill
#
# Bulk Modulus (GPa) = 82.52255 90.08681 86.30468
# Shear Modulus (GPa) = -1089.97983 37.62619 -526.17682
#
# Velocity S-wave (km/s) = -21.71171 4.03394 -15.08518
# Velocity P-wave (km/s) = 24.34833 7.78832 16.31232
#
# Compressibility (1/GPa) = 0.01211790
#
# Stress axis : x y z
#
# Youngs Moduli (GPa) = 184.20892 153.64270 95.27850
#
# Poissons Ratio (x) = 0.19054 0.20403
# Poissons Ratio (y) = 0.22844 0.16921
# Poissons Ratio (z) = 0.39446 0.27286
#
# Static dielectric constant tensor:
#      x y z
#    x 1.886420 0.000000 0.000000 
#    y 0.000000 1.874480 0.000000 
#    z 0.000000 0.000000 1.859500 
# 
# From -- ./inp_files/7643.got.cif
#   From: 2010.05.17/outbox.cif.g08.bks.cpg/sg50_4_cif.got.tgz:7643.got - 2010.06.03 11:33:33.
