data_PCOD9397637
_publ_section_title
;
Structure prediction by ZEFSAII (Michael W. Deem and Ramdas Pophale) SiO2 
 PCOD9397637
Probable space group: P B A N
;
_chemical_formula_sum "Si O2"
_cell_formula_units_Z 30
_cell_length_a 9.139456
_cell_length_b 28.121551
_cell_length_c 4.972209
_cell_angle_alpha 90.000000
_cell_angle_beta 90.000000
_cell_angle_gamma 90.000000
_cell_volume 1277.935667
_symmetry_space_group_name_H-M "P B A N"
_symmetry_group_IT_number 50
_space_group.IT_coordinate_system_code '2'
_symmetry_cell_setting 'orthorhombic'
loop_
_space_group_symop_operation_xyz
x,y,z
1/2-x,1/2-y,z
x,1/2-y,-z
1/2-x,y,-z
-x,-y,-z
1/2+x,1/2+y,-z
-x,1/2+y,z
1/2+x,-y,z
loop_
_atom_site_type_symbol
_atom_site_label
_atom_site_fract_x
_atom_site_fract_y
_atom_site_fract_z
Si Si1 0.094470 0.823774 0.599022
Si Si2 0.750000 0.250000 0.000000
Si Si3 0.015202 0.041905 0.783266
Si Si4 0.411477 0.147333 0.088340
Si Si5 0.250000 0.521245 0.500000
O O1 0.250000 0.842970 0.500000
O O2 0.147336 0.779072 0.788532
O O3 0.989217 0.823245 0.333378
O O4 0.009167 0.853399 0.820384
O O5 0.091512 0.092053 0.834499
O O6 0.126737 0.015347 0.589510
O O7 0.848025 0.052714 0.697341
O O8 0.000000 0.000000 0.000000
O O9 0.250000 0.164798 0.000000
#
# Coordination Sequence:
#
# PCOD9397637 Si02
#       5
#     8   2   8   8   4
#     4  12  27  49  85 112 149 202 255 324 392 490
#     4  12  26  56  88 116 154 196 264 328 422 492
#     4  11  25  43  67 102 154 212 261 319 375 451
#     4  12  28  47  77 118 164 202 262 329 395 460
#     4  10  24  40  66  96 140 210 270 310 374 440
#
# _framework density 23.475360999999999
#
# number of rings (size 3 to 8) (size 9 to 14) (size 15 to 20)
#    0.000    0.533    2.667    3.600   13.067    2.133 
#    0.000    0.667    5.867    0.000    0.000    0.000 
#    0.000    0.000    0.000    0.000    0.000    0.000 
#
# Total GULP energy -167061.224979 kJ/mol
# GULP energy per Si atom -5568.707499 kJ/mol
# Density = 2.342193 g / cm^3
# Si number density = 23.475361 Si / 1000 Ang^3
#
#
#
# Elastic Constant Matrix: (Units=GPa)
#
#
# Indices 1 2 3 4 5 6 
#
# 1 170.9701 21.8249 73.1588 0.0000 0.0000 0.0000
# 2 21.8249 60.1383 18.6550 0.0000 0.0000 0.0000
# 3 73.1588 18.6550 139.8508 0.0000 0.0000 0.0000
# 4 0.0000 0.0000 0.0000 8.3105 0.0000 0.0000
# 5 0.0000 0.0000 0.0000 0.0000 64.2139 0.0000
# 6 0.0000 0.0000 0.0000 0.0000 0.0000 25.1342
#
#
#
# Elastic Compliance Matrix: (Units=1/GPa)
#
#
# Indices 1 2 3 4 5 6 
#
# 1 0.007682 -0.001608 -0.003804 0.000000 0.000000 0.000000
# 2 -0.001608 0.017683 -0.001518 0.000000 0.000000 0.000000
# 3 -0.003804 -0.001518 0.009343 0.000000 0.000000 0.000000
# 4 0.000000 0.000000 0.000000 0.120329 0.000000 0.000000
# 5 0.000000 0.000000 0.000000 0.000000 0.015573 0.000000
# 6 0.000000 0.000000 0.000000 0.000000 0.000000 0.039786
#
#
# Mechanical properties :
#
#
# Convention : Reuss Voigt Hill
#
# Bulk Modulus (GPa) = 47.96542 66.47073 57.21807
# Shear Modulus (GPa) = 21.62583 36.68642 29.15612
#
# Velocity S-wave (km/s) = 3.03844 3.95747 3.52801
# Velocity P-wave (km/s) = 5.72592 7.01845 6.40487
#
# Compressibility (1/GPa) = 0.02084835
#
# Stress axis : x y z
#
# Youngs Moduli (GPa) = 130.17380 56.55271 107.03255
#
# Poissons Ratio (x) = 0.09093 0.40717
# Poissons Ratio (y) = 0.20930 0.16244
# Poissons Ratio (z) = 0.49520 0.08583
#
# Static dielectric constant tensor:
#      x y z
#    x 1.906420 0.000000 0.000000 
#    y 0.000000 1.841660 0.000000 
#    z 0.000000 0.000000 2.217040 
# 
# From -- ./inp_files/1173.got.cif
#   From: 2010.05.17/outbox.cif.g08.bks.cpg/sg50_1_cif.got.tgz:1173.got - 2010.06.03 11:33:33.
