data_PCOD9397426
_publ_section_title
;
Structure prediction by ZEFSAII (Michael W. Deem and Ramdas Pophale) SiO2 
 PCOD9397426
Probable space group: P B A N
;
_chemical_formula_sum "Si O2"
_cell_formula_units_Z 30
_cell_length_a 4.818500
_cell_length_b 22.282853
_cell_length_c 11.766406
_cell_angle_alpha 90.000000
_cell_angle_beta 90.000000
_cell_angle_gamma 90.000000
_cell_volume 1263.358155
_symmetry_space_group_name_H-M "P B A N"
_symmetry_group_IT_number 50
_space_group.IT_coordinate_system_code '2'
_symmetry_cell_setting 'orthorhombic'
loop_
_space_group_symop_operation_xyz
x,y,z
1/2-x,1/2-y,z
x,1/2-y,-z
1/2-x,y,-z
-x,-y,-z
1/2+x,1/2+y,-z
-x,1/2+y,z
1/2+x,-y,z
loop_
_atom_site_type_symbol
_atom_site_label
_atom_site_fract_x
_atom_site_fract_y
_atom_site_fract_z
Si Si1 0.986466 0.333149 0.308451
Si Si2 0.750000 0.250000 0.500000
Si Si3 0.439246 0.459885 0.776753
Si Si4 0.250000 0.099750 0.000000
Si Si5 0.030377 0.197265 0.164767
O O1 0.916892 0.295163 0.418492
O O2 0.790467 0.306228 0.206485
O O3 0.959702 0.404564 0.300045
O O4 0.307129 0.322277 0.278517
O O5 0.629016 0.517449 0.757289
O O6 0.427610 0.437792 0.908423
O O7 0.439894 0.144320 0.926099
O O8 0.250000 0.250000 0.125744
#
# Coordination Sequence:
#
# PCOD9397426 Si02
#       5
#     8   2   8   4   8
#     4  11  25  41  69  96 127 169 224 278 333 388
#     4  12  24  50  72  96 124 166 228 280 360 396
#     4  11  23  43  64  96 138 178 223 266 314 395
#     4  10  23  36  68  96 136 187 216 252 326 394
#     4  11  21  41  58 101 137 169 212 270 328 395
#
# _framework density 23.746233
#
# number of rings (size 3 to 8) (size 9 to 14) (size 15 to 20)
#    0.000    1.067    2.667    4.400    0.000   10.667 
#    0.000    6.667    0.000    0.000    0.000    0.000 
#    0.000    0.000    0.000    0.000    0.000    0.000 
#
# Total GULP energy -167273.946525 kJ/mol
# GULP energy per Si atom -5575.798218 kJ/mol
# Density = 2.369219 g / cm^3
# Si number density = 23.746233 Si / 1000 Ang^3
#
#
#
# Elastic Constant Matrix: (Units=GPa)
#
#
# Indices 1 2 3 4 5 6 
#
# 1 116.5259 3.7529 20.9953 0.0000 0.0000 0.0000
# 2 3.7529 130.1441 33.6808 0.0000 0.0000 0.0000
# 3 20.9953 33.6808 101.0311 0.0000 0.0000 0.0000
# 4 0.0000 0.0000 0.0000 34.0252 0.0000 0.0000
# 5 0.0000 0.0000 0.0000 0.0000 9.5660 0.0000
# 6 0.0000 0.0000 0.0000 0.0000 0.0000 7.8427
#
#
#
# Elastic Compliance Matrix: (Units=1/GPa)
#
#
# Indices 1 2 3 4 5 6 
#
# 1 0.008923 0.000244 -0.001935 0.000000 0.000000 0.000000
# 2 0.000244 0.008416 -0.002856 0.000000 0.000000 0.000000
# 3 -0.001935 -0.002856 0.011252 0.000000 0.000000 0.000000
# 4 0.000000 0.000000 0.000000 0.029390 0.000000 0.000000
# 5 0.000000 0.000000 0.000000 0.000000 0.104537 0.000000
# 6 0.000000 0.000000 0.000000 0.000000 0.000000 0.127508
#
#
# Mechanical properties :
#
#
# Convention : Reuss Voigt Hill
#
# Bulk Modulus (GPa) = 51.29581 51.61765 51.45673
# Shear Modulus (GPa) = 16.36021 29.57160 22.96590
#
# Velocity S-wave (km/s) = 2.62765 3.53273 3.11326
# Velocity P-wave (km/s) = 5.55469 6.19876 5.88555
#
# Compressibility (1/GPa) = 0.01949477
#
# Stress axis : x y z
#
# Youngs Moduli (GPa) = 112.07421 118.82195 88.87050
#
# Poissons Ratio (x) = -0.02894 0.17200
# Poissons Ratio (y) = -0.02730 0.25384
# Poissons Ratio (z) = 0.21691 0.33938
#
# Static dielectric constant tensor:
#      x y z
#    x 1.882860 0.000000 0.000000 
#    y 0.000000 1.997880 0.000000 
#    z 0.000000 0.000000 1.909590 
# 
# From -- ./inp_files/17588.got.cif
#   From: 2010.05.17/outbox.cif.g08.bks.cpg/sg50_9_cif.got.tgz:17588.got - 2010.06.03 11:33:33.
