data_PCOD9397272
_publ_section_title
;
Structure prediction by ZEFSAII (Michael W. Deem and Ramdas Pophale) SiO2 
 PCOD9397272
Probable space group: P B A N
;
_chemical_formula_sum "Si O2"
_cell_formula_units_Z 56
_cell_length_a 11.313470
_cell_length_b 14.554926
_cell_length_c 14.976903
_cell_angle_alpha 90.000000
_cell_angle_beta 90.000000
_cell_angle_gamma 90.000000
_cell_volume 2466.197473
_symmetry_space_group_name_H-M "P B A N"
_symmetry_group_IT_number 50
_space_group.IT_coordinate_system_code '2'
_symmetry_cell_setting 'orthorhombic'
loop_
_space_group_symop_operation_xyz
x,y,z
1/2-x,1/2-y,z
x,1/2-y,-z
1/2-x,y,-z
-x,-y,-z
1/2+x,1/2+y,-z
-x,1/2+y,z
1/2+x,-y,z
loop_
_atom_site_type_symbol
_atom_site_label
_atom_site_fract_x
_atom_site_fract_y
_atom_site_fract_z
Si Si1 0.465754 0.418931 0.374874
Si Si2 0.886635 0.272048 0.698774
Si Si3 0.925779 0.738598 0.840156
Si Si4 0.626835 0.553278 0.890027
Si Si5 0.728895 0.842192 0.675914
Si Si6 0.511461 0.882473 0.579414
Si Si7 0.107816 0.043789 0.902209
O O1 0.580673 0.376283 0.327800
O O2 0.356538 0.385402 0.314306
O O3 0.443760 0.525315 0.393623
O O4 0.472556 0.375574 0.474052
O O5 0.750000 0.250000 0.698223
O O6 0.952426 0.204237 0.627925
O O7 0.947710 0.252515 0.793861
O O8 0.883658 0.835876 0.879374
O O9 0.843231 0.696974 0.760450
O O10 0.922593 0.652443 0.905423
O O11 0.504047 0.506783 0.855438
O O12 0.761228 0.528380 0.859081
O O13 0.622249 0.520369 0.993436
O O14 0.750000 0.750000 0.618625
O O15 0.639762 0.903029 0.621243
#
# Coordination Sequence:
#
# PCOD9397272 Si02
#       7
#     8   8   8   8   8   8   8
#     4  11  23  41  64  87 121 163 212 272 321 393
#     4  11  26  43  58  90 130 163 210 264 337 395
#     4  11  23  42  65  93 127 175 216 265 326 386
#     4  10  22  41  69  98 137 171 221 270 317 385
#     4  11  21  40  62  91 123 158 216 268 318 386
#     4  10  24  40  62  92 116 164 214 265 335 383
#     4  10  22  41  67 103 130 176 222 265 320 387
#
# _framework density 22.707021999999998
#
# number of rings (size 3 to 8) (size 9 to 14) (size 15 to 20)
#    0.000    1.429    2.857    2.571    2.000    6.286 
#    0.000    0.000    0.000    4.286    0.000    0.000 
#    0.000    0.000    0.000    0.000    0.000    0.000 
#
# Total GULP energy -312253.422835 kJ/mol
# GULP energy per Si atom -5575.953979 kJ/mol
# Density = 2.265534 g / cm^3
# Si number density = 22.707022 Si / 1000 Ang^3
#
#
#
# Elastic Constant Matrix: (Units=GPa)
#
#
# Indices 1 2 3 4 5 6 
#
# 1 159.5101 38.4522 21.6433 0.0000 0.0000 0.0000
# 2 38.4522 73.2641 2.6299 0.0000 0.0000 0.0000
# 3 21.6433 2.6299 42.1974 0.0000 0.0000 0.0000
# 4 0.0000 0.0000 0.0000 13.6122 0.0000 0.0000
# 5 0.0000 0.0000 0.0000 0.0000 25.8627 0.0000
# 6 0.0000 0.0000 0.0000 0.0000 0.0000 26.0753
#
#
#
# Elastic Compliance Matrix: (Units=1/GPa)
#
#
# Indices 1 2 3 4 5 6 
#
# 1 0.007717 -0.003917 -0.003714 0.000000 0.000000 0.000000
# 2 -0.003917 0.015668 0.001033 0.000000 0.000000 0.000000
# 3 -0.003714 0.001033 0.025539 0.000000 0.000000 0.000000
# 4 0.000000 0.000000 0.000000 0.073463 0.000000 0.000000
# 5 0.000000 0.000000 0.000000 0.000000 0.038666 0.000000
# 6 0.000000 0.000000 0.000000 0.000000 0.000000 0.038350
#
#
# Mechanical properties :
#
#
# Convention : Reuss Voigt Hill
#
# Bulk Modulus (GPa) = 27.99007 44.49138 36.24073
# Shear Modulus (GPa) = 22.27070 27.25979 24.76525
#
# Velocity S-wave (km/s) = 3.13515 3.46858 3.30607
# Velocity P-wave (km/s) = 5.04568 5.97308 5.52886
#
# Compressibility (1/GPa) = 0.03572696
#
# Stress axis : x y z
#
# Youngs Moduli (GPa) = 129.57663 63.82413 39.15604
#
# Poissons Ratio (x) = 0.25001 0.14543
# Poissons Ratio (y) = 0.50757 -0.04043
# Poissons Ratio (z) = 0.48127 -0.06591
#
# Static dielectric constant tensor:
#      x y z
#    x 1.923280 0.000000 0.000000 
#    y 0.000000 1.988000 0.000000 
#    z 0.000000 0.000000 1.904080 
# 
# From -- ./inp_files/25950.got.cif
#   From: 2010.05.17/outbox.cif.g08.bks.cpg/sg50_13_cif.got.tgz:25950.got - 2010.06.03 11:33:33.
