data_PCOD9397656
_publ_section_title
;
Structure prediction by ZEFSAII (Michael W. Deem and Ramdas Pophale) SiO2 
 PCOD9397656
Probable space group: P B A N
;
_chemical_formula_sum "Si O2"
_cell_formula_units_Z 60
_cell_length_a 23.479471
_cell_length_b 20.158691
_cell_length_c 6.448676
_cell_angle_alpha 90.000000
_cell_angle_beta 90.000000
_cell_angle_gamma 90.000000
_cell_volume 3052.257665
_symmetry_space_group_name_H-M "P B A N"
_symmetry_group_IT_number 50
_space_group.IT_coordinate_system_code '2'
_symmetry_cell_setting 'orthorhombic'
loop_
_space_group_symop_operation_xyz
x,y,z
1/2-x,1/2-y,z
x,1/2-y,-z
1/2-x,y,-z
-x,-y,-z
1/2+x,1/2+y,-z
-x,1/2+y,z
1/2+x,-y,z
loop_
_atom_site_type_symbol
_atom_site_label
_atom_site_fract_x
_atom_site_fract_y
_atom_site_fract_z
Si Si1 0.901174 0.633438 0.272281
Si Si2 0.190759 0.904942 0.109901
Si Si3 0.387122 0.680100 0.416703
Si Si4 0.456395 0.048443 0.100673
Si Si5 0.983568 0.828452 0.342748
Si Si6 0.307850 0.472380 0.410200
Si Si7 0.876475 0.440339 0.713349
Si Si8 0.908953 0.750000 0.000000
O O1 0.854320 0.585221 0.374818
O O2 0.947029 0.662304 0.442270
O O3 0.928826 0.588495 0.090530
O O4 0.876626 0.695654 0.140087
O O5 0.160136 0.853367 0.266398
O O6 0.198783 0.978276 0.212922
O O7 0.250000 0.884096 0.000000
O O8 0.145275 0.913613 0.929375
O O9 0.363795 0.750000 0.500000
O O10 0.451465 0.696873 0.341060
O O11 0.399156 0.622182 0.585395
O O12 0.487588 0.098157 0.252729
O O13 0.416394 0.002207 0.237974
O O14 0.500000 0.000000 0.000000
O O15 0.947459 0.787809 0.171691
O O16 0.250000 0.442282 0.500000
O O17 0.326630 0.525907 0.582175
#
# Coordination Sequence:
#
# PCOD9397656 Si02
#       8
#     8   8   8   8   8   8   8   4
#     4  11  22  39  65  98 131 171 212 266 325 395
#     4  11  23  43  67  90 127 167 214 281 327 376
#     4  11  26  42  63  93 129 176 221 261 321 394
#     4  11  22  34  60 101 131 165 210 262 333 391
#     4  11  23  41  64  92 136 174 214 263 321 397
#     4  11  22  39  69  98 121 163 220 269 331 384
#     4  11  22  40  63  93 128 161 213 271 323 382
#     4  10  24  42  66  93 135 178 214 246 324 400
#
# _framework density 19.657578999999998
#
# number of rings (size 3 to 8) (size 9 to 14) (size 15 to 20)
#    0.000    1.067    4.000    2.800    1.867    4.800 
#    0.000    2.000    0.000    2.400    0.000    0.000 
#    0.000    0.000    0.000    0.000    0.000    0.000 
#
# Total GULP energy -334270.098251 kJ/mol
# GULP energy per Si atom -5571.168304 kJ/mol
# Density = 1.961284 g / cm^3
# Si number density = 19.657579 Si / 1000 Ang^3
#
#
#
# Elastic Constant Matrix: (Units=GPa)
#
#
# Indices 1 2 3 4 5 6 
#
# 1 55.8262 18.8308 14.1425 0.0000 0.0000 0.0000
# 2 18.8308 93.3226 43.9025 0.0000 0.0000 0.0000
# 3 14.1425 43.9025 79.1778 0.0000 0.0000 0.0000
# 4 0.0000 0.0000 0.0000 99.3798 0.0000 0.0000
# 5 0.0000 0.0000 0.0000 0.0000 21.9086 0.0000
# 6 0.0000 0.0000 0.0000 0.0000 0.0000 11.3775
#
#
#
# Elastic Compliance Matrix: (Units=1/GPa)
#
#
# Indices 1 2 3 4 5 6 
#
# 1 0.019399 -0.003090 -0.001751 0.000000 0.000000 0.000000
# 2 -0.003090 0.014989 -0.007759 0.000000 0.000000 0.000000
# 3 -0.001751 -0.007759 0.017245 0.000000 0.000000 0.000000
# 4 0.000000 0.000000 0.000000 0.010062 0.000000 0.000000
# 5 0.000000 0.000000 0.000000 0.000000 0.045644 0.000000
# 6 0.000000 0.000000 0.000000 0.000000 0.000000 0.087893
#
#
# Mechanical properties :
#
#
# Convention : Reuss Voigt Hill
#
# Bulk Modulus (GPa) = 37.83435 42.45313 40.14374
# Shear Modulus (GPa) = 21.81073 36.62991 29.22032
#
# Velocity S-wave (km/s) = 3.33458 4.32139 3.85965
# Velocity P-wave (km/s) = 5.84075 6.82220 6.35047
#
# Compressibility (1/GPa) = 0.02643101
#
# Stress axis : x y z
#
# Youngs Moduli (GPa) = 51.54951 66.71388 57.98781
#
# Poissons Ratio (x) = 0.20617 0.10156
# Poissons Ratio (y) = 0.15931 0.44995
# Poissons Ratio (z) = 0.09028 0.51765
#
# Static dielectric constant tensor:
#      x y z
#    x 2.456080 0.000000 0.000000 
#    y 0.000000 1.745110 0.000000 
#    z 0.000000 0.000000 1.640230 
# 
# From -- ./inp_files/6116.got.cif
#   From: 2010.05.17/outbox.cif.g08.bks.cpg/sg50_4_cif.got.tgz:6116.got - 2010.06.03 11:33:33.
