data_PCOD9397755
_publ_section_title
;
Structure prediction by ZEFSAII (Michael W. Deem and Ramdas Pophale) SiO2 
 PCOD9397755
Probable space group: P B A N
;
_chemical_formula_sum "Si O2"
_cell_formula_units_Z 64
_cell_length_a 14.009682
_cell_length_b 18.358113
_cell_length_c 11.444881
_cell_angle_alpha 90.000000
_cell_angle_beta 90.000000
_cell_angle_gamma 90.000000
_cell_volume 2943.524112
_symmetry_space_group_name_H-M "P B A N"
_symmetry_group_IT_number 50
_space_group.IT_coordinate_system_code '2'
_symmetry_cell_setting 'orthorhombic'
loop_
_space_group_symop_operation_xyz
x,y,z
1/2-x,1/2-y,z
x,1/2-y,-z
1/2-x,y,-z
-x,-y,-z
1/2+x,1/2+y,-z
-x,1/2+y,z
1/2+x,-y,z
loop_
_atom_site_type_symbol
_atom_site_label
_atom_site_fract_x
_atom_site_fract_y
_atom_site_fract_z
Si Si1 0.856215 0.234320 0.637043
Si Si2 0.332789 0.567951 0.321762
Si Si3 0.627175 0.007672 0.699241
Si Si4 0.362044 0.426062 0.472594
Si Si5 0.991373 0.855187 0.713937
Si Si6 0.141969 0.946018 0.048091
Si Si7 0.005512 0.329141 0.972034
Si Si8 0.154520 0.085187 0.929070
O O1 0.750000 0.250000 0.687575
O O2 0.853766 0.250000 0.500000
O O3 0.870429 0.147607 0.646714
O O4 0.934432 0.289182 0.689628
O O5 0.218126 0.557713 0.336854
O O6 0.368354 0.500529 0.397746
O O7 0.357572 0.558608 0.186384
O O8 0.546823 0.067342 0.724722
O O9 0.597353 0.951416 0.597722
O O10 0.662305 0.956865 0.806599
O O11 0.250000 0.408351 0.500000
O O12 0.417403 0.366895 0.393602
O O13 0.950546 0.837942 0.842587
O O14 0.250000 0.942245 0.000000
O O15 0.081318 0.883922 0.988500
O O16 0.104342 0.024529 0.010152
O O17 0.967848 0.250000 0.000000
O O18 0.084737 0.347189 0.069741
O O19 0.250000 0.103171 0.000000
#
# Coordination Sequence:
#
# PCOD9397755 Si02
#       8
#     8   8   8   8   8   8   8   8
#     4  11  24  39  65  97 143 186 220 275 358 434
#     4  11  20  40  65 101 140 179 233 284 357 423
#     4  11  21  39  67 105 134 180 236 294 347 420
#     4  10  25  40  70 101 135 182 240 298 347 409
#     4  12  23  44  66  99 147 182 232 294 353 430
#     4  11  21  40  67 101 134 179 223 284 352 420
#     4  12  27  43  64 102 138 184 236 286 358 433
#     4  11  23  43  72  95 133 183 238 294 350 408
#
# _framework density 21.742645
#
# number of rings (size 3 to 8) (size 9 to 14) (size 15 to 20)
#    0.000    0.875    5.000    3.000    7.000    0.500 
#    2.250    0.000    0.000    0.375    0.000    0.000 
#    0.000    0.000    0.000    0.000    0.000    0.000 
#
# Total GULP energy -357491.607108 kJ/mol
# GULP energy per Si atom -5585.806361 kJ/mol
# Density = 2.169316 g / cm^3
# Si number density = 21.742645 Si / 1000 Ang^3
#
#
#
# Elastic Constant Matrix: (Units=GPa)
#
#
# Indices 1 2 3 4 5 6 
#
# 1 80.4204 27.5858 12.8527 0.0000 0.0000 0.0000
# 2 27.5858 66.1825 25.8018 0.0000 0.0000 0.0000
# 3 12.8527 25.8018 122.1880 0.0000 0.0000 0.0000
# 4 0.0000 0.0000 0.0000 22.3401 0.0000 0.0000
# 5 0.0000 0.0000 0.0000 0.0000 21.3000 0.0000
# 6 0.0000 0.0000 0.0000 0.0000 0.0000 27.7675
#
#
#
# Elastic Compliance Matrix: (Units=1/GPa)
#
#
# Indices 1 2 3 4 5 6 
#
# 1 0.014517 -0.005945 -0.000272 0.000000 0.000000 0.000000
# 2 -0.005945 0.018900 -0.003366 0.000000 0.000000 0.000000
# 3 -0.000272 -0.003366 0.008923 0.000000 0.000000 0.000000
# 4 0.000000 0.000000 0.000000 0.044763 0.000000 0.000000
# 5 0.000000 0.000000 0.000000 0.000000 0.046948 0.000000
# 6 0.000000 0.000000 0.000000 0.000000 0.000000 0.036013
#
#
# Mechanical properties :
#
#
# Convention : Reuss Voigt Hill
#
# Bulk Modulus (GPa) = 43.14847 44.58572 43.86710
# Shear Modulus (GPa) = 25.38651 27.78489 26.58570
#
# Velocity S-wave (km/s) = 3.42071 3.57865 3.50057
# Velocity P-wave (km/s) = 5.95734 6.13403 6.04633
#
# Compressibility (1/GPa) = 0.02317579
#
# Stress axis : x y z
#
# Youngs Moduli (GPa) = 68.88300 52.91045 112.06512
#
# Poissons Ratio (x) = 0.31456 0.03044
# Poissons Ratio (y) = 0.40952 0.37717
# Poissons Ratio (z) = 0.01871 0.17808
#
# Static dielectric constant tensor:
#      x y z
#    x 1.855720 0.000000 0.000000 
#    y 0.000000 1.766710 0.000000 
#    z 0.000000 0.000000 1.820760 
# 
# From -- ./inp_files/21358.got.cif
#   From: 2010.05.17/outbox.cif.g08.bks.cpg/sg50_11_cif.got.tgz:21358.got - 2010.06.03 11:33:33.
