data_PCOD9397960
_publ_section_title
;
Structure prediction by ZEFSAII (Michael W. Deem and Ramdas Pophale) SiO2 
 PCOD9397960
Probable space group: P B A N
;
_chemical_formula_sum "Si O2"
_cell_formula_units_Z 64
_cell_length_a 11.386624
_cell_length_b 18.260155
_cell_length_c 15.959994
_cell_angle_alpha 90.000000
_cell_angle_beta 90.000000
_cell_angle_gamma 90.000000
_cell_volume 3318.426198
_symmetry_space_group_name_H-M "P B A N"
_symmetry_group_IT_number 50
_space_group.IT_coordinate_system_code '2'
_symmetry_cell_setting 'orthorhombic'
loop_
_space_group_symop_operation_xyz
x,y,z
1/2-x,1/2-y,z
x,1/2-y,-z
1/2-x,y,-z
-x,-y,-z
1/2+x,1/2+y,-z
-x,1/2+y,z
1/2+x,-y,z
loop_
_atom_site_type_symbol
_atom_site_label
_atom_site_fract_x
_atom_site_fract_y
_atom_site_fract_z
Si Si1 0.828584 0.917724 0.834471
Si Si2 0.502655 0.412219 0.015871
Si Si3 0.945679 0.257303 0.593152
Si Si4 0.679525 0.322578 0.129174
Si Si5 0.851566 0.076451 0.761471
Si Si6 0.448812 0.282599 0.235563
Si Si7 0.074206 0.364689 0.162355
Si Si8 0.254186 0.873922 0.593824
O O1 0.876586 0.856849 0.771060
O O2 0.689256 0.913881 0.840602
O O3 0.892989 0.899616 0.921843
O O4 0.862865 0.997620 0.803389
O O5 0.615300 0.375105 0.061275
O O6 0.500000 0.500000 0.000000
O O7 0.487388 0.373012 0.927232
O O8 0.997341 0.250000 0.500000
O O9 0.869312 0.331718 0.604626
O O10 0.851301 0.191167 0.596826
O O11 0.034001 0.256642 0.669772
O O12 0.750000 0.250000 0.099541
O O13 0.768525 0.371948 0.182497
O O14 0.576227 0.295673 0.192151
O O15 0.792461 0.074506 0.669904
O O16 0.981064 0.111117 0.767174
O O17 0.391142 0.218262 0.181477
O O18 0.250000 0.906117 0.500000
#
# Coordination Sequence:
#
# PCOD9397960 Si02
#       8
#     8   8   8   8   8   8   8   8
#     4  11  27  42  64  86 129 180 213 257 323 400
#     4  11  24  45  63  93 127 172 216 270 334 385
#     4   9  16  31  63  99 123 155 202 264 321 373
#     4  11  22  39  63  97 127 158 217 284 323 371
#     4  12  22  39  66  95 129 168 212 271 328 381
#     4  11  22  42  63  92 126 170 216 263 321 380
#     4  12  24  42  63  89 125 168 222 262 312 393
#     4   9  17  31  60 100 130 153 199 266 324 371
#
# _framework density 19.286251
#
# number of rings (size 3 to 8) (size 9 to 14) (size 15 to 20)
#    0.000    1.250    5.000    2.250    1.750    2.500 
#    2.250    2.500    2.750    3.000    0.000    0.000 
#    0.000    0.000    0.000    0.000    0.000    0.000 
#
# Total GULP energy -357357.052926 kJ/mol
# GULP energy per Si atom -5583.703952 kJ/mol
# Density = 1.924235 g / cm^3
# Si number density = 19.286251 Si / 1000 Ang^3
#
#
#
# Elastic Constant Matrix: (Units=GPa)
#
#
# Indices 1 2 3 4 5 6 
#
# 1 65.6757 3.7245 17.8570 0.0000 0.0000 0.0000
# 2 3.7245 72.4911 15.2887 0.0000 0.0000 0.0000
# 3 17.8570 15.2887 118.9119 0.0000 0.0000 0.0000
# 4 0.0000 0.0000 0.0000 22.4166 0.0000 0.0000
# 5 0.0000 0.0000 0.0000 0.0000 16.7652 0.0000
# 6 0.0000 0.0000 0.0000 0.0000 0.0000 28.2531
#
#
#
# Elastic Compliance Matrix: (Units=1/GPa)
#
#
# Indices 1 2 3 4 5 6 
#
# 1 0.015882 -0.000322 -0.002344 0.000000 0.000000 0.000000
# 2 -0.000322 0.014186 -0.001776 0.000000 0.000000 0.000000
# 3 -0.002344 -0.001776 0.008990 0.000000 0.000000 0.000000
# 4 0.000000 0.000000 0.000000 0.044610 0.000000 0.000000
# 5 0.000000 0.000000 0.000000 0.000000 0.059647 0.000000
# 6 0.000000 0.000000 0.000000 0.000000 0.000000 0.035394
#
#
# Mechanical properties :
#
#
# Convention : Reuss Voigt Hill
#
# Bulk Modulus (GPa) = 33.13933 36.75767 34.94850
# Shear Modulus (GPa) = 25.29734 28.16755 26.73244
#
# Velocity S-wave (km/s) = 3.62564 3.82579 3.72706
# Velocity P-wave (km/s) = 5.89467 6.21418 6.05653
#
# Compressibility (1/GPa) = 0.03017562
#
# Stress axis : x y z
#
# Youngs Moduli (GPa) = 62.96517 70.49301 111.23703
#
# Poissons Ratio (x) = 0.02268 0.26069
# Poissons Ratio (y) = 0.02026 0.19751
# Poissons Ratio (z) = 0.14757 0.12517
#
# Static dielectric constant tensor:
#      x y z
#    x 1.683770 0.000000 0.000000 
#    y 0.000000 1.670830 0.000000 
#    z 0.000000 0.000000 1.692270 
# 
# From -- ./inp_files/26056.got.cif
#   From: 2010.05.17/outbox.cif.g08.bks.cpg/sg50_14_cif.got.tgz:26056.got - 2010.06.03 11:33:33.
