data_PCOD9397799
_publ_section_title
;
Structure prediction by ZEFSAII (Michael W. Deem and Ramdas Pophale) SiO2 
 PCOD9397799
Probable space group: P B A N
;
_chemical_formula_sum "Si O2"
_cell_formula_units_Z 28
_cell_length_a 22.051160
_cell_length_b 10.160747
_cell_length_c 4.915982
_cell_angle_alpha 90.000000
_cell_angle_beta 90.000000
_cell_angle_gamma 90.000000
_cell_volume 1101.456530
_symmetry_space_group_name_H-M "P B A N"
_symmetry_group_IT_number 50
_space_group.IT_coordinate_system_code '2'
_symmetry_cell_setting 'orthorhombic'
loop_
_space_group_symop_operation_xyz
x,y,z
1/2-x,1/2-y,z
x,1/2-y,-z
1/2-x,y,-z
-x,-y,-z
1/2+x,1/2+y,-z
-x,1/2+y,z
1/2+x,-y,z
loop_
_atom_site_type_symbol
_atom_site_label
_atom_site_fract_x
_atom_site_fract_y
_atom_site_fract_z
Si Si1 0.683041 0.444486 0.444564
Si Si2 0.525206 0.838447 0.742713
Si Si3 0.088270 0.750000 0.500000
Si Si4 0.860875 0.591665 0.012208
O O1 0.750000 0.394336 0.500000
O O2 0.637304 0.332651 0.330373
O O3 0.688379 0.549230 0.206327
O O4 0.653874 0.517316 0.708082
O O5 0.555492 0.750000 0.500000
O O6 0.459225 0.860164 0.611000
O O7 0.572579 0.938742 0.874143
O O8 0.508060 0.750000 0.000000
O O9 0.861774 0.750000 0.000000
#
# Coordination Sequence:
#
# PCOD9397799 Si02
#       4
#     8   8   4   8
#     4  12  27  44  70  98 138 189 225 283 337 414
#     4   9  20  41  66 101 132 171 219 281 352 388
#     4  10  27  44  70 102 141 174 236 276 356 408
#     4  11  24  46  69 101 134 174 234 282 344 404
#
# _framework density 25.420888000000001
#
# number of rings (size 3 to 8) (size 9 to 14) (size 15 to 20)
#    0.857    0.571    0.000    5.571    4.000    5.714 
#    0.000    2.857    0.000    0.000    0.000    0.000 
#    0.000    0.000    0.000    0.000    0.000    0.000 
#
# Total GULP energy -155869.549760 kJ/mol
# GULP energy per Si atom -5566.769634 kJ/mol
# Density = 2.536303 g / cm^3
# Si number density = 25.420888 Si / 1000 Ang^3
#
#
#
# Elastic Constant Matrix: (Units=GPa)
#
#
# Indices 1 2 3 4 5 6 
#
# 1 143.4747 39.3355 1.9386 0.0000 0.0000 0.0000
# 2 39.3355 66.9251 10.6667 0.0000 0.0000 0.0000
# 3 1.9386 10.6667 125.0543 0.0000 0.0000 0.0000
# 4 0.0000 0.0000 0.0000 32.3738 0.0000 0.0000
# 5 0.0000 0.0000 0.0000 0.0000 30.4055 0.0000
# 6 0.0000 0.0000 0.0000 0.0000 0.0000 41.5327
#
#
#
# Elastic Compliance Matrix: (Units=1/GPa)
#
#
# Indices 1 2 3 4 5 6 
#
# 1 0.008319 -0.004936 0.000292 0.000000 0.000000 0.000000
# 2 -0.004936 0.018077 -0.001465 0.000000 0.000000 0.000000
# 3 0.000292 -0.001465 0.008117 0.000000 0.000000 0.000000
# 4 0.000000 0.000000 0.000000 0.030889 0.000000 0.000000
# 5 0.000000 0.000000 0.000000 0.000000 0.032889 0.000000
# 6 0.000000 0.000000 0.000000 0.000000 0.000000 0.024077
#
#
# Mechanical properties :
#
#
# Convention : Reuss Voigt Hill
#
# Bulk Modulus (GPa) = 44.85490 48.81509 46.83500
# Shear Modulus (GPa) = 35.20658 39.76329 37.48493
#
# Velocity S-wave (km/s) = 3.72552 3.95928 3.84418
# Velocity P-wave (km/s) = 6.01575 6.33606 6.17798
#
# Compressibility (1/GPa) = 0.02229411
#
# Stress axis : x y z
#
# Youngs Moduli (GPa) = 120.20309 55.31918 123.19837
#
# Poissons Ratio (x) = 0.27307 -0.03598
# Poissons Ratio (y) = 0.59335 0.18053
# Poissons Ratio (z) = -0.03511 0.08106
#
# Static dielectric constant tensor:
#      x y z
#    x 2.147770 0.000000 0.000000 
#    y 0.000000 2.059300 0.000000 
#    z 0.000000 0.000000 2.261180 
# 
# From -- ./inp_files/4866.got.cif
#   From: 2010.05.17/outbox.cif.g08.bks.cpg/sg50_3_cif.got.tgz:4866.got - 2010.06.03 11:33:33.
