data_PCOD9397226
_publ_section_title
;
Structure prediction by ZEFSAII (Michael W. Deem and Ramdas Pophale) SiO2 
 PCOD9397226
Probable space group: P B A N
;
_chemical_formula_sum "Si O2"
_cell_formula_units_Z 48
_cell_length_a 17.113492
_cell_length_b 5.119046
_cell_length_c 25.588223
_cell_angle_alpha 90.000000
_cell_angle_beta 90.000000
_cell_angle_gamma 90.000000
_cell_volume 2241.649950
_symmetry_space_group_name_H-M "P B A N"
_symmetry_group_IT_number 50
_space_group.IT_coordinate_system_code '2'
_symmetry_cell_setting 'orthorhombic'
loop_
_space_group_symop_operation_xyz
x,y,z
1/2-x,1/2-y,z
x,1/2-y,-z
1/2-x,y,-z
-x,-y,-z
1/2+x,1/2+y,-z
-x,1/2+y,z
1/2+x,-y,z
loop_
_atom_site_type_symbol
_atom_site_label
_atom_site_fract_x
_atom_site_fract_y
_atom_site_fract_z
Si Si1 0.750000 0.750000 0.219498
Si Si2 0.048691 0.766571 0.062644
Si Si3 0.165514 0.887551 0.146091
Si Si4 0.442970 0.542504 0.603517
Si Si5 0.173603 0.628203 0.305985
Si Si6 0.558499 0.250000 0.500000
Si Si7 0.948177 0.367883 0.234976
O O1 0.815395 0.648647 0.178769
O O2 0.708118 0.547516 0.258698
O O3 0.128702 0.866438 0.088910
O O4 0.017549 0.479570 0.077721
O O5 0.056966 0.750000 0.000000
O O6 0.250000 0.750000 0.147768
O O7 0.093829 0.785809 0.181071
O O8 0.490529 0.269775 0.605346
O O9 0.382975 0.512397 0.650876
O O10 0.396852 0.660052 0.552365
O O11 0.250000 0.750000 0.331692
O O12 0.119331 0.841064 0.277825
O O13 0.500000 0.500000 0.500000
O O14 0.985077 0.651332 0.240918
#
# Coordination Sequence:
#
# PCOD9397226 Si02
#       7
#     4   8   8   8   8   4   8
#     4  12  24  44  62  93 149 184 230 268 346 406
#     4  10  24  47  73 101 132 168 220 281 338 399
#     4  12  25  42  67  97 134 179 219 275 340 406
#     4  10  22  40  66  97 125 171 226 280 339 400
#     4  12  25  41  60  92 136 182 218 283 335 405
#     4   8  16  36  63  92 125 158 216 284 334 392
#     4  12  24  40  62  90 124 169 224 268 319 390
#
# _framework density 21.412797000000001
#
# number of rings (size 3 to 8) (size 9 to 14) (size 15 to 20)
#    0.000    1.000    3.333    3.000    4.667    0.333 
#    0.000    0.417    0.000    0.000    0.000    0.000 
#    0.000    0.000    0.000    0.000    0.000    0.000 
#
# Total GULP energy -267308.569272 kJ/mol
# GULP energy per Si atom -5568.928527 kJ/mol
# Density = 2.136406 g / cm^3
# Si number density = 21.412797 Si / 1000 Ang^3
#
#
#
# Elastic Constant Matrix: (Units=GPa)
#
#
# Indices 1 2 3 4 5 6 
#
# 1 78.3706 8.0067 29.0106 0.0000 0.0000 0.0000
# 2 8.0067 77.2529 10.3768 0.0000 0.0000 0.0000
# 3 29.0106 10.3768 77.2641 0.0000 0.0000 0.0000
# 4 0.0000 0.0000 0.0000 16.0140 0.0000 0.0000
# 5 0.0000 0.0000 0.0000 0.0000 13.4136 0.0000
# 6 0.0000 0.0000 0.0000 0.0000 0.0000 14.9815
#
#
#
# Elastic Compliance Matrix: (Units=1/GPa)
#
#
# Indices 1 2 3 4 5 6 
#
# 1 0.014869 -0.000806 -0.005475 0.000000 0.000000 0.000000
# 2 -0.000806 0.013226 -0.001474 0.000000 0.000000 0.000000
# 3 -0.005475 -0.001474 0.015196 0.000000 0.000000 0.000000
# 4 0.000000 0.000000 0.000000 0.062445 0.000000 0.000000
# 5 0.000000 0.000000 0.000000 0.000000 0.074551 0.000000
# 6 0.000000 0.000000 0.000000 0.000000 0.000000 0.066749
#
#
# Mechanical properties :
#
#
# Convention : Reuss Voigt Hill
#
# Bulk Modulus (GPa) = 35.99361 36.40842 36.20102
# Shear Modulus (GPa) = 18.39554 21.24807 19.82180
#
# Velocity S-wave (km/s) = 2.93421 3.15351 3.04583
# Velocity P-wave (km/s) = 5.32215 5.50450 5.41409
#
# Compressibility (1/GPa) = 0.02778271
#
# Stress axis : x y z
#
# Youngs Moduli (GPa) = 67.25519 75.60884 65.80628
#
# Poissons Ratio (x) = 0.06092 0.36026
# Poissons Ratio (y) = 0.05419 0.09698
# Poissons Ratio (z) = 0.36820 0.11143
#
# Static dielectric constant tensor:
#      x y z
#    x 1.798270 0.000000 0.000000 
#    y 0.000000 1.866880 0.000000 
#    z 0.000000 0.000000 2.008450 
# 
# From -- ./inp_files/32271.got.cif
#   From: 2010.05.17/outbox.cif.g08.bks.cpg/sg50_17_cif.got.tgz:32271.got - 2010.06.03 11:33:33.
