data_PCOD9397418
_publ_section_title
;
Structure prediction by ZEFSAII (Michael W. Deem and Ramdas Pophale) SiO2 
 PCOD9397418
Probable space group: P B A N
;
_chemical_formula_sum "Si O2"
_cell_formula_units_Z 30
_cell_length_a 7.384689
_cell_length_b 14.492316
_cell_length_c 13.155227
_cell_angle_alpha 90.000000
_cell_angle_beta 90.000000
_cell_angle_gamma 90.000000
_cell_volume 1407.888792
_symmetry_space_group_name_H-M "P B A N"
_symmetry_group_IT_number 50
_space_group.IT_coordinate_system_code '2'
_symmetry_cell_setting 'orthorhombic'
loop_
_space_group_symop_operation_xyz
x,y,z
1/2-x,1/2-y,z
x,1/2-y,-z
1/2-x,y,-z
-x,-y,-z
1/2+x,1/2+y,-z
-x,1/2+y,z
1/2+x,-y,z
loop_
_atom_site_type_symbol
_atom_site_label
_atom_site_fract_x
_atom_site_fract_y
_atom_site_fract_z
Si Si1 0.750000 0.250000 0.500000
Si Si2 0.350822 0.842904 0.694582
Si Si3 0.750000 0.250000 0.000000
Si Si4 0.587052 0.094665 0.846574
Si Si5 0.336398 0.107736 0.157216
Si Si6 0.250000 0.250000 0.000000
O O1 0.640099 0.181462 0.424732
O O2 0.207326 0.914007 0.742640
O O3 0.539310 0.865335 0.747491
O O4 0.377409 0.111535 0.821396
O O5 0.658921 0.326273 0.077784
O O6 0.750000 0.250000 0.731486
O O7 0.607561 0.990864 0.888159
O O8 0.366554 0.184259 0.071341
#
# Coordination Sequence:
#
# PCOD9397418 Si02
#       6
#     2   8   2   8   8   2
#     4   8  22  48  82 102 128 188 242 300 382 442
#     4  10  22  48  72  99 140 179 237 302 363 426
#     4  12  26  44  70 102 154 208 238 302 336 426
#     4  12  25  43  69 104 147 192 242 290 359 417
#     4  12  26  43  69 105 148 191 242 295 345 439
#     4  12  28  40  66 106 144 202 244 268 354 418
#
# _framework density 21.308501
#
# number of rings (size 3 to 8) (size 9 to 14) (size 15 to 20)
#    0.800    0.000    4.000    3.200    3.733    2.133 
#    0.000    4.000    0.000    0.000    0.000    0.000 
#    0.000    0.000    0.000    0.000    0.000    0.000 
#
# Total GULP energy -167150.683966 kJ/mol
# GULP energy per Si atom -5571.689466 kJ/mol
# Density = 2.126000 g / cm^3
# Si number density = 21.308501 Si / 1000 Ang^3
#
#
#
# Elastic Constant Matrix: (Units=GPa)
#
#
# Indices 1 2 3 4 5 6 
#
# 1 167.0414 40.4646 81.6457 0.0000 0.0000 0.0000
# 2 40.4646 164.3006 58.6921 0.0000 0.0000 0.0000
# 3 81.6457 58.6921 159.9795 0.0000 0.0000 0.0000
# 4 0.0000 0.0000 0.0000 -249.2936 0.0000 0.0000
# 5 0.0000 0.0000 0.0000 0.0000 -21.8298 0.0000
# 6 0.0000 0.0000 0.0000 0.0000 0.0000 28.8874
#
#
#
# Elastic Compliance Matrix: (Units=1/GPa)
#
#
# Indices 1 2 3 4 5 6 
#
# 1 0.008026 -0.000591 -0.003879 0.000000 0.000000 0.000000
# 2 -0.000591 0.007048 -0.002284 0.000000 0.000000 0.000000
# 3 -0.003879 -0.002284 0.009069 0.000000 0.000000 0.000000
# 4 0.000000 0.000000 0.000000 -0.004011 0.000000 0.000000
# 5 0.000000 0.000000 0.000000 0.000000 -0.045809 0.000000
# 6 0.000000 0.000000 0.000000 0.000000 0.000000 0.034617
#
#
# Mechanical properties :
#
#
# Convention : Reuss Voigt Hill
#
# Bulk Modulus (GPa) = 94.03977 94.76958 94.40467
# Shear Modulus (GPa) = 192.36820 -27.74591 82.31114
#
# Velocity S-wave (km/s) = 9.51176 -3.61238 6.22191
# Velocity P-wave (km/s) = 12.83978 5.21272 9.79878
#
# Compressibility (1/GPa) = 0.01063380
#
# Stress axis : x y z
#
# Youngs Moduli (GPa) = 124.59964 141.88689 110.27174
#
# Poissons Ratio (x) = 0.08384 0.42776
# Poissons Ratio (y) = 0.07362 0.25187
# Poissons Ratio (z) = 0.48334 0.32409
#
# Static dielectric constant tensor:
#      x y z
#    x 1.892930 0.000000 0.000000 
#    y 0.000000 2.326180 0.000000 
#    z 0.000000 0.000000 1.800910 
# 
# From -- ./inp_files/18429.got.cif
#   From: 2010.05.17/outbox.cif.g08.bks.cpg/sg50_10_cif.got.tgz:18429.got - 2010.06.03 11:33:33.
