data_PCOD9397825
_publ_section_title
;
Structure prediction by ZEFSAII (Michael W. Deem and Ramdas Pophale) SiO2 
 PCOD9397825
Probable space group: P B A N
;
_chemical_formula_sum "Si O2"
_cell_formula_units_Z 64
_cell_length_a 10.370213
_cell_length_b 23.016204
_cell_length_c 16.903404
_cell_angle_alpha 90.000000
_cell_angle_beta 90.000000
_cell_angle_gamma 90.000000
_cell_volume 4034.554128
_symmetry_space_group_name_H-M "P B A N"
_symmetry_group_IT_number 50
_space_group.IT_coordinate_system_code '2'
_symmetry_cell_setting 'orthorhombic'
loop_
_space_group_symop_operation_xyz
x,y,z
1/2-x,1/2-y,z
x,1/2-y,-z
1/2-x,y,-z
-x,-y,-z
1/2+x,1/2+y,-z
-x,1/2+y,z
1/2+x,-y,z
loop_
_atom_site_type_symbol
_atom_site_label
_atom_site_fract_x
_atom_site_fract_y
_atom_site_fract_z
Si Si1 0.750000 0.560763 0.593077
Si Si2 0.593402 0.680758 0.825397
Si Si3 0.750000 0.421440 0.593805
Si Si4 0.398961 0.320403 0.000000
Si Si5 0.510692 0.870245 0.335568
Si Si6 0.398197 0.250000 0.405731
Si Si7 0.406598 0.319242 0.825397
Si Si8 0.989308 0.870245 0.335568
O O1 0.750000 0.577084 0.500000
O O2 0.750000 0.491337 0.598748
O O3 0.624566 0.588056 0.633769
O O4 0.875434 0.588056 0.633769
O O5 0.528327 0.642977 0.757248
O O6 0.567850 0.750000 0.813798
O O7 0.750000 0.674534 0.821087
O O8 0.547984 0.663376 0.913890
O O9 0.750000 0.406253 0.500000
O O10 0.623932 0.396348 0.636416
O O11 0.876068 0.396348 0.636416
O O12 0.452016 0.336624 0.913890
O O13 0.397225 0.250000 0.000000
O O14 0.250000 0.339677 0.000000
O O15 0.533710 0.807845 0.376110
O O16 0.250000 0.250000 0.375315
O O17 0.394225 0.250000 0.500000
O O18 0.466290 0.192155 0.376110
O O19 0.471673 0.357023 0.757248
#
# Coordination Sequence:
#
# PCOD9397825 Si02
#       8
#     8   8   8   8   8   8   8   8
#     4  11  22  39  59  74  95 137 190 231 260 302
#     4   9  15  28  49  80 109 134 167 209 258 316
#     4  11  26  41  51  72 105 143 186 227 262 302
#     4   7  12  22  44  75 110 134 157 204 259 306
#     4  12  21  35  56  79 105 138 173 220 269 314
#     4  11  20  31  51  78 104 133 170 213 268 320
#     4   9  15  28  49  80 109 134 167 209 258 316
#     4  12  21  35  56  79 105 138 173 220 269 314
#
# _framework density 15.862966
#
# number of rings (size 3 to 8) (size 9 to 14) (size 15 to 20)
#    0.000    1.750    3.750    4.500    0.000    2.500 
#    0.000    1.250    0.000    0.750    0.000    7.875 
#    0.000    0.000    0.000    0.000    0.000    0.000 
#
# Total GULP energy -356915.172527 kJ/mol
# GULP energy per Si atom -5576.799571 kJ/mol
# Density = 1.582686 g / cm^3
# Si number density = 15.862966 Si / 1000 Ang^3
#
#
#
# Elastic Constant Matrix: (Units=GPa)
#
#
# Indices 1 2 3 4 5 6 
#
# 1 109.5604 45.1682 61.0039 0.0000 0.0000 0.0000
# 2 45.1682 69.5187 53.4037 0.0000 0.0000 0.0000
# 3 61.0039 53.4037 181.0143 0.0000 0.0000 0.0000
# 4 0.0000 0.0000 0.0000 -11.7297 0.0000 0.0000
# 5 0.0000 0.0000 0.0000 0.0000 16.4629 0.0000
# 6 0.0000 0.0000 0.0000 0.0000 0.0000 -10.7016
#
#
#
# Elastic Compliance Matrix: (Units=1/GPa)
#
#
# Indices 1 2 3 4 5 6 
#
# 1 0.013285 -0.006714 -0.002497 0.000000 0.000000 0.000000
# 2 -0.006714 0.021993 -0.004226 0.000000 0.000000 0.000000
# 3 -0.002497 -0.004226 0.007612 0.000000 0.000000 0.000000
# 4 0.000000 0.000000 0.000000 -0.085254 0.000000 0.000000
# 5 0.000000 0.000000 0.000000 0.000000 0.060742 0.000000
# 6 0.000000 0.000000 0.000000 0.000000 0.000000 -0.093444
#
#
# Mechanical properties :
#
#
# Convention : Reuss Voigt Hill
#
# Bulk Modulus (GPa) = 62.42871 75.47166 68.95019
# Shear Modulus (GPa) = -116.68208 12.17417 -52.25396
#
# Velocity S-wave (km/s) = -8.58580 2.77331 -5.74564
# Velocity P-wave (km/s) = 7.67121 7.61154 0.67526
#
# Compressibility (1/GPa) = 0.01601827
#
# Stress axis : x y z
#
# Youngs Moduli (GPa) = 75.27012 45.46853 131.36292
#
# Poissons Ratio (x) = 0.30528 0.32795
# Poissons Ratio (y) = 0.50537 0.55511
# Poissons Ratio (z) = 0.18791 0.19214
#
# Static dielectric constant tensor:
#      x y z
#    x 2.555390 0.000000 0.000000 
#    y 0.000000 1.505380 0.000000 
#    z 0.000000 0.000000 1.571950 
# 
# From -- ./inp_files/29006.got.cif
#   From: 2010.05.17/outbox.cif.g08.bks.cpg/sg50_15_cif.got.tgz:29006.got - 2010.06.03 11:33:33.
