data_PCOD9397299
_publ_section_title
;
Structure prediction by ZEFSAII (Michael W. Deem and Ramdas Pophale) SiO2 
 PCOD9397299
Probable space group: P B A N
;
_chemical_formula_sum "Si O2"
_cell_formula_units_Z 34
_cell_length_a 8.881286
_cell_length_b 9.887457
_cell_length_c 17.248510
_cell_angle_alpha 90.000000
_cell_angle_beta 90.000000
_cell_angle_gamma 90.000000
_cell_volume 1514.649160
_symmetry_space_group_name_H-M "P B A N"
_symmetry_group_IT_number 50
_space_group.IT_coordinate_system_code '2'
_symmetry_cell_setting 'orthorhombic'
loop_
_space_group_symop_operation_xyz
x,y,z
1/2-x,1/2-y,z
x,1/2-y,-z
1/2-x,y,-z
-x,-y,-z
1/2+x,1/2+y,-z
-x,1/2+y,z
1/2+x,-y,z
loop_
_atom_site_type_symbol
_atom_site_label
_atom_site_fract_x
_atom_site_fract_y
_atom_site_fract_z
Si Si1 0.325715 0.021685 0.844387
Si Si2 0.933508 0.607593 0.736338
Si Si3 0.929918 0.117838 0.052593
Si Si4 0.899922 0.327185 0.650062
Si Si5 0.750000 0.250000 0.500000
O O1 0.431364 0.917452 0.797859
O O2 0.218991 0.939512 0.904723
O O3 0.216998 0.098440 0.786016
O O4 0.439067 0.129394 0.883123
O O5 0.925535 0.474430 0.682879
O O6 0.966041 0.733574 0.681134
O O7 0.914198 0.250000 0.000000
O O8 0.000000 0.000000 0.000000
O O9 0.750000 0.250000 0.681834
O O10 0.859527 0.330069 0.558814
#
# Coordination Sequence:
#
# PCOD9397299 Si02
#       5
#     8   8   8   8   2
#     4  10  24  42  69  98 127 177 225 278 344 398
#     4  11  22  43  71 100 135 176 228 281 333 397
#     4  11  26  43  63  93 134 168 221 276 343 406
#     4  10  22  42  66 102 142 175 221 276 333 396
#     4   8  20  44  64 100 148 188 206 276 348 388
#
# _framework density 22.447443
#
# number of rings (size 3 to 8) (size 9 to 14) (size 15 to 20)
#    0.706    0.941    2.353    0.706    0.000   16.941 
#    0.000    3.529    0.000    2.824    0.000    0.000 
#    0.000    0.000    0.000    0.000    0.000    0.000 
#
# Total GULP energy -190056.349572 kJ/mol
# GULP energy per Si atom -5589.892634 kJ/mol
# Density = 2.239635 g / cm^3
# Si number density = 22.447443 Si / 1000 Ang^3
#
#
#
# Elastic Constant Matrix: (Units=GPa)
#
#
# Indices 1 2 3 4 5 6 
#
# 1 136.4169 32.8738 68.8280 0.0000 0.0000 0.0000
# 2 32.8738 122.8622 63.8329 0.0000 0.0000 0.0000
# 3 68.8280 63.8329 142.0352 0.0000 0.0000 0.0000
# 4 0.0000 0.0000 0.0000 15.5943 0.0000 0.0000
# 5 0.0000 0.0000 0.0000 0.0000 52.8997 0.0000
# 6 0.0000 0.0000 0.0000 0.0000 0.0000 20.7726
#
#
#
# Elastic Compliance Matrix: (Units=1/GPa)
#
#
# Indices 1 2 3 4 5 6 
#
# 1 0.009706 -0.000200 -0.004614 0.000000 0.000000 0.000000
# 2 -0.000200 0.010623 -0.004677 0.000000 0.000000 0.000000
# 3 -0.004614 -0.004677 0.011378 0.000000 0.000000 0.000000
# 4 0.000000 0.000000 0.000000 0.064126 0.000000 0.000000
# 5 0.000000 0.000000 0.000000 0.000000 0.018904 0.000000
# 6 0.000000 0.000000 0.000000 0.000000 0.000000 0.048140
#
#
# Mechanical properties :
#
#
# Convention : Reuss Voigt Hill
#
# Bulk Modulus (GPa) = 78.58117 81.37598 79.97857
# Shear Modulus (GPa) = 26.86715 33.57196 30.21956
#
# Velocity S-wave (km/s) = 3.46337 3.87147 3.67309
# Velocity P-wave (km/s) = 7.14674 7.50432 7.32771
#
# Compressibility (1/GPa) = 0.01272569
#
# Stress axis : x y z
#
# Youngs Moduli (GPa) = 103.02386 94.13803 87.88759
#
# Poissons Ratio (x) = 0.01884 0.40549
# Poissons Ratio (y) = 0.02061 0.41105
# Poissons Ratio (z) = 0.47532 0.44029
#
# Static dielectric constant tensor:
#      x y z
#    x 1.879830 0.000000 0.000000 
#    y 0.000000 1.805100 0.000000 
#    z 0.000000 0.000000 1.889440 
# 
# From -- ./inp_files/30537.got.cif
#   From: 2010.05.17/outbox.cif.g08.bks.cpg/sg50_16_cif.got.tgz:30537.got - 2010.06.03 11:33:33.
