data_PCOD9397765
_publ_section_title
;
Structure prediction by ZEFSAII (Michael W. Deem and Ramdas Pophale) SiO2 
 PCOD9397765
Probable space group: P B A N
;
_chemical_formula_sum "Si O2"
_cell_formula_units_Z 58
_cell_length_a 26.857848
_cell_length_b 7.731132
_cell_length_c 13.098792
_cell_angle_alpha 90.000000
_cell_angle_beta 90.000000
_cell_angle_gamma 90.000000
_cell_volume 2719.853711
_symmetry_space_group_name_H-M "P B A N"
_symmetry_group_IT_number 50
_space_group.IT_coordinate_system_code '2'
_symmetry_cell_setting 'orthorhombic'
loop_
_space_group_symop_operation_xyz
x,y,z
1/2-x,1/2-y,z
x,1/2-y,-z
1/2-x,y,-z
-x,-y,-z
1/2+x,1/2+y,-z
-x,1/2+y,z
1/2+x,-y,z
loop_
_atom_site_type_symbol
_atom_site_label
_atom_site_fract_x
_atom_site_fract_y
_atom_site_fract_z
Si Si1 0.671591 0.290329 0.339043
Si Si2 0.960380 0.656944 0.104966
Si Si3 0.821650 0.905401 0.185541
Si Si4 0.977328 0.937382 0.252611
Si Si5 0.750000 0.250000 0.500000
Si Si6 0.794580 0.514881 0.190788
Si Si7 0.059703 0.741568 0.382708
Si Si8 0.369023 0.948473 0.983290
O O1 0.661284 0.457043 0.269655
O O2 0.711044 0.345761 0.425825
O O3 0.618422 0.221762 0.378036
O O4 0.695823 0.132015 0.275351
O O5 0.004880 0.549678 0.155676
O O6 0.914067 0.540409 0.074344
O O7 0.946953 0.785360 0.198314
O O8 0.975989 0.750000 0.000000
O O9 0.819024 0.702902 0.214569
O O10 0.763550 0.956384 0.169669
O O11 0.853475 0.946269 0.084304
O O12 0.026131 0.863845 0.310570
O O13 0.949223 0.053012 0.334238
O O14 0.821275 0.448862 0.089365
O O15 0.042806 0.750000 0.500000
O O16 0.383076 0.750000 0.000000
#
# Coordination Sequence:
#
# PCOD9397765 Si02
#       8
#     8   8   8   8   2   8   8   8
#     4  12  24  45  73 101 140 182 235 286 366 418
#     4  11  24  42  64  98 137 179 224 283 352 434
#     4  11  24  42  66  97 141 185 228 285 336 419
#     4  10  25  45  69  97 138 178 238 294 363 425
#     4  12  24  48  74 106 140 182 228 312 350 432
#     4  11  23  42  66  98 137 185 229 281 340 415
#     4  11  24  45  74 100 134 183 239 307 366 421
#     4  12  25  38  65  98 139 180 235 272 344 420
#
# _framework density 21.324677999999999
#
# number of rings (size 3 to 8) (size 9 to 14) (size 15 to 20)
#    0.000    0.828    3.448    3.310    3.862    3.310 
#    0.000    1.379    0.000    0.000    0.000    0.000 
#    0.000    0.000    0.000    0.000    0.000    0.000 
#
# Total GULP energy -324268.742596 kJ/mol
# GULP energy per Si atom -5590.840390 kJ/mol
# Density = 2.127614 g / cm^3
# Si number density = 21.324678 Si / 1000 Ang^3
#
#
#
# Elastic Constant Matrix: (Units=GPa)
#
#
# Indices 1 2 3 4 5 6 
#
# 1 90.3739 25.5523 31.4043 0.0000 0.0000 0.0000
# 2 25.5523 114.3196 40.5182 0.0000 0.0000 0.0000
# 3 31.4043 40.5182 112.3559 0.0000 0.0000 0.0000
# 4 0.0000 0.0000 0.0000 24.3739 0.0000 0.0000
# 5 0.0000 0.0000 0.0000 0.0000 23.7632 0.0000
# 6 0.0000 0.0000 0.0000 0.0000 0.0000 18.5956
#
#
#
# Elastic Compliance Matrix: (Units=1/GPa)
#
#
# Indices 1 2 3 4 5 6 
#
# 1 0.012568 -0.001793 -0.002866 0.000000 0.000000 0.000000
# 2 -0.001793 0.010285 -0.003208 0.000000 0.000000 0.000000
# 3 -0.002866 -0.003208 0.010858 0.000000 0.000000 0.000000
# 4 0.000000 0.000000 0.000000 0.041027 0.000000 0.000000
# 5 0.000000 0.000000 0.000000 0.000000 0.042082 0.000000
# 6 0.000000 0.000000 0.000000 0.000000 0.000000 0.053776
#
#
# Mechanical properties :
#
#
# Convention : Reuss Voigt Hill
#
# Bulk Modulus (GPa) = 55.62697 56.88880 56.25788
# Shear Modulus (GPa) = 25.99777 27.98484 26.99130
#
# Velocity S-wave (km/s) = 3.49541 3.62653 3.56157
# Velocity P-wave (km/s) = 6.51405 6.65364 6.58422
#
# Compressibility (1/GPa) = 0.01797689
#
# Stress axis : x y z
#
# Youngs Moduli (GPa) = 79.56609 97.22716 92.09604
#
# Poissons Ratio (x) = 0.17436 0.26396
# Poissons Ratio (y) = 0.14269 0.29543
# Poissons Ratio (z) = 0.22805 0.31189
#
# Static dielectric constant tensor:
#      x y z
#    x 1.797280 0.000000 0.000000 
#    y 0.000000 1.818410 0.000000 
#    z 0.000000 0.000000 1.761320 
# 
# From -- ./inp_files/23170.got.cif
#   From: 2010.05.17/outbox.cif.g08.bks.cpg/sg50_12_cif.got.tgz:23170.got - 2010.06.03 11:33:33.
