data_PCOD9397864
_publ_section_title
;
Structure prediction by ZEFSAII (Michael W. Deem and Ramdas Pophale) SiO2 
 PCOD9397864
Probable space group: P B A N
;
_chemical_formula_sum "Si O2"
_cell_formula_units_Z 64
_cell_length_a 16.314863
_cell_length_b 20.951232
_cell_length_c 9.941733
_cell_angle_alpha 90.000000
_cell_angle_beta 90.000000
_cell_angle_gamma 90.000000
_cell_volume 3398.248177
_symmetry_space_group_name_H-M "P B A N"
_symmetry_group_IT_number 50
_space_group.IT_coordinate_system_code '2'
_symmetry_cell_setting 'orthorhombic'
loop_
_space_group_symop_operation_xyz
x,y,z
1/2-x,1/2-y,z
x,1/2-y,-z
1/2-x,y,-z
-x,-y,-z
1/2+x,1/2+y,-z
-x,1/2+y,z
1/2+x,-y,z
loop_
_atom_site_type_symbol
_atom_site_label
_atom_site_fract_x
_atom_site_fract_y
_atom_site_fract_z
Si Si1 0.943925 0.090826 0.216205
Si Si2 0.842244 0.773155 0.350257
Si Si3 0.841932 0.045349 0.956947
Si Si4 0.664185 0.039450 0.554651
Si Si5 0.543131 0.792964 0.130083
Si Si6 0.554042 0.470765 0.705027
Si Si7 0.877830 0.584242 0.696261
Si Si8 0.659852 0.898524 0.005204
O O1 0.899795 0.064150 0.081879
O O2 0.882904 0.085092 0.342292
O O3 0.971698 0.163476 0.193300
O O4 0.016519 0.039275 0.247405
O O5 0.750000 0.750000 0.316185
O O6 0.862480 0.750000 0.500000
O O7 0.907147 0.748126 0.240029
O O8 0.845733 0.849231 0.356676
O O9 0.833434 0.969031 0.933515
O O10 0.750000 0.067668 0.000000
O O11 0.891218 0.063296 0.820925
O O12 0.750000 0.064124 0.500000
O O13 0.608037 0.022559 0.427489
O O14 0.675028 0.974132 0.639146
O O15 0.520421 0.750000 0.000000
O O16 0.603001 0.848684 0.077860
O O17 0.472956 0.430323 0.667562
O O18 0.871653 0.588207 0.856213
O O19 0.750000 0.869585 0.000000
#
# Coordination Sequence:
#
# PCOD9397864 Si02
#       8
#     8   8   8   8   8   8   8   8
#     4  11  22  41  60  91 128 156 210 266 314 374
#     4  11  27  41  58  88 129 176 211 247 303 375
#     4  11  21  36  62  93 120 158 201 258 324 370
#     4  11  25  39  64  92 127 163 205 260 329 377
#     4  12  25  39  62  88 123 172 220 254 305 371
#     4  11  22  36  61  90 123 162 199 260 317 368
#     4  11  22  40  59  87 127 162 208 251 305 378
#     4  11  21  35  60  88 126 162 204 251 305 367
#
# _framework density 18.833234000000001
#
# number of rings (size 3 to 8) (size 9 to 14) (size 15 to 20)
#    0.000    0.875    5.000    4.125    7.000    0.000 
#    0.000    0.000    0.000    0.375    0.000    0.875 
#    0.000    0.000    0.000    0.000    0.000    0.000 
#
# Total GULP energy -357254.534243 kJ/mol
# GULP energy per Si atom -5582.102098 kJ/mol
# Density = 1.879037 g / cm^3
# Si number density = 18.833234 Si / 1000 Ang^3
#
#
#
# Elastic Constant Matrix: (Units=GPa)
#
#
# Indices 1 2 3 4 5 6 
#
# 1 77.6086 31.3346 30.8431 0.0000 0.0000 0.0000
# 2 31.3346 74.7259 17.2607 0.0000 0.0000 0.0000
# 3 30.8431 17.2607 91.0226 0.0000 0.0000 0.0000
# 4 0.0000 0.0000 0.0000 -65.4160 0.0000 0.0000
# 5 0.0000 0.0000 0.0000 0.0000 51.0504 0.0000
# 6 0.0000 0.0000 0.0000 0.0000 0.0000 16.5275
#
#
#
# Elastic Compliance Matrix: (Units=1/GPa)
#
#
# Indices 1 2 3 4 5 6 
#
# 1 0.017221 -0.006143 -0.004671 0.000000 0.000000 0.000000
# 2 -0.006143 0.016186 -0.000988 0.000000 0.000000 0.000000
# 3 -0.004671 -0.000988 0.012756 0.000000 0.000000 0.000000
# 4 0.000000 0.000000 0.000000 -0.015287 0.000000 0.000000
# 5 0.000000 0.000000 0.000000 0.000000 0.019588 0.000000
# 6 0.000000 0.000000 0.000000 0.000000 0.000000 0.060505
#
#
# Mechanical properties :
#
#
# Convention : Reuss Voigt Hill
#
# Bulk Modulus (GPa) = 44.32334 44.69266 44.50800
# Shear Modulus (GPa) = 35.18805 11.36031 23.27418
#
# Velocity S-wave (km/s) = 4.32719 2.45869 3.51921
# Velocity P-wave (km/s) = 6.96792 5.64291 6.34012
#
# Compressibility (1/GPa) = 0.02256148
#
# Stress axis : x y z
#
# Youngs Moduli (GPa) = 58.06711 61.78102 78.39254
#
# Poissons Ratio (x) = 0.37949 0.36615
# Poissons Ratio (y) = 0.35668 0.07745
# Poissons Ratio (z) = 0.27121 0.06104
#
# Static dielectric constant tensor:
#      x y z
#    x 1.692890 0.000000 0.000000 
#    y 0.000000 0.924970 0.000000 
#    z 0.000000 0.000000 1.673010 
# 
# From -- ./inp_files/14608.got.cif
#   From: 2010.05.17/outbox.cif.g08.bks.cpg/sg50_8_cif.got.tgz:14608.got - 2010.06.03 11:33:33.
