data_PCOD9397959
_publ_section_title
;
Structure prediction by ZEFSAII (Michael W. Deem and Ramdas Pophale) SiO2 
 PCOD9397959
Probable space group: P B A N
;
_chemical_formula_sum "Si O2"
_cell_formula_units_Z 32
_cell_length_a 8.884851
_cell_length_b 21.492723
_cell_length_c 8.037877
_cell_angle_alpha 90.000000
_cell_angle_beta 90.000000
_cell_angle_gamma 90.000000
_cell_volume 1534.910110
_symmetry_space_group_name_H-M "P B A N"
_symmetry_group_IT_number 50
_space_group.IT_coordinate_system_code '2'
_symmetry_cell_setting 'orthorhombic'
loop_
_space_group_symop_operation_xyz
x,y,z
1/2-x,1/2-y,z
x,1/2-y,-z
1/2-x,y,-z
-x,-y,-z
1/2+x,1/2+y,-z
-x,1/2+y,z
1/2+x,-y,z
loop_
_atom_site_type_symbol
_atom_site_label
_atom_site_fract_x
_atom_site_fract_y
_atom_site_fract_z
Si Si1 0.188630 0.315844 0.189396
Si Si2 0.127835 0.944958 0.811653
Si Si3 0.299244 0.444878 0.317701
Si Si4 0.634550 0.359423 0.879378
O O1 0.250000 0.250000 0.252719
O O2 0.250962 0.374057 0.289683
O O3 0.007884 0.322480 0.183161
O O4 0.250000 0.321500 0.000000
O O5 0.255926 0.895399 0.751597
O O6 0.976736 0.949349 0.708261
O O7 0.209159 0.011079 0.809425
O O8 0.084800 0.915399 0.992362
O O9 0.250000 0.465861 0.500000
O O10 0.750000 0.322592 0.000000
#
# Coordination Sequence:
#
# PCOD9397959 Si02
#       4
#     8   8   8   8
#     4  11  22  39  62  87 116 164 214 258 306 370
#     4   9  21  36  60  93 124 160 201 256 327 367
#     4  12  23  37  58  91 131 163 204 256 317 387
#     4   8  19  37  64  91 120 150 206 268 309 367
#
# _framework density 20.848127999999999
#
# number of rings (size 3 to 8) (size 9 to 14) (size 15 to 20)
#    1.500    0.250    2.500    2.250    3.500    5.500 
#    0.000    8.750    0.000    0.000    0.000   14.000 
#    0.000    0.000    0.000    0.000    0.000    0.000 
#
# Total GULP energy -178282.181801 kJ/mol
# GULP energy per Si atom -5571.318181 kJ/mol
# Density = 2.080068 g / cm^3
# Si number density = 20.848128 Si / 1000 Ang^3
#
#
#
# Elastic Constant Matrix: (Units=GPa)
#
#
# Indices 1 2 3 4 5 6 
#
# 1 213.8899 72.7351 24.6914 0.0000 0.0000 0.0000
# 2 72.7351 128.3478 7.5784 0.0000 0.0000 0.0000
# 3 24.6914 7.5784 41.1183 0.0000 0.0000 0.0000
# 4 0.0000 0.0000 0.0000 -0.4507 0.0000 0.0000
# 5 0.0000 0.0000 0.0000 0.0000 -5.4122 0.0000
# 6 0.0000 0.0000 0.0000 0.0000 0.0000 33.6591
#
#
#
# Elastic Compliance Matrix: (Units=1/GPa)
#
#
# Indices 1 2 3 4 5 6 
#
# 1 0.006156 -0.003306 -0.003087 0.000000 0.000000 0.000000
# 2 -0.003306 0.009653 0.000206 0.000000 0.000000 0.000000
# 3 -0.003087 0.000206 0.026136 0.000000 0.000000 0.000000
# 4 0.000000 0.000000 0.000000 -2.218974 0.000000 0.000000
# 5 0.000000 0.000000 0.000000 0.000000 -0.184766 0.000000
# 6 0.000000 0.000000 0.000000 0.000000 0.000000 0.029710
#
#
# Mechanical properties :
#
#
# Convention : Reuss Voigt Hill
#
# Bulk Modulus (GPa) = 33.81777 65.92953 49.87365
# Shear Modulus (GPa) = -2.16464 24.11598 10.97567
#
# Velocity S-wave (km/s) = -1.02007 3.40479 2.29696
# Velocity P-wave (km/s) = 3.85601 6.86652 5.56857
#
# Compressibility (1/GPa) = 0.02957025
#
# Stress axis : x y z
#
# Youngs Moduli (GPa) = 162.44157 103.59606 38.26152
#
# Poissons Ratio (x) = 0.34253 0.11812
# Poissons Ratio (y) = 0.53709 -0.00790
# Poissons Ratio (z) = 0.50151 -0.02138
#
# Static dielectric constant tensor:
#      x y z
#    x 1.766000 0.000000 0.000000 
#    y 0.000000 1.760870 0.000000 
#    z 0.000000 0.000000 1.829540 
# 
# From -- ./inp_files/9092.got.cif
#   From: 2010.05.17/outbox.cif.g08.bks.cpg/sg50_5_cif.got.tgz:9092.got - 2010.06.03 11:33:33.
