data_PCOD9397496
_publ_section_title
;
Structure prediction by ZEFSAII (Michael W. Deem and Ramdas Pophale) SiO2 
 PCOD9397496
Probable space group: P B A N
;
_chemical_formula_sum "Si O2"
_cell_formula_units_Z 58
_cell_length_a 17.947488
_cell_length_b 8.239203
_cell_length_c 17.352176
_cell_angle_alpha 90.000000
_cell_angle_beta 90.000000
_cell_angle_gamma 90.000000
_cell_volume 2565.918269
_symmetry_space_group_name_H-M "P B A N"
_symmetry_group_IT_number 50
_space_group.IT_coordinate_system_code '2'
_symmetry_cell_setting 'orthorhombic'
loop_
_space_group_symop_operation_xyz
x,y,z
1/2-x,1/2-y,z
x,1/2-y,-z
1/2-x,y,-z
-x,-y,-z
1/2+x,1/2+y,-z
-x,1/2+y,z
1/2+x,-y,z
loop_
_atom_site_type_symbol
_atom_site_label
_atom_site_fract_x
_atom_site_fract_y
_atom_site_fract_z
Si Si1 0.893026 0.921737 0.792104
Si Si2 0.208546 0.581217 0.682730
Si Si3 0.581870 0.146364 0.422862
Si Si4 0.750000 0.250000 0.000000
Si Si5 0.159882 0.088056 0.736872
Si Si6 0.479094 0.943028 0.336359
Si Si7 0.877071 0.105456 0.116149
Si Si8 0.524187 0.775108 0.910541
O O1 0.843617 0.762767 0.774306
O O2 0.926894 0.872295 0.874259
O O3 0.962881 0.927317 0.733461
O O4 0.839756 0.063106 0.761377
O O5 0.250000 0.750000 0.679567
O O6 0.157320 0.567866 0.607790
O O7 0.271036 0.444958 0.683322
O O8 0.587780 0.250000 0.500000
O O9 0.559667 0.274840 0.356160
O O10 0.520087 0.008202 0.412489
O O11 0.810000 0.150954 0.055605
O O12 0.084150 0.066306 0.689739
O O13 0.158939 0.950543 0.803412
O O14 0.939915 0.249028 0.123106
O O15 0.929219 0.943558 0.098652
O O16 0.513547 0.750000 0.000000
#
# Coordination Sequence:
#
# PCOD9397496 Si02
#       8
#     8   8   8   2   8   8   8   8
#     4  10  23  41  69  98 133 173 236 282 330 408
#     4  11  24  40  66  98 132 180 219 281 337 408
#     4  11  24  41  65  98 134 172 220 276 345 411
#     4  12  28  44  58 108 140 190 232 296 368 408
#     4  11  22  42  63  99 131 177 223 282 343 402
#     4  11  20  39  68  96 126 174 224 278 327 405
#     4  11  26  42  71  94 141 179 233 293 344 422
#     4  11  23  44  72 102 133 184 230 287 352 411
#
# _framework density 22.603992999999999
#
# number of rings (size 3 to 8) (size 9 to 14) (size 15 to 20)
#    0.000    1.103    4.828    1.241    0.966    2.483 
#    0.000    1.724    0.000    0.000    3.586    0.000 
#    0.000    0.000    0.000    0.000    0.000    0.000 
#
# Total GULP energy -323675.362719 kJ/mol
# GULP energy per Si atom -5580.609702 kJ/mol
# Density = 2.255255 g / cm^3
# Si number density = 22.603993 Si / 1000 Ang^3
#
#
#
# Elastic Constant Matrix: (Units=GPa)
#
#
# Indices 1 2 3 4 5 6 
#
# 1 107.2160 23.3885 42.3347 0.0000 0.0000 0.0000
# 2 23.3885 63.2791 7.3463 0.0000 0.0000 0.0000
# 3 42.3347 7.3463 85.8835 0.0000 0.0000 0.0000
# 4 0.0000 0.0000 0.0000 22.4173 0.0000 0.0000
# 5 0.0000 0.0000 0.0000 0.0000 14.9958 0.0000
# 6 0.0000 0.0000 0.0000 0.0000 0.0000 40.8747
#
#
#
# Elastic Compliance Matrix: (Units=1/GPa)
#
#
# Indices 1 2 3 4 5 6 
#
# 1 0.012483 -0.003938 -0.005816 0.000000 0.000000 0.000000
# 2 -0.003938 0.017204 0.000470 0.000000 0.000000 0.000000
# 3 -0.005816 0.000470 0.014470 0.000000 0.000000 0.000000
# 4 0.000000 0.000000 0.000000 0.044608 0.000000 0.000000
# 5 0.000000 0.000000 0.000000 0.000000 0.066685 0.000000
# 6 0.000000 0.000000 0.000000 0.000000 0.000000 0.024465
#
#
# Mechanical properties :
#
#
# Convention : Reuss Voigt Hill
#
# Bulk Modulus (GPa) = 39.08157 44.72420 41.90288
# Shear Modulus (GPa) = 24.15282 27.87817 26.01550
#
# Velocity S-wave (km/s) = 3.27237 3.51569 3.39621
# Velocity P-wave (km/s) = 5.62184 6.02570 5.82727
#
# Compressibility (1/GPa) = 0.02558751
#
# Stress axis : x y z
#
# Youngs Moduli (GPa) = 80.11104 58.12546 69.10620
#
# Poissons Ratio (x) = 0.22893 0.40194
# Poissons Ratio (y) = 0.31552 -0.03247
# Poissons Ratio (z) = 0.46594 -0.02731
#
# Static dielectric constant tensor:
#      x y z
#    x 1.882530 0.000000 0.000000 
#    y 0.000000 1.916770 0.000000 
#    z 0.000000 0.000000 1.824300 
# 
# From -- ./inp_files/29725.got.cif
#   From: 2010.05.17/outbox.cif.g08.bks.cpg/sg50_15_cif.got.tgz:29725.got - 2010.06.03 11:33:33.
