data_PCOD9397192
_publ_section_title
;
Structure prediction by ZEFSAII (Michael W. Deem and Ramdas Pophale) SiO2 
 PCOD9397192
Probable space group: P B A N
;
_chemical_formula_sum "Si O2"
_cell_formula_units_Z 34
_cell_length_a 21.635133
_cell_length_b 13.901426
_cell_length_c 5.130860
_cell_angle_alpha 90.000000
_cell_angle_beta 90.000000
_cell_angle_gamma 90.000000
_cell_volume 1543.153351
_symmetry_space_group_name_H-M "P B A N"
_symmetry_group_IT_number 50
_space_group.IT_coordinate_system_code '2'
_symmetry_cell_setting 'orthorhombic'
loop_
_space_group_symop_operation_xyz
x,y,z
1/2-x,1/2-y,z
x,1/2-y,-z
1/2-x,y,-z
-x,-y,-z
1/2+x,1/2+y,-z
-x,1/2+y,z
1/2+x,-y,z
loop_
_atom_site_type_symbol
_atom_site_label
_atom_site_fract_x
_atom_site_fract_y
_atom_site_fract_z
Si Si1 0.082426 0.182441 0.752118
Si Si2 0.250000 0.750000 0.000000
Si Si3 0.147725 0.991606 0.848409
Si Si4 0.555720 0.356265 0.883652
Si Si5 0.676268 0.098538 0.343957
O O1 0.081092 0.250000 0.500000
O O2 0.014733 0.135470 0.797837
O O3 0.130791 0.095563 0.742439
O O4 0.094873 0.250000 0.000000
O O5 0.291257 0.814071 0.805624
O O6 0.188828 0.934235 0.636825
O O7 0.084146 0.932892 0.912178
O O8 0.178797 0.988170 0.133598
O O9 0.603902 0.370463 0.649300
O O10 0.562464 0.250000 0.000000
#
# Coordination Sequence:
#
# PCOD9397192 Si02
#       5
#     8   2   8   8   8
#     4  11  23  36  62  89 126 171 224 256 312 370
#     4  12  24  46  64 106 122 174 204 270 320 420
#     4  10  22  40  56  90 124 177 204 261 310 383
#     4   9  21  35  56  86 127 170 204 250 309 383
#     4  10  23  36  64  81 133 160 207 250 319 381
#
# _framework density 22.032806999999998
#
# number of rings (size 3 to 8) (size 9 to 14) (size 15 to 20)
#    1.412    0.471    1.176    2.118    6.588    5.647 
#    0.000    0.000    0.000    0.000    0.000   12.353 
#    0.000    0.000    0.000    0.000    0.000    0.000 
#
# Total GULP energy -189673.926300 kJ/mol
# GULP energy per Si atom -5578.644891 kJ/mol
# Density = 2.198266 g / cm^3
# Si number density = 22.032807 Si / 1000 Ang^3
#
#
#
# Elastic Constant Matrix: (Units=GPa)
#
#
# Indices 1 2 3 4 5 6 
#
# 1 42.6771 34.5077 25.9172 0.0000 0.0000 0.0000
# 2 34.5077 91.7479 42.2496 0.0000 0.0000 0.0000
# 3 25.9172 42.2496 150.4497 0.0000 0.0000 0.0000
# 4 0.0000 0.0000 0.0000 23.8036 0.0000 0.0000
# 5 0.0000 0.0000 0.0000 0.0000 8.2592 0.0000
# 6 0.0000 0.0000 0.0000 0.0000 0.0000 24.3158
#
#
#
# Elastic Compliance Matrix: (Units=1/GPa)
#
#
# Indices 1 2 3 4 5 6 
#
# 1 0.034565 -0.011782 -0.002646 0.000000 0.000000 0.000000
# 2 -0.011782 0.016534 -0.002614 0.000000 0.000000 0.000000
# 3 -0.002646 -0.002614 0.007836 0.000000 0.000000 0.000000
# 4 0.000000 0.000000 0.000000 0.042011 0.000000 0.000000
# 5 0.000000 0.000000 0.000000 0.000000 0.121077 0.000000
# 6 0.000000 0.000000 0.000000 0.000000 0.000000 0.041125
#
#
# Mechanical properties :
#
#
# Convention : Reuss Voigt Hill
#
# Bulk Modulus (GPa) = 40.23618 54.46930 47.35274
# Shear Modulus (GPa) = 16.36575 23.42240 19.89408
#
# Velocity S-wave (km/s) = 2.72837 3.26401 3.00814
# Velocity P-wave (km/s) = 5.31290 6.24344 5.79688
#
# Compressibility (1/GPa) = 0.02485326
#
# Stress axis : x y z
#
# Youngs Moduli (GPa) = 28.93078 60.47982 127.60880
#
# Poissons Ratio (x) = 0.71258 0.33761
# Poissons Ratio (y) = 0.34087 0.33352
# Poissons Ratio (z) = 0.07654 0.15807
#
# Static dielectric constant tensor:
#      x y z
#    x 1.880310 0.000000 0.000000 
#    y 0.000000 1.809290 0.000000 
#    z 0.000000 0.000000 1.825330 
# 
# From -- ./inp_files/5870.got.cif
#   From: 2010.05.17/outbox.cif.g08.bks.cpg/sg50_3_cif.got.tgz:5870.got - 2010.06.03 11:33:33.
