data_PCOD9397875
_publ_section_title
;
Structure prediction by ZEFSAII (Michael W. Deem and Ramdas Pophale) SiO2 
 PCOD9397875
Probable space group: P B A N
;
_chemical_formula_sum "Si O2"
_cell_formula_units_Z 42
_cell_length_a 9.698401
_cell_length_b 19.246880
_cell_length_c 12.009405
_cell_angle_alpha 90.000000
_cell_angle_beta 90.000000
_cell_angle_gamma 90.000000
_cell_volume 2241.723097
_symmetry_space_group_name_H-M "P B A N"
_symmetry_group_IT_number 50
_space_group.IT_coordinate_system_code '2'
_symmetry_cell_setting 'orthorhombic'
loop_
_space_group_symop_operation_xyz
x,y,z
1/2-x,1/2-y,z
x,1/2-y,-z
1/2-x,y,-z
-x,-y,-z
1/2+x,1/2+y,-z
-x,1/2+y,z
1/2+x,-y,z
loop_
_atom_site_type_symbol
_atom_site_label
_atom_site_fract_x
_atom_site_fract_y
_atom_site_fract_z
Si Si1 0.383149 0.541567 0.428738
Si Si2 0.291692 0.097659 0.631958
Si Si3 0.557915 0.185722 0.682912
Si Si4 0.234022 0.834269 0.125582
Si Si5 0.250000 0.750000 0.500000
Si Si6 0.516855 0.844826 0.724097
O O1 0.250000 0.559668 0.500000
O O2 0.500000 0.500000 0.500000
O O3 0.323385 0.483128 0.344769
O O4 0.445601 0.608989 0.372040
O O5 0.250000 0.103045 0.500000
O O6 0.432952 0.138023 0.647778
O O7 0.173896 0.129585 0.711403
O O8 0.647976 0.150985 0.781941
O O9 0.658300 0.203667 0.581570
O O10 0.494888 0.261908 0.710262
O O11 0.250000 0.750000 0.121704
O O12 0.083862 0.856393 0.170707
O O13 0.250000 0.860410 0.000000
#
# Coordination Sequence:
#
# PCOD9397875 Si02
#       6
#     8   8   8   8   2   8
#     4  11  23  37  54  83 126 168 193 232 302 382
#     4  11  23  38  53  88 130 164 185 243 310 373
#     4  11  23  34  60  90 122 155 197 250 298 359
#     4   9  20  40  62  87 117 159 209 252 296 352
#     4  12  20  32  52 100 116 152 186 244 296 364
#     4  11  21  38  57  86 115 159 201 247 296 355
#
# _framework density 18.735588
#
# number of rings (size 3 to 8) (size 9 to 14) (size 15 to 20)
#    0.000    1.333    6.667    1.714    4.000    0.762 
#    0.000    0.952    0.000    9.143    0.000    0.000 
#    0.000    0.000    0.000    0.000    0.000    0.000 
#
# Total GULP energy -234231.594493 kJ/mol
# GULP energy per Si atom -5576.942726 kJ/mol
# Density = 1.869295 g / cm^3
# Si number density = 18.735588 Si / 1000 Ang^3
#
#
#
# Elastic Constant Matrix: (Units=GPa)
#
#
# Indices 1 2 3 4 5 6 
#
# 1 129.4865 17.8125 42.8597 0.0000 0.0000 0.0000
# 2 17.8125 60.0620 7.2013 0.0000 0.0000 0.0000
# 3 42.8597 7.2013 83.3985 0.0000 0.0000 0.0000
# 4 0.0000 0.0000 0.0000 7.5640 0.0000 0.0000
# 5 0.0000 0.0000 0.0000 0.0000 24.2538 0.0000
# 6 0.0000 0.0000 0.0000 0.0000 0.0000 37.3686
#
#
#
# Elastic Compliance Matrix: (Units=1/GPa)
#
#
# Indices 1 2 3 4 5 6 
#
# 1 0.009605 -0.002280 -0.004739 0.000000 0.000000 0.000000
# 2 -0.002280 0.017365 -0.000328 0.000000 0.000000 0.000000
# 3 -0.004739 -0.000328 0.014455 0.000000 0.000000 0.000000
# 4 0.000000 0.000000 0.000000 0.132205 0.000000 0.000000
# 5 0.000000 0.000000 0.000000 0.000000 0.041231 0.000000
# 6 0.000000 0.000000 0.000000 0.000000 0.000000 0.026760
#
#
# Mechanical properties :
#
#
# Convention : Reuss Voigt Hill
#
# Bulk Modulus (GPa) = 37.41078 45.41045 41.41062
# Shear Modulus (GPa) = 18.85190 27.50884 23.18037
#
# Velocity S-wave (km/s) = 3.17552 3.83595 3.52125
# Velocity P-wave (km/s) = 5.78415 6.62643 6.21956
#
# Compressibility (1/GPa) = 0.02673026
#
# Stress axis : x y z
#
# Youngs Moduli (GPa) = 104.11009 57.58706 69.18246
#
# Poissons Ratio (x) = 0.13132 0.32788
# Poissons Ratio (y) = 0.23741 0.02266
# Poissons Ratio (z) = 0.49341 0.01886
#
# Static dielectric constant tensor:
#      x y z
#    x 1.676420 0.000000 0.000000 
#    y 0.000000 1.689470 0.000000 
#    z 0.000000 0.000000 1.708840 
# 
# From -- ./inp_files/19103.got.cif
#   From: 2010.05.17/outbox.cif.g08.bks.cpg/sg50_10_cif.got.tgz:19103.got - 2010.06.03 11:33:33.
