data_PCOD9397797
_publ_section_title
;
Structure prediction by ZEFSAII (Michael W. Deem and Ramdas Pophale) SiO2 
 PCOD9397797
Probable space group: P B A N
;
_chemical_formula_sum "Si O2"
_cell_formula_units_Z 40
_cell_length_a 13.241572
_cell_length_b 14.673560
_cell_length_c 9.111097
_cell_angle_alpha 90.000000
_cell_angle_beta 90.000000
_cell_angle_gamma 90.000000
_cell_volume 1770.295269
_symmetry_space_group_name_H-M "P B A N"
_symmetry_group_IT_number 50
_space_group.IT_coordinate_system_code '2'
_symmetry_cell_setting 'orthorhombic'
loop_
_space_group_symop_operation_xyz
x,y,z
1/2-x,1/2-y,z
x,1/2-y,-z
1/2-x,y,-z
-x,-y,-z
1/2+x,1/2+y,-z
-x,1/2+y,z
1/2+x,-y,z
loop_
_atom_site_type_symbol
_atom_site_label
_atom_site_fract_x
_atom_site_fract_y
_atom_site_fract_z
Si Si1 0.906925 0.082852 0.329455
Si Si2 0.750000 0.521166 0.500000
Si Si3 0.001131 0.750000 0.500000
Si Si4 0.286964 0.145700 0.750513
Si Si5 0.988226 0.854208 0.948890
Si Si6 0.560868 0.894582 0.741341
O O1 0.799969 0.047711 0.385712
O O2 0.938842 0.168374 0.425044
O O3 0.926228 0.114463 0.163576
O O4 0.966409 0.986631 0.344011
O O5 0.814703 0.593204 0.401349
O O6 0.950750 0.694804 0.638219
O O7 0.250000 0.250000 0.730231
O O8 0.380013 0.137447 0.862963
O O9 0.178568 0.102363 0.791964
O O10 0.995053 0.750000 0.000000
O O11 0.997363 0.901563 0.106031
#
# Coordination Sequence:
#
# PCOD9397797 Si02
#       6
#     8   4   4   8   8   8
#     4  11  26  45  68  98 137 187 241 290 355 411
#     4  10  27  43  66  98 134 192 248 296 346 424
#     4  12  24  43  75  96 140 186 234 299 341 418
#     4  11  22  36  67 103 146 177 223 289 371 425
#     4  12  23  42  69 105 146 183 227 295 363 435
#     4  11  25  41  67 106 143 183 226 289 360 435
#
# _framework density 22.595101
#
# number of rings (size 3 to 8) (size 9 to 14) (size 15 to 20)
#    0.000    0.800    4.000    2.100   14.000    0.400 
#    0.000    0.000    0.000    0.000    0.000    0.000 
#    0.000    0.000    0.000    0.000    0.000    0.000 
#
# Total GULP energy -222779.442021 kJ/mol
# GULP energy per Si atom -5569.486051 kJ/mol
# Density = 2.254367 g / cm^3
# Si number density = 22.595101 Si / 1000 Ang^3
#
#
#
# Elastic Constant Matrix: (Units=GPa)
#
#
# Indices 1 2 3 4 5 6 
#
# 1 32.5479 26.8645 42.4233 0.0000 0.0000 0.0000
# 2 26.8645 135.7630 58.6127 0.0000 0.0000 0.0000
# 3 42.4233 58.6127 142.8012 0.0000 0.0000 0.0000
# 4 0.0000 0.0000 0.0000 51.1829 0.0000 0.0000
# 5 0.0000 0.0000 0.0000 0.0000 39.0566 0.0000
# 6 0.0000 0.0000 0.0000 0.0000 0.0000 30.6348
#
#
#
# Elastic Compliance Matrix: (Units=1/GPa)
#
#
# Indices 1 2 3 4 5 6 
#
# 1 0.052233 -0.004420 -0.013703 0.000000 0.000000 0.000000
# 2 -0.004420 0.009326 -0.002515 0.000000 0.000000 0.000000
# 3 -0.013703 -0.002515 0.012106 0.000000 0.000000 0.000000
# 4 0.000000 0.000000 0.000000 0.019538 0.000000 0.000000
# 5 0.000000 0.000000 0.000000 0.000000 0.025604 0.000000
# 6 0.000000 0.000000 0.000000 0.000000 0.000000 0.032643
#
#
# Mechanical properties :
#
#
# Convention : Reuss Voigt Hill
#
# Bulk Modulus (GPa) = 30.87447 62.99036 46.93242
# Shear Modulus (GPa) = 24.56748 36.38895 30.47822
#
# Velocity S-wave (km/s) = 3.30099 4.01743 3.67670
# Velocity P-wave (km/s) = 5.31249 7.03264 6.23220
#
# Compressibility (1/GPa) = 0.03238922
#
# Stress axis : x y z
#
# Youngs Moduli (GPa) = 19.14508 107.22620 82.60409
#
# Poissons Ratio (x) = 0.47390 1.13194
# Poissons Ratio (y) = 0.08461 0.20774
# Poissons Ratio (z) = 0.26235 0.26966
#
# Static dielectric constant tensor:
#      x y z
#    x 1.909970 0.000000 0.000000 
#    y 0.000000 1.905850 0.000000 
#    z 0.000000 0.000000 1.993980 
# 
# From -- ./inp_files/12584.got.cif
#   From: 2010.05.17/outbox.cif.g08.bks.cpg/sg50_7_cif.got.tgz:12584.got - 2010.06.03 11:33:33.
