data_PCOD9397938
_publ_section_title
;
Structure prediction by ZEFSAII (Michael W. Deem and Ramdas Pophale) SiO2 
 PCOD9397938
Probable space group: P B A N
;
_chemical_formula_sum "Si O2"
_cell_formula_units_Z 36
_cell_length_a 17.567878
_cell_length_b 14.092963
_cell_length_c 7.091815
_cell_angle_alpha 90.000000
_cell_angle_beta 90.000000
_cell_angle_gamma 90.000000
_cell_volume 1755.816057
_symmetry_space_group_name_H-M "P B A N"
_symmetry_group_IT_number 50
_space_group.IT_coordinate_system_code '2'
_symmetry_cell_setting 'orthorhombic'
loop_
_space_group_symop_operation_xyz
x,y,z
1/2-x,1/2-y,z
x,1/2-y,-z
1/2-x,y,-z
-x,-y,-z
1/2+x,1/2+y,-z
-x,1/2+y,z
1/2+x,-y,z
loop_
_atom_site_type_symbol
_atom_site_label
_atom_site_fract_x
_atom_site_fract_y
_atom_site_fract_z
Si Si1 0.378296 0.267225 0.222006
Si Si2 0.750000 0.750000 0.500000
Si Si3 0.750000 0.250000 0.000000
Si Si4 0.524292 0.111978 0.811700
Si Si5 0.509366 0.597624 0.256603
Si Si6 0.367021 0.716585 0.302769
O O1 0.307878 0.296873 0.351037
O O2 0.443165 0.345471 0.245765
O O3 0.420748 0.169967 0.286009
O O4 0.359760 0.250000 0.000000
O O5 0.695260 0.192043 0.143713
O O6 0.586970 0.191804 0.775042
O O7 0.534129 0.010383 0.714631
O O8 0.515704 0.102011 0.036619
O O9 0.432416 0.638833 0.349021
O O10 0.332799 0.750000 0.500000
#
# Coordination Sequence:
#
# PCOD9397938 Si02
#       6
#     8   2   2   8   8   8
#     4   9  20  37  59  85 114 151 190 234 289 338
#     4  12  22  36  56  82 120 160 178 240 284 346
#     4  12  22  44  56  82 128 160 186 248 292 370
#     4   9  18  38  66  88 113 152 199 244 285 345
#     4   9  18  38  66  88 113 152 199 244 285 345
#     4  11  22  37  63  89 116 157 196 244 297 342
#
# _framework density 20.503288000000001
#
# number of rings (size 3 to 8) (size 9 to 14) (size 15 to 20)
#    0.000    2.222    2.222    2.000    6.222    0.889 
#    0.000    2.222    0.000    0.000    0.000    0.000 
#    0.000    0.000    0.000    0.000    0.000    0.000 
#
# Total GULP energy -200634.073419 kJ/mol
# GULP energy per Si atom -5573.168706 kJ/mol
# Density = 2.045662 g / cm^3
# Si number density = 20.503288 Si / 1000 Ang^3
#
#
#
# Elastic Constant Matrix: (Units=GPa)
#
#
# Indices 1 2 3 4 5 6 
#
# 1 98.9498 10.3730 36.0706 0.0000 0.0000 0.0000
# 2 10.3730 91.8024 -0.0364 0.0000 0.0000 0.0000
# 3 36.0706 -0.0364 100.3925 0.0000 0.0000 0.0000
# 4 0.0000 0.0000 0.0000 16.3546 0.0000 0.0000
# 5 0.0000 0.0000 0.0000 0.0000 19.4421 0.0000
# 6 0.0000 0.0000 0.0000 0.0000 0.0000 2.1316
#
#
#
# Elastic Compliance Matrix: (Units=1/GPa)
#
#
# Indices 1 2 3 4 5 6 
#
# 1 0.011790 -0.001334 -0.004237 0.000000 0.000000 0.000000
# 2 -0.001334 0.011044 0.000483 0.000000 0.000000 0.000000
# 3 -0.004237 0.000483 0.011483 0.000000 0.000000 0.000000
# 4 0.000000 0.000000 0.000000 0.061145 0.000000 0.000000
# 5 0.000000 0.000000 0.000000 0.000000 0.051435 0.000000
# 6 0.000000 0.000000 0.000000 0.000000 0.000000 0.469136
#
#
# Mechanical properties :
#
#
# Convention : Reuss Voigt Hill
#
# Bulk Modulus (GPa) = 41.42010 42.66213 42.04111
# Shear Modulus (GPa) = 7.88326 23.90148 15.89237
#
# Velocity S-wave (km/s) = 1.96296 3.41800 2.78711
# Velocity P-wave (km/s) = 5.03817 6.03569 5.55935
#
# Compressibility (1/GPa) = 0.02414287
#
# Stress axis : x y z
#
# Youngs Moduli (GPa) = 84.81468 90.54794 87.08281
#
# Poissons Ratio (x) = 0.12078 0.36895
# Poissons Ratio (y) = 0.11314 -0.04209
# Poissons Ratio (z) = 0.35934 -0.04376
#
# Static dielectric constant tensor:
#      x y z
#    x 1.736020 0.000000 0.000000 
#    y 0.000000 1.730460 0.000000 
#    z 0.000000 0.000000 1.846800 
# 
# From -- ./inp_files/14040.got.cif
#   From: 2010.05.17/outbox.cif.g08.bks.cpg/sg50_8_cif.got.tgz:14040.got - 2010.06.03 11:33:33.
