data_PCOD9397090
_publ_section_title
;
Structure prediction by ZEFSAII (Michael W. Deem and Ramdas Pophale) SiO2 
 PCOD9397090
Probable space group: P B A N
;
_chemical_formula_sum "Si O2"
_cell_formula_units_Z 60
_cell_length_a 8.821088
_cell_length_b 30.043317
_cell_length_c 12.165712
_cell_angle_alpha 90.000000
_cell_angle_beta 90.000000
_cell_angle_gamma 90.000000
_cell_volume 3224.093040
_symmetry_space_group_name_H-M "P B A N"
_symmetry_group_IT_number 50
_space_group.IT_coordinate_system_code '2'
_symmetry_cell_setting 'orthorhombic'
loop_
_space_group_symop_operation_xyz
x,y,z
1/2-x,1/2-y,z
x,1/2-y,-z
1/2-x,y,-z
-x,-y,-z
1/2+x,1/2+y,-z
-x,1/2+y,z
1/2+x,-y,z
loop_
_atom_site_type_symbol
_atom_site_label
_atom_site_fract_x
_atom_site_fract_y
_atom_site_fract_z
Si Si1 0.429957 0.049379 0.981921
Si Si2 0.515140 0.516879 0.349851
Si Si3 0.577457 0.089182 0.187648
Si Si4 0.564924 0.654030 0.616680
Si Si5 0.573931 0.658179 0.357719
Si Si6 0.077278 0.575855 0.242244
Si Si7 0.923582 0.251687 0.632863
Si Si8 0.750000 0.983527 0.500000
O O1 0.507890 0.084239 0.066577
O O2 0.250000 0.047262 0.000000
O O3 0.467824 0.064871 0.859123
O O4 0.500000 0.000000 0.000000
O O5 0.467362 0.542442 0.243151
O O6 0.580562 0.469052 0.315483
O O7 0.648842 0.542889 0.413328
O O8 0.373508 0.511067 0.431279
O O9 0.504627 0.126160 0.268107
O O10 0.759125 0.089722 0.194797
O O11 0.529682 0.649358 0.485915
O O12 0.744488 0.654158 0.639593
O O13 0.486963 0.614329 0.681470
O O14 0.499789 0.701213 0.658076
O O15 0.519174 0.708565 0.332251
O O16 0.750000 0.250000 0.672798
O O17 0.919530 0.250000 0.500000
#
# Coordination Sequence:
#
# PCOD9397090 Si02
#       8
#     8   8   8   8   8   8   8   4
#     4  12  26  44  64  83 112 153 204 254 300 351
#     4  11  24  37  56  80 120 159 195 236 290 350
#     4  12  25  40  60  86 115 156 201 248 297 350
#     4  10  22  36  60  90 125 160 199 242 297 356
#     4  10  22  36  60  90 125 160 199 242 297 356
#     4  12  25  40  60  86 115 156 201 248 297 350
#     4   9  17  35  57  86 123 160 197 241 292 355
#     4  10  24  38  52  80 120 160 188 238 294 354
#
# _framework density 18.609884999999998
#
# number of rings (size 3 to 8) (size 9 to 14) (size 15 to 20)
#    0.000    1.200    2.667    3.200    7.467    3.200 
#    0.000    0.000    0.000    0.800    0.000    5.600 
#    0.000    0.000    0.000    0.000    0.000    0.000 
#
# Total GULP energy -335074.680494 kJ/mol
# GULP energy per Si atom -5584.578008 kJ/mol
# Density = 1.856753 g / cm^3
# Si number density = 18.609885 Si / 1000 Ang^3
#
#
#
# Elastic Constant Matrix: (Units=GPa)
#
#
# Indices 1 2 3 4 5 6 
#
# 1 118.1951 34.7760 32.7052 0.0000 0.0000 0.0000
# 2 34.7760 118.2235 31.7306 0.0000 0.0000 0.0000
# 3 32.7052 31.7306 77.9851 0.0000 0.0000 0.0000
# 4 0.0000 0.0000 0.0000 8.2940 0.0000 0.0000
# 5 0.0000 0.0000 0.0000 0.0000 30.0274 0.0000
# 6 0.0000 0.0000 0.0000 0.0000 0.0000 26.3782
#
#
#
# Elastic Compliance Matrix: (Units=1/GPa)
#
#
# Indices 1 2 3 4 5 6 
#
# 1 0.009990 -0.002036 -0.003361 0.000000 0.000000 0.000000
# 2 -0.002036 0.009911 -0.003178 0.000000 0.000000 0.000000
# 3 -0.003361 -0.003178 0.015526 0.000000 0.000000 0.000000
# 4 0.000000 0.000000 0.000000 0.120569 0.000000 0.000000
# 5 0.000000 0.000000 0.000000 0.000000 0.033303 0.000000
# 6 0.000000 0.000000 0.000000 0.000000 0.000000 0.037910
#
#
# Mechanical properties :
#
#
# Convention : Reuss Voigt Hill
#
# Bulk Modulus (GPa) = 54.72086 56.98080 55.85083
# Shear Modulus (GPa) = 19.96399 27.28604 23.62502
#
# Velocity S-wave (km/s) = 3.27886 3.83327 3.56685
# Velocity P-wave (km/s) = 6.61835 7.09063 6.85856
#
# Compressibility (1/GPa) = 0.01827457
#
# Stress axis : x y z
#
# Youngs Moduli (GPa) = 100.10262 100.90142 64.40943
#
# Poissons Ratio (x) = 0.20548 0.21647
# Poissons Ratio (y) = 0.20386 0.20472
# Poissons Ratio (z) = 0.33643 0.32071
#
# Static dielectric constant tensor:
#      x y z
#    x 1.658260 0.000000 0.000000 
#    y 0.000000 1.638330 0.000000 
#    z 0.000000 0.000000 1.757030 
# 
# From -- ./inp_files/19494.got.cif
#   From: 2010.05.17/outbox.cif.g08.bks.cpg/sg50_10_cif.got.tgz:19494.got - 2010.06.03 11:33:33.
