data_PCOD9397108
_publ_section_title
;
Structure prediction by ZEFSAII (Michael W. Deem and Ramdas Pophale) SiO2 
 PCOD9397108
Probable space group: P B A N
;
_chemical_formula_sum "Si O2"
_cell_formula_units_Z 64
_cell_length_a 17.793191
_cell_length_b 11.871140
_cell_length_c 15.156297
_cell_angle_alpha 90.000000
_cell_angle_beta 90.000000
_cell_angle_gamma 90.000000
_cell_volume 3201.395827
_symmetry_space_group_name_H-M "P B A N"
_symmetry_group_IT_number 50
_space_group.IT_coordinate_system_code '2'
_symmetry_cell_setting 'orthorhombic'
loop_
_space_group_symop_operation_xyz
x,y,z
1/2-x,1/2-y,z
x,1/2-y,-z
1/2-x,y,-z
-x,-y,-z
1/2+x,1/2+y,-z
-x,1/2+y,z
1/2+x,-y,z
loop_
_atom_site_type_symbol
_atom_site_label
_atom_site_fract_x
_atom_site_fract_y
_atom_site_fract_z
Si Si1 0.417266 0.153539 0.262419
Si Si2 0.839097 0.487248 0.174472
Si Si3 0.539369 0.817928 0.411139
Si Si4 0.929388 0.041330 0.669679
Si Si5 0.158173 0.751382 0.897901
Si Si6 0.162109 0.221894 0.100899
Si Si7 0.175883 0.572703 0.247477
Si Si8 0.637032 0.262282 0.398659
O O1 0.414411 0.250309 0.336746
O O2 0.499707 0.101960 0.284594
O O3 0.391942 0.212071 0.170013
O O4 0.366388 0.041977 0.271777
O O5 0.890045 0.528040 0.253935
O O6 0.867928 0.366944 0.141606
O O7 0.841847 0.586782 0.105551
O O8 0.755836 0.464562 0.209703
O O9 0.555995 0.750000 0.500000
O O10 0.449351 0.806841 0.397853
O O11 0.553752 0.951619 0.406839
O O12 0.871889 0.136989 0.639113
O O13 0.250000 0.750000 0.897801
O O14 0.137304 0.853657 0.831947
O O15 0.134382 0.750000 0.000000
O O16 0.250000 0.250000 0.121642
O O17 0.145452 0.250000 0.000000
O O18 0.180763 0.656125 0.331713
O O19 0.662096 0.250000 0.500000
#
# Coordination Sequence:
#
# PCOD9397108 Si02
#       8
#     8   8   8   8   8   8   8   8
#     4  11  23  39  64  89 124 164 208 261 313 368
#     4  11  22  40  63  87 128 164 204 258 316 375
#     4  10  22  38  64  92 120 163 217 257 309 374
#     4  11  22  40  62  88 129 165 207 262 313 375
#     4   9  20  35  60  88 114 152 203 251 304 366
#     4  11  24  41  65  95 123 164 216 262 314 374
#     4  11  21  38  62  91 123 161 206 258 313 371
#     4  10  22  37  62  93 124 161 210 263 316 374
#
# _framework density 19.991281000000001
#
# number of rings (size 3 to 8) (size 9 to 14) (size 15 to 20)
#    0.000    1.500    5.000    0.000    3.500    2.500 
#    0.000    2.500    0.000    2.625    0.000    0.000 
#    0.000    0.000    0.000    0.000    0.000    0.000 
#
# Total GULP energy -356706.693544 kJ/mol
# GULP energy per Si atom -5573.542087 kJ/mol
# Density = 1.994578 g / cm^3
# Si number density = 19.991281 Si / 1000 Ang^3
#
#
#
# Elastic Constant Matrix: (Units=GPa)
#
#
# Indices 1 2 3 4 5 6 
#
# 1 32.3852 32.6388 31.6486 0.0000 0.0000 0.0000
# 2 32.6388 134.3476 51.6737 0.0000 0.0000 0.0000
# 3 31.6486 51.6737 132.0343 0.0000 0.0000 0.0000
# 4 0.0000 0.0000 0.0000 35.7680 0.0000 0.0000
# 5 0.0000 0.0000 0.0000 0.0000 20.7883 0.0000
# 6 0.0000 0.0000 0.0000 0.0000 0.0000 18.9094
#
#
#
# Elastic Compliance Matrix: (Units=1/GPa)
#
#
# Indices 1 2 3 4 5 6 
#
# 1 0.047159 -0.008369 -0.008029 0.000000 0.000000 0.000000
# 2 -0.008369 0.010248 -0.002005 0.000000 0.000000 0.000000
# 3 -0.008029 -0.002005 0.010283 0.000000 0.000000 0.000000
# 4 0.000000 0.000000 0.000000 0.027958 0.000000 0.000000
# 5 0.000000 0.000000 0.000000 0.000000 0.048104 0.000000
# 6 0.000000 0.000000 0.000000 0.000000 0.000000 0.052884
#
#
# Mechanical properties :
#
#
# Convention : Reuss Voigt Hill
#
# Bulk Modulus (GPa) = 32.37823 58.96548 45.67186
# Shear Modulus (GPa) = 20.51420 27.28021 23.89721
#
# Velocity S-wave (km/s) = 3.20684 3.69806 3.46118
# Velocity P-wave (km/s) = 5.47203 6.91331 6.23446
#
# Compressibility (1/GPa) = 0.03088495
#
# Stress axis : x y z
#
# Youngs Moduli (GPa) = 21.20501 97.58464 97.25024
#
# Poissons Ratio (x) = 0.81667 0.78079
# Poissons Ratio (y) = 0.17746 0.19494
# Poissons Ratio (z) = 0.17025 0.19561
#
# Static dielectric constant tensor:
#      x y z
#    x 1.723530 0.000000 0.000000 
#    y 0.000000 1.755480 0.000000 
#    z 0.000000 0.000000 1.760770 
# 
# From -- ./inp_files/27000.got.cif
#   From: 2010.05.17/outbox.cif.g08.bks.cpg/sg50_14_cif.got.tgz:27000.got - 2010.06.03 11:33:33.
