data_PCOD9397408
_publ_section_title
;
Structure prediction by ZEFSAII (Michael W. Deem and Ramdas Pophale) SiO2 
 PCOD9397408
Probable space group: P B A N
;
_chemical_formula_sum "Si O2"
_cell_formula_units_Z 40
_cell_length_a 14.852001
_cell_length_b 8.889054
_cell_length_c 13.635143
_cell_angle_alpha 90.000000
_cell_angle_beta 90.000000
_cell_angle_gamma 90.000000
_cell_volume 1800.114836
_symmetry_space_group_name_H-M "P B A N"
_symmetry_group_IT_number 50
_space_group.IT_coordinate_system_code '2'
_symmetry_cell_setting 'orthorhombic'
loop_
_space_group_symop_operation_xyz
x,y,z
1/2-x,1/2-y,z
x,1/2-y,-z
1/2-x,y,-z
-x,-y,-z
1/2+x,1/2+y,-z
-x,1/2+y,z
1/2+x,-y,z
loop_
_atom_site_type_symbol
_atom_site_label
_atom_site_fract_x
_atom_site_fract_y
_atom_site_fract_z
Si Si1 0.750000 0.250000 0.786563
Si Si2 0.407952 0.419537 0.679522
Si Si3 0.598808 0.450711 0.111546
Si Si4 0.047790 0.250000 0.000000
Si Si5 0.221796 0.965384 0.390838
Si Si6 0.038778 0.139863 0.409803
O O1 0.687353 0.148559 0.858109
O O2 0.798170 0.144260 0.702865
O O3 0.428447 0.488325 0.783357
O O4 0.303563 0.430877 0.649415
O O5 0.449257 0.255387 0.679006
O O6 0.458086 0.527563 0.603565
O O7 0.603655 0.607125 0.046689
O O8 0.522363 0.339376 0.070456
O O9 0.250000 0.906593 0.500000
O O10 0.132615 0.055987 0.412981
O O11 0.024764 0.250000 0.500000
#
# Coordination Sequence:
#
# PCOD9397408 Si02
#       6
#     4   8   8   4   8   8
#     4  10  25  43  70 104 144 186 232 287 353 428
#     4  11  25  41  68  99 135 183 242 284 350 418
#     4  10  23  45  73 106 136 182 226 298 365 433
#     4  10  22  45  82 101 136 174 230 298 374 432
#     4  11  24  42  66  95 148 191 233 285 345 400
#     4  12  25  41  65  98 139 191 238 292 337 411
#
# _framework density 22.220804999999999
#
# number of rings (size 3 to 8) (size 9 to 14) (size 15 to 20)
#    0.000    1.200    2.000    2.700    8.400    0.400 
#    0.000    0.000    8.800    0.000    0.000    0.000 
#    0.000    0.000    0.000    0.000    0.000    0.000 
#
# Total GULP energy -222949.564021 kJ/mol
# GULP energy per Si atom -5573.739101 kJ/mol
# Density = 2.217023 g / cm^3
# Si number density = 22.220805 Si / 1000 Ang^3
#
#
#
# Elastic Constant Matrix: (Units=GPa)
#
#
# Indices 1 2 3 4 5 6 
#
# 1 70.1293 54.4628 46.8224 0.0000 0.0000 0.0000
# 2 54.4628 148.2843 56.5424 0.0000 0.0000 0.0000
# 3 46.8224 56.5424 114.9626 0.0000 0.0000 0.0000
# 4 0.0000 0.0000 0.0000 -676.2419 0.0000 0.0000
# 5 0.0000 0.0000 0.0000 0.0000 101.8581 0.0000
# 6 0.0000 0.0000 0.0000 0.0000 0.0000 24.4474
#
#
#
# Elastic Compliance Matrix: (Units=1/GPa)
#
#
# Indices 1 2 3 4 5 6 
#
# 1 0.023333 -0.006088 -0.006509 0.000000 0.000000 0.000000
# 2 -0.006088 0.009889 -0.002384 0.000000 0.000000 0.000000
# 3 -0.006509 -0.002384 0.012522 0.000000 0.000000 0.000000
# 4 0.000000 0.000000 0.000000 -0.001479 0.000000 0.000000
# 5 0.000000 0.000000 0.000000 0.000000 0.009818 0.000000
# 6 0.000000 0.000000 0.000000 0.000000 0.000000 0.040904
#
#
# Mechanical properties :
#
#
# Convention : Reuss Voigt Hill
#
# Bulk Modulus (GPa) = 63.36356 72.11460 67.73908
# Shear Modulus (GPa) = 38.39950 -98.28406 -29.94228
#
# Velocity S-wave (km/s) = 4.16154 -6.65783 -3.67480
# Velocity P-wave (km/s) = 7.18808 5.15540 3.54192
#
# Compressibility (1/GPa) = 0.01578194
#
# Stress axis : x y z
#
# Youngs Moduli (GPa) = 42.85756 101.12288 79.85899
#
# Poissons Ratio (x) = 0.61564 0.51980
# Poissons Ratio (y) = 0.26092 0.19040
# Poissons Ratio (z) = 0.27896 0.24109
#
# Static dielectric constant tensor:
#      x y z
#    x 1.773920 0.000000 0.000000 
#    y 0.000000 1.879120 0.000000 
#    z 0.000000 0.000000 1.847930 
# 
# From -- ./inp_files/26319.got.cif
#   From: 2010.05.17/outbox.cif.g08.bks.cpg/sg50_14_cif.got.tgz:26319.got - 2010.06.03 11:33:33.
