data_PCOD9397828
_publ_section_title
;
Structure prediction by ZEFSAII (Michael W. Deem and Ramdas Pophale) SiO2 
 PCOD9397828
Probable space group: P B A N
;
_chemical_formula_sum "Si O2"
_cell_formula_units_Z 32
_cell_length_a 17.396677
_cell_length_b 13.453554
_cell_length_c 7.229204
_cell_angle_alpha 90.000000
_cell_angle_beta 90.000000
_cell_angle_gamma 90.000000
_cell_volume 1691.974473
_symmetry_space_group_name_H-M "P B A N"
_symmetry_group_IT_number 50
_space_group.IT_coordinate_system_code '2'
_symmetry_cell_setting 'orthorhombic'
loop_
_space_group_symop_operation_xyz
x,y,z
1/2-x,1/2-y,z
x,1/2-y,-z
1/2-x,y,-z
-x,-y,-z
1/2+x,1/2+y,-z
-x,1/2+y,z
1/2+x,-y,z
loop_
_atom_site_type_symbol
_atom_site_label
_atom_site_fract_x
_atom_site_fract_y
_atom_site_fract_z
Si Si1 0.983017 0.645796 0.066587
Si Si2 0.602451 0.145770 0.608610
Si Si3 0.742478 0.369928 0.786798
Si Si4 0.573752 0.459384 0.735938
O O1 0.929742 0.571826 0.186796
O O2 0.055594 0.665606 0.202778
O O3 0.948277 0.750000 0.000000
O O4 0.016901 0.594306 0.881884
O O5 0.611560 0.250000 0.500000
O O6 0.684050 0.098247 0.666918
O O7 0.555737 0.427404 0.525719
O O8 0.750000 0.250000 0.772532
O O9 0.659667 0.413767 0.741500
O O10 0.750000 0.396387 0.000000
#
# Coordination Sequence:
#
# PCOD9397828 Si02
#       4
#     8   8   8   8
#     4  11  22  40  57  84 125 164 208 246 302 378
#     4  12  21  35  60  91 124 160 198 261 321 371
#     4  11  20  34  56  88 124 153 193 256 316 369
#     4  11  23  36  58  89 120 163 201 252 314 369
#
# _framework density 18.912814999999998
#
# number of rings (size 3 to 8) (size 9 to 14) (size 15 to 20)
#    0.000    0.750    7.500    1.500    0.000    0.000 
#    0.000    0.000    0.000    0.750    0.000    0.000 
#    0.000    0.000    0.000    0.000    0.000    0.000 
#
# Total GULP energy -178334.738758 kJ/mol
# GULP energy per Si atom -5572.960586 kJ/mol
# Density = 1.886977 g / cm^3
# Si number density = 18.912815 Si / 1000 Ang^3
#
#
#
# Elastic Constant Matrix: (Units=GPa)
#
#
# Indices 1 2 3 4 5 6 
#
# 1 62.7224 29.0176 2.1306 0.0000 0.0000 0.0000
# 2 29.0176 107.5968 15.2916 0.0000 0.0000 0.0000
# 3 2.1306 15.2916 84.9895 0.0000 0.0000 0.0000
# 4 0.0000 0.0000 0.0000 30.8342 0.0000 0.0000
# 5 0.0000 0.0000 0.0000 0.0000 13.1126 0.0000
# 6 0.0000 0.0000 0.0000 0.0000 0.0000 19.2154
#
#
#
# Elastic Compliance Matrix: (Units=1/GPa)
#
#
# Indices 1 2 3 4 5 6 
#
# 1 0.018232 -0.004979 0.000439 0.000000 0.000000 0.000000
# 2 -0.004979 0.010898 -0.001836 0.000000 0.000000 0.000000
# 3 0.000439 -0.001836 0.012085 0.000000 0.000000 0.000000
# 4 0.000000 0.000000 0.000000 0.032431 0.000000 0.000000
# 5 0.000000 0.000000 0.000000 0.000000 0.076263 0.000000
# 6 0.000000 0.000000 0.000000 0.000000 0.000000 0.052042
#
#
# Mechanical properties :
#
#
# Convention : Reuss Voigt Hill
#
# Bulk Modulus (GPa) = 35.13409 38.68757 36.91083
# Shear Modulus (GPa) = 22.30240 26.55704 24.42972
#
# Velocity S-wave (km/s) = 3.43770 3.75131 3.59792
# Velocity P-wave (km/s) = 5.86296 6.26604 6.06785
#
# Compressibility (1/GPa) = 0.02846238
#
# Stress axis : x y z
#
# Youngs Moduli (GPa) = 54.84878 91.76217 82.74385
#
# Poissons Ratio (x) = 0.45691 -0.03631
# Poissons Ratio (y) = 0.27311 0.15191
# Poissons Ratio (z) = -0.02407 0.16847
#
# Static dielectric constant tensor:
#      x y z
#    x 1.693420 0.000000 0.000000 
#    y 0.000000 1.706250 0.000000 
#    z 0.000000 0.000000 1.778640 
# 
# From -- ./inp_files/12114.got.cif
#   From: 2010.05.17/outbox.cif.g08.bks.cpg/sg50_7_cif.got.tgz:12114.got - 2010.06.03 11:33:33.
