data_PCOD9397371
_publ_section_title
;
Structure prediction by ZEFSAII (Michael W. Deem and Ramdas Pophale) SiO2 
 PCOD9397371
Probable space group: P B A N
;
_chemical_formula_sum "Si O2"
_cell_formula_units_Z 30
_cell_length_a 19.793632
_cell_length_b 5.153193
_cell_length_c 12.695927
_cell_angle_alpha 90.000000
_cell_angle_beta 90.000000
_cell_angle_gamma 90.000000
_cell_volume 1294.989707
_symmetry_space_group_name_H-M "P B A N"
_symmetry_group_IT_number 50
_space_group.IT_coordinate_system_code '2'
_symmetry_cell_setting 'orthorhombic'
loop_
_space_group_symop_operation_xyz
x,y,z
1/2-x,1/2-y,z
x,1/2-y,-z
1/2-x,y,-z
-x,-y,-z
1/2+x,1/2+y,-z
-x,1/2+y,z
1/2+x,-y,z
loop_
_atom_site_type_symbol
_atom_site_label
_atom_site_fract_x
_atom_site_fract_y
_atom_site_fract_z
Si Si1 0.456704 0.600009 0.775711
Si Si2 0.250000 0.750000 0.500000
Si Si3 0.250000 0.250000 0.755718
Si Si4 0.857774 0.619129 0.606777
Si Si5 0.166034 0.505045 0.072664
O O1 0.518144 0.394984 0.779193
O O2 0.414943 0.528573 0.670762
O O3 0.406077 0.540073 0.871077
O O4 0.201183 0.574111 0.430018
O O5 0.184202 0.312903 0.684047
O O6 0.220491 0.033569 0.834151
O O7 0.883685 0.750000 0.500000
O O8 0.166746 0.250000 0.000000
O O9 0.177754 0.750000 0.000000
#
# Coordination Sequence:
#
# PCOD9397371 Si02
#       5
#     8   2   4   8   8
#     4  11  27  47  71 103 142 189 247 297 348 427
#     4  12  22  40  76 102 142 192 234 286 362 444
#     4  10  22  44  66 104 146 176 238 296 358 436
#     4  11  24  44  70 106 145 192 233 295 367 432
#     4  11  25  44  71 103 140 188 241 302 367 423
#
# _framework density 23.166205000000001
#
# number of rings (size 3 to 8) (size 9 to 14) (size 15 to 20)
#    0.000    1.067    2.667    2.000    3.733   10.667 
#    0.000    0.000    0.000    0.000    0.000    0.000 
#    0.000    0.000    0.000    0.000    0.000    0.000 
#
# Total GULP energy -168000.701062 kJ/mol
# GULP energy per Si atom -5600.023369 kJ/mol
# Density = 2.311348 g / cm^3
# Si number density = 23.166205 Si / 1000 Ang^3
#
#
#
# Elastic Constant Matrix: (Units=GPa)
#
#
# Indices 1 2 3 4 5 6 
#
# 1 69.8187 -2.8216 26.7486 0.0000 0.0000 0.0000
# 2 -2.8216 77.5079 26.1859 0.0000 0.0000 0.0000
# 3 26.7486 26.1859 132.4566 0.0000 0.0000 0.0000
# 4 0.0000 0.0000 0.0000 32.2390 0.0000 0.0000
# 5 0.0000 0.0000 0.0000 0.0000 3.5803 0.0000
# 6 0.0000 0.0000 0.0000 0.0000 0.0000 -4.0628
#
#
#
# Elastic Compliance Matrix: (Units=1/GPa)
#
#
# Indices 1 2 3 4 5 6 
#
# 1 0.015746 0.001765 -0.003529 0.000000 0.000000 0.000000
# 2 0.001765 0.014023 -0.003129 0.000000 0.000000 0.000000
# 3 -0.003529 -0.003129 0.008881 0.000000 0.000000 0.000000
# 4 0.000000 0.000000 0.000000 0.031018 0.000000 0.000000
# 5 0.000000 0.000000 0.000000 0.000000 0.279303 0.000000
# 6 0.000000 0.000000 0.000000 0.000000 0.000000 -0.246133
#
#
# Mechanical properties :
#
#
# Convention : Reuss Voigt Hill
#
# Bulk Modulus (GPa) = 34.64318 42.22323 38.43321
# Shear Modulus (GPa) = 40.90162 21.66266 31.28214
#
# Velocity S-wave (km/s) = 4.20643 3.06125 3.67868
# Velocity P-wave (km/s) = 6.21118 5.54624 5.88810
#
# Compressibility (1/GPa) = 0.02886571
#
# Stress axis : x y z
#
# Youngs Moduli (GPa) = 63.50778 71.31018 112.60228
#
# Poissons Ratio (x) = -0.12589 0.39735
# Poissons Ratio (y) = -0.11212 0.35231
# Poissons Ratio (z) = 0.22411 0.22312
#
# Static dielectric constant tensor:
#      x y z
#    x 1.853170 0.000000 0.000000 
#    y 0.000000 1.868430 0.000000 
#    z 0.000000 0.000000 1.947800 
# 
# From -- ./inp_files/22116.got.cif
#   From: 2010.05.17/outbox.cif.g08.bks.cpg/sg50_12_cif.got.tgz:22116.got - 2010.06.03 11:33:33.
