data_PCOD9397144
_publ_section_title
;
Structure prediction by ZEFSAII (Michael W. Deem and Ramdas Pophale) SiO2 
 PCOD9397144
Probable space group: P B A N
;
_chemical_formula_sum "Si O2"
_cell_formula_units_Z 30
_cell_length_a 9.422998
_cell_length_b 24.679895
_cell_length_c 5.036377
_cell_angle_alpha 90.000000
_cell_angle_beta 90.000000
_cell_angle_gamma 90.000000
_cell_volume 1171.252790
_symmetry_space_group_name_H-M "P B A N"
_symmetry_group_IT_number 50
_space_group.IT_coordinate_system_code '2'
_symmetry_cell_setting 'orthorhombic'
loop_
_space_group_symop_operation_xyz
x,y,z
1/2-x,1/2-y,z
x,1/2-y,-z
1/2-x,y,-z
-x,-y,-z
1/2+x,1/2+y,-z
-x,1/2+y,z
1/2+x,-y,z
loop_
_atom_site_type_symbol
_atom_site_label
_atom_site_fract_x
_atom_site_fract_y
_atom_site_fract_z
Si Si1 0.750000 0.750000 0.000000
Si Si2 0.491164 0.800627 0.678790
Si Si3 0.539014 0.370225 0.163648
Si Si4 0.250000 0.072972 0.000000
Si Si5 0.096462 0.986672 0.746855
O O1 0.641903 0.718251 0.195218
O O2 0.434125 0.750000 0.500000
O O3 0.495828 0.845293 0.449831
O O4 0.413866 0.826676 0.938155
O O5 0.633919 0.423376 0.222015
O O6 0.388264 0.391730 0.051918
O O7 0.219687 0.030368 0.767147
O O8 0.000000 0.000000 0.500000
O O9 0.000000 0.000000 0.000000
#
# Coordination Sequence:
#
# PCOD9397144 Si02
#       5
#     2   8   8   4   8
#     4  12  24  32  54  80 122 142 206 230 294 368
#     4  12  24  36  51  83 119 153 191 240 285 373
#     4  11  23  37  58  83 118 162 188 237 307 355
#     4  10  23  38  61  84 121 158 192 257 292 358
#     4  10  22  39  56  86 116 154 207 241 295 372
#
# _framework density 25.613598
#
# number of rings (size 3 to 8) (size 9 to 14) (size 15 to 20)
#    0.000    1.067    2.667    4.400    3.733   10.667 
#    0.000    0.000    0.000    0.000    0.000    5.600 
#    0.000    0.000    0.000    0.000    0.000    0.000 
#
# Total GULP energy -167635.942009 kJ/mol
# GULP energy per Si atom -5587.864734 kJ/mol
# Density = 2.555530 g / cm^3
# Si number density = 25.613598 Si / 1000 Ang^3
#
#
#
# Elastic Constant Matrix: (Units=GPa)
#
#
# Indices 1 2 3 4 5 6 
#
# 1 62.8267 18.1595 33.2637 0.0000 0.0000 0.0000
# 2 18.1595 129.8816 59.3855 0.0000 0.0000 0.0000
# 3 33.2637 59.3855 241.9306 0.0000 0.0000 0.0000
# 4 0.0000 0.0000 0.0000 -621.4633 0.0000 0.0000
# 5 0.0000 0.0000 0.0000 0.0000 25.0152 0.0000
# 6 0.0000 0.0000 0.0000 0.0000 0.0000 66.9487
#
#
#
# Elastic Compliance Matrix: (Units=1/GPa)
#
#
# Indices 1 2 3 4 5 6 
#
# 1 0.017426 -0.001510 -0.002025 0.000000 0.000000 0.000000
# 2 -0.001510 0.008804 -0.001953 0.000000 0.000000 0.000000
# 3 -0.002025 -0.001953 0.004891 0.000000 0.000000 0.000000
# 4 0.000000 0.000000 0.000000 -0.001609 0.000000 0.000000
# 5 0.000000 0.000000 0.000000 0.000000 0.039976 0.000000
# 6 0.000000 0.000000 0.000000 0.000000 0.000000 0.014937
#
#
# Mechanical properties :
#
#
# Convention : Reuss Voigt Hill
#
# Bulk Modulus (GPa) = 49.64557 72.91739 61.28148
# Shear Modulus (GPa) = 48.96393 -84.31121 -17.67364
#
# Velocity S-wave (km/s) = 4.37697 -5.74352 -2.62965
# Velocity P-wave (km/s) = 6.70585 3.93116 3.84151
#
# Compressibility (1/GPa) = 0.02014278
#
# Stress axis : x y z
#
# Youngs Moduli (GPa) = 57.38687 113.58979 204.44347
#
# Poissons Ratio (x) = 0.17157 0.41403
# Poissons Ratio (y) = 0.08668 0.39934
# Poissons Ratio (z) = 0.11622 0.22188
#
# Static dielectric constant tensor:
#      x y z
#    x 2.039300 0.000000 0.000000 
#    y 0.000000 2.129850 0.000000 
#    z 0.000000 0.000000 1.933800 
# 
# From -- ./inp_files/2135.got.cif
#   From: 2010.05.17/outbox.cif.g08.bks.cpg/sg50_2_cif.got.tgz:2135.got - 2010.06.03 11:33:33.
