data_PCOD9397594
_publ_section_title
;
Structure prediction by ZEFSAII (Michael W. Deem and Ramdas Pophale) SiO2 
 PCOD9397594
Probable space group: P B A N
;
_chemical_formula_sum "Si O2"
_cell_formula_units_Z 32
_cell_length_a 11.939768
_cell_length_b 7.981145
_cell_length_c 14.090732
_cell_angle_alpha 90.000000
_cell_angle_beta 90.000000
_cell_angle_gamma 90.000000
_cell_volume 1342.748402
_symmetry_space_group_name_H-M "P B A N"
_symmetry_group_IT_number 50
_space_group.IT_coordinate_system_code '2'
_symmetry_cell_setting 'orthorhombic'
loop_
_space_group_symop_operation_xyz
x,y,z
1/2-x,1/2-y,z
x,1/2-y,-z
1/2-x,y,-z
-x,-y,-z
1/2+x,1/2+y,-z
-x,1/2+y,z
1/2+x,-y,z
loop_
_atom_site_type_symbol
_atom_site_label
_atom_site_fract_x
_atom_site_fract_y
_atom_site_fract_z
Si Si1 0.343307 0.358109 0.657384
Si Si2 0.189942 0.919403 0.234994
Si Si3 0.876550 0.057971 0.966669
Si Si4 0.937499 0.283582 0.610353
O O1 0.250000 0.250000 0.604209
O O2 0.278322 0.433625 0.747062
O O3 0.447307 0.234492 0.668066
O O4 0.388919 0.529766 0.612931
O O5 0.250000 0.750000 0.200636
O O6 0.114133 0.966066 0.147292
O O7 0.138600 0.854598 0.335587
O O8 0.872628 0.250000 0.000000
O O9 0.750000 0.990577 0.000000
O O10 0.000000 0.000000 0.000000
O O11 0.957041 0.250000 0.500000
#
# Coordination Sequence:
#
# PCOD9397594 Si02
#       4
#     8   8   8   8
#     4  11  25  44  70 103 145 192 250 300 385 446
#     4  10  23  45  71 101 143 192 245 312 376 464
#     4  11  25  47  75 107 150 197 258 320 390 465
#     4  11  25  43  69 106 147 192 247 315 381 454
#
# _framework density 23.831716
#
# number of rings (size 3 to 8) (size 9 to 14) (size 15 to 20)
#    0.000    1.250    2.500    2.250    3.500    9.500 
#    0.000    0.000    0.000    0.000    0.000    0.000 
#    0.000    0.000    0.000    0.000    0.000    0.000 
#
# Total GULP energy -178337.647588 kJ/mol
# GULP energy per Si atom -5573.051487 kJ/mol
# Density = 2.377747 g / cm^3
# Si number density = 23.831716 Si / 1000 Ang^3
#
#
#
# Elastic Constant Matrix: (Units=GPa)
#
#
# Indices 1 2 3 4 5 6 
#
# 1 181.9707 63.0258 43.2287 0.0000 0.0000 0.0000
# 2 63.0258 137.0534 28.5651 0.0000 0.0000 0.0000
# 3 43.2287 28.5651 136.5948 0.0000 0.0000 0.0000
# 4 0.0000 0.0000 0.0000 -6.1989 0.0000 0.0000
# 5 0.0000 0.0000 0.0000 0.0000 45.0064 0.0000
# 6 0.0000 0.0000 0.0000 0.0000 0.0000 45.5307
#
#
#
# Elastic Compliance Matrix: (Units=1/GPa)
#
#
# Indices 1 2 3 4 5 6 
#
# 1 0.006847 -0.002820 -0.001577 0.000000 0.000000 0.000000
# 2 -0.002820 0.008790 -0.000946 0.000000 0.000000 0.000000
# 3 -0.001577 -0.000946 0.008018 0.000000 0.000000 0.000000
# 4 0.000000 0.000000 0.000000 -0.161318 0.000000 0.000000
# 5 0.000000 0.000000 0.000000 0.000000 0.022219 0.000000
# 6 0.000000 0.000000 0.000000 0.000000 0.000000 0.021963
#
#
# Mechanical properties :
#
#
# Convention : Reuss Voigt Hill
#
# Bulk Modulus (GPa) = 77.10549 80.58424 78.84487
# Shear Modulus (GPa) = -63.71700 38.25424 -12.73138
#
# Velocity S-wave (km/s) = -5.17632 4.01082 -2.31383
# Velocity P-wave (km/s) = 1.81695 7.43883 5.10073
#
# Compressibility (1/GPa) = 0.01296924
#
# Stress axis : x y z
#
# Youngs Moduli (GPa) = 146.05573 113.76172 124.72198
#
# Poissons Ratio (x) = 0.32079 0.19670
# Poissons Ratio (y) = 0.41185 0.11797
# Poissons Ratio (z) = 0.23035 0.10760
#
# Static dielectric constant tensor:
#      x y z
#    x 2.043190 0.000000 0.000000 
#    y 0.000000 1.915170 0.000000 
#    z 0.000000 0.000000 1.948000 
# 
# From -- ./inp_files/25646.got.cif
#   From: 2010.05.17/outbox.cif.g08.bks.cpg/sg50_13_cif.got.tgz:25646.got - 2010.06.03 11:33:33.
