data_PCOD9397321
_publ_section_title
;
Structure prediction by ZEFSAII (Michael W. Deem and Ramdas Pophale) SiO2 
 PCOD9397321
Probable space group: P B A N
;
_chemical_formula_sum "Si O2"
_cell_formula_units_Z 30
_cell_length_a 7.307619
_cell_length_b 26.865957
_cell_length_c 6.379611
_cell_angle_alpha 90.000000
_cell_angle_beta 90.000000
_cell_angle_gamma 90.000000
_cell_volume 1252.484644
_symmetry_space_group_name_H-M "P B A N"
_symmetry_group_IT_number 50
_space_group.IT_coordinate_system_code '2'
_symmetry_cell_setting 'orthorhombic'
loop_
_space_group_symop_operation_xyz
x,y,z
1/2-x,1/2-y,z
x,1/2-y,-z
1/2-x,y,-z
-x,-y,-z
1/2+x,1/2+y,-z
-x,1/2+y,z
1/2+x,-y,z
loop_
_atom_site_type_symbol
_atom_site_label
_atom_site_fract_x
_atom_site_fract_y
_atom_site_fract_z
Si Si1 0.250000 0.117456 0.500000
Si Si2 0.011629 0.704118 0.336422
Si Si3 0.250000 0.250000 0.000000
Si Si4 0.982108 0.425972 0.164278
Si Si5 0.250000 0.999990 0.000000
Si Si6 0.750000 0.338241 0.000000
O O1 0.412383 0.155247 0.572916
O O2 0.367184 0.083521 0.341224
O O3 0.020296 0.750000 0.500000
O O4 0.877657 0.719080 0.149850
O O5 0.196980 0.691443 0.210397
O O6 0.800359 0.460966 0.189676
O O7 0.915536 0.374075 0.069351
O O8 0.086791 0.459815 0.997748
#
# Coordination Sequence:
#
# PCOD9397321 Si02
#       6
#     4   8   2   8   4   4
#     4  12  23  46  70 106 148 182 252 296 357 436
#     4  12  26  49  74 105 146 200 251 301 366 436
#     4  12  22  52  72 100 140 202 232 320 354 424
#     4  10  22  42  72 104 143 190 231 307 359 443
#     4   9  20  45  71 102 142 190 237 280 395 429
#     4  11  26  47  73 107 148 190 244 306 363 423
#
# _framework density 23.952390999999999
#
# number of rings (size 3 to 8) (size 9 to 14) (size 15 to 20)
#    0.000    1.067    2.667    3.200    0.000    2.667 
#    4.800    0.000    0.000    0.000    0.000    0.000 
#    0.000    0.000    0.000    0.000    0.000    0.000 
#
# Total GULP energy -167169.727920 kJ/mol
# GULP energy per Si atom -5572.324264 kJ/mol
# Density = 2.389787 g / cm^3
# Si number density = 23.952391 Si / 1000 Ang^3
#
#
#
# Elastic Constant Matrix: (Units=GPa)
#
#
# Indices 1 2 3 4 5 6 
#
# 1 94.8820 56.5758 42.1053 0.0000 0.0000 0.0000
# 2 56.5758 129.1104 65.7136 0.0000 0.0000 0.0000
# 3 42.1053 65.7136 101.2187 0.0000 0.0000 0.0000
# 4 0.0000 0.0000 0.0000 16.9104 0.0000 0.0000
# 5 0.0000 0.0000 0.0000 0.0000 69.6502 0.0000
# 6 0.0000 0.0000 0.0000 0.0000 0.0000 52.6471
#
#
#
# Elastic Compliance Matrix: (Units=1/GPa)
#
#
# Indices 1 2 3 4 5 6 
#
# 1 0.014820 -0.005013 -0.002910 0.000000 0.000000 0.000000
# 2 -0.005013 0.013263 -0.006526 0.000000 0.000000 0.000000
# 3 -0.002910 -0.006526 0.015327 0.000000 0.000000 0.000000
# 4 0.000000 0.000000 0.000000 0.059135 0.000000 0.000000
# 5 0.000000 0.000000 0.000000 0.000000 0.014357 0.000000
# 6 0.000000 0.000000 0.000000 0.000000 0.000000 0.018994
#
#
# Mechanical properties :
#
#
# Convention : Reuss Voigt Hill
#
# Bulk Modulus (GPa) = 68.90626 72.66674 70.78650
# Shear Modulus (GPa) = 29.47556 38.56263 34.01910
#
# Velocity S-wave (km/s) = 3.51178 4.01680 3.77275
# Velocity P-wave (km/s) = 6.72859 7.20533 6.97104
#
# Compressibility (1/GPa) = 0.01451247
#
# Stress axis : x y z
#
# Youngs Moduli (GPa) = 67.47677 75.39657 65.24483
#
# Poissons Ratio (x) = 0.37794 0.18989
# Poissons Ratio (y) = 0.33824 0.42576
# Poissons Ratio (z) = 0.19639 0.49201
#
# Static dielectric constant tensor:
#      x y z
#    x 2.164070 0.000000 0.000000 
#    y 0.000000 1.919170 0.000000 
#    z 0.000000 0.000000 1.889500 
# 
# From -- ./inp_files/1192.got.cif
#   From: 2010.05.17/outbox.cif.g08.bks.cpg/sg50_1_cif.got.tgz:1192.got - 2010.06.03 11:33:33.
