data_PCOD9397684
_publ_section_title
;
Structure prediction by ZEFSAII (Michael W. Deem and Ramdas Pophale) SiO2 
 PCOD9397684
Probable space group: P B A N
;
_chemical_formula_sum "Si O2"
_cell_formula_units_Z 38
_cell_length_a 9.073849
_cell_length_b 10.861449
_cell_length_c 17.162263
_cell_angle_alpha 90.000000
_cell_angle_beta 90.000000
_cell_angle_gamma 90.000000
_cell_volume 1691.429373
_symmetry_space_group_name_H-M "P B A N"
_symmetry_group_IT_number 50
_space_group.IT_coordinate_system_code '2'
_symmetry_cell_setting 'orthorhombic'
loop_
_space_group_symop_operation_xyz
x,y,z
1/2-x,1/2-y,z
x,1/2-y,-z
1/2-x,y,-z
-x,-y,-z
1/2+x,1/2+y,-z
-x,1/2+y,z
1/2+x,-y,z
loop_
_atom_site_type_symbol
_atom_site_label
_atom_site_fract_x
_atom_site_fract_y
_atom_site_fract_z
Si Si1 0.250000 0.250000 0.500000
Si Si2 0.088882 0.401435 0.631687
Si Si3 0.042208 0.040754 0.818302
Si Si4 0.708043 0.388166 0.318140
Si Si5 0.750000 0.750000 0.767034
Si Si6 0.749535 0.104148 0.910800
O O1 0.165249 0.340794 0.557942
O O2 0.150440 0.537834 0.651477
O O3 0.144462 0.325617 0.708260
O O4 0.916566 0.381634 0.616335
O O5 0.140515 0.164878 0.817291
O O6 0.874351 0.066837 0.845503
O O7 0.108816 0.971782 0.741459
O O8 0.095033 0.945639 0.882127
O O9 0.750000 0.250000 0.291432
O O10 0.750000 0.250000 0.912732
O O11 0.750000 0.058170 0.000000
#
# Coordination Sequence:
#
# PCOD9397684 Si02
#       6
#     2   8   8   8   4   8
#     4  10  24  48  72  92 158 188 240 270 354 408
#     4  10  24  44  68 102 141 185 227 294 338 420
#     4  11  23  42  70  97 133 181 225 290 352 404
#     4  11  25  43  72 107 139 177 241 291 347 406
#     4   9  22  39  67 102 131 172 238 286 347 402
#     4  11  26  44  65  96 139 179 232 282 347 428
#
# _framework density 22.466204999999999
#
# number of rings (size 3 to 8) (size 9 to 14) (size 15 to 20)
#    0.000    1.474    0.000    3.789   17.684    0.842 
#    0.000    0.000    0.000    0.000    0.000    0.000 
#    0.000    0.000    0.000    0.000    0.000    0.000 
#
# Total GULP energy -211695.088788 kJ/mol
# GULP energy per Si atom -5570.923389 kJ/mol
# Density = 2.241507 g / cm^3
# Si number density = 22.466205 Si / 1000 Ang^3
#
#
#
# Elastic Constant Matrix: (Units=GPa)
#
#
# Indices 1 2 3 4 5 6 
#
# 1 119.4668 32.6567 0.2962 0.0000 0.0000 0.0000
# 2 32.6567 98.2820 4.0210 0.0000 0.0000 0.0000
# 3 0.2962 4.0210 56.3557 0.0000 0.0000 0.0000
# 4 0.0000 0.0000 0.0000 7.3723 0.0000 0.0000
# 5 0.0000 0.0000 0.0000 0.0000 10.5631 0.0000
# 6 0.0000 0.0000 0.0000 0.0000 0.0000 -7.2247
#
#
#
# Elastic Compliance Matrix: (Units=1/GPa)
#
#
# Indices 1 2 3 4 5 6 
#
# 1 0.009208 -0.003067 0.000170 0.000000 0.000000 0.000000
# 2 -0.003067 0.011226 -0.000785 0.000000 0.000000 0.000000
# 3 0.000170 -0.000785 0.017800 0.000000 0.000000 0.000000
# 4 0.000000 0.000000 0.000000 0.135642 0.000000 0.000000
# 5 0.000000 0.000000 0.000000 0.000000 0.094669 0.000000
# 6 0.000000 0.000000 0.000000 0.000000 0.000000 -0.138415
#
#
# Mechanical properties :
#
#
# Convention : Reuss Voigt Hill
#
# Bulk Modulus (GPa) = 32.39228 38.67249 35.53238
# Shear Modulus (GPa) = 33.83329 17.95086 25.89208
#
# Velocity S-wave (km/s) = 3.88489 2.82975 3.39852
# Velocity P-wave (km/s) = 5.87985 5.28466 5.59018
#
# Compressibility (1/GPa) = 0.03087155
#
# Stress axis : x y z
#
# Youngs Moduli (GPa) = 108.59655 89.07974 56.18126
#
# Poissons Ratio (x) = 0.27318 -0.00957
# Poissons Ratio (y) = 0.33303 0.04409
# Poissons Ratio (z) = -0.01851 0.06991
#
# Static dielectric constant tensor:
#      x y z
#    x 1.918750 0.000000 0.000000 
#    y 0.000000 1.871950 0.000000 
#    z 0.000000 0.000000 1.898980 
# 
# From -- ./inp_files/28535.got.cif
#   From: 2010.05.17/outbox.cif.g08.bks.cpg/sg50_15_cif.got.tgz:28535.got - 2010.06.03 11:33:33.
