data_PCOD9397654
_publ_section_title
;
Structure prediction by ZEFSAII (Michael W. Deem and Ramdas Pophale) SiO2 
 PCOD9397654
Probable space group: P B A N
;
_chemical_formula_sum "Si O2"
_cell_formula_units_Z 28
_cell_length_a 11.512327
_cell_length_b 4.834856
_cell_length_c 21.986292
_cell_angle_alpha 90.000000
_cell_angle_beta 90.000000
_cell_angle_gamma 90.000000
_cell_volume 1223.766759
_symmetry_space_group_name_H-M "P B A N"
_symmetry_group_IT_number 50
_space_group.IT_coordinate_system_code '2'
_symmetry_cell_setting 'orthorhombic'
loop_
_space_group_symop_operation_xyz
x,y,z
1/2-x,1/2-y,z
x,1/2-y,-z
1/2-x,y,-z
-x,-y,-z
1/2+x,1/2+y,-z
-x,1/2+y,z
1/2+x,-y,z
loop_
_atom_site_type_symbol
_atom_site_label
_atom_site_fract_x
_atom_site_fract_y
_atom_site_fract_z
Si Si1 0.750000 0.750000 0.000000
Si Si2 0.250000 0.250000 0.781520
Si Si3 0.582226 0.400240 0.586654
Si Si4 0.750000 0.250000 0.305992
Si Si5 0.250000 0.250000 0.500000
Si Si6 0.574693 0.823204 0.886881
O O1 0.650267 0.778534 0.946790
O O2 0.284309 0.502120 0.738132
O O3 0.356867 0.217146 0.827729
O O4 0.531571 0.092744 0.579292
O O5 0.649176 0.374962 0.650799
O O6 0.673377 0.543692 0.541474
O O7 0.456818 0.646059 0.887029
#
# Coordination Sequence:
#
# PCOD9397654 Si02
#       6
#     2   4   8   4   2   8
#     4  10  24  42  66 100 136 176 228 284 344 410
#     4  11  25  43  68  97 135 179 230 284 342 409
#     4  12  27  46  73 103 137 182 226 281 349 413
#     4  12  26  47  68 101 140 178 232 288 338 416
#     4  12  26  50  74 108 146 178 232 292 348 428
#     4  11  24  42  67  98 134 179 227 283 345 408
#
# _framework density 22.880178999999998
#
# number of rings (size 3 to 8) (size 9 to 14) (size 15 to 20)
#    0.000    0.571    0.000    7.714    0.000   15.429 
#    0.000    0.000    0.000    0.000    0.000    0.000 
#    0.000    0.000    0.000    0.000    0.000    0.000 
#
# Total GULP energy -156086.465028 kJ/mol
# GULP energy per Si atom -5574.516608 kJ/mol
# Density = 2.282810 g / cm^3
# Si number density = 22.880179 Si / 1000 Ang^3
#
#
#
# Elastic Constant Matrix: (Units=GPa)
#
#
# Indices 1 2 3 4 5 6 
#
# 1 79.8100 12.1302 63.2143 0.0000 0.0000 0.0000
# 2 12.1302 109.7299 54.3087 0.0000 0.0000 0.0000
# 3 63.2143 54.3087 194.4277 0.0000 0.0000 0.0000
# 4 0.0000 0.0000 0.0000 -51.7875 0.0000 0.0000
# 5 0.0000 0.0000 0.0000 0.0000 -25.4391 0.0000
# 6 0.0000 0.0000 0.0000 0.0000 0.0000 20.0648
#
#
#
# Elastic Compliance Matrix: (Units=1/GPa)
#
#
# Indices 1 2 3 4 5 6 
#
# 1 0.016968 0.000992 -0.005794 0.000000 0.000000 0.000000
# 2 0.000992 0.010633 -0.003293 0.000000 0.000000 0.000000
# 3 -0.005794 -0.003293 0.007947 0.000000 0.000000 0.000000
# 4 0.000000 0.000000 0.000000 -0.019310 0.000000 0.000000
# 5 0.000000 0.000000 0.000000 0.000000 -0.039310 0.000000
# 6 0.000000 0.000000 0.000000 0.000000 0.000000 0.049839
#
#
# Mechanical properties :
#
#
# Convention : Reuss Voigt Hill
#
# Bulk Modulus (GPa) = 51.65614 71.47490 61.56552
# Shear Modulus (GPa) = 101.19461 5.52192 53.35826
#
# Velocity S-wave (km/s) = 6.65763 1.55520 4.83439
# Velocity P-wave (km/s) = 9.04017 5.87635 7.62417
#
# Compressibility (1/GPa) = 0.01935878
#
# Stress axis : x y z
#
# Youngs Moduli (GPa) = 58.93405 94.04450 125.83713
#
# Poissons Ratio (x) = -0.09327 0.72909
# Poissons Ratio (y) = -0.05845 0.41433
# Poissons Ratio (z) = 0.34146 0.30965
#
# Static dielectric constant tensor:
#      x y z
#    x 1.849650 0.000000 0.000000 
#    y 0.000000 1.831940 0.000000 
#    z 0.000000 0.000000 1.835280 
# 
# From -- ./inp_files/30788.got.cif
#   From: 2010.05.17/outbox.cif.g08.bks.cpg/sg50_16_cif.got.tgz:30788.got - 2010.06.03 11:33:33.
