data_PCOD9397124
_publ_section_title
;
Structure prediction by ZEFSAII (Michael W. Deem and Ramdas Pophale) SiO2 
 PCOD9397124
Probable space group: P B A N
;
_chemical_formula_sum "Si O2"
_cell_formula_units_Z 30
_cell_length_a 12.689061
_cell_length_b 8.601698
_cell_length_c 12.221640
_cell_angle_alpha 90.000000
_cell_angle_beta 90.000000
_cell_angle_gamma 90.000000
_cell_volume 1333.961093
_symmetry_space_group_name_H-M "P B A N"
_symmetry_group_IT_number 50
_space_group.IT_coordinate_system_code '2'
_symmetry_cell_setting 'orthorhombic'
loop_
_space_group_symop_operation_xyz
x,y,z
1/2-x,1/2-y,z
x,1/2-y,-z
1/2-x,y,-z
-x,-y,-z
1/2+x,1/2+y,-z
-x,1/2+y,z
1/2+x,-y,z
loop_
_atom_site_type_symbol
_atom_site_label
_atom_site_fract_x
_atom_site_fract_y
_atom_site_fract_z
Si Si1 0.750000 0.750000 0.185941
Si Si2 0.750000 0.493320 0.000000
Si Si3 0.750000 0.250000 0.500000
Si Si4 0.458363 0.127231 0.221536
Si Si5 0.437161 0.750000 0.000000
Si Si6 0.141052 0.690529 0.292411
O O1 0.762467 0.602683 0.105689
O O2 0.644273 0.726327 0.253278
O O3 0.645480 0.390922 0.015698
O O4 0.820767 0.346918 0.584978
O O5 0.490518 0.188378 0.099752
O O6 0.560916 0.166207 0.291487
O O7 0.420772 0.951085 0.237779
O O8 0.250000 0.750000 0.235597
#
# Coordination Sequence:
#
# PCOD9397124 Si02
#       6
#     4   4   2   8   4   8
#     4  11  24  38  58 101 140 196 248 289 348 433
#     4  10  22  38  60  90 150 194 250 294 342 414
#     4   8  24  52  76 110 144 184 248 330 394 434
#     4  12  25  42  72 104 150 195 246 302 371 449
#     4  11  24  39  66 106 144 201 243 300 362 438
#     4  10  26  48  74 107 144 188 249 314 382 443
#
# _framework density 22.489411
#
# number of rings (size 3 to 8) (size 9 to 14) (size 15 to 20)
#    0.800    0.533    0.000    4.800   11.200    4.267 
#    0.000    0.000    0.000    1.600    0.000    0.000 
#    0.000    0.000    0.000    0.000    0.000    0.000 
#
# Total GULP energy -167526.562256 kJ/mol
# GULP energy per Si atom -5584.218742 kJ/mol
# Density = 2.243822 g / cm^3
# Si number density = 22.489411 Si / 1000 Ang^3
#
#
#
# Elastic Constant Matrix: (Units=GPa)
#
#
# Indices 1 2 3 4 5 6 
#
# 1 184.2259 69.0384 25.7076 0.0000 0.0000 0.0000
# 2 69.0384 135.3903 23.3496 0.0000 0.0000 0.0000
# 3 25.7076 23.3496 87.7439 0.0000 0.0000 0.0000
# 4 0.0000 0.0000 0.0000 10.1447 0.0000 0.0000
# 5 0.0000 0.0000 0.0000 0.0000 24.6565 0.0000
# 6 0.0000 0.0000 0.0000 0.0000 0.0000 40.6796
#
#
#
# Elastic Compliance Matrix: (Units=1/GPa)
#
#
# Indices 1 2 3 4 5 6 
#
# 1 0.006814 -0.003281 -0.001123 0.000000 0.000000 0.000000
# 2 -0.003281 0.009321 -0.001519 0.000000 0.000000 0.000000
# 3 -0.001123 -0.001519 0.012130 0.000000 0.000000 0.000000
# 4 0.000000 0.000000 0.000000 0.098573 0.000000 0.000000
# 5 0.000000 0.000000 0.000000 0.000000 0.040557 0.000000
# 6 0.000000 0.000000 0.000000 0.000000 0.000000 0.024582
#
#
# Mechanical properties :
#
#
# Convention : Reuss Voigt Hill
#
# Bulk Modulus (GPa) = 60.90678 71.50571 66.20624
# Shear Modulus (GPa) = 23.88929 34.38047 29.13488
#
# Velocity S-wave (km/s) = 3.26275 3.91415 3.60320
# Velocity P-wave (km/s) = 6.42925 7.23130 6.84204
#
# Compressibility (1/GPa) = 0.01641853
#
# Stress axis : x y z
#
# Youngs Moduli (GPa) = 146.74656 107.28287 82.43885
#
# Poissons Ratio (x) = 0.35201 0.09261
# Poissons Ratio (y) = 0.48149 0.12524
# Poissons Ratio (z) = 0.16485 0.16298
#
# Static dielectric constant tensor:
#      x y z
#    x 1.873000 0.000000 0.000000 
#    y 0.000000 1.892510 0.000000 
#    z 0.000000 0.000000 1.873640 
# 
# From -- ./inp_files/24398.got.cif
#   From: 2010.05.17/outbox.cif.g08.bks.cpg/sg50_13_cif.got.tgz:24398.got - 2010.06.03 11:33:33.
