data_PCOD9397097
_publ_section_title
;
Structure prediction by ZEFSAII (Michael W. Deem and Ramdas Pophale) SiO2 
 PCOD9397097
Probable space group: P B A N
;
_chemical_formula_sum "Si O2"
_cell_formula_units_Z 28
_cell_length_a 11.704033
_cell_length_b 4.805949
_cell_length_c 19.444011
_cell_angle_alpha 90.000000
_cell_angle_beta 90.000000
_cell_angle_gamma 90.000000
_cell_volume 1093.705897
_symmetry_space_group_name_H-M "P B A N"
_symmetry_group_IT_number 50
_space_group.IT_coordinate_system_code '2'
_symmetry_cell_setting 'orthorhombic'
loop_
_space_group_symop_operation_xyz
x,y,z
1/2-x,1/2-y,z
x,1/2-y,-z
1/2-x,y,-z
-x,-y,-z
1/2+x,1/2+y,-z
-x,1/2+y,z
1/2+x,-y,z
loop_
_atom_site_type_symbol
_atom_site_label
_atom_site_fract_x
_atom_site_fract_y
_atom_site_fract_z
Si Si1 0.586396 0.127051 0.277100
Si Si2 0.423975 0.704348 0.575575
Si Si3 0.576986 0.615385 0.070517
Si Si4 0.750000 0.750000 0.189534
O O1 0.522586 0.420507 0.265500
O O2 0.629169 0.168695 0.355757
O O3 0.689029 0.988466 0.234606
O O4 0.374234 0.750000 0.500000
O O5 0.456109 0.380108 0.577915
O O6 0.540323 0.294194 0.073131
O O7 0.653328 0.653622 0.136464
O O8 0.626868 0.750000 0.000000
#
# Coordination Sequence:
#
# PCOD9397097 Si02
#       4
#     8   8   8   4
#     4  10  22  37  55  88 125 158 203 256 310 376
#     4   8  14  28  51  78 107 144 185 230 289 353
#     4  10  23  42  62  87 121 165 218 266 312 381
#     4  12  23  38  62  90 127 168 206 262 336 382
#
# _framework density 25.601033000000001
#
# number of rings (size 3 to 8) (size 9 to 14) (size 15 to 20)
#    0.000    2.286    0.000    2.143    0.000    4.571 
#    0.000    4.286    0.000    0.000    0.000  170.000 
#    0.000    6.857    0.000    0.000    0.000    0.000 
#
# Total GULP energy -156165.774724 kJ/mol
# GULP energy per Si atom -5577.349097 kJ/mol
# Density = 2.554276 g / cm^3
# Si number density = 25.601033 Si / 1000 Ang^3
#
#
#
# Elastic Constant Matrix: (Units=GPa)
#
#
# Indices 1 2 3 4 5 6 
#
# 1 83.8671 15.6523 74.6909 0.0000 0.0000 0.0000
# 2 15.6523 109.2342 25.4905 0.0000 0.0000 0.0000
# 3 74.6909 25.4905 225.8465 0.0000 0.0000 0.0000
# 4 0.0000 0.0000 0.0000 37.8766 0.0000 0.0000
# 5 0.0000 0.0000 0.0000 0.0000 -22.0389 0.0000
# 6 0.0000 0.0000 0.0000 0.0000 0.0000 13.6881
#
#
#
# Elastic Compliance Matrix: (Units=1/GPa)
#
#
# Indices 1 2 3 4 5 6 
#
# 1 0.017043 -0.001157 -0.005506 0.000000 0.000000 0.000000
# 2 -0.001157 0.009481 -0.000687 0.000000 0.000000 0.000000
# 3 -0.005506 -0.000687 0.006326 0.000000 0.000000 0.000000
# 4 0.000000 0.000000 0.000000 0.026402 0.000000 0.000000
# 5 0.000000 0.000000 0.000000 0.000000 -0.045374 0.000000
# 6 0.000000 0.000000 0.000000 0.000000 0.000000 0.073056
#
#
# Mechanical properties :
#
#
# Convention : Reuss Voigt Hill
#
# Bulk Modulus (GPa) = 55.09869 72.29057 63.69463
# Shear Modulus (GPa) = 46.43228 26.11277 36.27253
#
# Velocity S-wave (km/s) = 4.26336 3.19719 3.76817
# Velocity P-wave (km/s) = 6.76785 6.47519 6.62313
#
# Compressibility (1/GPa) = 0.01814925
#
# Stress axis : x y z
#
# Youngs Moduli (GPa) = 58.67519 105.47558 158.07279
#
# Poissons Ratio (x) = 0.12207 0.87031
# Poissons Ratio (y) = 0.06791 0.10865
# Poissons Ratio (z) = 0.32305 0.07250
#
# Static dielectric constant tensor:
#      x y z
#    x 2.013000 0.000000 0.000000 
#    y 0.000000 1.939680 0.000000 
#    z 0.000000 0.000000 2.098610 
# 
# From -- ./inp_files/30774.got.cif
#   From: 2010.05.17/outbox.cif.g08.bks.cpg/sg50_16_cif.got.tgz:30774.got - 2010.06.03 11:33:33.
