data_PCOD9397166
_publ_section_title
;
Structure prediction by ZEFSAII (Michael W. Deem and Ramdas Pophale) SiO2 
 PCOD9397166
Probable space group: P B A N
;
_chemical_formula_sum "Si O2"
_cell_formula_units_Z 24
_cell_length_a 12.228350
_cell_length_b 5.358128
_cell_length_c 15.564628
_cell_angle_alpha 90.000000
_cell_angle_beta 90.000000
_cell_angle_gamma 90.000000
_cell_volume 1019.810996
_symmetry_space_group_name_H-M "P B A N"
_symmetry_group_IT_number 50
_space_group.IT_coordinate_system_code '2'
_symmetry_cell_setting 'orthorhombic'
loop_
_space_group_symop_operation_xyz
x,y,z
1/2-x,1/2-y,z
x,1/2-y,-z
1/2-x,y,-z
-x,-y,-z
1/2+x,1/2+y,-z
-x,1/2+y,z
1/2+x,-y,z
loop_
_atom_site_type_symbol
_atom_site_label
_atom_site_fract_x
_atom_site_fract_y
_atom_site_fract_z
Si Si1 0.926340 0.322700 0.687338
Si Si2 0.750000 0.250000 0.827957
Si Si3 0.073625 0.750000 0.500000
Si Si4 0.048170 0.511748 0.903104
O O1 0.836412 0.364056 0.761067
O O2 0.871485 0.291190 0.592669
O O3 0.008983 0.557666 0.692562
O O4 0.824888 0.075373 0.888871
O O5 0.000000 0.500000 0.500000
O O6 0.018814 0.244873 0.865545
O O7 0.000000 0.500000 0.000000
#
# Coordination Sequence:
#
# PCOD9397166 Si02
#       4
#     8   4   4   8
#     4  10  22  39  61  95 132 171 218 264 317 382
#     4  12  24  40  70  96 128 170 212 272 328 382
#     4   8  16  35  58  83 130 176 208 259 314 371
#     4  10  24  45  65  92 124 159 208 261 323 393
#
# _framework density 23.533771000000002
#
# number of rings (size 3 to 8) (size 9 to 14) (size 15 to 20)
#    0.000    2.000    0.000    2.000    0.000    8.667 
#    0.000    6.667    0.000   12.000    0.000    0.000 
#    0.000    0.000    0.000    0.000    0.000    0.000 
#
# Total GULP energy -133643.022551 kJ/mol
# GULP energy per Si atom -5568.459273 kJ/mol
# Density = 2.348021 g / cm^3
# Si number density = 23.533771 Si / 1000 Ang^3
#
#
#
# Elastic Constant Matrix: (Units=GPa)
#
#
# Indices 1 2 3 4 5 6 
#
# 1 152.5734 58.8063 64.2519 0.0000 0.0000 0.0000
# 2 58.8063 195.1328 24.0753 0.0000 0.0000 0.0000
# 3 64.2519 24.0753 175.2597 0.0000 0.0000 0.0000
# 4 0.0000 0.0000 0.0000 30.3503 0.0000 0.0000
# 5 0.0000 0.0000 0.0000 0.0000 16.5617 0.0000
# 6 0.0000 0.0000 0.0000 0.0000 0.0000 21.3200
#
#
#
# Elastic Compliance Matrix: (Units=1/GPa)
#
#
# Indices 1 2 3 4 5 6 
#
# 1 0.008621 -0.002246 -0.002852 0.000000 0.000000 0.000000
# 2 -0.002246 0.005798 0.000027 0.000000 0.000000 0.000000
# 3 -0.002852 0.000027 0.006748 0.000000 0.000000 0.000000
# 4 0.000000 0.000000 0.000000 0.032949 0.000000 0.000000
# 5 0.000000 0.000000 0.000000 0.000000 0.060380 0.000000
# 6 0.000000 0.000000 0.000000 0.000000 0.000000 0.046904
#
#
# Mechanical properties :
#
#
# Convention : Reuss Voigt Hill
#
# Bulk Modulus (GPa) = 90.70652 90.80367 90.75509
# Shear Modulus (GPa) = 28.53596 38.70189 33.61893
#
# Velocity S-wave (km/s) = 3.48595 4.05967 3.78370
# Velocity P-wave (km/s) = 7.40468 7.78735 7.59842
#
# Compressibility (1/GPa) = 0.01102457
#
# Stress axis : x y z
#
# Youngs Moduli (GPa) = 115.99578 172.46392 148.19911
#
# Poissons Ratio (x) = 0.38739 0.42266
# Poissons Ratio (y) = 0.26055 -0.00400
# Poissons Ratio (z) = 0.33082 -0.00465
#
# Static dielectric constant tensor:
#      x y z
#    x 1.931250 0.000000 0.000000 
#    y 0.000000 1.862840 0.000000 
#    z 0.000000 0.000000 -1.923310 
# 
# From -- ./inp_files/29020.got.cif
#   From: 2010.05.17/outbox.cif.g08.bks.cpg/sg50_15_cif.got.tgz:29020.got - 2010.06.03 11:33:33.
