data_PCOD9397641
_publ_section_title
;
Structure prediction by ZEFSAII (Michael W. Deem and Ramdas Pophale) SiO2 
 PCOD9397641
Probable space group: P B A N
;
_chemical_formula_sum "Si O2"
_cell_formula_units_Z 38
_cell_length_a 9.811175
_cell_length_b 9.897487
_cell_length_c 19.223550
_cell_angle_alpha 90.000000
_cell_angle_beta 90.000000
_cell_angle_gamma 90.000000
_cell_volume 1866.721604
_symmetry_space_group_name_H-M "P B A N"
_symmetry_group_IT_number 50
_space_group.IT_coordinate_system_code '2'
_symmetry_cell_setting 'orthorhombic'
loop_
_space_group_symop_operation_xyz
x,y,z
1/2-x,1/2-y,z
x,1/2-y,-z
1/2-x,y,-z
-x,-y,-z
1/2+x,1/2+y,-z
-x,1/2+y,z
1/2+x,-y,z
loop_
_atom_site_type_symbol
_atom_site_label
_atom_site_fract_x
_atom_site_fract_y
_atom_site_fract_z
Si Si1 0.750000 0.750000 0.500000
Si Si2 0.750000 0.976987 0.000000
Si Si3 0.087923 0.716913 0.179476
Si Si4 0.051701 0.445831 0.425378
Si Si5 0.990642 0.952301 0.093625
Si Si6 0.593842 0.285672 0.336713
O O1 0.825050 0.648724 0.551858
O O2 0.856332 0.904314 0.051338
O O3 0.631245 0.050417 0.047377
O O4 0.250000 0.750000 0.175777
O O5 0.014019 0.852721 0.156591
O O6 0.042314 0.687185 0.258416
O O7 0.045761 0.599668 0.124862
O O8 0.078929 0.579015 0.381234
O O9 0.000000 0.500000 0.500000
O O10 0.963728 0.342087 0.379353
O O11 0.750000 0.250000 0.327417
#
# Coordination Sequence:
#
# PCOD9397641 Si02
#       6
#     2   4   8   8   8   8
#     4  12  24  40  68 100 136 164 226 292 336 384
#     4  10  24  40  72 104 130 176 228 278 342 398
#     4  11  24  45  66  95 141 176 221 277 333 407
#     4  12  23  44  68  99 132 173 223 283 332 397
#     4  11  23  44  69 100 135 179 223 281 336 400
#     4  11  25  43  68  96 134 183 221 268 343 402
#
# _framework density 20.356544
#
# number of rings (size 3 to 8) (size 9 to 14) (size 15 to 20)
#    0.000    0.842    4.211    2.526    0.000    6.737 
#    0.000    0.000    0.000    0.000    0.000    0.000 
#    0.000    0.000    0.000    0.000    0.000    0.000 
#
# Total GULP energy -211755.731836 kJ/mol
# GULP energy per Si atom -5572.519259 kJ/mol
# Density = 2.031021 g / cm^3
# Si number density = 20.356544 Si / 1000 Ang^3
#
#
#
# Elastic Constant Matrix: (Units=GPa)
#
#
# Indices 1 2 3 4 5 6 
#
# 1 96.8152 29.5056 46.6873 0.0000 0.0000 0.0000
# 2 29.5056 119.2616 38.5028 0.0000 0.0000 0.0000
# 3 46.6873 38.5028 134.6267 0.0000 0.0000 0.0000
# 4 0.0000 0.0000 0.0000 23.9085 0.0000 0.0000
# 5 0.0000 0.0000 0.0000 0.0000 25.6197 0.0000
# 6 0.0000 0.0000 0.0000 0.0000 0.0000 14.7475
#
#
#
# Elastic Compliance Matrix: (Units=1/GPa)
#
#
# Indices 1 2 3 4 5 6 
#
# 1 0.012785 -0.001908 -0.003888 0.000000 0.000000 0.000000
# 2 -0.001908 0.009523 -0.002062 0.000000 0.000000 0.000000
# 3 -0.003888 -0.002062 0.009366 0.000000 0.000000 0.000000
# 4 0.000000 0.000000 0.000000 0.041826 0.000000 0.000000
# 5 0.000000 0.000000 0.000000 0.000000 0.039032 0.000000
# 6 0.000000 0.000000 0.000000 0.000000 0.000000 0.067808
#
#
# Mechanical properties :
#
#
# Convention : Reuss Voigt Hill
#
# Bulk Modulus (GPa) = 62.66351 64.45499 63.55925
# Shear Modulus (GPa) = 24.82922 28.58900 26.70911
#
# Velocity S-wave (km/s) = 3.49623 3.75162 3.62617
# Velocity P-wave (km/s) = 6.86644 7.10619 6.98734
#
# Compressibility (1/GPa) = 0.01595825
#
# Stress axis : x y z
#
# Youngs Moduli (GPa) = 78.21405 105.01363 106.76900
#
# Poissons Ratio (x) = 0.20035 0.41514
# Poissons Ratio (y) = 0.14922 0.22014
# Poissons Ratio (z) = 0.30411 0.21652
#
# Static dielectric constant tensor:
#      x y z
#    x 1.758610 0.000000 0.000000 
#    y 0.000000 1.686510 0.000000 
#    z 0.000000 0.000000 1.800030 
# 
# From -- ./inp_files/28533.got.cif
#   From: 2010.05.17/outbox.cif.g08.bks.cpg/sg50_15_cif.got.tgz:28533.got - 2010.06.03 11:33:33.
