data_PCOD9397510
_publ_section_title
;
Structure prediction by ZEFSAII (Michael W. Deem and Ramdas Pophale) SiO2 
 PCOD9397510
Probable space group: P B A N
;
_chemical_formula_sum "Si O2"
_cell_formula_units_Z 40
_cell_length_a 5.387642
_cell_length_b 16.949199
_cell_length_c 22.226504
_cell_angle_alpha 90.000000
_cell_angle_beta 90.000000
_cell_angle_gamma 90.000000
_cell_volume 2029.640249
_symmetry_space_group_name_H-M "P B A N"
_symmetry_group_IT_number 50
_space_group.IT_coordinate_system_code '2'
_symmetry_cell_setting 'orthorhombic'
loop_
_space_group_symop_operation_xyz
x,y,z
1/2-x,1/2-y,z
x,1/2-y,-z
1/2-x,y,-z
-x,-y,-z
1/2+x,1/2+y,-z
-x,1/2+y,z
1/2+x,-y,z
loop_
_atom_site_type_symbol
_atom_site_label
_atom_site_fract_x
_atom_site_fract_y
_atom_site_fract_z
Si Si1 0.250000 0.052108 0.000000
Si Si2 0.397963 0.170858 0.095610
Si Si3 0.250000 0.250000 0.500000
Si Si4 0.880793 0.449241 0.187507
Si Si5 0.638267 0.162364 0.437396
Si Si6 0.250000 0.750000 0.000000
Si Si7 0.394611 0.548082 0.327661
O O1 0.266115 0.106539 0.940188
O O2 0.500000 0.000000 0.000000
O O3 0.250000 0.250000 0.115047
O O4 0.551038 0.125825 0.146876
O O5 0.582201 0.198358 0.043312
O O6 0.362200 0.186444 0.453835
O O7 0.611124 0.489359 0.176760
O O8 0.881091 0.426073 0.258014
O O9 0.750000 0.250000 0.431139
O O10 0.750000 0.127805 0.500000
O O11 0.660659 0.112489 0.378134
O O12 0.673396 0.515367 0.335792
#
# Coordination Sequence:
#
# PCOD9397510 Si02
#       7
#     4   8   2   8   8   2   8
#     4  12  24  40  65  93 122 166 208 250 322 390
#     4  12  25  43  65  96 130 166 209 274 321 380
#     4   8  18  36  56  82 132 164 212 258 310 384
#     4  10  24  47  67  92 128 174 214 257 321 390
#     4   9  20  37  60  92 127 172 213 261 318 380
#     4  12  24  44  64  96 140 150 204 278 330 370
#     4  10  23  42  64  93 130 164 215 270 312 374
#
# _framework density 19.707927999999999
#
# number of rings (size 3 to 8) (size 9 to 14) (size 15 to 20)
#    0.000    1.800    2.000    1.800    8.400    0.800 
#    3.600    0.000    0.000    0.000    0.000    0.000 
#    0.000    0.000    0.000    0.000    0.000    0.000 
#
# Total GULP energy -222906.898147 kJ/mol
# GULP energy per Si atom -5572.672454 kJ/mol
# Density = 1.966307 g / cm^3
# Si number density = 19.707928 Si / 1000 Ang^3
#
#
#
# Elastic Constant Matrix: (Units=GPa)
#
#
# Indices 1 2 3 4 5 6 
#
# 1 72.0184 20.9147 22.5256 0.0000 0.0000 0.0000
# 2 20.9147 78.9532 69.7859 0.0000 0.0000 0.0000
# 3 22.5256 69.7859 132.3427 0.0000 0.0000 0.0000
# 4 0.0000 0.0000 0.0000 45.4831 0.0000 0.0000
# 5 0.0000 0.0000 0.0000 0.0000 32.3890 0.0000
# 6 0.0000 0.0000 0.0000 0.0000 0.0000 581.3665
#
#
#
# Elastic Compliance Matrix: (Units=1/GPa)
#
#
# Indices 1 2 3 4 5 6 
#
# 1 0.015095 -0.003236 -0.000863 0.000000 0.000000 0.000000
# 2 -0.003236 0.024416 -0.012324 0.000000 0.000000 0.000000
# 3 -0.000863 -0.012324 0.014202 0.000000 0.000000 0.000000
# 4 0.000000 0.000000 0.000000 0.021986 0.000000 0.000000
# 5 0.000000 0.000000 0.000000 0.000000 0.030875 0.000000
# 6 0.000000 0.000000 0.000000 0.000000 0.000000 0.001720
#
#
# Mechanical properties :
#
#
# Convention : Reuss Voigt Hill
#
# Bulk Modulus (GPa) = 47.92304 56.64075 52.28189
# Shear Modulus (GPa) = 33.76203 143.18691 88.47447
#
# Velocity S-wave (km/s) = 4.14347 8.53301 6.70748
# Velocity P-wave (km/s) = 6.87463 11.21987 9.30446
#
# Compressibility (1/GPa) = 0.02086679
#
# Stress axis : x y z
#
# Youngs Moduli (GPa) = 66.24723 40.95655 70.41416
#
# Poissons Ratio (x) = 0.13253 0.06076
# Poissons Ratio (y) = 0.21437 0.86779
# Poissons Ratio (z) = 0.05717 0.50475
#
# Static dielectric constant tensor:
#      x y z
#    x 1.879060 0.000000 0.000000 
#    y 0.000000 1.710640 0.000000 
#    z 0.000000 0.000000 1.672730 
# 
# From -- ./inp_files/30338.got.cif
#   From: 2010.05.17/outbox.cif.g08.bks.cpg/sg50_16_cif.got.tgz:30338.got - 2010.06.03 11:33:33.
