data_PCOD9397829
_publ_section_title
;
Structure prediction by ZEFSAII (Michael W. Deem and Ramdas Pophale) SiO2 
 PCOD9397829
Probable space group: P B A N
;
_chemical_formula_sum "Si O2"
_cell_formula_units_Z 40
_cell_length_a 8.165868
_cell_length_b 20.903564
_cell_length_c 11.110846
_cell_angle_alpha 90.000000
_cell_angle_beta 90.000000
_cell_angle_gamma 90.000000
_cell_volume 1896.574128
_symmetry_space_group_name_H-M "P B A N"
_symmetry_group_IT_number 50
_space_group.IT_coordinate_system_code '2'
_symmetry_cell_setting 'orthorhombic'
loop_
_space_group_symop_operation_xyz
x,y,z
1/2-x,1/2-y,z
x,1/2-y,-z
1/2-x,y,-z
-x,-y,-z
1/2+x,1/2+y,-z
-x,1/2+y,z
1/2+x,-y,z
loop_
_atom_site_type_symbol
_atom_site_label
_atom_site_fract_x
_atom_site_fract_y
_atom_site_fract_z
Si Si1 0.186187 0.431724 0.360817
Si Si2 0.250000 0.644448 0.500000
Si Si3 0.298037 0.679457 0.860590
Si Si4 0.645710 0.807397 0.255856
Si Si5 0.500537 0.250000 0.500000
Si Si6 0.691354 0.433965 0.702211
O O1 0.250000 0.433190 0.500000
O O2 0.248416 0.368582 0.293100
O O3 0.252981 0.493405 0.288235
O O4 0.989879 0.434216 0.353908
O O5 0.387651 0.692052 0.452926
O O6 0.188150 0.598951 0.395552
O O7 0.250000 0.750000 0.809065
O O8 0.489303 0.674204 0.824941
O O9 0.205385 0.617105 0.808666
O O10 0.250000 0.681454 0.000000
O O11 0.750000 0.750000 0.197089
O O12 0.588962 0.778402 0.384958
#
# Coordination Sequence:
#
# PCOD9397829 Si02
#       6
#     8   4   8   8   4   8
#     4  12  25  41  65 103 146 180 218 287 353 420
#     4  11  20  34  62  92 135 174 212 270 337 402
#     4  11  25  48  71  96 134 183 234 286 337 402
#     4  12  23  41  67 104 137 177 227 283 346 415
#     4  11  21  34  62 102 136 170 214 280 342 412
#     4  12  24  42  64  99 137 182 228 270 347 414
#
# _framework density 21.09066
#
# number of rings (size 3 to 8) (size 9 to 14) (size 15 to 20)
#    0.000    0.400    3.000    8.100    0.000    0.000 
#    0.000   11.000    0.000    0.000    0.000    0.000 
#    0.000    0.000    0.000    0.000    0.000    0.000 
#
# Total GULP energy -223458.910345 kJ/mol
# GULP energy per Si atom -5586.472759 kJ/mol
# Density = 2.104266 g / cm^3
# Si number density = 21.090660 Si / 1000 Ang^3
#
#
#
# Elastic Constant Matrix: (Units=GPa)
#
#
# Indices 1 2 3 4 5 6 
#
# 1 106.2563 50.5178 28.7108 0.0000 0.0000 0.0000
# 2 50.5178 185.8363 29.0974 0.0000 0.0000 0.0000
# 3 28.7108 29.0974 80.7666 0.0000 0.0000 0.0000
# 4 0.0000 0.0000 0.0000 19.4255 0.0000 0.0000
# 5 0.0000 0.0000 0.0000 0.0000 7.4254 0.0000
# 6 0.0000 0.0000 0.0000 0.0000 0.0000 48.8390
#
#
#
# Elastic Compliance Matrix: (Units=1/GPa)
#
#
# Indices 1 2 3 4 5 6 
#
# 1 0.011515 -0.002638 -0.003143 0.000000 0.000000 0.000000
# 2 -0.002638 0.006307 -0.001334 0.000000 0.000000 0.000000
# 3 -0.003143 -0.001334 0.013979 0.000000 0.000000 0.000000
# 4 0.000000 0.000000 0.000000 0.051479 0.000000 0.000000
# 5 0.000000 0.000000 0.000000 0.000000 0.134673 0.000000
# 6 0.000000 0.000000 0.000000 0.000000 0.000000 0.020475
#
#
# Mechanical properties :
#
#
# Convention : Reuss Voigt Hill
#
# Bulk Modulus (GPa) = 56.91378 65.50124 61.20751
# Shear Modulus (GPa) = 19.34121 32.77352 26.05737
#
# Velocity S-wave (km/s) = 3.03157 3.94628 3.51877
# Velocity P-wave (km/s) = 6.26879 7.20337 6.75227
#
# Compressibility (1/GPa) = 0.01757044
#
# Stress axis : x y z
#
# Youngs Moduli (GPa) = 86.84611 158.55010 71.53420
#
# Poissons Ratio (x) = 0.41826 0.22482
# Poissons Ratio (y) = 0.22910 0.09546
# Poissons Ratio (z) = 0.27294 0.21158
#
# Static dielectric constant tensor:
#      x y z
#    x 1.829960 0.000000 0.000000 
#    y 0.000000 1.801360 0.000000 
#    z 0.000000 0.000000 1.762880 
# 
# From -- ./inp_files/19000.got.cif
#   From: 2010.05.17/outbox.cif.g08.bks.cpg/sg50_10_cif.got.tgz:19000.got - 2010.06.03 11:33:33.
