data_PCOD9397638
_publ_section_title
;
Structure prediction by ZEFSAII (Michael W. Deem and Ramdas Pophale) SiO2 
 PCOD9397638
Probable space group: P B A N
;
_chemical_formula_sum "Si O2"
_cell_formula_units_Z 48
_cell_length_a 9.393684
_cell_length_b 26.741909
_cell_length_c 8.280298
_cell_angle_alpha 90.000000
_cell_angle_beta 90.000000
_cell_angle_gamma 90.000000
_cell_volume 2080.052613
_symmetry_space_group_name_H-M "P B A N"
_symmetry_group_IT_number 50
_space_group.IT_coordinate_system_code '2'
_symmetry_cell_setting 'orthorhombic'
loop_
_space_group_symop_operation_xyz
x,y,z
1/2-x,1/2-y,z
x,1/2-y,-z
1/2-x,y,-z
-x,-y,-z
1/2+x,1/2+y,-z
-x,1/2+y,z
1/2+x,-y,z
loop_
_atom_site_type_symbol
_atom_site_label
_atom_site_fract_x
_atom_site_fract_y
_atom_site_fract_z
Si Si1 0.960475 0.750000 0.000000
Si Si2 0.014962 0.883653 0.695392
Si Si3 0.466468 0.047091 0.246763
Si Si4 0.905032 0.862063 0.043246
Si Si5 0.718077 0.037630 0.824597
Si Si6 0.404123 0.724555 0.654377
Si Si7 0.250000 0.078014 0.500000
O O1 0.037395 0.766112 0.834182
O O2 0.892253 0.697693 0.938076
O O3 0.120478 0.930677 0.701500
O O4 0.089441 0.834657 0.622919
O O5 0.857934 0.891318 0.617546
O O6 0.995172 0.872946 0.884749
O O7 0.465993 0.104883 0.188420
O O8 0.627648 0.028694 0.253736
O O9 0.366117 0.046510 0.402368
O O10 0.375728 0.010941 0.131136
O O11 0.750000 0.882049 0.000000
O O12 0.750000 0.062360 0.000000
O O13 0.250000 0.750000 0.659221
O O14 0.481364 0.750000 0.500000
#
# Coordination Sequence:
#
# PCOD9397638 Si02
#       7
#     4   8   8   8   8   8   4
#     4  10  24  40  70 104 146 189 245 310 382 451
#     4  11  26  45  73 108 146 197 247 303 386 446
#     4  12  27  44  78 103 153 188 252 311 383 454
#     4  11  22  44  70 104 139 192 245 304 364 451
#     4  12  26  46  77 110 142 198 254 315 376 452
#     4  10  24  42  69 103 146 191 251 308 377 450
#     4  12  28  48  69 110 152 196 239 316 380 464
#
# _framework density 23.076338
#
# number of rings (size 3 to 8) (size 9 to 14) (size 15 to 20)
#    0.000    0.833    3.333    2.500    4.667    4.667 
#    0.000    0.417    0.000    0.000    0.000    0.000 
#    0.000    0.000    0.000    0.000    0.000    0.000 
#
# Total GULP energy -267631.184713 kJ/mol
# GULP energy per Si atom -5575.649682 kJ/mol
# Density = 2.302381 g / cm^3
# Si number density = 23.076338 Si / 1000 Ang^3
#
#
#
# Elastic Constant Matrix: (Units=GPa)
#
#
# Indices 1 2 3 4 5 6 
#
# 1 142.7394 53.9526 23.5614 0.0000 0.0000 0.0000
# 2 53.9526 126.8550 19.2936 0.0000 0.0000 0.0000
# 3 23.5614 19.2936 89.2016 0.0000 0.0000 0.0000
# 4 0.0000 0.0000 0.0000 21.5520 0.0000 0.0000
# 5 0.0000 0.0000 0.0000 0.0000 35.7263 0.0000
# 6 0.0000 0.0000 0.0000 0.0000 0.0000 9.6084
#
#
#
# Elastic Compliance Matrix: (Units=1/GPa)
#
#
# Indices 1 2 3 4 5 6 
#
# 1 0.008543 -0.003402 -0.001521 0.000000 0.000000 0.000000
# 2 -0.003402 0.009506 -0.001157 0.000000 0.000000 0.000000
# 3 -0.001521 -0.001157 0.011863 0.000000 0.000000 0.000000
# 4 0.000000 0.000000 0.000000 0.046399 0.000000 0.000000
# 5 0.000000 0.000000 0.000000 0.000000 0.027991 0.000000
# 6 0.000000 0.000000 0.000000 0.000000 0.000000 0.104075
#
#
# Mechanical properties :
#
#
# Convention : Reuss Voigt Hill
#
# Bulk Modulus (GPa) = 56.33476 61.37903 58.85690
# Shear Modulus (GPa) = 22.07956 30.84324 26.46140
#
# Velocity S-wave (km/s) = 3.09658 3.65988 3.38995
# Velocity P-wave (km/s) = 6.10331 6.67201 6.39399
#
# Compressibility (1/GPa) = 0.01775103
#
# Stress axis : x y z
#
# Youngs Moduli (GPa) = 117.05959 105.19715 84.29886
#
# Poissons Ratio (x) = 0.35788 0.12819
# Poissons Ratio (y) = 0.39824 0.09757
# Poissons Ratio (z) = 0.17800 0.12176
#
# Static dielectric constant tensor:
#      x y z
#    x 0.800490 0.000000 0.000000 
#    y 0.000000 1.935650 0.000000 
#    z 0.000000 0.000000 1.994910 
# 
# From -- ./inp_files/10146.got.cif
#   From: 2010.05.17/outbox.cif.g08.bks.cpg/sg50_6_cif.got.tgz:10146.got - 2010.06.03 11:33:33.
