data_PCOD9397420
_publ_section_title
;
Structure prediction by ZEFSAII (Michael W. Deem and Ramdas Pophale) SiO2 
 PCOD9397420
Probable space group: P B A N
;
_chemical_formula_sum "Si O2"
_cell_formula_units_Z 48
_cell_length_a 9.643521
_cell_length_b 17.639444
_cell_length_c 13.106878
_cell_angle_alpha 90.000000
_cell_angle_beta 90.000000
_cell_angle_gamma 90.000000
_cell_volume 2229.563159
_symmetry_space_group_name_H-M "P B A N"
_symmetry_group_IT_number 50
_space_group.IT_coordinate_system_code '2'
_symmetry_cell_setting 'orthorhombic'
loop_
_space_group_symop_operation_xyz
x,y,z
1/2-x,1/2-y,z
x,1/2-y,-z
1/2-x,y,-z
-x,-y,-z
1/2+x,1/2+y,-z
-x,1/2+y,z
1/2+x,-y,z
loop_
_atom_site_type_symbol
_atom_site_label
_atom_site_fract_x
_atom_site_fract_y
_atom_site_fract_z
Si Si1 0.913889 0.267935 0.692900
Si Si2 0.794771 0.576371 0.775451
Si Si3 0.403324 0.927376 0.007994
Si Si4 0.952213 0.698754 0.898174
Si Si5 0.342741 0.313081 0.602454
Si Si6 0.469214 0.577748 0.775228
O O1 0.750000 0.250000 0.691694
O O2 0.934355 0.359090 0.690786
O O3 0.989429 0.241131 0.798242
O O4 0.003649 0.222988 0.607045
O O5 0.829201 0.641377 0.860451
O O6 0.840100 0.612382 0.668266
O O7 0.631891 0.560567 0.774124
O O8 0.881118 0.499193 0.780334
O O9 0.431707 0.887523 0.115086
O O10 0.250000 0.957406 0.000000
O O11 0.430208 0.863029 0.925834
O O12 0.500000 0.000000 0.000000
O O13 0.924333 0.750000 0.000000
O O14 0.250000 0.250000 0.660582
O O15 0.250000 0.324535 0.500000
#
# Coordination Sequence:
#
# PCOD9397420 Si02
#       6
#     8   8   8   8   8   8
#     4  11  24  42  72 105 137 188 242 297 350 421
#     4  11  26  43  69 103 137 193 228 299 355 427
#     4  12  24  39  56  89 135 188 229 287 338 396
#     4  11  24  40  63  97 142 192 252 287 339 408
#     4  10  22  48  77  99 137 177 226 290 369 429
#     4  12  24  43  65  98 145 181 239 288 358 414
#
# _framework density 21.528880999999998
#
# number of rings (size 3 to 8) (size 9 to 14) (size 15 to 20)
#    0.000    0.833    5.000    2.000    4.667    0.000 
#    3.000    2.500    0.000    0.000    0.000    0.000 
#    0.000    0.000    0.000    0.000    0.000    0.000 
#
# Total GULP energy -267768.611946 kJ/mol
# GULP energy per Si atom -5578.512749 kJ/mol
# Density = 2.147988 g / cm^3
# Si number density = 21.528881 Si / 1000 Ang^3
#
#
#
# Elastic Constant Matrix: (Units=GPa)
#
#
# Indices 1 2 3 4 5 6 
#
# 1 202.6588 62.9902 34.4188 0.0000 0.0000 0.0000
# 2 62.9902 117.3588 39.6172 0.0000 0.0000 0.0000
# 3 34.4188 39.6172 100.4151 0.0000 0.0000 0.0000
# 4 0.0000 0.0000 0.0000 13.5853 0.0000 0.0000
# 5 0.0000 0.0000 0.0000 0.0000 25.8667 0.0000
# 6 0.0000 0.0000 0.0000 0.0000 0.0000 21.2882
#
#
#
# Elastic Compliance Matrix: (Units=1/GPa)
#
#
# Indices 1 2 3 4 5 6 
#
# 1 0.005993 -0.002911 -0.000906 0.000000 0.000000 0.000000
# 2 -0.002911 0.011244 -0.003438 0.000000 0.000000 0.000000
# 3 -0.000906 -0.003438 0.011626 0.000000 0.000000 0.000000
# 4 0.000000 0.000000 0.000000 0.073609 0.000000 0.000000
# 5 0.000000 0.000000 0.000000 0.000000 0.038660 0.000000
# 6 0.000000 0.000000 0.000000 0.000000 0.000000 0.046974
#
#
# Mechanical properties :
#
#
# Convention : Reuss Voigt Hill
#
# Bulk Modulus (GPa) = 69.67374 77.16502 73.41938
# Shear Modulus (GPa) = 24.10801 31.04180 27.57490
#
# Velocity S-wave (km/s) = 3.34997 3.80131 3.58276
# Velocity P-wave (km/s) = 6.88449 7.42880 7.16182
#
# Compressibility (1/GPa) = 0.01435261
#
# Stress axis : x y z
#
# Youngs Moduli (GPa) = 166.86175 88.93677 86.01648
#
# Poissons Ratio (x) = 0.25888 0.07791
# Poissons Ratio (y) = 0.48571 0.29576
# Poissons Ratio (z) = 0.15113 0.30580
#
# Static dielectric constant tensor:
#      x y z
#    x 1.746920 0.000000 0.000000 
#    y 0.000000 1.826410 0.000000 
#    z 0.000000 0.000000 1.926790 
# 
# From -- ./inp_files/25022.got.cif
#   From: 2010.05.17/outbox.cif.g08.bks.cpg/sg50_13_cif.got.tgz:25022.got - 2010.06.03 11:33:33.
