data_PCOD9397082
_publ_section_title
;
Structure prediction by ZEFSAII (Michael W. Deem and Ramdas Pophale) SiO2 
 PCOD9397082
Probable space group: P B A N
;
_chemical_formula_sum "Si O2"
_cell_formula_units_Z 58
_cell_length_a 8.845579
_cell_length_b 19.163994
_cell_length_c 16.327944
_cell_angle_alpha 90.000000
_cell_angle_beta 90.000000
_cell_angle_gamma 90.000000
_cell_volume 2767.857925
_symmetry_space_group_name_H-M "P B A N"
_symmetry_group_IT_number 50
_space_group.IT_coordinate_system_code '2'
_symmetry_cell_setting 'orthorhombic'
loop_
_space_group_symop_operation_xyz
x,y,z
1/2-x,1/2-y,z
x,1/2-y,-z
1/2-x,y,-z
-x,-y,-z
1/2+x,1/2+y,-z
-x,1/2+y,z
1/2+x,-y,z
loop_
_atom_site_type_symbol
_atom_site_label
_atom_site_fract_x
_atom_site_fract_y
_atom_site_fract_z
Si Si1 0.707361 0.446439 0.408863
Si Si2 0.376429 0.584563 0.813668
Si Si3 0.176730 0.826153 0.307047
Si Si4 0.250000 0.250000 0.000000
Si Si5 0.447422 0.377761 0.039690
Si Si6 0.389580 0.430909 0.334334
Si Si7 0.673909 0.676229 0.276528
Si Si8 0.837476 0.928656 0.124659
O O1 0.750000 0.467727 0.500000
O O2 0.774128 0.370978 0.385910
O O3 0.527722 0.441889 0.396594
O O4 0.782737 0.501606 0.345378
O O5 0.243713 0.626322 0.767416
O O6 0.412065 0.621187 0.900308
O O7 0.518844 0.583242 0.750435
O O8 0.356852 0.503930 0.836417
O O9 0.250000 0.750000 0.303832
O O10 0.997734 0.817491 0.305023
O O11 0.362781 0.303237 0.044655
O O12 0.324912 0.429236 0.080427
O O13 0.455655 0.403674 0.945885
O O14 0.278715 0.365155 0.341240
O O15 0.750000 0.750000 0.258565
O O16 0.665852 0.628512 0.195643
#
# Coordination Sequence:
#
# PCOD9397082 Si02
#       8
#     8   8   8   2   8   8   8   8
#     4  11  23  43  69 100 135 168 207 263 328 396
#     4  11  22  42  63  94 129 166 221 279 328 385
#     4  11  26  43  65  96 127 168 217 275 336 406
#     4   8  20  36  56  96 126 180 222 276 348 408
#     4  10  22  36  61  91 127 172 222 270 336 398
#     4  11  23  38  68  99 127 170 215 261 317 398
#     4  12  24  42  67  92 130 176 224 274 334 401
#     4  10  22  35  63  91 125 172 217 271 330 386
#
# _framework density 20.954833000000001
#
# number of rings (size 3 to 8) (size 9 to 14) (size 15 to 20)
#    0.000    1.379    1.379    5.793    5.793    0.276 
#    0.000    0.000    0.000    3.724    0.000    0.000 
#    0.000    0.000    0.000    0.000    0.000    0.000 
#
# Total GULP energy -323812.289519 kJ/mol
# GULP energy per Si atom -5582.970509 kJ/mol
# Density = 2.090714 g / cm^3
# Si number density = 20.954833 Si / 1000 Ang^3
#
#
#
# Elastic Constant Matrix: (Units=GPa)
#
#
# Indices 1 2 3 4 5 6 
#
# 1 131.2401 52.4036 18.5701 0.0000 0.0000 0.0000
# 2 52.4036 151.8547 7.1236 0.0000 0.0000 0.0000
# 3 18.5701 7.1236 42.9951 0.0000 0.0000 0.0000
# 4 0.0000 0.0000 0.0000 8.3754 0.0000 0.0000
# 5 0.0000 0.0000 0.0000 0.0000 17.7905 0.0000
# 6 0.0000 0.0000 0.0000 0.0000 0.0000 25.0984
#
#
#
# Elastic Compliance Matrix: (Units=1/GPa)
#
#
# Indices 1 2 3 4 5 6 
#
# 1 0.009340 -0.003058 -0.003527 0.000000 0.000000 0.000000
# 2 -0.003058 0.007638 0.000055 0.000000 0.000000 0.000000
# 3 -0.003527 0.000055 0.024773 0.000000 0.000000 0.000000
# 4 0.000000 0.000000 0.000000 0.119397 0.000000 0.000000
# 5 0.000000 0.000000 0.000000 0.000000 0.056210 0.000000
# 6 0.000000 0.000000 0.000000 0.000000 0.000000 0.039843
#
#
# Mechanical properties :
#
#
# Convention : Reuss Voigt Hill
#
# Bulk Modulus (GPa) = 34.85438 53.58716 44.22077
# Shear Modulus (GPa) = 17.86842 26.78570 22.32706
#
# Velocity S-wave (km/s) = 2.92329 3.57915 3.26772
# Velocity P-wave (km/s) = 5.29749 6.53519 5.94861
#
# Compressibility (1/GPa) = 0.02869080
#
# Stress axis : x y z
#
# Youngs Moduli (GPa) = 107.07116 130.92807 40.36679
#
# Poissons Ratio (x) = 0.40032 0.14239
# Poissons Ratio (y) = 0.32737 -0.00223
# Poissons Ratio (z) = 0.37767 -0.00722
#
# Static dielectric constant tensor:
#      x y z
#    x 1.783380 0.000000 0.000000 
#    y 0.000000 1.745070 0.000000 
#    z 0.000000 0.000000 1.798120 
# 
# From -- ./inp_files/28880.got.cif
#   From: 2010.05.17/outbox.cif.g08.bks.cpg/sg50_15_cif.got.tgz:28880.got - 2010.06.03 11:33:33.
