data_PCOD9397442
_publ_section_title
;
Structure prediction by ZEFSAII (Michael W. Deem and Ramdas Pophale) SiO2 
 PCOD9397442
Probable space group: P B A N
;
_chemical_formula_sum "Si O2"
_cell_formula_units_Z 64
_cell_length_a 12.411987
_cell_length_b 24.345009
_cell_length_c 11.824180
_cell_angle_alpha 90.000000
_cell_angle_beta 90.000000
_cell_angle_gamma 90.000000
_cell_volume 3572.911705
_symmetry_space_group_name_H-M "P B A N"
_symmetry_group_IT_number 50
_space_group.IT_coordinate_system_code '2'
_symmetry_cell_setting 'orthorhombic'
loop_
_space_group_symop_operation_xyz
x,y,z
1/2-x,1/2-y,z
x,1/2-y,-z
1/2-x,y,-z
-x,-y,-z
1/2+x,1/2+y,-z
-x,1/2+y,z
1/2+x,-y,z
loop_
_atom_site_type_symbol
_atom_site_label
_atom_site_fract_x
_atom_site_fract_y
_atom_site_fract_z
Si Si1 0.859766 0.381623 0.469168
Si Si2 0.220749 0.540936 0.729514
Si Si3 0.025979 0.120871 0.324046
Si Si4 0.514450 0.443306 0.872323
Si Si5 0.947084 0.854849 0.303626
Si Si6 0.255448 0.431523 0.625910
Si Si7 0.087529 0.938199 0.879978
Si Si8 0.879666 0.741551 0.366162
O O1 0.750000 0.348793 0.500000
O O2 0.807226 0.429581 0.389575
O O3 0.931713 0.391859 0.582534
O O4 0.948233 0.357703 0.383542
O O5 0.107720 0.533503 0.791150
O O6 0.277926 0.483423 0.703654
O O7 0.296801 0.570784 0.820813
O O8 0.136584 0.090071 0.351160
O O9 0.064060 0.184502 0.330482
O O10 0.988274 0.096770 0.203975
O O11 0.464469 0.391522 0.807064
O O12 0.437186 0.495992 0.885830
O O13 0.565142 0.423155 0.990331
O O14 0.844859 0.884117 0.364486
O O15 0.924077 0.791113 0.290493
O O16 0.250000 0.453038 0.500000
O O17 0.750000 0.750000 0.357998
O O18 0.905010 0.750000 0.500000
#
# Coordination Sequence:
#
# PCOD9397442 Si02
#       8
#     8   8   8   8   8   8   8   8
#     4  11  22  37  56  88 127 159 196 244 307 366
#     4  11  22  35  58  88 123 163 200 247 308 370
#     4  12  23  38  59  93 125 160 207 250 309 368
#     4  10  23  39  61  84 120 167 209 253 300 357
#     4  11  22  40  61  90 123 161 205 252 306 361
#     4  12  21  33  58  94 127 161 199 252 310 373
#     4  11  22  40  59  86 123 164 209 253 300 364
#     4  11  21  38  65  92 122 159 197 249 312 370
#
# _framework density 17.912561
#
# number of rings (size 3 to 8) (size 9 to 14) (size 15 to 20)
#    0.000    0.875    7.500    0.750    0.000    0.500 
#    0.000    2.500    0.000    0.750    0.000    1.750 
#    0.000    0.000    0.000    0.000    0.000    0.000 
#
# Total GULP energy -356281.111781 kJ/mol
# GULP energy per Si atom -5566.892372 kJ/mol
# Density = 1.787179 g / cm^3
# Si number density = 17.912561 Si / 1000 Ang^3
#
#
#
# Elastic Constant Matrix: (Units=GPa)
#
#
# Indices 1 2 3 4 5 6 
#
# 1 81.4580 9.0356 14.6711 0.0000 0.0000 0.0000
# 2 9.0356 75.2662 32.2750 0.0000 0.0000 0.0000
# 3 14.6711 32.2750 101.6751 0.0000 0.0000 0.0000
# 4 0.0000 0.0000 0.0000 21.1804 0.0000 0.0000
# 5 0.0000 0.0000 0.0000 0.0000 15.6668 0.0000
# 6 0.0000 0.0000 0.0000 0.0000 0.0000 15.6914
#
#
#
# Elastic Compliance Matrix: (Units=1/GPa)
#
#
# Indices 1 2 3 4 5 6 
#
# 1 0.012651 -0.000852 -0.001555 0.000000 0.000000 0.000000
# 2 -0.000852 0.015437 -0.004777 0.000000 0.000000 0.000000
# 3 -0.001555 -0.004777 0.011576 0.000000 0.000000 0.000000
# 4 0.000000 0.000000 0.000000 0.047213 0.000000 0.000000
# 5 0.000000 0.000000 0.000000 0.000000 0.063829 0.000000
# 6 0.000000 0.000000 0.000000 0.000000 0.000000 0.063729
#
#
# Mechanical properties :
#
#
# Convention : Reuss Voigt Hill
#
# Bulk Modulus (GPa) = 39.53269 41.15140 40.34204
# Shear Modulus (GPa) = 21.07606 24.00224 22.53915
#
# Velocity S-wave (km/s) = 3.43389 3.66453 3.55108
# Velocity P-wave (km/s) = 6.15141 6.39753 6.27568
#
# Compressibility (1/GPa) = 0.02529552
#
# Stress axis : x y z
#
# Youngs Moduli (GPa) = 79.04617 64.77948 86.38500
#
# Poissons Ratio (x) = 0.05519 0.13433
# Poissons Ratio (y) = 0.06734 0.41268
# Poissons Ratio (z) = 0.12292 0.30947
#
# Static dielectric constant tensor:
#      x y z
#    x 1.694690 0.000000 0.000000 
#    y 0.000000 1.613090 0.000000 
#    z 0.000000 0.000000 1.571420 
# 
# From -- ./inp_files/20531.got.cif
#   From: 2010.05.17/outbox.cif.g08.bks.cpg/sg50_11_cif.got.tgz:20531.got - 2010.06.03 11:33:33.
