data_PCOD9397658
_publ_section_title
;
Structure prediction by ZEFSAII (Michael W. Deem and Ramdas Pophale) SiO2 
 PCOD9397658
Probable space group: P B A N
;
_chemical_formula_sum "Si O2"
_cell_formula_units_Z 40
_cell_length_a 11.380165
_cell_length_b 8.987303
_cell_length_c 17.402179
_cell_angle_alpha 90.000000
_cell_angle_beta 90.000000
_cell_angle_gamma 90.000000
_cell_volume 1779.842506
_symmetry_space_group_name_H-M "P B A N"
_symmetry_group_IT_number 50
_space_group.IT_coordinate_system_code '2'
_symmetry_cell_setting 'orthorhombic'
loop_
_space_group_symop_operation_xyz
x,y,z
1/2-x,1/2-y,z
x,1/2-y,-z
1/2-x,y,-z
-x,-y,-z
1/2+x,1/2+y,-z
-x,1/2+y,z
1/2+x,-y,z
loop_
_atom_site_type_symbol
_atom_site_label
_atom_site_fract_x
_atom_site_fract_y
_atom_site_fract_z
Si Si1 0.750000 0.250000 0.829952
Si Si2 0.092779 0.503427 0.431524
Si Si3 0.434235 0.624397 0.055529
Si Si4 0.250000 0.750000 0.500000
Si Si5 0.056366 0.551733 0.257982
Si Si6 0.250000 0.250000 0.500000
Si Si7 0.614804 0.753972 0.824322
O O1 0.675606 0.371554 0.882126
O O2 0.843377 0.337003 0.775701
O O3 0.174493 0.643917 0.447038
O O4 0.038406 0.536716 0.348754
O O5 0.170692 0.355426 0.445254
O O6 0.000000 0.500000 0.500000
O O7 0.540603 0.698074 0.102264
O O8 0.387735 0.750000 0.000000
O O9 0.500000 0.500000 0.000000
O O10 0.093590 0.387372 0.234460
O O11 0.940368 0.607423 0.213799
O O12 0.750000 0.750000 0.843705
#
# Coordination Sequence:
#
# PCOD9397658 Si02
#       7
#     4   8   8   2   8   2   8
#     4  10  24  48  76 110 148 198 250 304 380 448
#     4  11  25  45  73 104 146 186 246 301 366 437
#     4  11  24  46  74 107 146 188 244 304 369 435
#     4  10  24  42  68 102 132 186 236 278 370 412
#     4  11  27  46  75 101 152 191 252 304 372 444
#     4  10  26  46  68 112 140 186 252 298 384 436
#     4  11  28  47  71 110 145 198 249 302 381 448
#
# _framework density 22.473898999999999
#
# number of rings (size 3 to 8) (size 9 to 14) (size 15 to 20)
#    0.000    1.200    0.000    3.900   15.400    2.000 
#    0.000    0.000    0.000    0.000    0.000    0.000 
#    0.000    0.000    0.000    0.000    0.000    0.000 
#
# Total GULP energy -223168.899272 kJ/mol
# GULP energy per Si atom -5579.222482 kJ/mol
# Density = 2.242275 g / cm^3
# Si number density = 22.473899 Si / 1000 Ang^3
#
#
#
# Elastic Constant Matrix: (Units=GPa)
#
#
# Indices 1 2 3 4 5 6 
#
# 1 150.7343 28.9392 57.8405 0.0000 0.0000 0.0000
# 2 28.9392 89.5528 31.1250 0.0000 0.0000 0.0000
# 3 57.8405 31.1250 161.7119 0.0000 0.0000 0.0000
# 4 0.0000 0.0000 0.0000 -11.4886 0.0000 0.0000
# 5 0.0000 0.0000 0.0000 0.0000 20.9524 0.0000
# 6 0.0000 0.0000 0.0000 0.0000 0.0000 60.8748
#
#
#
# Elastic Compliance Matrix: (Units=1/GPa)
#
#
# Indices 1 2 3 4 5 6 
#
# 1 0.007921 -0.001688 -0.002508 0.000000 0.000000 0.000000
# 2 -0.001688 0.012327 -0.001769 0.000000 0.000000 0.000000
# 3 -0.002508 -0.001769 0.007421 0.000000 0.000000 0.000000
# 4 0.000000 0.000000 0.000000 -0.087042 0.000000 0.000000
# 5 0.000000 0.000000 0.000000 0.000000 0.047727 0.000000
# 6 0.000000 0.000000 0.000000 0.000000 0.000000 0.016427
#
#
# Mechanical properties :
#
#
# Convention : Reuss Voigt Hill
#
# Bulk Modulus (GPa) = 63.53590 70.86762 67.20176
# Shear Modulus (GPa) = 227.71891 33.00734 130.36312
#
# Velocity S-wave (km/s) = 10.07700 3.83652 7.62446
# Velocity P-wave (km/s) = 12.79558 7.15730 10.36711
#
# Compressibility (1/GPa) = 0.01573913
#
# Stress axis : x y z
#
# Youngs Moduli (GPa) = 126.25170 81.12390 134.74531
#
# Poissons Ratio (x) = 0.13692 0.33797
# Poissons Ratio (y) = 0.21309 0.23835
# Poissons Ratio (z) = 0.31666 0.14350
#
# Static dielectric constant tensor:
#      x y z
#    x 1.905080 0.000000 0.000000 
#    y 0.000000 1.826220 0.000000 
#    z 0.000000 0.000000 1.295880 
# 
# From -- ./inp_files/29111.got.cif
#   From: 2010.05.17/outbox.cif.g08.bks.cpg/sg50_15_cif.got.tgz:29111.got - 2010.06.03 11:33:33.
