data_PCOD9397134
_publ_section_title
;
Structure prediction by ZEFSAII (Michael W. Deem and Ramdas Pophale) SiO2 
 PCOD9397134
Probable space group: P B A N
;
_chemical_formula_sum "Si O2"
_cell_formula_units_Z 26
_cell_length_a 23.355226
_cell_length_b 5.085490
_cell_length_c 10.490640
_cell_angle_alpha 90.000000
_cell_angle_beta 90.000000
_cell_angle_gamma 90.000000
_cell_volume 1246.002354
_symmetry_space_group_name_H-M "P B A N"
_symmetry_group_IT_number 50
_space_group.IT_coordinate_system_code '2'
_symmetry_cell_setting 'orthorhombic'
loop_
_space_group_symop_operation_xyz
x,y,z
1/2-x,1/2-y,z
x,1/2-y,-z
1/2-x,y,-z
-x,-y,-z
1/2+x,1/2+y,-z
-x,1/2+y,z
1/2+x,-y,z
loop_
_atom_site_type_symbol
_atom_site_label
_atom_site_fract_x
_atom_site_fract_y
_atom_site_fract_z
Si Si1 0.691628 0.132607 0.257499
Si Si2 0.250000 0.750000 0.500000
Si Si3 0.460023 0.250000 0.000000
Si Si4 0.617580 0.651666 0.244605
Si Si5 0.957121 0.750000 0.500000
O O1 0.750000 0.250000 0.197248
O O2 0.709941 0.091539 0.405143
O O3 0.642673 0.355853 0.249640
O O4 0.669772 0.851066 0.217714
O O5 0.423144 0.290713 0.873687
O O6 0.500000 0.500000 0.000000
O O7 0.583549 0.724503 0.374816
O O8 0.000000 0.500000 0.500000
#
# Coordination Sequence:
#
# PCOD9397134 Si02
#       5
#     8   2   4   8   4
#     4  10  22  38  64  96 126 165 206 258 308 393
#     4   8  20  36  64  88 140 158 206 236 336 358
#     4  12  26  46  67  90 129 176 216 264 324 384
#     4  12  23  42  65  94 125 169 214 258 325 374
#     4  12  24  39  61  92 123 156 215 278 312 364
#
# _framework density 20.866734999999998
#
# number of rings (size 3 to 8) (size 9 to 14) (size 15 to 20)
#    0.923    0.000    0.000    8.308    0.000    1.231 
#    0.000    4.615    0.000    0.000    0.000    0.000 
#    0.000    0.000    0.000    0.000    0.000    0.000 
#
# Total GULP energy -145076.389406 kJ/mol
# GULP energy per Si atom -5579.861131 kJ/mol
# Density = 2.081924 g / cm^3
# Si number density = 20.866735 Si / 1000 Ang^3
#
#
#
# Elastic Constant Matrix: (Units=GPa)
#
#
# Indices 1 2 3 4 5 6 
#
# 1 66.7673 3.9448 34.0491 0.0000 0.0000 0.0000
# 2 3.9448 98.3739 -1.9240 0.0000 0.0000 0.0000
# 3 34.0491 -1.9240 114.6299 0.0000 0.0000 0.0000
# 4 0.0000 0.0000 0.0000 11.7419 0.0000 0.0000
# 5 0.0000 0.0000 0.0000 0.0000 38.4235 0.0000
# 6 0.0000 0.0000 0.0000 0.0000 0.0000 40.2290
#
#
#
# Elastic Compliance Matrix: (Units=1/GPa)
#
#
# Indices 1 2 3 4 5 6 
#
# 1 0.017716 -0.000814 -0.005276 0.000000 0.000000 0.000000
# 2 -0.000814 0.010206 0.000413 0.000000 0.000000 0.000000
# 3 -0.005276 0.000413 0.010298 0.000000 0.000000 0.000000
# 4 0.000000 0.000000 0.000000 0.085165 0.000000 0.000000
# 5 0.000000 0.000000 0.000000 0.000000 0.026026 0.000000
# 6 0.000000 0.000000 0.000000 0.000000 0.000000 0.024858
#
#
# Mechanical properties :
#
#
# Convention : Reuss Voigt Hill
#
# Bulk Modulus (GPa) = 37.22080 39.10120 38.16100
# Shear Modulus (GPa) = 25.69680 34.32563 30.01122
#
# Velocity S-wave (km/s) = 3.51304 4.06025 3.79652
# Velocity P-wave (km/s) = 5.85930 6.38436 6.12746
#
# Compressibility (1/GPa) = 0.02686670
#
# Stress axis : x y z
#
# Youngs Moduli (GPa) = 56.44610 97.98158 97.10818
#
# Poissons Ratio (x) = 0.07972 0.51234
# Poissons Ratio (y) = 0.04592 -0.04010
# Poissons Ratio (z) = 0.29781 -0.04046
#
# Static dielectric constant tensor:
#      x y z
#    x 1.920520 0.000000 0.000000 
#    y 0.000000 1.699640 0.000000 
#    z 0.000000 0.000000 1.655780 
# 
# From -- ./inp_files/22055.got.cif
#   From: 2010.05.17/outbox.cif.g08.bks.cpg/sg50_12_cif.got.tgz:22055.got - 2010.06.03 11:33:33.
