data_PCOD9397139
_publ_section_title
;
Structure prediction by ZEFSAII (Michael W. Deem and Ramdas Pophale) SiO2 
 PCOD9397139
Probable space group: P B A N
;
_chemical_formula_sum "Si O2"
_cell_formula_units_Z 28
_cell_length_a 22.742075
_cell_length_b 9.102353
_cell_length_c 6.082489
_cell_angle_alpha 90.000000
_cell_angle_beta 90.000000
_cell_angle_gamma 90.000000
_cell_volume 1259.114118
_symmetry_space_group_name_H-M "P B A N"
_symmetry_group_IT_number 50
_space_group.IT_coordinate_system_code '2'
_symmetry_cell_setting 'orthorhombic'
loop_
_space_group_symop_operation_xyz
x,y,z
1/2-x,1/2-y,z
x,1/2-y,-z
1/2-x,y,-z
-x,-y,-z
1/2+x,1/2+y,-z
-x,1/2+y,z
1/2+x,-y,z
loop_
_atom_site_type_symbol
_atom_site_label
_atom_site_fract_x
_atom_site_fract_y
_atom_site_fract_z
Si Si1 0.797979 0.002006 0.699679
Si Si2 0.584568 0.910796 0.479327
Si Si3 0.527937 0.387639 0.164775
Si Si4 0.250000 0.750000 0.000000
Si Si5 0.250000 0.250000 0.000000
O O1 0.750000 0.000108 0.500000
O O2 0.786628 0.144386 0.844711
O O3 0.866318 0.004499 0.642023
O O4 0.786946 0.857958 0.846201
O O5 0.613530 0.750000 0.500000
O O6 0.525198 0.867760 0.343646
O O7 0.572997 0.011861 0.694028
O O8 0.543727 0.250000 0.000000
O O9 0.500000 0.500000 0.000000
#
# Coordination Sequence:
#
# PCOD9397139 Si02
#       5
#     8   8   8   2   2
#     4  11  24  47  71 105 144 183 243 298 357 436
#     4  11  24  43  74 106 139 190 242 300 356 437
#     4  11  24  46  69 104 145 186 240 292 363 432
#     4  10  26  50  68 104 146 186 238 294 376 426
#     4  10  22  38  76 104 134 190 238 290 364 430
#
# _framework density 22.237859
#
# number of rings (size 3 to 8) (size 9 to 14) (size 15 to 20)
#    0.000    1.143    2.857    2.571    2.000    4.571 
#   15.429    0.000    0.000    0.000    0.000    0.000 
#    0.000    0.000    0.000    0.000    0.000    0.000 
#
# Total GULP energy -155973.770355 kJ/mol
# GULP energy per Si atom -5570.491798 kJ/mol
# Density = 2.218724 g / cm^3
# Si number density = 22.237859 Si / 1000 Ang^3
#
#
#
# Elastic Constant Matrix: (Units=GPa)
#
#
# Indices 1 2 3 4 5 6 
#
# 1 56.2761 39.8411 43.4442 0.0000 0.0000 0.0000
# 2 39.8411 184.7359 92.3907 0.0000 0.0000 0.0000
# 3 43.4442 92.3907 148.6417 0.0000 0.0000 0.0000
# 4 0.0000 0.0000 0.0000 2508.5702 0.0000 0.0000
# 5 0.0000 0.0000 0.0000 0.0000 38.6630 0.0000
# 6 0.0000 0.0000 0.0000 0.0000 0.0000 -385.2256
#
#
#
# Elastic Compliance Matrix: (Units=1/GPa)
#
#
# Indices 1 2 3 4 5 6 
#
# 1 0.023650 -0.002385 -0.005430 0.000000 0.000000 0.000000
# 2 -0.002385 0.008095 -0.004335 0.000000 0.000000 0.000000
# 3 -0.005430 -0.004335 0.011009 0.000000 0.000000 0.000000
# 4 0.000000 0.000000 0.000000 0.000399 0.000000 0.000000
# 5 0.000000 0.000000 0.000000 0.000000 0.025864 0.000000
# 6 0.000000 0.000000 0.000000 0.000000 0.000000 -0.002596
#
#
# Mechanical properties :
#
#
# Convention : Reuss Voigt Hill
#
# Bulk Modulus (GPa) = 54.18577 82.33399 68.25988
# Shear Modulus (GPa) = 51.61453 446.66669 249.14061
#
# Velocity S-wave (km/s) = 4.82292 14.18784 10.59612
# Velocity P-wave (km/s) = 7.44537 17.47849 13.43375
#
# Compressibility (1/GPa) = 0.01845503
#
# Stress axis : x y z
#
# Youngs Moduli (GPa) = 42.28392 123.52708 90.83490
#
# Poissons Ratio (x) = 0.29459 0.49322
# Poissons Ratio (y) = 0.10084 0.39375
# Poissons Ratio (z) = 0.22960 0.53547
#
# Static dielectric constant tensor:
#      x y z
#    x 1.560600 0.000000 0.000000 
#    y 0.000000 2.105510 0.000000 
#    z 0.000000 0.000000 4.733300 
# 
# From -- ./inp_files/1035.got.cif
#   From: 2010.05.17/outbox.cif.g08.bks.cpg/sg50_1_cif.got.tgz:1035.got - 2010.06.03 11:33:33.
