data_PCOD9397834
_publ_section_title
;
Structure prediction by ZEFSAII (Michael W. Deem and Ramdas Pophale) SiO2 
 PCOD9397834
Probable space group: P B A N
;
_chemical_formula_sum "Si O2"
_cell_formula_units_Z 64
_cell_length_a 17.222467
_cell_length_b 19.566694
_cell_length_c 9.361219
_cell_angle_alpha 90.000000
_cell_angle_beta 90.000000
_cell_angle_gamma 90.000000
_cell_volume 3154.606689
_symmetry_space_group_name_H-M "P B A N"
_symmetry_group_IT_number 50
_space_group.IT_coordinate_system_code '2'
_symmetry_cell_setting 'orthorhombic'
loop_
_space_group_symop_operation_xyz
x,y,z
1/2-x,1/2-y,z
x,1/2-y,-z
1/2-x,y,-z
-x,-y,-z
1/2+x,1/2+y,-z
-x,1/2+y,z
1/2+x,-y,z
loop_
_atom_site_type_symbol
_atom_site_label
_atom_site_fract_x
_atom_site_fract_y
_atom_site_fract_z
Si Si1 0.818577 0.648420 0.099057
Si Si2 0.458789 0.298771 0.272046
Si Si3 0.289184 0.096427 0.348075
Si Si4 0.326700 0.952652 0.430140
Si Si5 0.341979 0.995938 0.972798
Si Si6 0.060540 0.915840 0.788997
Si Si7 0.066798 0.974075 0.311808
Si Si8 0.957750 0.652380 0.602941
O O1 0.882603 0.696608 0.171390
O O2 0.770790 0.620096 0.232359
O O3 0.750000 0.676893 0.000000
O O4 0.853522 0.579120 0.025291
O O5 0.520513 0.343626 0.183858
O O6 0.479572 0.222064 0.315440
O O7 0.451291 0.334510 0.430814
O O8 0.250000 0.109287 0.500000
O O9 0.372225 0.131809 0.343715
O O10 0.300796 0.015572 0.332182
O O11 0.250000 0.922186 0.500000
O O12 0.377773 0.903149 0.336845
O O13 0.380960 0.988059 0.549387
O O14 0.395776 0.955465 0.084944
O O15 0.250000 0.984305 0.000000
O O16 0.373604 0.969947 0.819862
O O17 0.994224 0.967010 0.728920
O O18 0.017588 0.906921 0.353055
#
# Coordination Sequence:
#
# PCOD9397834 Si02
#       8
#     8   8   8   8   8   8   8   8
#     4  11  23  39  62  94 135 172 209 257 323 401
#     4  11  24  43  62  94 132 173 216 265 322 377
#     4  11  20  36  61  91 128 171 212 257 316 389
#     4  11  21  34  62  95 124 155 214 271 321 373
#     4  11  24  40  63  95 134 163 204 267 336 380
#     4  12  22  39  66  92 126 169 210 267 324 375
#     4  12  22  38  65  96 120 165 220 266 315 381
#     4  11  24  41  65  93 130 172 219 268 318 376
#
# _framework density 20.287790999999999
#
# number of rings (size 3 to 8) (size 9 to 14) (size 15 to 20)
#    0.000    0.750    5.000    5.250    0.000    0.500 
#    0.000    3.125    0.000    4.500    0.000    0.000 
#    0.000    0.000    0.000    0.000    0.000    0.000 
#
# Total GULP energy -357604.452902 kJ/mol
# GULP energy per Si atom -5587.569577 kJ/mol
# Density = 2.024162 g / cm^3
# Si number density = 20.287791 Si / 1000 Ang^3
#
#
#
# Elastic Constant Matrix: (Units=GPa)
#
#
# Indices 1 2 3 4 5 6 
#
# 1 78.2419 30.6928 9.4594 0.0000 0.0000 0.0000
# 2 30.6928 83.1905 16.2105 0.0000 0.0000 0.0000
# 3 9.4594 16.2105 59.8103 0.0000 0.0000 0.0000
# 4 0.0000 0.0000 0.0000 30.6632 0.0000 0.0000
# 5 0.0000 0.0000 0.0000 0.0000 44.1257 0.0000
# 6 0.0000 0.0000 0.0000 0.0000 0.0000 5.8247
#
#
#
# Elastic Compliance Matrix: (Units=1/GPa)
#
#
# Indices 1 2 3 4 5 6 
#
# 1 0.014992 -0.005352 -0.000921 0.000000 0.000000 0.000000
# 2 -0.005352 0.014601 -0.003111 0.000000 0.000000 0.000000
# 3 -0.000921 -0.003111 0.017708 0.000000 0.000000 0.000000
# 4 0.000000 0.000000 0.000000 0.032612 0.000000 0.000000
# 5 0.000000 0.000000 0.000000 0.000000 0.022663 0.000000
# 6 0.000000 0.000000 0.000000 0.000000 0.000000 0.171682
#
#
# Mechanical properties :
#
#
# Convention : Reuss Voigt Hill
#
# Bulk Modulus (GPa) = 35.04508 37.10756 36.07632
# Shear Modulus (GPa) = 16.52696 27.11471 21.82084
#
# Velocity S-wave (km/s) = 2.85726 3.65979 3.28314
# Velocity P-wave (km/s) = 5.31006 6.01573 5.67388
#
# Compressibility (1/GPa) = 0.02853467
#
# Stress axis : x y z
#
# Youngs Moduli (GPa) = 66.70428 68.48709 56.47068
#
# Poissons Ratio (x) = 0.36652 0.05198
# Poissons Ratio (y) = 0.35698 0.17568
# Poissons Ratio (z) = 0.06140 0.21306
#
# Static dielectric constant tensor:
#      x y z
#    x 1.765580 0.000000 0.000000 
#    y 0.000000 1.711860 0.000000 
#    z 0.000000 0.000000 1.810510 
# 
# From -- ./inp_files/14605.got.cif
#   From: 2010.05.17/outbox.cif.g08.bks.cpg/sg50_8_cif.got.tgz:14605.got - 2010.06.03 11:33:33.
