data_PCOD9397531
_publ_section_title
;
Structure prediction by ZEFSAII (Michael W. Deem and Ramdas Pophale) SiO2 
 PCOD9397531
Probable space group: P B A N
;
_chemical_formula_sum "Si O2"
_cell_formula_units_Z 40
_cell_length_a 11.350050
_cell_length_b 18.774542
_cell_length_c 7.939527
_cell_angle_alpha 90.000000
_cell_angle_beta 90.000000
_cell_angle_gamma 90.000000
_cell_volume 1691.849611
_symmetry_space_group_name_H-M "P B A N"
_symmetry_group_IT_number 50
_space_group.IT_coordinate_system_code '2'
_symmetry_cell_setting 'orthorhombic'
loop_
_space_group_symop_operation_xyz
x,y,z
1/2-x,1/2-y,z
x,1/2-y,-z
1/2-x,y,-z
-x,-y,-z
1/2+x,1/2+y,-z
-x,1/2+y,z
1/2+x,-y,z
loop_
_atom_site_type_symbol
_atom_site_label
_atom_site_fract_x
_atom_site_fract_y
_atom_site_fract_z
Si Si1 0.692518 0.074871 0.736702
Si Si2 0.382959 0.417662 0.665257
Si Si3 0.302966 0.176940 0.810703
Si Si4 0.520077 0.175617 0.599530
Si Si5 0.430991 0.566959 0.081042
O O1 0.648142 0.141232 0.628090
O O2 0.828701 0.057243 0.777696
O O3 0.631755 0.002917 0.664833
O O4 0.636834 0.093912 0.918478
O O5 0.255508 0.387006 0.708176
O O6 0.446453 0.381356 0.509986
O O7 0.465220 0.393511 0.822831
O O8 0.250000 0.250000 0.738267
O O9 0.441630 0.181200 0.771352
O O10 0.250000 0.171553 0.000000
O O11 0.523177 0.250000 0.500000
O O12 0.500000 0.500000 0.000000
#
# Coordination Sequence:
#
# PCOD9397531 Si02
#       5
#     8   8   8   8   8
#     4  10  23  42  70 102 143 192 239 303 367 439
#     4  11  23  39  70 103 141 185 239 303 368 435
#     4  11  24  42  69 101 140 191 242 298 367 438
#     4  12  25  45  65 102 151 186 240 301 369 452
#     4   9  21  43  68 103 139 180 247 300 360 434
#
# _framework density 23.642762999999999
#
# number of rings (size 3 to 8) (size 9 to 14) (size 15 to 20)
#    0.000    1.400    2.000    2.400   11.200    0.800 
#    3.600    2.000    0.000    2.400    0.000    0.000 
#    0.000    0.000    0.000    0.000    0.000    0.000 
#
# Total GULP energy -223128.672376 kJ/mol
# GULP energy per Si atom -5578.216809 kJ/mol
# Density = 2.358895 g / cm^3
# Si number density = 23.642763 Si / 1000 Ang^3
#
#
#
# Elastic Constant Matrix: (Units=GPa)
#
#
# Indices 1 2 3 4 5 6 
#
# 1 152.3831 58.1430 45.5170 0.0000 0.0000 0.0000
# 2 58.1430 98.7947 38.1797 0.0000 0.0000 0.0000
# 3 45.5170 38.1797 89.8351 0.0000 0.0000 0.0000
# 4 0.0000 0.0000 0.0000 24.4771 0.0000 0.0000
# 5 0.0000 0.0000 0.0000 0.0000 34.5373 0.0000
# 6 0.0000 0.0000 0.0000 0.0000 0.0000 15.5616
#
#
#
# Elastic Compliance Matrix: (Units=1/GPa)
#
#
# Indices 1 2 3 4 5 6 
#
# 1 0.009002 -0.004230 -0.002763 0.000000 0.000000 0.000000
# 2 -0.004230 0.014099 -0.003849 0.000000 0.000000 0.000000
# 3 -0.002763 -0.003849 0.014167 0.000000 0.000000 0.000000
# 4 0.000000 0.000000 0.000000 0.040855 0.000000 0.000000
# 5 0.000000 0.000000 0.000000 0.000000 0.028954 0.000000
# 6 0.000000 0.000000 0.000000 0.000000 0.000000 0.064261
#
#
# Mechanical properties :
#
#
# Convention : Reuss Voigt Hill
#
# Bulk Modulus (GPa) = 64.16840 69.41025 66.78932
# Shear Modulus (GPa) = 25.22505 28.19341 26.70923
#
# Velocity S-wave (km/s) = 3.26992 3.45697 3.36475
# Velocity P-wave (km/s) = 6.43866 6.73467 6.58833
#
# Compressibility (1/GPa) = 0.01558399
#
# Stress axis : x y z
#
# Youngs Moduli (GPa) = 111.08971 70.92829 70.58517
#
# Poissons Ratio (x) = 0.30002 0.19504
# Poissons Ratio (y) = 0.46989 0.27167
# Poissons Ratio (z) = 0.30697 0.27299
#
# Static dielectric constant tensor:
#      x y z
#    x 1.979470 0.000000 0.000000 
#    y 0.000000 1.871790 0.000000 
#    z 0.000000 0.000000 2.162730 
# 
# From -- ./inp_files/11032.got.cif
#   From: 2010.05.17/outbox.cif.g08.bks.cpg/sg50_6_cif.got.tgz:11032.got - 2010.06.03 11:33:33.
