data_PCOD9397852
_publ_section_title
;
Structure prediction by ZEFSAII (Michael W. Deem and Ramdas Pophale) SiO2 
 PCOD9397852
Probable space group: P B A N
;
_chemical_formula_sum "Si O2"
_cell_formula_units_Z 40
_cell_length_a 12.436776
_cell_length_b 20.697097
_cell_length_c 7.684782
_cell_angle_alpha 90.000000
_cell_angle_beta 90.000000
_cell_angle_gamma 90.000000
_cell_volume 1978.102534
_symmetry_space_group_name_H-M "P B A N"
_symmetry_group_IT_number 50
_space_group.IT_coordinate_system_code '2'
_symmetry_cell_setting 'orthorhombic'
loop_
_space_group_symop_operation_xyz
x,y,z
1/2-x,1/2-y,z
x,1/2-y,-z
1/2-x,y,-z
-x,-y,-z
1/2+x,1/2+y,-z
-x,1/2+y,z
1/2+x,-y,z
loop_
_atom_site_type_symbol
_atom_site_label
_atom_site_fract_x
_atom_site_fract_y
_atom_site_fract_z
Si Si1 0.449025 0.052311 0.258978
Si Si2 0.512169 0.404731 0.351234
Si Si3 0.716687 0.320537 0.298922
Si Si4 0.218853 0.427187 0.695567
Si Si5 0.671176 0.442933 0.848741
O O1 0.489298 0.086554 0.439810
O O2 0.332355 0.079265 0.206300
O O3 0.544127 0.060374 0.119978
O O4 0.440757 0.975259 0.297555
O O5 0.595117 0.348459 0.300498
O O6 0.395031 0.394781 0.262982
O O7 0.750000 0.250000 0.231646
O O8 0.750000 0.321517 0.500000
O O9 0.787442 0.373569 0.203385
O O10 0.250000 0.409090 0.500000
O O11 0.187091 0.503233 0.700096
O O12 0.750000 0.465647 0.000000
#
# Coordination Sequence:
#
# PCOD9397852 Si02
#       5
#     8   8   8   8   8
#     4   9  16  29  52  75 108 135 168 219 270 335
#     4   9  16  29  53  77  99 132 180 217 273 316
#     4  11  21  35  54  72  99 138 185 224 259 325
#     4   9  17  31  53  76 103 140 167 218 269 338
#     4  11  21  31  47  77 112 139 174 218 271 326
#
# _framework density 20.221399999999999
#
# number of rings (size 3 to 8) (size 9 to 14) (size 15 to 20)
#    0.000    2.200    4.000    1.800    0.000    1.200 
#    0.000    0.000    0.000    1.200    0.000    0.000 
#    0.000    3.200    0.000    0.000    0.000    0.000 
#
# Total GULP energy -222912.191529 kJ/mol
# GULP energy per Si atom -5572.804788 kJ/mol
# Density = 2.017537 g / cm^3
# Si number density = 20.221400 Si / 1000 Ang^3
#
#
#
# Elastic Constant Matrix: (Units=GPa)
#
#
# Indices 1 2 3 4 5 6 
#
# 1 239.2471 53.6453 21.4220 0.0000 0.0000 0.0000
# 2 53.6453 83.1709 9.1524 0.0000 0.0000 0.0000
# 3 21.4220 9.1524 30.7763 0.0000 0.0000 0.0000
# 4 0.0000 0.0000 0.0000 16.6835 0.0000 0.0000
# 5 0.0000 0.0000 0.0000 0.0000 24.2814 0.0000
# 6 0.0000 0.0000 0.0000 0.0000 0.0000 6.8973
#
#
#
# Elastic Compliance Matrix: (Units=1/GPa)
#
#
# Indices 1 2 3 4 5 6 
#
# 1 0.005088 -0.002990 -0.002652 0.000000 0.000000 0.000000
# 2 -0.002990 0.014187 -0.002138 0.000000 0.000000 0.000000
# 3 -0.002652 -0.002138 0.034974 0.000000 0.000000 0.000000
# 4 0.000000 0.000000 0.000000 0.059939 0.000000 0.000000
# 5 0.000000 0.000000 0.000000 0.000000 0.041184 0.000000
# 6 0.000000 0.000000 0.000000 0.000000 0.000000 0.144985
#
#
# Mechanical properties :
#
#
# Convention : Reuss Voigt Hill
#
# Bulk Modulus (GPa) = 25.84694 57.95929 41.90311
# Shear Modulus (GPa) = 15.20622 27.50408 21.35515
#
# Velocity S-wave (km/s) = 2.74521 3.69202 3.25324
# Velocity P-wave (km/s) = 4.78100 6.84830 5.90581
#
# Compressibility (1/GPa) = 0.03868931
#
# Stress axis : x y z
#
# Youngs Moduli (GPa) = 196.55589 70.48683 28.59237
#
# Poissons Ratio (x) = 0.21073 0.07583
# Poissons Ratio (y) = 0.58764 0.06113
# Poissons Ratio (z) = 0.52130 0.15070
#
# Static dielectric constant tensor:
#      x y z
#    x 1.809100 0.000000 0.000000 
#    y 0.000000 1.678590 0.000000 
#    z 0.000000 0.000000 1.871350 
# 
# From -- ./inp_files/11326.got.cif
#   From: 2010.05.17/outbox.cif.g08.bks.cpg/sg50_6_cif.got.tgz:11326.got - 2010.06.03 11:33:33.
