data_PCOD9397047
_publ_section_title
;
Structure prediction by ZEFSAII (Michael W. Deem and Ramdas Pophale) SiO2 
 PCOD9397047
Probable space group: P B A N
;
_chemical_formula_sum "Si O2"
_cell_formula_units_Z 34
_cell_length_a 8.935806
_cell_length_b 16.366157
_cell_length_c 10.348083
_cell_angle_alpha 90.000000
_cell_angle_beta 90.000000
_cell_angle_gamma 90.000000
_cell_volume 1513.353369
_symmetry_space_group_name_H-M "P B A N"
_symmetry_group_IT_number 50
_space_group.IT_coordinate_system_code '2'
_symmetry_cell_setting 'orthorhombic'
loop_
_space_group_symop_operation_xyz
x,y,z
1/2-x,1/2-y,z
x,1/2-y,-z
1/2-x,y,-z
-x,-y,-z
1/2+x,1/2+y,-z
-x,1/2+y,z
1/2+x,-y,z
loop_
_atom_site_type_symbol
_atom_site_label
_atom_site_fract_x
_atom_site_fract_y
_atom_site_fract_z
Si Si1 0.289198 0.877487 0.358208
Si Si2 0.919782 0.639509 0.953210
Si Si3 0.499837 0.768984 0.700364
Si Si4 0.750000 0.750000 0.500000
Si Si5 0.628788 0.039334 0.886189
O O1 0.250000 0.907785 0.500000
O O2 0.437659 0.820408 0.343534
O O3 0.146725 0.822825 0.322414
O O4 0.302055 0.946290 0.252101
O O5 0.939557 0.551072 0.883152
O O6 0.957434 0.710072 0.849785
O O7 0.750000 0.648988 0.000000
O O8 0.024511 0.616652 0.075495
O O9 0.635711 0.791761 0.603478
O O10 0.750000 0.037441 0.000000
#
# Coordination Sequence:
#
# PCOD9397047 Si02
#       5
#     8   8   8   2   8
#     4  11  22  44  67  94 127 181 219 264 320 411
#     4  10  23  41  65  97 132 168 214 280 328 377
#     4  11  23  42  65  90 132 172 217 265 335 387
#     4  12  24  42  58  96 140 166 204 288 336 370
#     4  10  21  43  67  92 133 172 219 267 326 394
#
# _framework density 22.466663
#
# number of rings (size 3 to 8) (size 9 to 14) (size 15 to 20)
#    0.000    1.412    4.706    0.706    3.294    0.941 
#    2.118    1.176    0.000    0.000    3.059    0.000 
#    0.000    0.000    0.000    0.000    0.000    0.000 
#
# Total GULP energy -189526.091087 kJ/mol
# GULP energy per Si atom -5574.296797 kJ/mol
# Density = 2.241553 g / cm^3
# Si number density = 22.466663 Si / 1000 Ang^3
#
#
#
# Elastic Constant Matrix: (Units=GPa)
#
#
# Indices 1 2 3 4 5 6 
#
# 1 97.5493 14.0131 33.6986 0.0000 0.0000 0.0000
# 2 14.0131 80.4433 38.6277 0.0000 0.0000 0.0000
# 3 33.6986 38.6277 171.6994 0.0000 0.0000 0.0000
# 4 0.0000 0.0000 0.0000 -34.3438 0.0000 0.0000
# 5 0.0000 0.0000 0.0000 0.0000 38.0090 0.0000
# 6 0.0000 0.0000 0.0000 0.0000 0.0000 7.5068
#
#
#
# Elastic Compliance Matrix: (Units=1/GPa)
#
#
# Indices 1 2 3 4 5 6 
#
# 1 0.011067 -0.000992 -0.001949 0.000000 0.000000 0.000000
# 2 -0.000992 0.014026 -0.002961 0.000000 0.000000 0.000000
# 3 -0.001949 -0.002961 0.006873 0.000000 0.000000 0.000000
# 4 0.000000 0.000000 0.000000 -0.029117 0.000000 0.000000
# 5 0.000000 0.000000 0.000000 0.000000 0.026310 0.000000
# 6 0.000000 0.000000 0.000000 0.000000 0.000000 0.133212
#
#
# Mechanical properties :
#
#
# Convention : Reuss Voigt Hill
#
# Bulk Modulus (GPa) = 49.59801 58.04122 53.81961
# Shear Modulus (GPa) = 27.64051 19.79123 23.71587
#
# Velocity S-wave (km/s) = 3.51135 2.97124 3.25253
# Velocity P-wave (km/s) = 6.20997 6.13690 6.17354
#
# Compressibility (1/GPa) = 0.02016210
#
# Stress axis : x y z
#
# Youngs Moduli (GPa) = 90.35883 71.29817 145.50313
#
# Poissons Ratio (x) = 0.07073 0.28357
# Poissons Ratio (y) = 0.08964 0.43079
# Poissons Ratio (z) = 0.17610 0.21109
#
# Static dielectric constant tensor:
#      x y z
#    x 1.863220 0.000000 0.000000 
#    y 0.000000 1.867050 0.000000 
#    z 0.000000 0.000000 1.948680 
# 
# From -- ./inp_files/9229.got.cif
#   From: 2010.05.17/outbox.cif.g08.bks.cpg/sg50_5_cif.got.tgz:9229.got - 2010.06.03 11:33:33.
