data_PCOD9397855
_publ_section_title
;
Structure prediction by ZEFSAII (Michael W. Deem and Ramdas Pophale) SiO2 
 PCOD9397855
Probable space group: P B A N
;
_chemical_formula_sum "Si O2"
_cell_formula_units_Z 48
_cell_length_a 9.418708
_cell_length_b 14.210879
_cell_length_c 14.127946
_cell_angle_alpha 90.000000
_cell_angle_beta 90.000000
_cell_angle_gamma 90.000000
_cell_volume 1890.999008
_symmetry_space_group_name_H-M "P B A N"
_symmetry_group_IT_number 50
_space_group.IT_coordinate_system_code '2'
_symmetry_cell_setting 'orthorhombic'
loop_
_space_group_symop_operation_xyz
x,y,z
1/2-x,1/2-y,z
x,1/2-y,-z
1/2-x,y,-z
-x,-y,-z
1/2+x,1/2+y,-z
-x,1/2+y,z
1/2+x,-y,z
loop_
_atom_site_type_symbol
_atom_site_label
_atom_site_fract_x
_atom_site_fract_y
_atom_site_fract_z
Si Si1 0.836647 0.163758 0.595970
Si Si2 0.775948 0.037445 0.253150
Si Si3 0.398250 0.140552 0.944770
Si Si4 0.919378 0.622445 0.259925
Si Si5 0.081989 0.399343 0.517917
Si Si6 0.124538 0.582875 0.926394
O O1 0.750000 0.250000 0.645822
O O2 0.750000 0.155713 0.500000
O O3 0.799097 0.071332 0.652551
O O4 0.998956 0.163725 0.561321
O O5 0.694965 0.098960 0.174417
O O6 0.941328 0.056121 0.250281
O O7 0.731768 0.929504 0.245225
O O8 0.422035 0.183188 0.838801
O O9 0.418083 0.027736 0.924183
O O10 0.250000 0.153019 0.000000
O O11 0.508827 0.151906 0.030798
O O12 0.931890 0.641184 0.373674
O O13 0.250000 0.405584 0.500000
O O14 0.000000 0.500000 0.500000
O O15 0.250000 0.587392 0.000000
#
# Coordination Sequence:
#
# PCOD9397855 Si02
#       6
#     8   8   8   8   8   8
#     4  11  24  43  62  84 123 174 215 267 331 391
#     4  11  21  33  57  85 122 160 203 262 326 391
#     4   9  18  28  44  75 123 160 188 246 322 396
#     4  11  21  32  54  88 123 158 204 261 332 392
#     4  12  23  39  65  99 133 165 218 279 339 399
#     4   9  16  28  44  74 113 154 190 238 310 384
#
# _framework density 25.383406999999998
#
# number of rings (size 3 to 8) (size 9 to 14) (size 15 to 20)
#    0.000    1.500    5.000    1.500    7.000    0.000 
#    0.000    1.667    0.000    0.500    0.000    0.000 
#    0.000    0.000    0.000    0.000    0.000    0.000 
#
# Total GULP energy -267338.731866 kJ/mol
# GULP energy per Si atom -5569.556914 kJ/mol
# Density = 2.532563 g / cm^3
# Si number density = 25.383407 Si / 1000 Ang^3
#
#
#
# Elastic Constant Matrix: (Units=GPa)
#
#
# Indices 1 2 3 4 5 6 
#
# 1 155.1929 17.3668 33.0238 0.0000 0.0000 0.0000
# 2 17.3668 67.9409 21.3304 0.0000 0.0000 0.0000
# 3 33.0238 21.3304 137.7500 0.0000 0.0000 0.0000
# 4 0.0000 0.0000 0.0000 10.3948 0.0000 0.0000
# 5 0.0000 0.0000 0.0000 0.0000 29.2596 0.0000
# 6 0.0000 0.0000 0.0000 0.0000 0.0000 -48.1160
#
#
#
# Elastic Compliance Matrix: (Units=1/GPa)
#
#
# Indices 1 2 3 4 5 6 
#
# 1 0.006899 -0.001308 -0.001451 0.000000 0.000000 0.000000
# 2 -0.001308 0.015719 -0.002120 0.000000 0.000000 0.000000
# 3 -0.001451 -0.002120 0.007936 0.000000 0.000000 0.000000
# 4 0.000000 0.000000 0.000000 0.096202 0.000000 0.000000
# 5 0.000000 0.000000 0.000000 0.000000 0.034177 0.000000
# 6 0.000000 0.000000 0.000000 0.000000 0.000000 -0.020783
#
#
# Mechanical properties :
#
#
# Convention : Reuss Voigt Hill
#
# Bulk Modulus (GPa) = 48.09076 56.03619 52.06348
# Shear Modulus (GPa) = 31.87970 17.58519 24.73245
#
# Velocity S-wave (km/s) = 3.54775 2.63493 3.12485
# Velocity P-wave (km/s) = 5.98071 5.60187 5.79439
#
# Compressibility (1/GPa) = 0.02079401
#
# Stress axis : x y z
#
# Youngs Moduli (GPa) = 144.95309 63.61843 126.01064
#
# Poissons Ratio (x) = 0.08320 0.18289
# Poissons Ratio (y) = 0.18957 0.26721
# Poissons Ratio (z) = 0.21038 0.13490
#
# Static dielectric constant tensor:
#      x y z
#    x 1.973710 0.000000 0.000000 
#    y 0.000000 2.434250 0.000000 
#    z 0.000000 0.000000 2.050030 
# 
# From -- ./inp_files/25125.got.cif
#   From: 2010.05.17/outbox.cif.g08.bks.cpg/sg50_13_cif.got.tgz:25125.got - 2010.06.03 11:33:33.
