data_PCOD9397028
_publ_section_title
;
Structure prediction by ZEFSAII (Michael W. Deem and Ramdas Pophale) SiO2 
 PCOD9397028
Probable space group: P B A N
;
_chemical_formula_sum "Si O2"
_cell_formula_units_Z 48
_cell_length_a 5.123526
_cell_length_b 29.989008
_cell_length_c 13.255482
_cell_angle_alpha 90.000000
_cell_angle_beta 90.000000
_cell_angle_gamma 90.000000
_cell_volume 2036.697681
_symmetry_space_group_name_H-M "P B A N"
_symmetry_group_IT_number 50
_space_group.IT_coordinate_system_code '2'
_symmetry_cell_setting 'orthorhombic'
loop_
_space_group_symop_operation_xyz
x,y,z
1/2-x,1/2-y,z
x,1/2-y,-z
1/2-x,y,-z
-x,-y,-z
1/2+x,1/2+y,-z
-x,1/2+y,z
1/2+x,-y,z
loop_
_atom_site_type_symbol
_atom_site_label
_atom_site_fract_x
_atom_site_fract_y
_atom_site_fract_z
Si Si1 0.750000 0.401595 0.000000
Si Si2 0.420187 0.325188 0.399041
Si Si3 0.250000 0.750000 0.674217
Si Si4 0.519022 0.972031 0.855934
Si Si5 0.250000 0.603313 0.500000
Si Si6 0.629561 0.799893 0.793544
Si Si7 0.750000 0.846737 0.000000
Si Si8 0.950449 0.970542 0.381206
O O1 0.896812 0.431830 0.082197
O O2 0.504865 0.373146 0.040229
O O3 0.250000 0.327620 0.500000
O O4 0.543752 0.275812 0.393473
O O5 0.627073 0.364368 0.416051
O O6 0.267482 0.328922 0.293552
O O7 0.348046 0.789261 0.747423
O O8 0.517073 0.960807 0.737609
O O9 0.815099 0.987404 0.878045
O O10 0.460332 0.571624 0.445718
O O11 0.750000 0.750000 0.796285
O O12 0.644378 0.819607 0.904049
O O13 0.161566 0.010231 0.398548
#
# Coordination Sequence:
#
# PCOD9397028 Si02
#       8
#     4   8   4   8   4   8   4   8
#     4  12  26  41  71 106 147 180 227 318 359 425
#     4  11  26  43  70 108 140 189 238 302 368 431
#     4  10  24  49  75  98 148 194 251 299 364 458
#     4  10  21  42  69  97 133 190 241 284 348 436
#     4  12  26  39  68 100 146 180 232 307 360 436
#     4  10  25  48  73  99 139 195 242 293 356 452
#     4  12  29  45  72 112 149 184 239 302 374 421
#     4  10  24  44  69  97 138 192 241 286 355 438
#
# _framework density 23.567563
#
# number of rings (size 3 to 8) (size 9 to 14) (size 15 to 20)
#    0.000    1.333    0.000    3.250    9.333    9.333 
#    0.000    0.000    0.000    0.000    0.000    0.000 
#    0.000    0.000    0.000    0.000    0.000    0.000 
#
# Total GULP energy -268575.265869 kJ/mol
# GULP energy per Si atom -5595.318039 kJ/mol
# Density = 2.351392 g / cm^3
# Si number density = 23.567563 Si / 1000 Ang^3
#
#
#
# Elastic Constant Matrix: (Units=GPa)
#
#
# Indices 1 2 3 4 5 6 
#
# 1 103.2320 29.4962 11.9905 0.0000 0.0000 0.0000
# 2 29.4962 84.0532 46.6873 0.0000 0.0000 0.0000
# 3 11.9905 46.6873 119.1622 0.0000 0.0000 0.0000
# 4 0.0000 0.0000 0.0000 -27.4591 0.0000 0.0000
# 5 0.0000 0.0000 0.0000 0.0000 24.3581 0.0000
# 6 0.0000 0.0000 0.0000 0.0000 0.0000 25.9651
#
#
#
# Elastic Compliance Matrix: (Units=1/GPa)
#
#
# Indices 1 2 3 4 5 6 
#
# 1 0.010791 -0.004069 0.000508 0.000000 0.000000 0.000000
# 2 -0.004069 0.016741 -0.006150 0.000000 0.000000 0.000000
# 3 0.000508 -0.006150 0.010750 0.000000 0.000000 0.000000
# 4 0.000000 0.000000 0.000000 -0.036418 0.000000 0.000000
# 5 0.000000 0.000000 0.000000 0.000000 0.041054 0.000000
# 6 0.000000 0.000000 0.000000 0.000000 0.000000 0.038513
#
#
# Mechanical properties :
#
#
# Convention : Reuss Voigt Hill
#
# Bulk Modulus (GPa) = 53.01887 53.64393 53.33140
# Shear Modulus (GPa) = 46.66850 19.12437 32.89644
#
# Velocity S-wave (km/s) = 4.45477 2.85172 3.74014
# Velocity P-wave (km/s) = 7.00038 5.80123 6.42883
#
# Compressibility (1/GPa) = 0.01886121
#
# Stress axis : x y z
#
# Youngs Moduli (GPa) = 92.67406 59.73376 93.02192
#
# Poissons Ratio (x) = 0.24306 -0.04730
# Poissons Ratio (y) = 0.37710 0.57205
# Poissons Ratio (z) = -0.04712 0.36734
#
# Static dielectric constant tensor:
#      x y z
#    x 2.004600 0.000000 0.000000 
#    y 0.000000 1.881210 0.000000 
#    z 0.000000 0.000000 1.880690 
# 
# From -- ./inp_files/24119.got.cif
#   From: 2010.05.17/outbox.cif.g08.bks.cpg/sg50_13_cif.got.tgz:24119.got - 2010.06.03 11:33:33.
