data_PCOD9397710
_publ_section_title
;
Structure prediction by ZEFSAII (Michael W. Deem and Ramdas Pophale) SiO2 
 PCOD9397710
Probable space group: P B A N
;
_chemical_formula_sum "Si O2"
_cell_formula_units_Z 26
_cell_length_a 27.416737
_cell_length_b 5.641491
_cell_length_c 7.623224
_cell_angle_alpha 90.000000
_cell_angle_beta 90.000000
_cell_angle_gamma 90.000000
_cell_volume 1179.093776
_symmetry_space_group_name_H-M "P B A N"
_symmetry_group_IT_number 50
_space_group.IT_coordinate_system_code '2'
_symmetry_cell_setting 'orthorhombic'
loop_
_space_group_symop_operation_xyz
x,y,z
1/2-x,1/2-y,z
x,1/2-y,-z
1/2-x,y,-z
-x,-y,-z
1/2+x,1/2+y,-z
-x,1/2+y,z
1/2+x,-y,z
loop_
_atom_site_type_symbol
_atom_site_label
_atom_site_fract_x
_atom_site_fract_y
_atom_site_fract_z
Si Si1 0.604467 0.639856 0.695267
Si Si2 0.029432 0.250000 0.000000
Si Si3 0.354048 0.750000 0.500000
Si Si4 0.298488 0.102526 0.266604
Si Si5 0.750000 0.250000 0.000000
O O1 0.596326 0.750000 0.500000
O O2 0.563105 0.721924 0.827328
O O3 0.612594 0.361300 0.653069
O O4 0.655808 0.730382 0.774235
O O5 0.000000 0.500000 0.000000
O O6 0.318530 0.547208 0.570151
O O7 0.250000 0.250000 0.300024
O O8 0.283823 0.916784 0.117913
#
# Coordination Sequence:
#
# PCOD9397710 Si02
#       5
#     8   4   4   8   2
#     4  10  26  48  76 109 150 193 250 312 381 460
#     4  12  32  53  83 114 147 196 259 328 404 470
#     4  10  24  45  72 102 152 196 250 304 377 464
#     4  11  25  41  66 107 146 203 242 298 371 451
#     4  12  26  36  60 102 152 202 248 300 348 448
#
# _framework density 22.050832
#
# number of rings (size 3 to 8) (size 9 to 14) (size 15 to 20)
#    0.000    1.231    0.000    2.308   17.231   16.000 
#    0.000    0.000    0.000    0.000    0.000    0.000 
#    0.000    0.000    0.000    0.000    0.000    0.000 
#
# Total GULP energy -145367.405548 kJ/mol
# GULP energy per Si atom -5591.054060 kJ/mol
# Density = 2.200064 g / cm^3
# Si number density = 22.050832 Si / 1000 Ang^3
#
#
#
# Elastic Constant Matrix: (Units=GPa)
#
#
# Indices 1 2 3 4 5 6 
#
# 1 156.3153 84.1333 77.4229 0.0000 0.0000 0.0000
# 2 84.1333 144.7171 53.1112 0.0000 0.0000 0.0000
# 3 77.4229 53.1112 134.6666 0.0000 0.0000 0.0000
# 4 0.0000 0.0000 0.0000 26.7633 0.0000 0.0000
# 5 0.0000 0.0000 0.0000 0.0000 36.9137 0.0000
# 6 0.0000 0.0000 0.0000 0.0000 0.0000 27.7691
#
#
#
# Elastic Compliance Matrix: (Units=1/GPa)
#
#
# Indices 1 2 3 4 5 6 
#
# 1 0.011288 -0.004888 -0.004562 0.000000 0.000000 0.000000
# 2 -0.004888 0.010196 -0.001211 0.000000 0.000000 0.000000
# 3 -0.004562 -0.001211 0.010526 0.000000 0.000000 0.000000
# 4 0.000000 0.000000 0.000000 0.037365 0.000000 0.000000
# 5 0.000000 0.000000 0.000000 0.000000 0.027090 0.000000
# 6 0.000000 0.000000 0.000000 0.000000 0.000000 0.036011
#
#
# Mechanical properties :
#
#
# Convention : Reuss Voigt Hill
#
# Bulk Modulus (GPa) = 93.56083 96.11487 94.83785
# Shear Modulus (GPa) = 31.77422 33.02466 32.39944
#
# Velocity S-wave (km/s) = 3.80011 3.87416 3.83731
# Velocity P-wave (km/s) = 7.85978 7.98089 7.92057
#
# Compressibility (1/GPa) = 0.01068823
#
# Stress axis : x y z
#
# Youngs Moduli (GPa) = 88.59253 98.07549 95.00290
#
# Poissons Ratio (x) = 0.47940 0.43338
# Poissons Ratio (y) = 0.43305 0.11505
# Poissons Ratio (z) = 0.40413 0.11877
#
# Static dielectric constant tensor:
#      x y z
#    x 1.804090 0.000000 0.000000 
#    y 0.000000 1.915360 0.000000 
#    z 0.000000 0.000000 1.852480 
# 
# From -- ./inp_files/7693.got.cif
#   From: 2010.05.17/outbox.cif.g08.bks.cpg/sg50_4_cif.got.tgz:7693.got - 2010.06.03 11:33:33.
