data_PCOD9397292
_publ_section_title
;
Structure prediction by ZEFSAII (Michael W. Deem and Ramdas Pophale) SiO2 
 PCOD9397292
Probable space group: P B A N
;
_chemical_formula_sum "Si O2"
_cell_formula_units_Z 30
_cell_length_a 13.559025
_cell_length_b 9.087332
_cell_length_c 10.914743
_cell_angle_alpha 90.000000
_cell_angle_beta 90.000000
_cell_angle_gamma 90.000000
_cell_volume 1344.864007
_symmetry_space_group_name_H-M "P B A N"
_symmetry_group_IT_number 50
_space_group.IT_coordinate_system_code '2'
_symmetry_cell_setting 'orthorhombic'
loop_
_space_group_symop_operation_xyz
x,y,z
1/2-x,1/2-y,z
x,1/2-y,-z
1/2-x,y,-z
-x,-y,-z
1/2+x,1/2+y,-z
-x,1/2+y,z
1/2+x,-y,z
loop_
_atom_site_type_symbol
_atom_site_label
_atom_site_fract_x
_atom_site_fract_y
_atom_site_fract_z
Si Si1 0.250000 0.250000 0.194655
Si Si2 0.750000 0.250000 0.500000
Si Si3 0.040965 0.314712 0.750416
Si Si4 0.750000 0.009667 0.000000
Si Si5 0.423069 0.750000 0.000000
Si Si6 0.434958 0.912252 0.601052
O O1 0.148603 0.254609 0.265384
O O2 0.251424 0.397439 0.113239
O O3 0.676411 0.135292 0.431605
O O4 0.054537 0.485749 0.721570
O O5 0.977824 0.242728 0.643669
O O6 0.992560 0.278099 0.881718
O O7 0.652680 0.111709 0.005684
O O8 0.500000 0.000000 0.500000
#
# Coordination Sequence:
#
# PCOD9397292 Si02
#       6
#     4   2   8   4   4   8
#     4  11  24  38  65 106 144 198 245 307 372 450
#     4  12  28  52  86 108 152 196 270 324 398 450
#     4  12  26  45  75 108 153 192 253 315 382 460
#     4  10  22  42  64 100 152 198 250 290 376 460
#     4  11  24  45  72 106 150 199 242 311 384 464
#     4  12  27  52  75 109 146 200 257 319 380 448
#
# _framework density 22.307089000000001
#
# number of rings (size 3 to 8) (size 9 to 14) (size 15 to 20)
#    0.000    0.533    2.667    4.800    3.733    7.467 
#    0.000    0.000    0.000    0.000    0.000    0.000 
#    0.000    0.000    0.000    0.000    0.000    0.000 
#
# Total GULP energy -167513.028985 kJ/mol
# GULP energy per Si atom -5583.767633 kJ/mol
# Density = 2.225632 g / cm^3
# Si number density = 22.307089 Si / 1000 Ang^3
#
#
#
# Elastic Constant Matrix: (Units=GPa)
#
#
# Indices 1 2 3 4 5 6 
#
# 1 171.9910 44.7983 44.9593 0.0000 0.0000 0.0000
# 2 44.7983 136.6654 37.3617 0.0000 0.0000 0.0000
# 3 44.9593 37.3617 87.0930 0.0000 0.0000 0.0000
# 4 0.0000 0.0000 0.0000 15.2265 0.0000 0.0000
# 5 0.0000 0.0000 0.0000 0.0000 6.2116 0.0000
# 6 0.0000 0.0000 0.0000 0.0000 0.0000 42.0809
#
#
#
# Elastic Compliance Matrix: (Units=1/GPa)
#
#
# Indices 1 2 3 4 5 6 
#
# 1 0.006974 -0.001475 -0.002968 0.000000 0.000000 0.000000
# 2 -0.001475 0.008601 -0.002928 0.000000 0.000000 0.000000
# 3 -0.002968 -0.002928 0.014270 0.000000 0.000000 0.000000
# 4 0.000000 0.000000 0.000000 0.065675 0.000000 0.000000
# 5 0.000000 0.000000 0.000000 0.000000 0.160990 0.000000
# 6 0.000000 0.000000 0.000000 0.000000 0.000000 0.023764
#
#
# Mechanical properties :
#
#
# Convention : Reuss Voigt Hill
#
# Bulk Modulus (GPa) = 66.20823 72.22089 69.21456
# Shear Modulus (GPa) = 16.66387 30.61247 23.63817
#
# Velocity S-wave (km/s) = 2.73613 3.70850 3.25879
# Velocity P-wave (km/s) = 6.30291 7.12624 6.72719
#
# Compressibility (1/GPa) = 0.01510386
#
# Stress axis : x y z
#
# Youngs Moduli (GPa) = 143.38715 116.26339 70.07640
#
# Poissons Ratio (x) = 0.17147 0.20795
# Poissons Ratio (y) = 0.21147 0.20521
# Poissons Ratio (z) = 0.42550 0.34047
#
# Static dielectric constant tensor:
#      x y z
#    x 1.892170 0.000000 0.000000 
#    y 0.000000 1.920280 0.000000 
#    z 0.000000 0.000000 1.851300 
# 
# From -- ./inp_files/18424.got.cif
#   From: 2010.05.17/outbox.cif.g08.bks.cpg/sg50_10_cif.got.tgz:18424.got - 2010.06.03 11:33:33.
