data_PCOD9397687
_publ_section_title
;
Structure prediction by ZEFSAII (Michael W. Deem and Ramdas Pophale) SiO2 
 PCOD9397687
Probable space group: P B A N
;
_chemical_formula_sum "Si O2"
_cell_formula_units_Z 56
_cell_length_a 9.414229
_cell_length_b 19.389738
_cell_length_c 15.493303
_cell_angle_alpha 90.000000
_cell_angle_beta 90.000000
_cell_angle_gamma 90.000000
_cell_volume 2828.138757
_symmetry_space_group_name_H-M "P B A N"
_symmetry_group_IT_number 50
_space_group.IT_coordinate_system_code '2'
_symmetry_cell_setting 'orthorhombic'
loop_
_space_group_symop_operation_xyz
x,y,z
1/2-x,1/2-y,z
x,1/2-y,-z
1/2-x,y,-z
-x,-y,-z
1/2+x,1/2+y,-z
-x,1/2+y,z
1/2+x,-y,z
loop_
_atom_site_type_symbol
_atom_site_label
_atom_site_fract_x
_atom_site_fract_y
_atom_site_fract_z
Si Si1 0.597535 0.237893 0.759634
Si Si2 0.580865 0.572851 0.503577
Si Si3 0.815605 0.941595 0.906377
Si Si4 0.913765 0.128665 0.654388
Si Si5 0.037610 0.470392 0.203945
Si Si6 0.095221 0.217656 0.085218
Si Si7 0.900956 0.404970 0.665487
O O1 0.750000 0.250000 0.802304
O O2 0.591890 0.291460 0.680776
O O3 0.479169 0.245969 0.830248
O O4 0.589461 0.160370 0.727140
O O5 0.750000 0.565845 0.500000
O O6 0.500000 0.500000 0.500000
O O7 0.524638 0.614948 0.421368
O O8 0.521409 0.602475 0.593204
O O9 0.680362 0.942759 0.841567
O O10 0.885850 0.865316 0.915088
O O11 0.750000 0.960887 0.000000
O O12 0.932528 0.993586 0.865760
O O13 0.758745 0.099620 0.627352
O O14 0.957923 0.088619 0.741740
O O15 0.078393 0.527153 0.276791
O O16 0.250000 0.250000 0.086532
O O17 0.023381 0.250000 0.000000
#
# Coordination Sequence:
#
# PCOD9397687 Si02
#       7
#     8   8   8   8   8   8   8
#     4  10  24  44  68  97 131 177 225 270 333 402
#     4  12  26  41  67 101 135 173 222 277 337 400
#     4  12  25  44  66  97 135 178 224 286 334 401
#     4  11  24  43  68  98 132 177 219 274 333 399
#     4  12  24  41  69  96 133 176 225 274 340 396
#     4  11  22  41  66  94 133 176 223 277 340 401
#     4  11  23  44  67  97 136 173 221 274 331 400
#
# _framework density 19.801006999999998
#
# number of rings (size 3 to 8) (size 9 to 14) (size 15 to 20)
#    0.000    0.714    5.714    2.571    2.000    2.000 
#    0.000    2.857    0.000    0.000    0.000    0.000 
#    0.000    0.000    0.000    0.000    0.000    0.000 
#
# Total GULP energy -312823.057689 kJ/mol
# GULP energy per Si atom -5586.126030 kJ/mol
# Density = 1.975594 g / cm^3
# Si number density = 19.801007 Si / 1000 Ang^3
#
#
#
# Elastic Constant Matrix: (Units=GPa)
#
#
# Indices 1 2 3 4 5 6 
#
# 1 120.9599 -0.4613 38.2943 0.0000 0.0000 0.0000
# 2 -0.4613 48.3539 -5.6341 0.0000 0.0000 0.0000
# 3 38.2943 -5.6341 74.5964 0.0000 0.0000 0.0000
# 4 0.0000 0.0000 0.0000 18.1660 0.0000 0.0000
# 5 0.0000 0.0000 0.0000 0.0000 78.1644 0.0000
# 6 0.0000 0.0000 0.0000 0.0000 0.0000 19.3879
#
#
#
# Elastic Compliance Matrix: (Units=1/GPa)
#
#
# Indices 1 2 3 4 5 6 
#
# 1 0.009884 -0.000501 -0.005112 0.000000 0.000000 0.000000
# 2 -0.000501 0.020890 0.001835 0.000000 0.000000 0.000000
# 3 -0.005112 0.001835 0.016168 0.000000 0.000000 0.000000
# 4 0.000000 0.000000 0.000000 0.055048 0.000000 0.000000
# 5 0.000000 0.000000 0.000000 0.000000 0.012794 0.000000
# 6 0.000000 0.000000 0.000000 0.000000 0.000000 0.051579
#
#
# Mechanical properties :
#
#
# Convention : Reuss Voigt Hill
#
# Bulk Modulus (GPa) = 25.38975 34.25644 29.82310
# Shear Modulus (GPa) = 26.73140 37.25773 31.99457
#
# Velocity S-wave (km/s) = 3.67822 4.34246 4.02407
# Velocity P-wave (km/s) = 5.55782 6.51771 6.05681
#
# Compressibility (1/GPa) = 0.03938598
#
# Stress axis : x y z
#
# Youngs Moduli (GPa) = 101.17806 47.87005 61.84996
#
# Poissons Ratio (x) = 0.02400 0.31615
# Poissons Ratio (y) = 0.05072 -0.11350
# Poissons Ratio (z) = 0.51718 -0.08785
#
# Static dielectric constant tensor:
#      x y z
#    x 1.664050 0.000000 0.000000 
#    y 0.000000 1.695770 0.000000 
#    z 0.000000 0.000000 1.580450 
# 
# From -- ./inp_files/25262.got.cif
#   From: 2010.05.17/outbox.cif.g08.bks.cpg/sg50_13_cif.got.tgz:25262.got - 2010.06.03 11:33:33.
