data_PCOD9397175
_publ_section_title
;
Structure prediction by ZEFSAII (Michael W. Deem and Ramdas Pophale) SiO2 
 PCOD9397175
Probable space group: P B A N
;
_chemical_formula_sum "Si O2"
_cell_formula_units_Z 38
_cell_length_a 17.335081
_cell_length_b 11.759802
_cell_length_c 8.859893
_cell_angle_alpha 90.000000
_cell_angle_beta 90.000000
_cell_angle_gamma 90.000000
_cell_volume 1806.152272
_symmetry_space_group_name_H-M "P B A N"
_symmetry_group_IT_number 50
_space_group.IT_coordinate_system_code '2'
_symmetry_cell_setting 'orthorhombic'
loop_
_space_group_symop_operation_xyz
x,y,z
1/2-x,1/2-y,z
x,1/2-y,-z
1/2-x,y,-z
-x,-y,-z
1/2+x,1/2+y,-z
-x,1/2+y,z
1/2+x,-y,z
loop_
_atom_site_type_symbol
_atom_site_label
_atom_site_fract_x
_atom_site_fract_y
_atom_site_fract_z
Si Si1 0.750000 0.250000 0.500000
Si Si2 0.121886 0.963124 0.780139
Si Si3 0.645949 0.306975 0.751302
Si Si4 0.750000 0.431794 0.000000
Si Si5 0.657974 0.619276 0.507465
Si Si6 0.035700 0.507863 0.670887
O O1 0.696817 0.327624 0.602718
O O2 0.138058 0.828634 0.760004
O O3 0.137177 0.042771 0.637022
O O4 0.184790 0.998495 0.905332
O O5 0.028895 0.969756 0.790440
O O6 0.695798 0.357195 0.888177
O O7 0.565370 0.368608 0.721932
O O8 0.630626 0.750000 0.500000
O O9 0.750000 0.620292 0.500000
O O10 0.614171 0.565213 0.651876
O O11 0.000000 0.500000 0.500000
#
# Coordination Sequence:
#
# PCOD9397175 Si02
#       6
#     2   8   8   4   8   8
#     4  12  20  34  72  96 130 174 234 300 344 404
#     4  11  23  40  68  95 141 182 221 298 352 426
#     4  12  24  40  69 104 134 178 236 294 360 422
#     4  12  25  46  70 107 144 181 240 294 377 440
#     4  10  22  39  63  95 136 180 234 284 339 418
#     4  10  24  37  64 101 138 175 230 293 351 414
#
# _framework density 21.039199
#
# number of rings (size 3 to 8) (size 9 to 14) (size 15 to 20)
#    0.000    1.053    2.105    5.053    8.842    0.842 
#    0.000    0.000    0.000    8.842    0.000    0.000 
#    0.000    0.000    0.000    0.000    0.000    0.000 
#
# Total GULP energy -211824.010277 kJ/mol
# GULP energy per Si atom -5574.316060 kJ/mol
# Density = 2.099131 g / cm^3
# Si number density = 21.039199 Si / 1000 Ang^3
#
#
#
# Elastic Constant Matrix: (Units=GPa)
#
#
# Indices 1 2 3 4 5 6 
#
# 1 138.9271 30.5323 42.7615 0.0000 0.0000 0.0000
# 2 30.5323 79.3970 20.7096 0.0000 0.0000 0.0000
# 3 42.7615 20.7096 89.4379 0.0000 0.0000 0.0000
# 4 0.0000 0.0000 0.0000 16.1947 0.0000 0.0000
# 5 0.0000 0.0000 0.0000 0.0000 43.4754 0.0000
# 6 0.0000 0.0000 0.0000 0.0000 0.0000 35.5266
#
#
#
# Elastic Compliance Matrix: (Units=1/GPa)
#
#
# Indices 1 2 3 4 5 6 
#
# 1 0.008867 -0.002452 -0.003672 0.000000 0.000000 0.000000
# 2 -0.002452 0.014083 -0.002088 0.000000 0.000000 0.000000
# 3 -0.003672 -0.002088 0.013420 0.000000 0.000000 0.000000
# 4 0.000000 0.000000 0.000000 0.061749 0.000000 0.000000
# 5 0.000000 0.000000 0.000000 0.000000 0.023002 0.000000
# 6 0.000000 0.000000 0.000000 0.000000 0.000000 0.028148
#
#
# Mechanical properties :
#
#
# Convention : Reuss Voigt Hill
#
# Bulk Modulus (GPa) = 50.13746 55.08541 52.61143
# Shear Modulus (GPa) = 29.01230 33.28991 31.15110
#
# Velocity S-wave (km/s) = 3.71747 3.98210 3.85206
# Velocity P-wave (km/s) = 6.50449 6.88346 6.69665
#
# Compressibility (1/GPa) = 0.01994517
#
# Stress axis : x y z
#
# Youngs Moduli (GPa) = 112.77683 71.00937 74.51556
#
# Poissons Ratio (x) = 0.17413 0.27360
# Poissons Ratio (y) = 0.27654 0.15562
# Poissons Ratio (z) = 0.41408 0.14830
#
# Static dielectric constant tensor:
#      x y z
#    x 1.780830 0.000000 0.000000 
#    y 0.000000 1.801000 0.000000 
#    z 0.000000 0.000000 1.808920 
# 
# From -- ./inp_files/13952.got.cif
#   From: 2010.05.17/outbox.cif.g08.bks.cpg/sg50_7_cif.got.tgz:13952.got - 2010.06.03 11:33:33.
