data_PCOD9397402
_publ_section_title
;
Structure prediction by ZEFSAII (Michael W. Deem and Ramdas Pophale) SiO2 
 PCOD9397402
Probable space group: P B A N
;
_chemical_formula_sum "Si O2"
_cell_formula_units_Z 38
_cell_length_a 8.843495
_cell_length_b 11.297877
_cell_length_c 17.143843
_cell_angle_alpha 90.000000
_cell_angle_beta 90.000000
_cell_angle_gamma 90.000000
_cell_volume 1712.887964
_symmetry_space_group_name_H-M "P B A N"
_symmetry_group_IT_number 50
_space_group.IT_coordinate_system_code '2'
_symmetry_cell_setting 'orthorhombic'
loop_
_space_group_symop_operation_xyz
x,y,z
1/2-x,1/2-y,z
x,1/2-y,-z
1/2-x,y,-z
-x,-y,-z
1/2+x,1/2+y,-z
-x,1/2+y,z
1/2+x,-y,z
loop_
_atom_site_type_symbol
_atom_site_label
_atom_site_fract_x
_atom_site_fract_y
_atom_site_fract_z
Si Si1 0.034018 0.074369 0.420742
Si Si2 0.250000 0.250000 0.500000
Si Si3 0.363098 0.496738 0.058447
Si Si4 0.495125 0.391218 0.786471
Si Si5 0.750000 0.750000 0.869921
Si Si6 0.266224 0.934304 0.310946
O O1 0.136779 0.180936 0.445869
O O2 0.883992 0.113160 0.374927
O O3 0.144368 0.006665 0.361863
O O4 0.000000 0.000000 0.500000
O O5 0.426178 0.549072 0.138540
O O6 0.292685 0.368149 0.081347
O O7 0.250000 0.565224 0.000000
O O8 0.500000 0.500000 0.000000
O O9 0.393313 0.283080 0.816207
O O10 0.373953 0.481473 0.744319
O O11 0.643553 0.357019 0.736430
#
# Coordination Sequence:
#
# PCOD9397402 Si02
#       6
#     8   2   8   8   4   8
#     4  11  22  45  72 106 141 190 245 300 353 433
#     4  12  24  42  78 104 144 202 242 284 372 434
#     4  12  24  44  73 101 140 184 241 300 351 429
#     4  11  23  45  71 107 140 190 241 297 364 437
#     4  12  25  45  76 101 149 194 238 292 373 429
#     4  10  22  45  74  98 153 181 232 318 352 420
#
# _framework density 22.184754000000002
#
# number of rings (size 3 to 8) (size 9 to 14) (size 15 to 20)
#    0.000    0.842    6.316    0.316    0.000    0.842 
#    0.000    9.474    0.000    0.000    0.000    0.000 
#    0.000    0.000    0.000    0.000    0.000    0.000 
#
# Total GULP energy -211715.647163 kJ/mol
# GULP energy per Si atom -5571.464399 kJ/mol
# Density = 2.213426 g / cm^3
# Si number density = 22.184754 Si / 1000 Ang^3
#
#
#
# Elastic Constant Matrix: (Units=GPa)
#
#
# Indices 1 2 3 4 5 6 
#
# 1 208.8258 34.4112 80.2779 0.0000 0.0000 0.0000
# 2 34.4112 45.3209 33.9532 0.0000 0.0000 0.0000
# 3 80.2779 33.9532 135.0147 0.0000 0.0000 0.0000
# 4 0.0000 0.0000 0.0000 21.5333 0.0000 0.0000
# 5 0.0000 0.0000 0.0000 0.0000 92.9643 0.0000
# 6 0.0000 0.0000 0.0000 0.0000 0.0000 51.9120
#
#
#
# Elastic Compliance Matrix: (Units=1/GPa)
#
#
# Indices 1 2 3 4 5 6 
#
# 1 0.006427 -0.002485 -0.003196 0.000000 0.000000 0.000000
# 2 -0.002485 0.028148 -0.005601 0.000000 0.000000 0.000000
# 3 -0.003196 -0.005601 0.010716 0.000000 0.000000 0.000000
# 4 0.000000 0.000000 0.000000 0.046440 0.000000 0.000000
# 5 0.000000 0.000000 0.000000 0.000000 0.010757 0.000000
# 6 0.000000 0.000000 0.000000 0.000000 0.000000 0.019263
#
#
# Mechanical properties :
#
#
# Convention : Reuss Voigt Hill
#
# Bulk Modulus (GPa) = 44.00351 76.27180 60.13765
# Shear Modulus (GPa) = 32.91844 49.31652 41.11748
#
# Velocity S-wave (km/s) = 3.85623 4.71998 4.30980
# Velocity P-wave (km/s) = 6.30123 8.00994 7.20641
#
# Compressibility (1/GPa) = 0.02272546
#
# Stress axis : x y z
#
# Youngs Moduli (GPa) = 155.59382 35.52666 93.32137
#
# Poissons Ratio (x) = 0.08829 0.29830
# Poissons Ratio (y) = 0.38668 0.52268
# Poissons Ratio (z) = 0.49734 0.19898
#
# Static dielectric constant tensor:
#      x y z
#    x 1.754070 0.000000 0.000000 
#    y 0.000000 1.923550 0.000000 
#    z 0.000000 0.000000 0.484850 
# 
# From -- ./inp_files/28510.got.cif
#   From: 2010.05.17/outbox.cif.g08.bks.cpg/sg50_15_cif.got.tgz:28510.got - 2010.06.03 11:33:33.
