data_PCOD9397063
_publ_section_title
;
Structure prediction by ZEFSAII (Michael W. Deem and Ramdas Pophale) SiO2 
 PCOD9397063
Probable space group: P B A N
;
_chemical_formula_sum "Si O2"
_cell_formula_units_Z 28
_cell_length_a 10.324229
_cell_length_b 21.637288
_cell_length_c 5.323003
_cell_angle_alpha 90.000000
_cell_angle_beta 90.000000
_cell_angle_gamma 90.000000
_cell_volume 1189.096678
_symmetry_space_group_name_H-M "P B A N"
_symmetry_group_IT_number 50
_space_group.IT_coordinate_system_code '2'
_symmetry_cell_setting 'orthorhombic'
loop_
_space_group_symop_operation_xyz
x,y,z
1/2-x,1/2-y,z
x,1/2-y,-z
1/2-x,y,-z
-x,-y,-z
1/2+x,1/2+y,-z
-x,1/2+y,z
1/2+x,-y,z
loop_
_atom_site_type_symbol
_atom_site_label
_atom_site_fract_x
_atom_site_fract_y
_atom_site_fract_z
Si Si1 0.615503 0.584179 0.643475
Si Si2 0.127461 0.952998 0.307733
Si Si3 0.982574 0.210528 0.244903
Si Si4 0.250000 0.849118 0.000000
O O1 0.750000 0.592687 0.500000
O O2 0.503557 0.563469 0.450793
O O3 0.624754 0.521712 0.811439
O O4 0.569341 0.648973 0.751742
O O5 0.250000 0.953380 0.500000
O O6 0.150211 0.896107 0.125596
O O7 0.995266 0.250000 0.500000
O O8 0.833424 0.189563 0.197980
O O9 0.017397 0.250000 0.000000
#
# Coordination Sequence:
#
# PCOD9397063 Si02
#       4
#     8   8   8   4
#     4  10  23  47  73 107 150 193 239 304 378 447
#     4  10  21  45  76 109 143 183 247 317 374 423
#     4  12  28  49  74 108 155 206 250 301 364 455
#     4  12  25  44  80 110 141 184 262 316 364 420
#
# _framework density 23.547286
#
# number of rings (size 3 to 8) (size 9 to 14) (size 15 to 20)
#    0.000    1.143    2.857    2.143    0.000    5.143 
#   10.286    4.286    0.000    0.000    0.000    0.000 
#    0.000    0.000    0.000    0.000    0.000    0.000 
#
# Total GULP energy -156680.833101 kJ/mol
# GULP energy per Si atom -5595.744039 kJ/mol
# Density = 2.349369 g / cm^3
# Si number density = 23.547286 Si / 1000 Ang^3
#
#
#
# Elastic Constant Matrix: (Units=GPa)
#
#
# Indices 1 2 3 4 5 6 
#
# 1 150.0573 57.8543 32.1225 0.0000 0.0000 0.0000
# 2 57.8543 204.8410 75.1819 0.0000 0.0000 0.0000
# 3 32.1225 75.1819 101.0656 0.0000 0.0000 0.0000
# 4 0.0000 0.0000 0.0000 40.3644 0.0000 0.0000
# 5 0.0000 0.0000 0.0000 0.0000 32.2439 0.0000
# 6 0.0000 0.0000 0.0000 0.0000 0.0000 36.5474
#
#
#
# Elastic Compliance Matrix: (Units=1/GPa)
#
#
# Indices 1 2 3 4 5 6 
#
# 1 0.007570 -0.001726 -0.001122 0.000000 0.000000 0.000000
# 2 -0.001726 0.007109 -0.004740 0.000000 0.000000 0.000000
# 3 -0.001122 -0.004740 0.013777 0.000000 0.000000 0.000000
# 4 0.000000 0.000000 0.000000 0.024774 0.000000 0.000000
# 5 0.000000 0.000000 0.000000 0.000000 0.031014 0.000000
# 6 0.000000 0.000000 0.000000 0.000000 0.000000 0.027362
#
#
# Mechanical properties :
#
#
# Convention : Reuss Voigt Hill
#
# Bulk Modulus (GPa) = 75.29978 87.36459 81.33218
# Shear Modulus (GPa) = 38.10759 41.21817 39.66288
#
# Velocity S-wave (km/s) = 4.02723 4.18837 4.10859
# Velocity P-wave (km/s) = 7.32614 7.78282 7.55793
#
# Compressibility (1/GPa) = 0.01328025
#
# Stress axis : x y z
#
# Youngs Moduli (GPa) = 132.10360 140.66772 72.58528
#
# Poissons Ratio (x) = 0.24283 0.08143
# Poissons Ratio (y) = 0.22804 0.34403
# Poissons Ratio (z) = 0.14820 0.66671
#
# Static dielectric constant tensor:
#      x y z
#    x 1.991310 0.000000 0.000000 
#    y 0.000000 1.958120 0.000000 
#    z 0.000000 0.000000 2.467110 
# 
# From -- ./inp_files/1882.got.cif
#   From: 2010.05.17/outbox.cif.g08.bks.cpg/sg50_1_cif.got.tgz:1882.got - 2010.06.03 11:33:33.
