data_PCOD9397203
_publ_section_title
;
Structure prediction by ZEFSAII (Michael W. Deem and Ramdas Pophale) SiO2 
 PCOD9397203
Probable space group: P B A N
;
_chemical_formula_sum "Si O2"
_cell_formula_units_Z 58
_cell_length_a 17.306967
_cell_length_b 29.149617
_cell_length_c 5.230419
_cell_angle_alpha 90.000000
_cell_angle_beta 90.000000
_cell_angle_gamma 90.000000
_cell_volume 2638.701715
_symmetry_space_group_name_H-M "P B A N"
_symmetry_group_IT_number 50
_space_group.IT_coordinate_system_code '2'
_symmetry_cell_setting 'orthorhombic'
loop_
_space_group_symop_operation_xyz
x,y,z
1/2-x,1/2-y,z
x,1/2-y,-z
1/2-x,y,-z
-x,-y,-z
1/2+x,1/2+y,-z
-x,1/2+y,z
1/2+x,-y,z
loop_
_atom_site_type_symbol
_atom_site_label
_atom_site_fract_x
_atom_site_fract_y
_atom_site_fract_z
Si Si1 0.838785 0.152134 0.558523
Si Si2 0.304254 0.983707 0.245308
Si Si3 0.869076 0.677237 0.894161
Si Si4 0.105198 0.602630 0.056797
Si Si5 0.017415 0.798390 0.368670
Si Si6 0.750000 0.750000 0.000000
Si Si7 0.337482 0.082521 0.401006
Si Si8 0.051990 0.125420 0.264415
O O1 0.750000 0.162253 0.500000
O O2 0.865678 0.137839 0.273795
O O3 0.891945 0.193083 0.670949
O O4 0.855694 0.113548 0.780846
O O5 0.250000 0.976011 0.500000
O O6 0.367928 0.945166 0.182749
O O7 0.340868 0.034268 0.258069
O O8 0.250000 0.982413 0.000000
O O9 0.852683 0.629760 0.749291
O O10 0.954456 0.698123 0.853242
O O11 0.806055 0.715803 0.847176
O O12 0.876948 0.658362 0.180042
O O13 0.011916 0.609317 0.057376
O O14 0.005817 0.750000 0.500000
O O15 0.992732 0.842447 0.536908
O O16 0.250000 0.084859 0.500000
O O17 0.404465 0.082619 0.613675
#
# Coordination Sequence:
#
# PCOD9397203 Si02
#       8
#     8   8   8   8   8   2   8   8
#     4  11  22  40  67  98 133 179 222 278 339 413
#     4  11  24  41  65 100 134 179 228 288 344 412
#     4  11  22  42  60  95 127 172 229 280 348 410
#     4  11  22  42  67  97 134 176 227 279 339 409
#     4  10  22  40  62  91 134 173 218 284 346 411
#     4  12  24  32  74  92 120 180 236 288 326 452
#     4  10  24  40  63  89 132 175 219 287 351 410
#     4  10  22  41  65  90 131 178 221 283 355 416
#
# _framework density 21.980505000000001
#
# number of rings (size 3 to 8) (size 9 to 14) (size 15 to 20)
#    0.000    1.379    1.379    4.138    4.828    1.931 
#    0.000    3.448    0.000    1.655    0.000    0.000 
#    0.000    0.000    0.000    0.000    0.000    0.000 
#
# Total GULP energy -323123.126128 kJ/mol
# GULP energy per Si atom -5571.088382 kJ/mol
# Density = 2.193048 g / cm^3
# Si number density = 21.980505 Si / 1000 Ang^3
#
#
#
# Elastic Constant Matrix: (Units=GPa)
#
#
# Indices 1 2 3 4 5 6 
#
# 1 121.5897 34.3727 20.1148 0.0000 0.0000 0.0000
# 2 34.3727 71.4803 -0.2846 0.0000 0.0000 0.0000
# 3 20.1148 -0.2846 74.5835 0.0000 0.0000 0.0000
# 4 0.0000 0.0000 0.0000 15.6368 0.0000 0.0000
# 5 0.0000 0.0000 0.0000 0.0000 -20.4711 0.0000
# 6 0.0000 0.0000 0.0000 0.0000 0.0000 13.2248
#
#
#
# Elastic Compliance Matrix: (Units=1/GPa)
#
#
# Indices 1 2 3 4 5 6 
#
# 1 0.010044 -0.004841 -0.002727 0.000000 0.000000 0.000000
# 2 -0.004841 0.016323 0.001368 0.000000 0.000000 0.000000
# 3 -0.002727 0.001368 0.014149 0.000000 0.000000 0.000000
# 4 0.000000 0.000000 0.000000 0.063952 0.000000 0.000000
# 5 0.000000 0.000000 0.000000 0.000000 -0.048849 0.000000
# 6 0.000000 0.000000 0.000000 0.000000 0.000000 0.075615
#
#
# Mechanical properties :
#
#
# Convention : Reuss Voigt Hill
#
# Bulk Modulus (GPa) = 35.56792 41.78436 38.67614
# Shear Modulus (GPa) = 32.67860 15.90815 24.29337
#
# Velocity S-wave (km/s) = 3.85997 2.69316 3.32810
# Velocity P-wave (km/s) = 6.00687 5.35927 5.69229
#
# Compressibility (1/GPa) = 0.02811523
#
# Stress axis : x y z
#
# Youngs Moduli (GPa) = 99.56192 61.26301 70.67861
#
# Poissons Ratio (x) = 0.29656 0.19276
# Poissons Ratio (y) = 0.48195 -0.09667
# Poissons Ratio (z) = 0.27153 -0.08380
#
# Static dielectric constant tensor:
#      x y z
#    x 1.905960 0.000000 0.000000 
#    y 0.000000 1.841750 0.000000 
#    z 0.000000 0.000000 1.907840 
# 
# From -- ./inp_files/4700.got.cif
#   From: 2010.05.17/outbox.cif.g08.bks.cpg/sg50_3_cif.got.tgz:4700.got - 2010.06.03 11:33:33.
