data_PCOD9397770
_publ_section_title
;
Structure prediction by ZEFSAII (Michael W. Deem and Ramdas Pophale) SiO2 
 PCOD9397770
Probable space group: P B A N
;
_chemical_formula_sum "Si O2"
_cell_formula_units_Z 26
_cell_length_a 11.151271
_cell_length_b 17.687795
_cell_length_c 4.900107
_cell_angle_alpha 90.000000
_cell_angle_beta 90.000000
_cell_angle_gamma 90.000000
_cell_volume 966.503942
_symmetry_space_group_name_H-M "P B A N"
_symmetry_group_IT_number 50
_space_group.IT_coordinate_system_code '2'
_symmetry_cell_setting 'orthorhombic'
loop_
_space_group_symop_operation_xyz
x,y,z
1/2-x,1/2-y,z
x,1/2-y,-z
1/2-x,y,-z
-x,-y,-z
1/2+x,1/2+y,-z
-x,1/2+y,z
1/2+x,-y,z
loop_
_atom_site_type_symbol
_atom_site_label
_atom_site_fract_x
_atom_site_fract_y
_atom_site_fract_z
Si Si1 0.070569 0.368526 0.039175
Si Si2 0.577770 0.335756 0.461986
Si Si3 0.750000 0.750000 0.000000
Si Si4 0.631096 0.006104 0.653216
O O1 0.114755 0.453961 0.080489
O O2 0.956318 0.360051 0.233665
O O3 0.166204 0.309247 0.156137
O O4 0.038203 0.340421 0.738072
O O5 0.619843 0.250000 0.500000
O O6 0.651019 0.403852 0.320228
O O7 0.750000 0.976897 0.500000
O O8 0.500000 0.000000 0.500000
#
# Coordination Sequence:
#
# PCOD9397770 Si02
#       4
#     8   8   2   8
#     4  11  25  41  68 105 145 191 246 315 376 443
#     4  11  22  46  67 102 144 193 248 303 373 450
#     4  12  24  38  76 102 150 188 260 318 382 442
#     4  10  25  46  73 106 149 196 248 308 378 451
#
# _framework density 26.901076
#
# number of rings (size 3 to 8) (size 9 to 14) (size 15 to 20)
#    0.000    1.231    3.077    0.923    8.615    1.846 
#    0.000    0.000    0.000    7.385    0.000    0.000 
#    0.000    0.000    0.000    0.000    0.000    0.000 
#
# Total GULP energy -145077.562236 kJ/mol
# GULP energy per Si atom -5579.906240 kJ/mol
# Density = 2.683985 g / cm^3
# Si number density = 26.901076 Si / 1000 Ang^3
#
#
#
# Elastic Constant Matrix: (Units=GPa)
#
#
# Indices 1 2 3 4 5 6 
#
# 1 126.1627 31.0431 44.2098 0.0000 0.0000 0.0000
# 2 31.0431 259.8438 37.2107 0.0000 0.0000 0.0000
# 3 44.2098 37.2107 132.1754 0.0000 0.0000 0.0000
# 4 0.0000 0.0000 0.0000 23.8987 0.0000 0.0000
# 5 0.0000 0.0000 0.0000 0.0000 27.2174 0.0000
# 6 0.0000 0.0000 0.0000 0.0000 0.0000 23.9095
#
#
#
# Elastic Compliance Matrix: (Units=1/GPa)
#
#
# Indices 1 2 3 4 5 6 
#
# 1 0.009092 -0.000678 -0.002850 0.000000 0.000000 0.000000
# 2 -0.000678 0.004061 -0.000916 0.000000 0.000000 0.000000
# 3 -0.002850 -0.000916 0.008777 0.000000 0.000000 0.000000
# 4 0.000000 0.000000 0.000000 0.041843 0.000000 0.000000
# 5 0.000000 0.000000 0.000000 0.000000 0.036741 0.000000
# 6 0.000000 0.000000 0.000000 0.000000 0.000000 0.041824
#
#
# Mechanical properties :
#
#
# Convention : Reuss Voigt Hill
#
# Bulk Modulus (GPa) = 76.68479 82.56769 79.62624
# Shear Modulus (GPa) = 32.13897 42.05300 37.09598
#
# Velocity S-wave (km/s) = 3.46021 3.95808 3.71749
# Velocity P-wave (km/s) = 6.67324 7.18667 6.93471
#
# Compressibility (1/GPa) = 0.01304040
#
# Stress axis : x y z
#
# Youngs Moduli (GPa) = 109.98859 246.26278 113.93406
#
# Poissons Ratio (x) = 0.16697 0.32473
# Poissons Ratio (y) = 0.07458 0.10441
# Poissons Ratio (z) = 0.31348 0.22568
#
# Static dielectric constant tensor:
#      x y z
#    x 2.292770 0.000000 0.000000 
#    y 0.000000 2.157870 0.000000 
#    z 0.000000 0.000000 2.169770 
# 
# From -- ./inp_files/1710.got.cif
#   From: 2010.05.17/outbox.cif.g08.bks.cpg/sg50_1_cif.got.tgz:1710.got - 2010.06.03 11:33:33.
