data_PCOD9397896
_publ_section_title
;
Structure prediction by ZEFSAII (Michael W. Deem and Ramdas Pophale) SiO2 
 PCOD9397896
Probable space group: P B A N
;
_chemical_formula_sum "Si O2"
_cell_formula_units_Z 40
_cell_length_a 13.906343
_cell_length_b 7.788765
_cell_length_c 15.502049
_cell_angle_alpha 90.000000
_cell_angle_beta 90.000000
_cell_angle_gamma 90.000000
_cell_volume 1679.077117
_symmetry_space_group_name_H-M "P B A N"
_symmetry_group_IT_number 50
_space_group.IT_coordinate_system_code '2'
_symmetry_cell_setting 'orthorhombic'
loop_
_space_group_symop_operation_xyz
x,y,z
1/2-x,1/2-y,z
x,1/2-y,-z
1/2-x,y,-z
-x,-y,-z
1/2+x,1/2+y,-z
-x,1/2+y,z
1/2+x,-y,z
loop_
_atom_site_type_symbol
_atom_site_label
_atom_site_fract_x
_atom_site_fract_y
_atom_site_fract_z
Si Si1 0.292500 0.444109 0.088993
Si Si2 0.635092 0.441913 0.196122
Si Si3 0.229621 0.060059 0.638631
Si Si4 0.519564 0.753373 0.101606
Si Si5 0.889588 0.451746 0.480946
O O1 0.250000 0.250000 0.092369
O O2 0.243561 0.553417 0.161830
O O3 0.404955 0.413894 0.097076
O O4 0.250000 0.515635 0.000000
O O5 0.656176 0.465566 0.296447
O O6 0.580883 0.599788 0.145549
O O7 0.569359 0.288681 0.163823
O O8 0.250000 0.250000 0.674550
O O9 0.334048 0.984610 0.610172
O O10 0.169029 0.062487 0.550796
O O11 0.490529 0.750000 0.000000
O O12 0.876499 0.250000 0.500000
O O13 0.000000 0.500000 0.500000
#
# Coordination Sequence:
#
# PCOD9397896 Si02
#       5
#     8   8   8   8   8
#     4   9  16  34  60  84 118 172 223 275 339 393
#     4  11  24  39  65  97 134 182 234 294 345 421
#     4  11  23  43  68 105 142 181 231 283 359 423
#     4  11  21  40  66  92 130 185 243 290 350 413
#     4  11  24  46  78 104 140 179 222 286 351 432
#
# _framework density 23.822610000000001
#
# number of rings (size 3 to 8) (size 9 to 14) (size 15 to 20)
#    0.000    1.400    4.000    6.000    0.000    4.800 
#    0.000    5.000    0.000    0.000    0.000    0.000 
#    0.000    0.000    0.000    0.000    0.000    0.000 
#
# Total GULP energy -223130.312509 kJ/mol
# GULP energy per Si atom -5578.257813 kJ/mol
# Density = 2.376839 g / cm^3
# Si number density = 23.822610 Si / 1000 Ang^3
#
#
#
# Elastic Constant Matrix: (Units=GPa)
#
#
# Indices 1 2 3 4 5 6 
#
# 1 166.3478 18.5894 42.8616 0.0000 0.0000 0.0000
# 2 18.5894 77.8659 14.3698 0.0000 0.0000 0.0000
# 3 42.8616 14.3698 110.9209 0.0000 0.0000 0.0000
# 4 0.0000 0.0000 0.0000 19.7285 0.0000 0.0000
# 5 0.0000 0.0000 0.0000 0.0000 45.5716 0.0000
# 6 0.0000 0.0000 0.0000 0.0000 0.0000 18.1559
#
#
#
# Elastic Compliance Matrix: (Units=1/GPa)
#
#
# Indices 1 2 3 4 5 6 
#
# 1 0.006777 -0.001162 -0.002468 0.000000 0.000000 0.000000
# 2 -0.001162 0.013357 -0.001281 0.000000 0.000000 0.000000
# 3 -0.002468 -0.001281 0.010135 0.000000 0.000000 0.000000
# 4 0.000000 0.000000 0.000000 0.050688 0.000000 0.000000
# 5 0.000000 0.000000 0.000000 0.000000 0.021944 0.000000
# 6 0.000000 0.000000 0.000000 0.000000 0.000000 0.055079
#
#
# Mechanical properties :
#
#
# Convention : Reuss Voigt Hill
#
# Bulk Modulus (GPa) = 48.91102 56.30847 52.60974
# Shear Modulus (GPa) = 28.63388 35.31210 31.97299
#
# Velocity S-wave (km/s) = 3.47069 3.85423 3.66748
# Velocity P-wave (km/s) = 6.05284 6.59505 6.32975
#
# Compressibility (1/GPa) = 0.02044529
#
# Stress axis : x y z
#
# Youngs Moduli (GPa) = 147.54930 74.86962 98.66615
#
# Poissons Ratio (x) = 0.08704 0.24354
# Poissons Ratio (y) = 0.17152 0.12640
# Poissons Ratio (z) = 0.36419 0.09592
#
# Static dielectric constant tensor:
#      x y z
#    x 1.952600 0.000000 0.000000 
#    y 0.000000 2.013510 0.000000 
#    z 0.000000 0.000000 1.969160 
# 
# From -- ./inp_files/26293.got.cif
#   From: 2010.05.17/outbox.cif.g08.bks.cpg/sg50_14_cif.got.tgz:26293.got - 2010.06.03 11:33:33.
