data_PCOD9397451
_publ_section_title
;
Structure prediction by ZEFSAII (Michael W. Deem and Ramdas Pophale) SiO2 
 PCOD9397451
Probable space group: P B A N
;
_chemical_formula_sum "Si O2"
_cell_formula_units_Z 26
_cell_length_a 10.444434
_cell_length_b 18.103305
_cell_length_c 6.984851
_cell_angle_alpha 90.000000
_cell_angle_beta 90.000000
_cell_angle_gamma 90.000000
_cell_volume 1320.687065
_symmetry_space_group_name_H-M "P B A N"
_symmetry_group_IT_number 50
_space_group.IT_coordinate_system_code '2'
_symmetry_cell_setting 'orthorhombic'
loop_
_space_group_symop_operation_xyz
x,y,z
1/2-x,1/2-y,z
x,1/2-y,-z
1/2-x,y,-z
-x,-y,-z
1/2+x,1/2+y,-z
-x,1/2+y,z
1/2+x,-y,z
loop_
_atom_site_type_symbol
_atom_site_label
_atom_site_fract_x
_atom_site_fract_y
_atom_site_fract_z
Si Si1 0.893749 0.110772 0.989663
Si Si2 0.645503 0.651482 0.166435
Si Si3 0.750000 0.750000 0.500000
Si Si4 0.973252 0.994651 0.277873
O O1 0.938723 0.072987 0.186783
O O2 0.750000 0.138216 0.000000
O O3 0.004240 0.165503 0.919522
O O4 0.907780 0.042415 0.837495
O O5 0.670708 0.699089 0.354222
O O6 0.637135 0.565394 0.229825
O O7 0.750000 0.662135 0.000000
O O8 0.000000 0.000000 0.500000
#
# Coordination Sequence:
#
# PCOD9397451 Si02
#       4
#     8   8   2   8
#     4   9  20  37  58  92 128 160 195 265 326 367
#     4  10  23  40  61  91 126 166 219 257 312 380
#     4  12  26  40  68  88 124 184 226 260 304 402
#     4   9  20  34  60  96 128 158 197 256 325 379
#
# _framework density 19.686723000000001
#
# number of rings (size 3 to 8) (size 9 to 14) (size 15 to 20)
#    1.846    0.615    0.000    1.385    4.308    1.231 
#    0.000    0.000    0.000    5.538    0.000    0.000 
#    0.000    0.000    0.000    0.000    0.000    0.000 
#
# Total GULP energy -144782.112860 kJ/mol
# GULP energy per Si atom -5568.542802 kJ/mol
# Density = 1.964192 g / cm^3
# Si number density = 19.686723 Si / 1000 Ang^3
#
#
#
# Elastic Constant Matrix: (Units=GPa)
#
#
# Indices 1 2 3 4 5 6 
#
# 1 166.1162 32.6897 65.4586 0.0000 0.0000 0.0000
# 2 32.6897 57.0549 37.8479 0.0000 0.0000 0.0000
# 3 65.4586 37.8479 183.1146 0.0000 0.0000 0.0000
# 4 0.0000 0.0000 0.0000 23.9180 0.0000 0.0000
# 5 0.0000 0.0000 0.0000 0.0000 4.6763 0.0000
# 6 0.0000 0.0000 0.0000 0.0000 0.0000 -31.5755
#
#
#
# Elastic Compliance Matrix: (Units=1/GPa)
#
#
# Indices 1 2 3 4 5 6 
#
# 1 0.007393 -0.002877 -0.002048 0.000000 0.000000 0.000000
# 2 -0.002877 0.021432 -0.003401 0.000000 0.000000 0.000000
# 3 -0.002048 -0.003401 0.006896 0.000000 0.000000 0.000000
# 4 0.000000 0.000000 0.000000 0.041809 0.000000 0.000000
# 5 0.000000 0.000000 0.000000 0.000000 0.213843 0.000000
# 6 0.000000 0.000000 0.000000 0.000000 0.000000 -0.031670
#
#
# Mechanical properties :
#
#
# Convention : Reuss Voigt Hill
#
# Bulk Modulus (GPa) = 52.44415 75.36423 63.90419
# Shear Modulus (GPa) = 17.68578 17.42308 17.55443
#
# Velocity S-wave (km/s) = 3.00052 2.97815 2.98936
# Velocity P-wave (km/s) = 6.22104 7.08454 6.66678
#
# Compressibility (1/GPa) = 0.01906791
#
# Stress axis : x y z
#
# Youngs Moduli (GPa) = 135.25983 46.65985 145.00720
#
# Poissons Ratio (x) = 0.13425 0.29700
# Poissons Ratio (y) = 0.38918 0.49319
# Poissons Ratio (z) = 0.27703 0.15870
#
# Static dielectric constant tensor:
#      x y z
#    x 1.748940 0.000000 0.000000 
#    y 0.000000 1.723710 0.000000 
#    z 0.000000 0.000000 1.667580 
# 
# From -- ./inp_files/1833.got.cif
#   From: 2010.05.17/outbox.cif.g08.bks.cpg/sg50_1_cif.got.tgz:1833.got - 2010.06.03 11:33:33.
