data_PCOD9397712
_publ_section_title
;
Structure prediction by ZEFSAII (Michael W. Deem and Ramdas Pophale) SiO2 
 PCOD9397712
Probable space group: P B A N
;
_chemical_formula_sum "Si O2"
_cell_formula_units_Z 56
_cell_length_a 8.368875
_cell_length_b 13.910062
_cell_length_c 21.872401
_cell_angle_alpha 90.000000
_cell_angle_beta 90.000000
_cell_angle_gamma 90.000000
_cell_volume 2546.200543
_symmetry_space_group_name_H-M "P B A N"
_symmetry_group_IT_number 50
_space_group.IT_coordinate_system_code '2'
_symmetry_cell_setting 'orthorhombic'
loop_
_space_group_symop_operation_xyz
x,y,z
1/2-x,1/2-y,z
x,1/2-y,-z
1/2-x,y,-z
-x,-y,-z
1/2+x,1/2+y,-z
-x,1/2+y,z
1/2+x,-y,z
loop_
_atom_site_type_symbol
_atom_site_label
_atom_site_fract_x
_atom_site_fract_y
_atom_site_fract_z
Si Si1 0.081995 0.195611 0.133091
Si Si2 0.604411 0.074331 0.959629
Si Si3 0.932607 0.710350 0.435200
Si Si4 0.954221 0.129555 0.637747
Si Si5 0.448390 0.637752 0.216909
Si Si6 0.741705 0.978026 0.427263
Si Si7 0.268090 0.013204 0.164018
O O1 0.250000 0.250000 0.119820
O O2 0.983976 0.264535 0.179181
O O3 0.129595 0.093904 0.163460
O O4 0.991417 0.161503 0.072042
O O5 0.680645 0.011491 0.904776
O O6 0.750000 0.111769 0.000000
O O7 0.500000 0.000000 0.000000
O O8 0.750000 0.750000 0.431653
O O9 0.992889 0.750000 0.500000
O O10 0.037105 0.761728 0.385334
O O11 0.906588 0.598096 0.427430
O O12 0.955525 0.138330 0.710281
O O13 0.107920 0.075676 0.605213
O O14 0.806191 0.070034 0.611697
O O15 0.288585 0.585178 0.194520
O O16 0.589199 0.565886 0.197396
O O17 0.750000 0.000134 0.500000
#
# Coordination Sequence:
#
# PCOD9397712 Si02
#       7
#     8   8   8   8   8   8   8
#     4  10  24  45  74 106 144 190 231 292 354 419
#     4  12  23  46  80 109 143 186 235 292 359 431
#     4   9  17  35  59  88 127 167 215 284 337 403
#     4  11  23  38  67  99 124 183 239 272 345 435
#     4  11  24  43  69  98 143 190 236 283 356 430
#     4  11  21  39  66  96 133 174 229 298 355 404
#     4  11  22  46  68  99 148 181 221 299 347 404
#
# _framework density 21.993555000000001
#
# number of rings (size 3 to 8) (size 9 to 14) (size 15 to 20)
#    0.000    1.286    5.714    1.286    0.000    6.857 
#    0.000   14.286    3.143    0.000    0.000    0.000 
#    0.000    0.000    0.000    0.000    0.000    0.000 
#
# Total GULP energy -312795.819289 kJ/mol
# GULP energy per Si atom -5585.639630 kJ/mol
# Density = 2.194350 g / cm^3
# Si number density = 21.993555 Si / 1000 Ang^3
#
#
#
# Elastic Constant Matrix: (Units=GPa)
#
#
# Indices 1 2 3 4 5 6 
#
# 1 50.9098 41.3164 39.7652 0.0000 0.0000 0.0000
# 2 41.3164 127.5200 69.8560 0.0000 0.0000 0.0000
# 3 39.7652 69.8560 170.3467 0.0000 0.0000 0.0000
# 4 0.0000 0.0000 0.0000 58.3168 0.0000 0.0000
# 5 0.0000 0.0000 0.0000 0.0000 -38.2234 0.0000
# 6 0.0000 0.0000 0.0000 0.0000 0.0000 40.7901
#
#
#
# Elastic Compliance Matrix: (Units=1/GPa)
#
#
# Indices 1 2 3 4 5 6 
#
# 1 0.028328 -0.007165 -0.003674 0.000000 0.000000 0.000000
# 2 -0.007165 0.011926 -0.003218 0.000000 0.000000 0.000000
# 3 -0.003674 -0.003218 0.008048 0.000000 0.000000 0.000000
# 4 0.000000 0.000000 0.000000 0.017148 0.000000 0.000000
# 5 0.000000 0.000000 0.000000 0.000000 -0.026162 0.000000
# 6 0.000000 0.000000 0.000000 0.000000 0.000000 0.024516
#
#
# Mechanical properties :
#
#
# Convention : Reuss Voigt Hill
#
# Bulk Modulus (GPa) = 49.53870 72.29465 60.91668
# Shear Modulus (GPa) = 50.68535 25.36594 38.02564
#
# Velocity S-wave (km/s) = 4.80579 3.39976 4.16257
# Velocity P-wave (km/s) = 7.30528 6.95366 7.13164
#
# Compressibility (1/GPa) = 0.02018624
#
# Stress axis : x y z
#
# Youngs Moduli (GPa) = 35.30113 83.84776 124.25736
#
# Poissons Ratio (x) = 0.60080 0.45657
# Poissons Ratio (y) = 0.25294 0.39988
# Poissons Ratio (z) = 0.12971 0.26983
#
# Static dielectric constant tensor:
#      x y z
#    x 1.874060 0.000000 0.000000 
#    y 0.000000 1.913720 0.000000 
#    z 0.000000 0.000000 1.878780 
# 
# From -- ./inp_files/30633.got.cif
#   From: 2010.05.17/outbox.cif.g08.bks.cpg/sg50_16_cif.got.tgz:30633.got - 2010.06.03 11:33:33.
