data_PCOD9397917
_publ_section_title
;
Structure prediction by ZEFSAII (Michael W. Deem and Ramdas Pophale) SiO2 
 PCOD9397917
Probable space group: P B A N
;
_chemical_formula_sum "Si O2"
_cell_formula_units_Z 64
_cell_length_a 29.884258
_cell_length_b 12.348838
_cell_length_c 8.504335
_cell_angle_alpha 90.000000
_cell_angle_beta 90.000000
_cell_angle_gamma 90.000000
_cell_volume 3138.404587
_symmetry_space_group_name_H-M "P B A N"
_symmetry_group_IT_number 50
_space_group.IT_coordinate_system_code '2'
_symmetry_cell_setting 'orthorhombic'
loop_
_space_group_symop_operation_xyz
x,y,z
1/2-x,1/2-y,z
x,1/2-y,-z
1/2-x,y,-z
-x,-y,-z
1/2+x,1/2+y,-z
-x,1/2+y,z
1/2+x,-y,z
loop_
_atom_site_type_symbol
_atom_site_label
_atom_site_fract_x
_atom_site_fract_y
_atom_site_fract_z
Si Si1 0.432258 0.534369 0.667665
Si Si2 0.662009 0.022816 0.822607
Si Si3 0.256478 0.373686 0.809249
Si Si4 0.327405 0.982441 0.803026
Si Si5 0.197975 0.748897 0.311767
Si Si6 0.002473 0.289858 0.681911
Si Si7 0.079845 0.468175 0.688614
Si Si8 0.507861 0.419068 0.852766
O O1 0.389235 0.507703 0.771686
O O2 0.454110 0.651776 0.688971
O O3 0.421126 0.511319 0.488109
O O4 0.474282 0.461883 0.717957
O O5 0.676722 0.138749 0.753281
O O6 0.695935 0.927858 0.767386
O O7 0.667861 0.023301 0.009536
O O8 0.250000 0.250000 0.754426
O O9 0.217710 0.455309 0.753926
O O10 0.250000 0.371315 0.000000
O O11 0.325469 0.859197 0.743717
O O12 0.369544 0.049047 0.738249
O O13 0.250000 0.750000 0.259990
O O14 0.196555 0.750000 0.500000
O O15 0.006079 0.250000 0.500000
O O16 0.045242 0.368699 0.703540
O O17 0.001878 0.207060 0.828595
O O18 0.058541 0.559642 0.800578
O O19 0.500000 0.500000 0.000000
#
# Coordination Sequence:
#
# PCOD9397917 Si02
#       8
#     8   8   8   8   8   8   8   8
#     4  11  23  39  63  95 127 171 220 273 334 408
#     4  11  23  40  65 100 130 169 223 280 336 401
#     4   9  20  41  65  90 129 175 215 270 334 393
#     4  11  23  41  65  96 133 169 224 278 336 400
#     4  11  23  40  65  93 131 172 216 275 339 404
#     4  11  21  43  69  89 130 184 221 272 347 411
#     4  11  23  40  64  95 131 174 220 270 337 413
#     4  11  23  42  64  94 128 164 222 283 330 398
#
# _framework density 20.392526
#
# number of rings (size 3 to 8) (size 9 to 14) (size 15 to 20)
#    0.000    1.250    3.750    2.625    1.750    4.000 
#    2.250    2.500    0.000    3.000    0.000    0.000 
#    0.000    0.000    0.000    0.000    0.000    0.000 
#
# Total GULP energy -357035.722050 kJ/mol
# GULP energy per Si atom -5578.683157 kJ/mol
# Density = 2.034611 g / cm^3
# Si number density = 20.392526 Si / 1000 Ang^3
#
#
#
# Elastic Constant Matrix: (Units=GPa)
#
#
# Indices 1 2 3 4 5 6 
#
# 1 82.3502 17.5319 0.0438 0.0000 0.0000 0.0000
# 2 17.5319 114.2705 19.4655 0.0000 0.0000 0.0000
# 3 0.0438 19.4655 65.2025 0.0000 0.0000 0.0000
# 4 0.0000 0.0000 0.0000 21.7070 0.0000 0.0000
# 5 0.0000 0.0000 0.0000 0.0000 29.3259 0.0000
# 6 0.0000 0.0000 0.0000 0.0000 0.0000 18.3226
#
#
#
# Elastic Compliance Matrix: (Units=1/GPa)
#
#
# Indices 1 2 3 4 5 6 
#
# 1 0.012575 -0.002031 0.000598 0.000000 0.000000 0.000000
# 2 -0.002031 0.009548 -0.002849 0.000000 0.000000 0.000000
# 3 0.000598 -0.002849 0.016187 0.000000 0.000000 0.000000
# 4 0.000000 0.000000 0.000000 0.046068 0.000000 0.000000
# 5 0.000000 0.000000 0.000000 0.000000 0.034100 0.000000
# 6 0.000000 0.000000 0.000000 0.000000 0.000000 0.054578
#
#
# Mechanical properties :
#
#
# Convention : Reuss Voigt Hill
#
# Bulk Modulus (GPa) = 33.61827 37.32283 35.47055
# Shear Modulus (GPa) = 26.10480 28.85657 27.48069
#
# Velocity S-wave (km/s) = 3.58175 3.76580 3.67493
# Velocity P-wave (km/s) = 5.79885 6.10330 5.95302
#
# Compressibility (1/GPa) = 0.02974573
#
# Stress axis : x y z
#
# Youngs Moduli (GPa) = 79.52051 104.73243 61.77793
#
# Poissons Ratio (x) = 0.21274 -0.03694
# Poissons Ratio (y) = 0.16152 0.17601
# Poissons Ratio (z) = -0.04755 0.29840
#
# Static dielectric constant tensor:
#      x y z
#    x 1.706430 0.000000 0.000000 
#    y 0.000000 1.666730 0.000000 
#    z 0.000000 0.000000 1.723390 
# 
# From -- ./inp_files/17099.got.cif
#   From: 2010.05.17/outbox.cif.g08.bks.cpg/sg50_9_cif.got.tgz:17099.got - 2010.06.03 11:33:33.
