data_PCOD9397744
_publ_section_title
;
Structure prediction by ZEFSAII (Michael W. Deem and Ramdas Pophale) SiO2 
 PCOD9397744
Probable space group: P B A N
;
_chemical_formula_sum "Si O2"
_cell_formula_units_Z 48
_cell_length_a 9.047680
_cell_length_b 20.558028
_cell_length_c 9.998062
_cell_angle_alpha 90.000000
_cell_angle_beta 90.000000
_cell_angle_gamma 90.000000
_cell_volume 1859.664115
_symmetry_space_group_name_H-M "P B A N"
_symmetry_group_IT_number 50
_space_group.IT_coordinate_system_code '2'
_symmetry_cell_setting 'orthorhombic'
loop_
_space_group_symop_operation_xyz
x,y,z
1/2-x,1/2-y,z
x,1/2-y,-z
1/2-x,y,-z
-x,-y,-z
1/2+x,1/2+y,-z
-x,1/2+y,z
1/2+x,-y,z
loop_
_atom_site_type_symbol
_atom_site_label
_atom_site_fract_x
_atom_site_fract_y
_atom_site_fract_z
Si Si1 0.407238 0.290478 0.383578
Si Si2 0.975330 0.064755 0.406481
Si Si3 0.954930 0.302163 0.903993
Si Si4 0.768587 0.096119 0.778807
Si Si5 0.582028 0.614887 0.115627
Si Si6 0.354252 0.041758 0.856783
O O1 0.250000 0.250000 0.371917
O O2 0.488335 0.250000 0.500000
O O3 0.430878 0.367361 0.428326
O O4 0.478657 0.283024 0.238041
O O5 0.029168 0.040672 0.261058
O O6 0.000000 0.000000 0.500000
O O7 0.692786 0.085993 0.633852
O O8 0.077098 0.172850 0.989894
O O9 0.835162 0.356176 0.862864
O O10 0.886749 0.250000 0.000000
O O11 0.775903 0.026685 0.848617
O O12 0.940324 0.118359 0.788853
O O13 0.735724 0.598232 0.184526
O O14 0.581190 0.558502 0.001272
#
# Coordination Sequence:
#
# PCOD9397744 Si02
#       6
#     8   8   8   8   8   8
#     4  10  24  49  80 113 167 222 289 352 437 522
#     4  11  26  51  78 117 162 226 288 353 434 528
#     4  11  26  45  76 117 157 211 275 347 434 514
#     4  11  24  45  72 109 163 208 261 341 429 507
#     4  11  24  41  75 113 163 196 264 347 433 495
#     4  11  24  42  74 120 155 205 272 349 427 501
#
# _framework density 25.811112000000001
#
# number of rings (size 3 to 8) (size 9 to 14) (size 15 to 20)
#    0.000    1.167    3.333    2.000    7.000    5.000 
#    3.000    0.833    0.000    0.000    0.000    4.667 
#    0.000    0.000    0.000    0.000    0.000    0.000 
#
# Total GULP energy -267626.040023 kJ/mol
# GULP energy per Si atom -5575.542500 kJ/mol
# Density = 2.575237 g / cm^3
# Si number density = 25.811112 Si / 1000 Ang^3
#
#
#
# Elastic Constant Matrix: (Units=GPa)
#
#
# Indices 1 2 3 4 5 6 
#
# 1 131.4033 33.9458 59.1634 0.0000 0.0000 0.0000
# 2 33.9458 171.8719 64.9401 0.0000 0.0000 0.0000
# 3 59.1634 64.9401 159.6676 0.0000 0.0000 0.0000
# 4 0.0000 0.0000 0.0000 50.9384 0.0000 0.0000
# 5 0.0000 0.0000 0.0000 0.0000 -13.4352 0.0000
# 6 0.0000 0.0000 0.0000 0.0000 0.0000 4.2215
#
#
#
# Elastic Compliance Matrix: (Units=1/GPa)
#
#
# Indices 1 2 3 4 5 6 
#
# 1 0.009190 -0.000624 -0.003151 0.000000 0.000000 0.000000
# 2 -0.000624 0.006917 -0.002582 0.000000 0.000000 0.000000
# 3 -0.003151 -0.002582 0.008481 0.000000 0.000000 0.000000
# 4 0.000000 0.000000 0.000000 0.019632 0.000000 0.000000
# 5 0.000000 0.000000 0.000000 0.000000 -0.074431 0.000000
# 6 0.000000 0.000000 0.000000 0.000000 0.000000 0.236882
#
#
# Mechanical properties :
#
#
# Convention : Reuss Voigt Hill
#
# Bulk Modulus (GPa) = 84.22641 86.56016 85.39329
# Shear Modulus (GPa) = 22.38698 28.67116 25.52907
#
# Velocity S-wave (km/s) = 2.94826 3.33649 3.14836
# Velocity P-wave (km/s) = 6.65525 6.96073 6.80970
#
# Compressibility (1/GPa) = 0.01187276
#
# Stress axis : x y z
#
# Youngs Moduli (GPa) = 108.80933 144.56724 117.91185
#
# Poissons Ratio (x) = 0.09027 0.37159
# Poissons Ratio (y) = 0.06794 0.30445
# Poissons Ratio (z) = 0.34291 0.37327
#
# Static dielectric constant tensor:
#      x y z
#    x 2.268550 0.000000 0.000000 
#    y 0.000000 0.942930 0.000000 
#    z 0.000000 0.000000 1.978750 
# 
# From -- ./inp_files/21219.got.cif
#   From: 2010.05.17/outbox.cif.g08.bks.cpg/sg50_11_cif.got.tgz:21219.got - 2010.06.03 11:33:33.
