data_PCOD9397876
_publ_section_title
;
Structure prediction by ZEFSAII (Michael W. Deem and Ramdas Pophale) SiO2 
 PCOD9397876
Probable space group: P B A N
;
_chemical_formula_sum "Si O2"
_cell_formula_units_Z 40
_cell_length_a 8.732116
_cell_length_b 23.246378
_cell_length_c 9.864058
_cell_angle_alpha 90.000000
_cell_angle_beta 90.000000
_cell_angle_gamma 90.000000
_cell_volume 2002.305817
_symmetry_space_group_name_H-M "P B A N"
_symmetry_group_IT_number 50
_space_group.IT_coordinate_system_code '2'
_symmetry_cell_setting 'orthorhombic'
loop_
_space_group_symop_operation_xyz
x,y,z
1/2-x,1/2-y,z
x,1/2-y,-z
1/2-x,y,-z
-x,-y,-z
1/2+x,1/2+y,-z
-x,1/2+y,z
1/2+x,-y,z
loop_
_atom_site_type_symbol
_atom_site_label
_atom_site_fract_x
_atom_site_fract_y
_atom_site_fract_z
Si Si1 0.057509 0.381425 0.779010
Si Si2 0.434019 0.185983 0.518284
Si Si3 0.394101 0.092866 0.289679
Si Si4 0.570963 0.437051 0.969783
Si Si5 0.623182 0.472695 0.401298
O O1 0.021211 0.331898 0.670367
O O2 0.242757 0.380288 0.778474
O O3 0.964763 0.433835 0.706159
O O4 0.001458 0.388615 0.931926
O O5 0.498438 0.250000 0.500000
O O6 0.250000 0.190207 0.500000
O O7 0.459481 0.133551 0.410294
O O8 0.527276 0.078944 0.183616
O O9 0.318855 0.031660 0.333576
O O10 0.750000 0.440106 0.000000
O O11 0.500000 0.500000 0.000000
O O12 0.750000 0.445242 0.500000
O O13 0.500000 0.500000 0.500000
#
# Coordination Sequence:
#
# PCOD9397876 Si02
#       5
#     8   8   8   8   8
#     4  11  22  37  59  87 120 155 194 242 292 351
#     4   9  19  38  65  91 114 147 199 252 291 334
#     4  11  21  38  58  88 120 153 194 243 292 352
#     4  12  26  38  56  85 124 162 195 235 295 359
#     4  12  21  32  54  88 119 153 190 238 295 353
#
# _framework density 19.976969
#
# number of rings (size 3 to 8) (size 9 to 14) (size 15 to 20)
#    0.000    1.000    6.000    2.400    2.800    0.000 
#    0.000    1.000    0.000   11.400    0.000    0.000 
#    0.000    0.000    0.000    0.000    0.000    0.000 
#
# Total GULP energy -222723.903127 kJ/mol
# GULP energy per Si atom -5568.097578 kJ/mol
# Density = 1.993150 g / cm^3
# Si number density = 19.976969 Si / 1000 Ang^3
#
#
#
# Elastic Constant Matrix: (Units=GPa)
#
#
# Indices 1 2 3 4 5 6 
#
# 1 84.3030 2.8721 11.9415 0.0000 0.0000 0.0000
# 2 2.8721 93.9568 24.8069 0.0000 0.0000 0.0000
# 3 11.9415 24.8069 71.4078 0.0000 0.0000 0.0000
# 4 0.0000 0.0000 0.0000 19.1997 0.0000 0.0000
# 5 0.0000 0.0000 0.0000 0.0000 37.7433 0.0000
# 6 0.0000 0.0000 0.0000 0.0000 0.0000 10.8948
#
#
#
# Elastic Compliance Matrix: (Units=1/GPa)
#
#
# Indices 1 2 3 4 5 6 
#
# 1 0.012153 0.000182 -0.002095 0.000000 0.000000 0.000000
# 2 0.000182 0.011721 -0.004102 0.000000 0.000000 0.000000
# 3 -0.002095 -0.004102 0.015780 0.000000 0.000000 0.000000
# 4 0.000000 0.000000 0.000000 0.052084 0.000000 0.000000
# 5 0.000000 0.000000 0.000000 0.000000 0.026495 0.000000
# 6 0.000000 0.000000 0.000000 0.000000 0.000000 0.091787
#
#
# Mechanical properties :
#
#
# Convention : Reuss Voigt Hill
#
# Bulk Modulus (GPa) = 36.20397 36.54538 36.37468
# Shear Modulus (GPa) = 21.62095 27.57071 24.59583
#
# Velocity S-wave (km/s) = 3.29339 3.71903 3.51267
# Velocity P-wave (km/s) = 5.71175 6.06425 5.89064
#
# Compressibility (1/GPa) = 0.02762128
#
# Stress axis : x y z
#
# Youngs Moduli (GPa) = 82.28692 85.31920 63.37310
#
# Poissons Ratio (x) = -0.01551 0.13279
# Poissons Ratio (y) = -0.01496 0.25996
# Poissons Ratio (z) = 0.17243 0.34999
#
# Static dielectric constant tensor:
#      x y z
#    x 1.793790 0.000000 0.000000 
#    y 0.000000 5.745870 0.000000 
#    z 0.000000 0.000000 1.805710 
# 
# From -- ./inp_files/9508.got.cif
#   From: 2010.05.17/outbox.cif.g08.bks.cpg/sg50_5_cif.got.tgz:9508.got - 2010.06.03 11:33:33.
