data_PCOD9397761
_publ_section_title
;
Structure prediction by ZEFSAII (Michael W. Deem and Ramdas Pophale) SiO2 
 PCOD9397761
Probable space group: P B A N
;
_chemical_formula_sum "Si O2"
_cell_formula_units_Z 32
_cell_length_a 8.906634
_cell_length_b 11.019527
_cell_length_c 14.170595
_cell_angle_alpha 90.000000
_cell_angle_beta 90.000000
_cell_angle_gamma 90.000000
_cell_volume 1390.799883
_symmetry_space_group_name_H-M "P B A N"
_symmetry_group_IT_number 50
_space_group.IT_coordinate_system_code '2'
_symmetry_cell_setting 'orthorhombic'
loop_
_space_group_symop_operation_xyz
x,y,z
1/2-x,1/2-y,z
x,1/2-y,-z
1/2-x,y,-z
-x,-y,-z
1/2+x,1/2+y,-z
-x,1/2+y,z
1/2+x,-y,z
loop_
_atom_site_type_symbol
_atom_site_label
_atom_site_fract_x
_atom_site_fract_y
_atom_site_fract_z
Si Si1 0.031846 0.160871 0.914173
Si Si2 0.078588 0.122746 0.462962
Si Si3 0.759865 0.044343 0.140066
Si Si4 0.041104 0.353300 0.759996
O O1 0.069260 0.226809 0.814602
O O2 0.855712 0.131977 0.911846
O O3 0.128884 0.039222 0.921204
O O4 0.066381 0.250000 0.000000
O O5 0.010559 0.250000 0.500000
O O6 0.250000 0.117335 0.500000
O O7 0.069908 0.138267 0.350428
O O8 0.000000 0.000000 0.500000
O O9 0.870467 0.112249 0.212231
O O10 0.648944 0.952783 0.193482
#
# Coordination Sequence:
#
# PCOD9397761 Si02
#       4
#     8   8   8   8
#     4  11  26  46  72 108 145 196 248 303 376 452
#     4  11  27  47  75 110 150 197 255 320 385 459
#     4  10  25  44  73 100 148 185 244 303 367 443
#     4  11  24  44  73 102 144 191 243 307 375 446
#
# _framework density 23.008341999999999
#
# number of rings (size 3 to 8) (size 9 to 14) (size 15 to 20)
#    0.000    1.250    0.000    3.000   14.000   10.500 
#    4.500    3.750    0.000    0.000    0.000    0.000 
#    0.000    0.000    0.000    0.000    0.000    0.000 
#
# Total GULP energy -179242.202716 kJ/mol
# GULP energy per Si atom -5601.318835 kJ/mol
# Density = 2.295597 g / cm^3
# Si number density = 23.008342 Si / 1000 Ang^3
#
#
#
# Elastic Constant Matrix: (Units=GPa)
#
#
# Indices 1 2 3 4 5 6 
#
# 1 129.6021 34.0341 47.1117 0.0000 0.0000 0.0000
# 2 34.0341 117.8077 54.4202 0.0000 0.0000 0.0000
# 3 47.1117 54.4202 170.3914 0.0000 0.0000 0.0000
# 4 0.0000 0.0000 0.0000 34.6246 0.0000 0.0000
# 5 0.0000 0.0000 0.0000 0.0000 24.2211 0.0000
# 6 0.0000 0.0000 0.0000 0.0000 0.0000 57.1594
#
#
#
# Elastic Compliance Matrix: (Units=1/GPa)
#
#
# Indices 1 2 3 4 5 6 
#
# 1 0.008851 -0.001673 -0.001913 0.000000 0.000000 0.000000
# 2 -0.001673 0.010274 -0.002819 0.000000 0.000000 0.000000
# 3 -0.001913 -0.002819 0.007298 0.000000 0.000000 0.000000
# 4 0.000000 0.000000 0.000000 0.028881 0.000000 0.000000
# 5 0.000000 0.000000 0.000000 0.000000 0.041286 0.000000
# 6 0.000000 0.000000 0.000000 0.000000 0.000000 0.017495
#
#
# Mechanical properties :
#
#
# Convention : Reuss Voigt Hill
#
# Bulk Modulus (GPa) = 73.45884 76.54812 75.00348
# Shear Modulus (GPa) = 38.04252 42.01670 40.02961
#
# Velocity S-wave (km/s) = 4.07064 4.27798 4.17560
# Velocity P-wave (km/s) = 7.35458 7.59891 7.47775
#
# Compressibility (1/GPa) = 0.01361307
#
# Stress axis : x y z
#
# Youngs Moduli (GPa) = 112.98624 97.33426 137.02560
#
# Poissons Ratio (x) = 0.16288 0.26209
# Poissons Ratio (y) = 0.18907 0.38623
# Poissons Ratio (z) = 0.21611 0.27435
#
# Static dielectric constant tensor:
#      x y z
#    x 1.869670 0.000000 0.000000 
#    y 0.000000 1.876570 0.000000 
#    z 0.000000 0.000000 1.838410 
# 
# From -- ./inp_files/24339.got.cif
#   From: 2010.05.17/outbox.cif.g08.bks.cpg/sg50_13_cif.got.tgz:24339.got - 2010.06.03 11:33:33.
