data_PCOD9397682
_publ_section_title
;
Structure prediction by ZEFSAII (Michael W. Deem and Ramdas Pophale) SiO2 
 PCOD9397682
Probable space group: P B A N
;
_chemical_formula_sum "Si O2"
_cell_formula_units_Z 58
_cell_length_a 19.045773
_cell_length_b 16.931538
_cell_length_c 9.324616
_cell_angle_alpha 90.000000
_cell_angle_beta 90.000000
_cell_angle_gamma 90.000000
_cell_volume 3006.948358
_symmetry_space_group_name_H-M "P B A N"
_symmetry_group_IT_number 50
_space_group.IT_coordinate_system_code '2'
_symmetry_cell_setting 'orthorhombic'
loop_
_space_group_symop_operation_xyz
x,y,z
1/2-x,1/2-y,z
x,1/2-y,-z
1/2-x,y,-z
-x,-y,-z
1/2+x,1/2+y,-z
-x,1/2+y,z
1/2+x,-y,z
loop_
_atom_site_type_symbol
_atom_site_label
_atom_site_fract_x
_atom_site_fract_y
_atom_site_fract_z
Si Si1 0.160009 0.632283 0.698257
Si Si2 0.474242 0.655894 0.485471
Si Si3 0.737788 0.995113 0.665981
Si Si4 0.590195 0.065145 0.745145
Si Si5 0.250000 0.750000 0.500000
Si Si6 0.573485 0.160982 0.036227
Si Si7 0.561455 0.881247 0.776913
Si Si8 0.782906 0.833944 0.159420
O O1 0.088297 0.621524 0.611243
O O2 0.199097 0.550088 0.716130
O O3 0.204469 0.693936 0.603757
O O4 0.138437 0.661918 0.854111
O O5 0.464017 0.750000 0.500000
O O6 0.461837 0.611262 0.635941
O O7 0.543109 0.643479 0.387577
O O8 0.750000 0.977405 0.500000
O O9 0.734923 0.912971 0.750958
O O10 0.668659 0.051002 0.682673
O O11 0.590382 0.111660 0.894429
O O12 0.568984 0.975284 0.772632
O O13 0.557812 0.250000 0.000000
O O14 0.504254 0.132888 0.119614
O O15 0.631696 0.837056 0.833283
O O16 0.750000 0.750000 0.212513
O O17 0.750000 0.843159 0.000000
#
# Coordination Sequence:
#
# PCOD9397682 Si02
#       8
#     8   8   8   8   2   8   8   8
#     4  11  23  38  64  96 134 184 212 269 322 396
#     4  11  21  42  66  97 135 171 220 266 326 397
#     4  11  23  42  67  98 136 174 229 266 326 397
#     4  11  22  43  65  96 134 175 215 276 325 394
#     4  12  20  40  66  88 142 188 228 256 332 384
#     4  11  26  41  63  99 135 168 227 269 328 406
#     4  10  24  44  67  97 124 172 222 271 342 393
#     4  10  25  49  73  96 128 172 221 286 348 395
#
# _framework density 19.288658000000002
#
# number of rings (size 3 to 8) (size 9 to 14) (size 15 to 20)
#    0.000    1.241    2.759    2.483    7.724    0.276 
#    4.966    0.000    0.000    0.000    0.000    0.000 
#    0.000    0.000    0.000    0.000    0.000    0.000 
#
# Total GULP energy -323558.661743 kJ/mol
# GULP energy per Si atom -5578.597616 kJ/mol
# Density = 1.924476 g / cm^3
# Si number density = 19.288658 Si / 1000 Ang^3
#
#
#
# Elastic Constant Matrix: (Units=GPa)
#
#
# Indices 1 2 3 4 5 6 
#
# 1 90.6028 46.4580 55.9786 0.0000 0.0000 0.0000
# 2 46.4580 96.2767 27.4474 0.0000 0.0000 0.0000
# 3 55.9786 27.4474 123.3115 0.0000 0.0000 0.0000
# 4 0.0000 0.0000 0.0000 55.1371 0.0000 0.0000
# 5 0.0000 0.0000 0.0000 0.0000 37.4369 0.0000
# 6 0.0000 0.0000 0.0000 0.0000 0.0000 217.0889
#
#
#
# Elastic Compliance Matrix: (Units=1/GPa)
#
#
# Indices 1 2 3 4 5 6 
#
# 1 0.019094 -0.007200 -0.007066 0.000000 0.000000 0.000000
# 2 -0.007200 0.013805 0.000196 0.000000 0.000000 0.000000
# 3 -0.007066 0.000196 0.011274 0.000000 0.000000 0.000000
# 4 0.000000 0.000000 0.000000 0.018137 0.000000 0.000000
# 5 0.000000 0.000000 0.000000 0.000000 0.026712 0.000000
# 6 0.000000 0.000000 0.000000 0.000000 0.000000 0.004606
#
#
# Mechanical properties :
#
#
# Convention : Reuss Voigt Hill
#
# Bulk Modulus (GPa) = 62.36868 63.32879 62.84873
# Shear Modulus (GPa) = 39.33554 73.95303 56.64429
#
# Velocity S-wave (km/s) = 4.52077 6.19866 5.42498
# Velocity P-wave (km/s) = 7.72363 9.17249 8.47906
#
# Compressibility (1/GPa) = 0.01603369
#
# Stress axis : x y z
#
# Youngs Moduli (GPa) = 52.37151 72.43681 88.70342
#
# Poissons Ratio (x) = 0.52152 0.62674
# Poissons Ratio (y) = 0.37705 -0.01734
# Poissons Ratio (z) = 0.37003 -0.01416
#
# Static dielectric constant tensor:
#      x y z
#    x 1.797510 0.000000 0.000000 
#    y 0.000000 1.649830 0.000000 
#    z 0.000000 0.000000 1.654570 
# 
# From -- ./inp_files/14473.got.cif
#   From: 2010.05.17/outbox.cif.g08.bks.cpg/sg50_8_cif.got.tgz:14473.got - 2010.06.03 11:33:33.
