data_PCOD9397539
_publ_section_title
;
Structure prediction by ZEFSAII (Michael W. Deem and Ramdas Pophale) SiO2 
 PCOD9397539
Probable space group: P B A N
;
_chemical_formula_sum "Si O2"
_cell_formula_units_Z 58
_cell_length_a 28.063792
_cell_length_b 11.841649
_cell_length_c 8.059309
_cell_angle_alpha 90.000000
_cell_angle_beta 90.000000
_cell_angle_gamma 90.000000
_cell_volume 2678.282256
_symmetry_space_group_name_H-M "P B A N"
_symmetry_group_IT_number 50
_space_group.IT_coordinate_system_code '2'
_symmetry_cell_setting 'orthorhombic'
loop_
_space_group_symop_operation_xyz
x,y,z
1/2-x,1/2-y,z
x,1/2-y,-z
1/2-x,y,-z
-x,-y,-z
1/2+x,1/2+y,-z
-x,1/2+y,z
1/2+x,-y,z
loop_
_atom_site_type_symbol
_atom_site_label
_atom_site_fract_x
_atom_site_fract_y
_atom_site_fract_z
Si Si1 0.391260 0.219894 0.811669
Si Si2 0.250000 0.750000 0.500000
Si Si3 0.042539 0.393913 0.318493
Si Si4 0.936307 0.174553 0.765119
Si Si5 0.108023 0.490531 0.593571
Si Si6 0.206505 0.313085 0.317687
Si Si7 0.685867 0.444125 0.333993
Si Si8 0.091344 0.908897 0.868068
O O1 0.432718 0.273205 0.701098
O O2 0.385708 0.091226 0.751415
O O3 0.343298 0.286869 0.768413
O O4 0.403147 0.250000 0.000000
O O5 0.284021 0.664389 0.606417
O O6 0.062617 0.447772 0.487467
O O7 0.065265 0.475417 0.178203
O O8 0.987377 0.375070 0.284356
O O9 0.933598 0.308618 0.763542
O O10 0.899419 0.119495 0.640888
O O11 0.919552 0.128465 0.944749
O O12 0.153590 0.495637 0.476577
O O13 0.250000 0.250000 0.232573
O O14 0.202306 0.250000 0.500000
O O15 0.218273 0.446090 0.300532
O O16 0.646658 0.415893 0.190630
#
# Coordination Sequence:
#
# PCOD9397539 Si02
#       8
#     8   2   8   8   8   8   8   8
#     4  12  24  40  67  96 136 174 215 280 343 401
#     4  12  24  40  74 110 120 176 248 284 344 412
#     4  11  23  41  63  96 133 178 231 272 323 397
#     4  11  24  39  66  95 133 185 223 270 327 404
#     4  11  23  42  64  98 134 178 221 282 337 389
#     4  11  21  42  70  97 128 168 214 275 345 407
#     4  11  23  43  69  97 134 173 225 288 335 411
#     4  10  23  43  63  93 141 174 222 276 340 396
#
# _framework density 21.655671999999999
#
# number of rings (size 3 to 8) (size 9 to 14) (size 15 to 20)
#    0.000    0.966    4.138    3.724    3.862    1.931 
#    4.966    0.000    0.000    6.621    0.000    0.000 
#    0.000    0.000    0.000    0.000    0.000    0.000 
#
# Total GULP energy -323684.377086 kJ/mol
# GULP energy per Si atom -5580.765122 kJ/mol
# Density = 2.160638 g / cm^3
# Si number density = 21.655672 Si / 1000 Ang^3
#
#
#
# Elastic Constant Matrix: (Units=GPa)
#
#
# Indices 1 2 3 4 5 6 
#
# 1 76.3512 34.4406 10.3195 0.0000 0.0000 0.0000
# 2 34.4406 122.8413 12.1581 0.0000 0.0000 0.0000
# 3 10.3195 12.1581 49.4642 0.0000 0.0000 0.0000
# 4 0.0000 0.0000 0.0000 30.1461 0.0000 0.0000
# 5 0.0000 0.0000 0.0000 0.0000 24.9958 0.0000
# 6 0.0000 0.0000 0.0000 0.0000 0.0000 16.0494
#
#
#
# Elastic Compliance Matrix: (Units=1/GPa)
#
#
# Indices 1 2 3 4 5 6 
#
# 1 0.015219 -0.004051 -0.002179 0.000000 0.000000 0.000000
# 2 -0.004051 0.009422 -0.001471 0.000000 0.000000 0.000000
# 3 -0.002179 -0.001471 0.021033 0.000000 0.000000 0.000000
# 4 0.000000 0.000000 0.000000 0.033172 0.000000 0.000000
# 5 0.000000 0.000000 0.000000 0.000000 0.040007 0.000000
# 6 0.000000 0.000000 0.000000 0.000000 0.000000 0.062308
#
#
# Mechanical properties :
#
#
# Convention : Reuss Voigt Hill
#
# Bulk Modulus (GPa) = 33.03437 40.27701 36.65569
# Shear Modulus (GPa) = 24.19509 27.02083 25.60796
#
# Velocity S-wave (km/s) = 3.34618 3.53618 3.44249
# Velocity P-wave (km/s) = 5.49697 5.94239 5.72401
#
# Compressibility (1/GPa) = 0.03027150
#
# Stress axis : x y z
#
# Youngs Moduli (GPa) = 65.70561 106.13466 47.54479
#
# Poissons Ratio (x) = 0.42998 0.10362
# Poissons Ratio (y) = 0.26619 0.06992
# Poissons Ratio (z) = 0.14320 0.15609
#
# Static dielectric constant tensor:
#      x y z
#    x 1.793120 0.000000 0.000000 
#    y 0.000000 1.813550 0.000000 
#    z 0.000000 0.000000 1.853820 
# 
# From -- ./inp_files/16550.got.cif
#   From: 2010.05.17/outbox.cif.g08.bks.cpg/sg50_9_cif.got.tgz:16550.got - 2010.06.03 11:33:33.
