data_PCOD9397242
_publ_section_title
;
Structure prediction by ZEFSAII (Michael W. Deem and Ramdas Pophale) SiO2 
 PCOD9397242
Probable space group: P B A N
;
_chemical_formula_sum "Si O2"
_cell_formula_units_Z 44
_cell_length_a 18.315624
_cell_length_b 8.295909
_cell_length_c 14.691375
_cell_angle_alpha 90.000000
_cell_angle_beta 90.000000
_cell_angle_gamma 90.000000
_cell_volume 2232.277301
_symmetry_space_group_name_H-M "P B A N"
_symmetry_group_IT_number 50
_space_group.IT_coordinate_system_code '2'
_symmetry_cell_setting 'orthorhombic'
loop_
_space_group_symop_operation_xyz
x,y,z
1/2-x,1/2-y,z
x,1/2-y,-z
1/2-x,y,-z
-x,-y,-z
1/2+x,1/2+y,-z
-x,1/2+y,z
1/2+x,-y,z
loop_
_atom_site_type_symbol
_atom_site_label
_atom_site_fract_x
_atom_site_fract_y
_atom_site_fract_z
Si Si1 0.554588 0.496223 0.632665
Si Si2 0.286402 0.420963 0.097569
Si Si3 0.820720 0.172719 0.746349
Si Si4 0.015217 0.250000 0.500000
Si Si5 0.061258 0.945895 0.787038
Si Si6 0.940806 0.762721 0.901040
O O1 0.624886 0.443425 0.690033
O O2 0.537483 0.369335 0.554048
O O3 0.561847 0.662293 0.577909
O O4 0.481323 0.501689 0.695199
O O5 0.250000 0.250000 0.128822
O O6 0.288703 0.566237 0.169777
O O7 0.370519 0.373101 0.083036
O O8 0.250000 0.461889 0.000000
O O9 0.750000 0.250000 0.697887
O O10 0.872241 0.323638 0.773050
O O11 0.998169 0.847123 0.836876
O O12 0.080831 0.096977 0.851057
O O13 0.976473 0.750000 0.000000
#
# Coordination Sequence:
#
# PCOD9397242 Si02
#       6
#     8   8   8   4   8   8
#     4  11  21  44  73 107 138 179 225 297 358 438
#     4  11  23  44  62  91 141 189 235 291 355 411
#     4  12  26  44  68 103 138 190 234 293 363 433
#     4  10  22  40  79 109 134 170 236 286 364 438
#     4  12  23  43  69 101 139 183 240 290 359 424
#     4  12  22  39  64  94 133 186 243 296 334 414
#
# _framework density 19.710811
#
# number of rings (size 3 to 8) (size 9 to 14) (size 15 to 20)
#    0.000    0.545    7.273    1.636    0.000    0.364 
#    0.000    0.455    0.000    1.091    0.000    0.000 
#    0.000    0.000    0.000    0.000    0.000    0.000 
#
# Total GULP energy -245586.674088 kJ/mol
# GULP energy per Si atom -5581.515320 kJ/mol
# Density = 1.966595 g / cm^3
# Si number density = 19.710811 Si / 1000 Ang^3
#
#
#
# Elastic Constant Matrix: (Units=GPa)
#
#
# Indices 1 2 3 4 5 6 
#
# 1 115.3440 30.8277 27.3514 0.0000 0.0000 0.0000
# 2 30.8277 66.8900 40.1274 0.0000 0.0000 0.0000
# 3 27.3514 40.1274 87.7019 0.0000 0.0000 0.0000
# 4 0.0000 0.0000 0.0000 71.9351 0.0000 0.0000
# 5 0.0000 0.0000 0.0000 0.0000 -0.5199 0.0000
# 6 0.0000 0.0000 0.0000 0.0000 0.0000 24.2813
#
#
#
# Elastic Compliance Matrix: (Units=1/GPa)
#
#
# Indices 1 2 3 4 5 6 
#
# 1 0.010010 -0.003777 -0.001393 0.000000 0.000000 0.000000
# 2 -0.003777 0.022031 -0.008902 0.000000 0.000000 0.000000
# 3 -0.001393 -0.008902 0.015910 0.000000 0.000000 0.000000
# 4 0.000000 0.000000 0.000000 0.013901 0.000000 0.000000
# 5 0.000000 0.000000 0.000000 0.000000 -1.923500 0.000000
# 6 0.000000 0.000000 0.000000 0.000000 0.000000 0.041184
#
#
# Mechanical properties :
#
#
# Convention : Reuss Voigt Hill
#
# Bulk Modulus (GPa) = 50.49222 51.83877 51.16549
# Shear Modulus (GPa) = -2.80000 30.58125 13.89063
#
# Velocity S-wave (km/s) = -1.19316 3.94318 2.65754
# Velocity P-wave (km/s) = 4.87585 6.86209 5.95240
#
# Compressibility (1/GPa) = 0.01980503
#
# Stress axis : x y z
#
# Youngs Moduli (GPa) = 99.90324 45.39018 62.85368
#
# Poissons Ratio (x) = 0.17145 0.08758
# Poissons Ratio (y) = 0.37736 0.55954
# Poissons Ratio (z) = 0.13921 0.40407
#
# Static dielectric constant tensor:
#      x y z
#    x 1.674750 0.000000 0.000000 
#    y 0.000000 1.788170 0.000000 
#    z 0.000000 0.000000 1.763060 
# 
# From -- ./inp_files/24916.got.cif
#   From: 2010.05.17/outbox.cif.g08.bks.cpg/sg50_13_cif.got.tgz:24916.got - 2010.06.03 11:33:33.
