data_PCOD9397878
_publ_section_title
;
Structure prediction by ZEFSAII (Michael W. Deem and Ramdas Pophale) SiO2 
 PCOD9397878
Probable space group: P B A N
;
_chemical_formula_sum "Si O2"
_cell_formula_units_Z 58
_cell_length_a 11.283684
_cell_length_b 30.873342
_cell_length_c 9.148018
_cell_angle_alpha 90.000000
_cell_angle_beta 90.000000
_cell_angle_gamma 90.000000
_cell_volume 3186.849612
_symmetry_space_group_name_H-M "P B A N"
_symmetry_group_IT_number 50
_space_group.IT_coordinate_system_code '2'
_symmetry_cell_setting 'orthorhombic'
loop_
_space_group_symop_operation_xyz
x,y,z
1/2-x,1/2-y,z
x,1/2-y,-z
1/2-x,y,-z
-x,-y,-z
1/2+x,1/2+y,-z
-x,1/2+y,z
1/2+x,-y,z
loop_
_atom_site_type_symbol
_atom_site_label
_atom_site_fract_x
_atom_site_fract_y
_atom_site_fract_z
Si Si1 0.747315 0.612547 0.328218
Si Si2 0.395146 0.797576 0.665581
Si Si3 0.254838 0.023539 0.177526
Si Si4 0.612299 0.304153 0.335652
Si Si5 0.986108 0.026519 0.150296
Si Si6 0.902831 0.825320 0.139306
Si Si7 0.022863 0.373100 0.851070
Si Si8 0.750000 0.750000 0.000000
O O1 0.750000 0.607654 0.500000
O O2 0.706624 0.568836 0.247587
O O3 0.668802 0.651395 0.267436
O O4 0.878654 0.621568 0.272425
O O5 0.422551 0.746285 0.679474
O O6 0.254601 0.804030 0.674192
O O7 0.426703 0.814662 0.502672
O O8 0.466777 0.818681 0.796261
O O9 0.115851 0.017245 0.225027
O O10 0.360303 0.989901 0.215663
O O11 0.250000 0.027126 0.000000
O O12 0.563911 0.336684 0.213899
O O13 0.975743 0.078190 0.124076
O O14 0.000000 0.000000 0.000000
O O15 0.913740 0.855113 0.996056
O O16 0.834653 0.781545 0.093974
#
# Coordination Sequence:
#
# PCOD9397878 Si02
#       8
#     8   8   8   8   8   8   8   2
#     4  11  22  38  60  82 113 159 196 237 299 361
#     4   9  20  37  62  79 120 160 192 243 294 356
#     4   9  18  37  60  84 112 150 194 237 301 353
#     4   9  19  40  58  85 114 160 201 234 296 353
#     4   9  18  35  59  85 113 154 189 244 300 358
#     4  12  22  38  55  88 115 153 195 248 296 339
#     4  11  21  38  61  85 123 151 201 250 293 355
#     4  12  24  36  58  86 128 148 198 260 298 336
#
# _framework density 18.199793
#
# number of rings (size 3 to 8) (size 9 to 14) (size 15 to 20)
#    0.000    1.931    1.379    4.966    0.000    0.552 
#    9.931    4.138    3.034    0.000    0.000    0.000 
#    0.000    0.000    0.000    0.000    0.000    0.000 
#
# Total GULP energy -323039.934807 kJ/mol
# GULP energy per Si atom -5569.654048 kJ/mol
# Density = 1.815837 g / cm^3
# Si number density = 18.199793 Si / 1000 Ang^3
#
#
#
# Elastic Constant Matrix: (Units=GPa)
#
#
# Indices 1 2 3 4 5 6 
#
# 1 61.5649 41.3413 26.2924 0.0000 0.0000 0.0000
# 2 41.3413 89.6695 22.0961 0.0000 0.0000 0.0000
# 3 26.2924 22.0961 63.7161 0.0000 0.0000 0.0000
# 4 0.0000 0.0000 0.0000 17.5976 0.0000 0.0000
# 5 0.0000 0.0000 0.0000 0.0000 29.5772 0.0000
# 6 0.0000 0.0000 0.0000 0.0000 0.0000 33.4683
#
#
#
# Elastic Compliance Matrix: (Units=1/GPa)
#
#
# Indices 1 2 3 4 5 6 
#
# 1 0.026279 -0.010326 -0.007263 0.000000 0.000000 0.000000
# 2 -0.010326 0.016251 -0.001375 0.000000 0.000000 0.000000
# 3 -0.007263 -0.001375 0.019168 0.000000 0.000000 0.000000
# 4 0.000000 0.000000 0.000000 0.056826 0.000000 0.000000
# 5 0.000000 0.000000 0.000000 0.000000 0.033810 0.000000
# 6 0.000000 0.000000 0.000000 0.000000 0.000000 0.029879
#
#
# Mechanical properties :
#
#
# Convention : Reuss Voigt Hill
#
# Bulk Modulus (GPa) = 42.06767 43.82335 42.94551
# Shear Modulus (GPa) = 21.92361 24.47666 23.20013
#
# Velocity S-wave (km/s) = 3.47451 3.67125 3.57423
# Velocity P-wave (km/s) = 6.26585 6.48861 6.37820
#
# Compressibility (1/GPa) = 0.02377122
#
# Stress axis : x y z
#
# Youngs Moduli (GPa) = 38.05366 61.53281 52.16894
#
# Poissons Ratio (x) = 0.63538 0.37890
# Poissons Ratio (y) = 0.39294 0.07173
# Poissons Ratio (z) = 0.27638 0.08460
#
# Static dielectric constant tensor:
#      x y z
#    x 1.677900 0.000000 0.000000 
#    y 0.000000 1.639190 0.000000 
#    z 0.000000 0.000000 1.620040 
# 
# From -- ./inp_files/11758.got.cif
#   From: 2010.05.17/outbox.cif.g08.bks.cpg/sg50_6_cif.got.tgz:11758.got - 2010.06.03 11:33:33.
