data_PCOD9397314
_publ_section_title
;
Structure prediction by ZEFSAII (Michael W. Deem and Ramdas Pophale) SiO2 
 PCOD9397314
Probable space group: P B A N
;
_chemical_formula_sum "Si O2"
_cell_formula_units_Z 58
_cell_length_a 10.313886
_cell_length_b 15.141838
_cell_length_c 19.318152
_cell_angle_alpha 90.000000
_cell_angle_beta 90.000000
_cell_angle_gamma 90.000000
_cell_volume 3016.938805
_symmetry_space_group_name_H-M "P B A N"
_symmetry_group_IT_number 50
_space_group.IT_coordinate_system_code '2'
_symmetry_cell_setting 'orthorhombic'
loop_
_space_group_symop_operation_xyz
x,y,z
1/2-x,1/2-y,z
x,1/2-y,-z
1/2-x,y,-z
-x,-y,-z
1/2+x,1/2+y,-z
-x,1/2+y,z
1/2+x,-y,z
loop_
_atom_site_type_symbol
_atom_site_label
_atom_site_fract_x
_atom_site_fract_y
_atom_site_fract_z
Si Si1 0.801862 0.530060 0.307174
Si Si2 0.417367 0.065647 0.197023
Si Si3 0.589659 0.353806 0.616194
Si Si4 0.897596 0.279044 0.238885
Si Si5 0.250000 0.750000 0.500000
Si Si6 0.711450 0.647279 0.424421
Si Si7 0.027148 0.106382 0.182351
Si Si8 0.757246 0.644962 0.077877
O O1 0.664317 0.547311 0.267563
O O2 0.838234 0.437624 0.345757
O O3 0.799783 0.600177 0.368152
O O4 0.900018 0.558283 0.246577
O O5 0.544401 0.126548 0.212860
O O6 0.345988 0.118579 0.136375
O O7 0.421642 0.966916 0.166689
O O8 0.587419 0.282460 0.678240
O O9 0.665589 0.312856 0.550840
O O10 0.440522 0.369520 0.592623
O O11 0.750000 0.250000 0.222646
O O12 0.983683 0.201383 0.207535
O O13 0.750000 0.750000 0.422552
O O14 0.750000 0.612909 0.500000
O O15 0.111072 0.116426 0.114359
O O16 0.750000 0.750000 0.072798
O O17 0.750000 0.608404 0.000000
#
# Coordination Sequence:
#
# PCOD9397314 Si02
#       8
#     8   8   8   8   2   8   8   8
#     4  11  23  40  67  95 123 162 224 285 327 392
#     4  11  23  42  66 102 133 170 231 271 335 397
#     4  12  25  45  62  93 129 169 223 280 334 412
#     4  12  23  41  66  97 133 171 216 284 329 392
#     4  12  28  44  66  88 138 176 218 266 372 396
#     4  11  24  43  62  88 125 170 218 270 342 411
#     4  11  23  38  70  97 130 173 217 277 327 384
#     4  10  22  42  69  99 135 178 218 267 329 403
#
# _framework density 19.224786000000002
#
# number of rings (size 3 to 8) (size 9 to 14) (size 15 to 20)
#    0.000    0.828    4.828    2.483    2.897    1.103 
#    2.483    0.000    0.000    0.828    0.000    0.000 
#    0.000    0.000    0.000    0.000    0.000    0.000 
#
# Total GULP energy -323017.393329 kJ/mol
# GULP energy per Si atom -5569.265402 kJ/mol
# Density = 1.918103 g / cm^3
# Si number density = 19.224786 Si / 1000 Ang^3
#
#
#
# Elastic Constant Matrix: (Units=GPa)
#
#
# Indices 1 2 3 4 5 6 
#
# 1 53.9115 17.5859 34.5405 0.0000 0.0000 0.0000
# 2 17.5859 87.6333 48.7452 0.0000 0.0000 0.0000
# 3 34.5405 48.7452 150.1533 0.0000 0.0000 0.0000
# 4 0.0000 0.0000 0.0000 35.6940 0.0000 0.0000
# 5 0.0000 0.0000 0.0000 0.0000 9.6153 0.0000
# 6 0.0000 0.0000 0.0000 0.0000 0.0000 18.0701
#
#
#
# Elastic Compliance Matrix: (Units=1/GPa)
#
#
# Indices 1 2 3 4 5 6 
#
# 1 0.022026 -0.001955 -0.004432 0.000000 0.000000 0.000000
# 2 -0.001955 0.014099 -0.004127 0.000000 0.000000 0.000000
# 3 -0.004432 -0.004127 0.009019 0.000000 0.000000 0.000000
# 4 0.000000 0.000000 0.000000 0.028016 0.000000 0.000000
# 5 0.000000 0.000000 0.000000 0.000000 0.104001 0.000000
# 6 0.000000 0.000000 0.000000 0.000000 0.000000 0.055340
#
#
# Mechanical properties :
#
#
# Convention : Reuss Voigt Hill
#
# Bulk Modulus (GPa) = 41.46629 54.82682 48.14655
# Shear Modulus (GPa) = 19.11540 25.39767 22.25654
#
# Velocity S-wave (km/s) = 3.15669 3.63862 3.40619
# Velocity P-wave (km/s) = 5.90781 6.79952 6.36929
#
# Compressibility (1/GPa) = 0.02411597
#
# Stress axis : x y z
#
# Youngs Moduli (GPa) = 45.40046 70.92537 110.87277
#
# Poissons Ratio (x) = 0.13864 0.49141
# Poissons Ratio (y) = 0.08875 0.45763
# Poissons Ratio (z) = 0.20122 0.29274
#
# Static dielectric constant tensor:
#      x y z
#    x 1.758740 0.000000 0.000000 
#    y 0.000000 1.665880 0.000000 
#    z 0.000000 0.000000 1.675390 
# 
# From -- ./inp_files/29225.got.cif
#   From: 2010.05.17/outbox.cif.g08.bks.cpg/sg50_15_cif.got.tgz:29225.got - 2010.06.03 11:33:33.
