data_PCOD9397366
_publ_section_title
;
Structure prediction by ZEFSAII (Michael W. Deem and Ramdas Pophale) SiO2 
 PCOD9397366
Probable space group: P B A N
;
_chemical_formula_sum "Si O2"
_cell_formula_units_Z 22
_cell_length_a 23.052542
_cell_length_b 5.190042
_cell_length_c 7.932599
_cell_angle_alpha 90.000000
_cell_angle_beta 90.000000
_cell_angle_gamma 90.000000
_cell_volume 949.085187
_symmetry_space_group_name_H-M "P B A N"
_symmetry_group_IT_number 50
_space_group.IT_coordinate_system_code '2'
_symmetry_cell_setting 'orthorhombic'
loop_
_space_group_symop_operation_xyz
x,y,z
1/2-x,1/2-y,z
x,1/2-y,-z
1/2-x,y,-z
-x,-y,-z
1/2+x,1/2+y,-z
-x,1/2+y,z
1/2+x,-y,z
loop_
_atom_site_type_symbol
_atom_site_label
_atom_site_fract_x
_atom_site_fract_y
_atom_site_fract_z
Si Si1 0.538228 0.094589 0.705857
Si Si2 0.650396 0.927501 0.841540
Si Si3 0.390345 0.250000 0.500000
Si Si4 0.750000 0.250000 0.000000
O O1 0.496322 0.329948 0.744505
O O2 0.596681 0.119626 0.813628
O O3 0.566560 0.995188 0.524314
O O4 0.647658 0.760457 0.668735
O O5 0.709207 0.075554 0.882262
O O6 0.638300 0.750000 0.000000
#
# Coordination Sequence:
#
# PCOD9397366 Si02
#       4
#     8   8   4   2
#     4  10  22  43  76 115 152 183 236 311 384 463
#     4  10  25  45  73 100 148 192 251 303 375 438
#     4   8  22  44  73 108 142 195 232 302 384 452
#     4  12  26  52  66 102 148 206 266 330 336 452
#
# _framework density 23.180216000000001
#
# number of rings (size 3 to 8) (size 9 to 14) (size 15 to 20)
#    2.182    0.000    0.000    1.636    5.091    1.455 
#    6.545    5.455    0.000    0.000    0.000    0.000 
#    0.000    0.000    0.000    0.000    0.000    0.000 
#
# Total GULP energy -122572.562797 kJ/mol
# GULP energy per Si atom -5571.480127 kJ/mol
# Density = 2.312746 g / cm^3
# Si number density = 23.180216 Si / 1000 Ang^3
#
#
#
# Elastic Constant Matrix: (Units=GPa)
#
#
# Indices 1 2 3 4 5 6 
#
# 1 162.7369 49.6072 52.3493 0.0000 0.0000 0.0000
# 2 49.6072 97.7224 18.5691 0.0000 0.0000 0.0000
# 3 52.3493 18.5691 134.1430 0.0000 0.0000 0.0000
# 4 0.0000 0.0000 0.0000 13.6906 0.0000 0.0000
# 5 0.0000 0.0000 0.0000 0.0000 30.9011 0.0000
# 6 0.0000 0.0000 0.0000 0.0000 0.0000 38.7864
#
#
#
# Elastic Compliance Matrix: (Units=1/GPa)
#
#
# Indices 1 2 3 4 5 6 
#
# 1 0.008101 -0.003606 -0.002662 0.000000 0.000000 0.000000
# 2 -0.003606 0.012115 -0.000270 0.000000 0.000000 0.000000
# 3 -0.002662 -0.000270 0.008531 0.000000 0.000000 0.000000
# 4 0.000000 0.000000 0.000000 0.073043 0.000000 0.000000
# 5 0.000000 0.000000 0.000000 0.000000 0.032361 0.000000
# 6 0.000000 0.000000 0.000000 0.000000 0.000000 0.025782
#
#
# Mechanical properties :
#
#
# Convention : Reuss Voigt Hill
#
# Bulk Modulus (GPa) = 63.81441 70.62817 67.22129
# Shear Modulus (GPa) = 28.05334 34.94742 31.50038
#
# Velocity S-wave (km/s) = 3.48261 3.88705 3.69037
# Velocity P-wave (km/s) = 6.61520 7.11905 6.87174
#
# Compressibility (1/GPa) = 0.01567044
#
# Stress axis : x y z
#
# Youngs Moduli (GPa) = 123.44909 82.54247 117.22068
#
# Poissons Ratio (x) = 0.29767 0.31204
# Poissons Ratio (y) = 0.44519 0.03161
# Poissons Ratio (z) = 0.32862 0.02226
#
# Static dielectric constant tensor:
#      x y z
#    x 1.875800 0.000000 0.000000 
#    y 0.000000 1.948180 0.000000 
#    z 0.000000 0.000000 2.025460 
# 
# From -- ./inp_files/15633.got.cif
#   From: 2010.05.17/outbox.cif.g08.bks.cpg/sg50_8_cif.got.tgz:15633.got - 2010.06.03 11:33:33.
