data_PCOD9397774
_publ_section_title
;
Structure prediction by ZEFSAII (Michael W. Deem and Ramdas Pophale) SiO2 
 PCOD9397774
Probable space group: P B A N
;
_chemical_formula_sum "Si O2"
_cell_formula_units_Z 58
_cell_length_a 14.540629
_cell_length_b 7.563139
_cell_length_c 24.008575
_cell_angle_alpha 90.000000
_cell_angle_beta 90.000000
_cell_angle_gamma 90.000000
_cell_volume 2640.290175
_symmetry_space_group_name_H-M "P B A N"
_symmetry_group_IT_number 50
_space_group.IT_coordinate_system_code '2'
_symmetry_cell_setting 'orthorhombic'
loop_
_space_group_symop_operation_xyz
x,y,z
1/2-x,1/2-y,z
x,1/2-y,-z
1/2-x,y,-z
-x,-y,-z
1/2+x,1/2+y,-z
-x,1/2+y,z
1/2+x,-y,z
loop_
_atom_site_type_symbol
_atom_site_label
_atom_site_fract_x
_atom_site_fract_y
_atom_site_fract_z
Si Si1 0.280631 0.542826 0.912532
Si Si2 0.926513 0.415593 0.815897
Si Si3 0.944152 0.877629 0.542567
Si Si4 0.132972 0.987305 0.178161
Si Si5 0.887293 0.897268 0.301766
Si Si6 0.250000 0.250000 0.000000
Si Si7 0.438972 0.860471 0.626090
Si Si8 0.312364 0.010517 0.702289
O O1 0.250000 0.750000 0.927855
O O2 0.367000 0.531372 0.870135
O O3 0.191580 0.484765 0.876915
O O4 0.298773 0.396216 0.959984
O O5 0.894128 0.214956 0.809907
O O6 0.908297 0.530349 0.760201
O O7 0.036230 0.413763 0.824370
O O8 0.891773 0.750000 0.500000
O O9 0.110578 0.498099 0.585409
O O10 0.000000 0.000000 0.500000
O O11 0.017776 0.776994 0.582333
O O12 0.197514 0.020831 0.231060
O O13 0.788985 0.969099 0.321439
O O14 0.874575 0.685636 0.305336
O O15 0.971616 0.937240 0.342067
O O16 0.366765 0.843845 0.676692
#
# Coordination Sequence:
#
# PCOD9397774 Si02
#       8
#     8   8   8   8   8   2   8   8
#     4  10  25  47  69 100 135 177 225 277 330 390
#     4  11  23  39  64  95 136 173 208 264 329 405
#     4   9  20  38  63  84 113 165 221 258 318 380
#     4  11  23  39  64  95 136 173 209 262 330 403
#     4  11  23  36  58  95 134 166 207 257 331 411
#     4  12  26  44  84  90 128 182 238 276 326 374
#     4  11  20  38  60  92 123 164 209 272 323 376
#     4  11  23  36  58  95 134 166 207 256 329 411
#
# _framework density 21.967282999999998
#
# number of rings (size 3 to 8) (size 9 to 14) (size 15 to 20)
#    0.000    1.379    4.138    1.034    5.793    0.000 
#    0.000    0.690    0.000   12.414    0.000    0.000 
#    0.000    0.000    0.000    0.000    0.000    0.000 
#
# Total GULP energy -323021.596970 kJ/mol
# GULP energy per Si atom -5569.337879 kJ/mol
# Density = 2.191728 g / cm^3
# Si number density = 21.967283 Si / 1000 Ang^3
#
#
#
# Elastic Constant Matrix: (Units=GPa)
#
#
# Indices 1 2 3 4 5 6 
#
# 1 83.6755 8.5629 12.7321 0.0000 0.0000 0.0000
# 2 8.5629 61.6725 38.5393 0.0000 0.0000 0.0000
# 3 12.7321 38.5393 103.3368 0.0000 0.0000 0.0000
# 4 0.0000 0.0000 0.0000 51.9568 0.0000 0.0000
# 5 0.0000 0.0000 0.0000 0.0000 2.1087 0.0000
# 6 0.0000 0.0000 0.0000 0.0000 0.0000 -27.2834
#
#
#
# Elastic Compliance Matrix: (Units=1/GPa)
#
#
# Indices 1 2 3 4 5 6 
#
# 1 0.012225 -0.000986 -0.001139 0.000000 0.000000 0.000000
# 2 -0.000986 0.021221 -0.007793 0.000000 0.000000 0.000000
# 3 -0.001139 -0.007793 0.012724 0.000000 0.000000 0.000000
# 4 0.000000 0.000000 0.000000 0.019247 0.000000 0.000000
# 5 0.000000 0.000000 0.000000 0.000000 0.474226 0.000000
# 6 0.000000 0.000000 0.000000 0.000000 0.000000 -0.036652
#
#
# Mechanical properties :
#
#
# Convention : Reuss Voigt Hill
#
# Bulk Modulus (GPa) = 37.97181 40.92815 39.44998
# Shear Modulus (GPa) = 9.40549 17.94645 13.67597
#
# Velocity S-wave (km/s) = 2.07145 2.86136 2.49782
# Velocity P-wave (km/s) = 4.80045 5.43952 5.12994
#
# Compressibility (1/GPa) = 0.02633532
#
# Stress axis : x y z
#
# Youngs Moduli (GPa) = 81.79912 47.12210 78.59298
#
# Poissons Ratio (x) = 0.04646 0.08948
# Poissons Ratio (y) = 0.08064 0.61248
# Poissons Ratio (z) = 0.09313 0.36722
#
# Static dielectric constant tensor:
#      x y z
#    x 1.775780 0.000000 0.000000 
#    y 0.000000 1.971760 0.000000 
#    z 0.000000 0.000000 1.841880 
# 
# From -- ./inp_files/31760.got.cif
#   From: 2010.05.17/outbox.cif.g08.bks.cpg/sg50_16_cif.got.tgz:31760.got - 2010.06.03 11:33:33.
