data_PCOD9397610
_publ_section_title
;
Structure prediction by ZEFSAII (Michael W. Deem and Ramdas Pophale) SiO2 
 PCOD9397610
Probable space group: P B A N
;
_chemical_formula_sum "Si O2"
_cell_formula_units_Z 24
_cell_length_a 10.673931
_cell_length_b 9.168230
_cell_length_c 9.919903
_cell_angle_alpha 90.000000
_cell_angle_beta 90.000000
_cell_angle_gamma 90.000000
_cell_volume 970.772167
_symmetry_space_group_name_H-M "P B A N"
_symmetry_group_IT_number 50
_space_group.IT_coordinate_system_code '2'
_symmetry_cell_setting 'orthorhombic'
loop_
_space_group_symop_operation_xyz
x,y,z
1/2-x,1/2-y,z
x,1/2-y,-z
1/2-x,y,-z
-x,-y,-z
1/2+x,1/2+y,-z
-x,1/2+y,z
1/2+x,-y,z
loop_
_atom_site_type_symbol
_atom_site_label
_atom_site_fract_x
_atom_site_fract_y
_atom_site_fract_z
Si Si1 0.785270 0.079351 0.172292
Si Si2 0.059088 0.620012 0.404008
Si Si3 0.444355 0.130438 0.881395
O O1 0.750000 0.250000 0.151057
O O2 0.819770 0.059023 0.327726
O O3 0.919021 0.054781 0.099233
O O4 0.676497 0.970196 0.134908
O O5 0.092653 0.750000 0.500000
O O6 0.000000 0.500000 0.500000
O O7 0.974157 0.679727 0.276327
O O8 0.429817 0.250000 0.000000
#
# Coordination Sequence:
#
# PCOD9397610 Si02
#       3
#     8   8   8
#     4  10  24  49  85 120 169 222 278 350 426 503
#     4  10  23  47  85 124 164 223 279 348 431 512
#     4  10  25  50  85 124 168 228 284 353 424 511
#
# _framework density 24.722587000000001
#
# number of rings (size 3 to 8) (size 9 to 14) (size 15 to 20)
#    2.000    0.000    0.000    2.000    0.000    6.667 
#    0.000   10.000    7.333    2.000    0.000    0.000 
#    0.000    0.000    0.000    0.000    0.000    0.000 
#
# Total GULP energy -133999.418100 kJ/mol
# GULP energy per Si atom -5583.309087 kJ/mol
# Density = 2.466632 g / cm^3
# Si number density = 24.722587 Si / 1000 Ang^3
#
#
#
# Elastic Constant Matrix: (Units=GPa)
#
#
# Indices 1 2 3 4 5 6 
#
# 1 229.1342 106.2995 98.4079 0.0000 0.0000 0.0000
# 2 106.2995 120.4658 84.8185 0.0000 0.0000 0.0000
# 3 98.4079 84.8185 249.5824 0.0000 0.0000 0.0000
# 4 0.0000 0.0000 0.0000 47.6653 0.0000 0.0000
# 5 0.0000 0.0000 0.0000 0.0000 55.6215 0.0000
# 6 0.0000 0.0000 0.0000 0.0000 0.0000 51.9354
#
#
#
# Elastic Compliance Matrix: (Units=1/GPa)
#
#
# Indices 1 2 3 4 5 6 
#
# 1 0.007552 -0.006004 -0.000937 0.000000 0.000000 0.000000
# 2 -0.006004 0.015686 -0.002963 0.000000 0.000000 0.000000
# 3 -0.000937 -0.002963 0.005383 0.000000 0.000000 0.000000
# 4 0.000000 0.000000 0.000000 0.020980 0.000000 0.000000
# 5 0.000000 0.000000 0.000000 0.000000 0.017979 0.000000
# 6 0.000000 0.000000 0.000000 0.000000 0.000000 0.019255
#
#
# Mechanical properties :
#
#
# Convention : Reuss Voigt Hill
#
# Bulk Modulus (GPa) = 113.48546 130.91491 122.20018
# Shear Modulus (GPa) = 45.62841 51.68820 48.65831
#
# Velocity S-wave (km/s) = 4.30072 4.57741 4.44122
# Velocity P-wave (km/s) = 8.40624 9.00030 8.70834
#
# Compressibility (1/GPa) = 0.00881170
#
# Stress axis : x y z
#
# Youngs Moduli (GPa) = 132.41059 63.75267 185.75993
#
# Poissons Ratio (x) = 0.38278 0.17411
# Poissons Ratio (y) = 0.79502 0.55045
# Poissons Ratio (z) = 0.12411 0.18891
#
# Static dielectric constant tensor:
#      x y z
#    x 1.963710 0.000000 0.000000 
#    y 0.000000 1.745960 0.000000 
#    z 0.000000 0.000000 2.069460 
# 
# From -- ./inp_files/19613.got.cif
#   From: 2010.05.17/outbox.cif.g08.bks.cpg/sg50_10_cif.got.tgz:19613.got - 2010.06.03 11:33:33.
