data_PCOD9397588
_publ_section_title
;
Structure prediction by ZEFSAII (Michael W. Deem and Ramdas Pophale) SiO2 
 PCOD9397588
Probable space group: P B A N
;
_chemical_formula_sum "Si O2"
_cell_formula_units_Z 34
_cell_length_a 9.079009
_cell_length_b 9.464466
_cell_length_c 17.326267
_cell_angle_alpha 90.000000
_cell_angle_beta 90.000000
_cell_angle_gamma 90.000000
_cell_volume 1488.810986
_symmetry_space_group_name_H-M "P B A N"
_symmetry_group_IT_number 50
_space_group.IT_coordinate_system_code '2'
_symmetry_cell_setting 'orthorhombic'
loop_
_space_group_symop_operation_xyz
x,y,z
1/2-x,1/2-y,z
x,1/2-y,-z
1/2-x,y,-z
-x,-y,-z
1/2+x,1/2+y,-z
-x,1/2+y,z
1/2+x,-y,z
loop_
_atom_site_type_symbol
_atom_site_label
_atom_site_fract_x
_atom_site_fract_y
_atom_site_fract_z
Si Si1 0.407433 0.697596 0.412904
Si Si2 0.092580 0.385555 0.235935
Si Si3 0.609280 0.334301 0.152742
Si Si4 0.617215 0.923855 0.338230
Si Si5 0.750000 0.250000 0.000000
O O1 0.250000 0.750000 0.382813
O O2 0.428092 0.750000 0.500000
O O3 0.527943 0.783568 0.362385
O O4 0.387112 0.527872 0.412285
O O5 0.125222 0.501684 0.170694
O O6 0.231015 0.391675 0.294892
O O7 0.031377 0.244692 0.192553
O O8 0.965590 0.468216 0.281691
O O9 0.750000 0.250000 0.187075
O O10 0.637259 0.320790 0.061190
#
# Coordination Sequence:
#
# PCOD9397588 Si02
#       5
#     8   8   8   8   2
#     4  11  25  46  69  99 141 186 237 294 355 428
#     4  12  24  43  73 103 141 179 238 290 348 416
#     4  10  23  45  68 106 142 184 227 284 344 418
#     4  12  24  44  70 102 135 185 231 295 358 409
#     4   8  20  48  72 100 152 192 216 286 348 416
#
# _framework density 22.837015999999998
#
# number of rings (size 3 to 8) (size 9 to 14) (size 15 to 20)
#    0.706    0.235    4.706    2.118    0.000    4.706 
#    0.000    1.176    0.000    2.824    0.000    0.000 
#    0.000    0.000    0.000    0.000    0.000    0.000 
#
# Total GULP energy -189310.442964 kJ/mol
# GULP energy per Si atom -5567.954205 kJ/mol
# Density = 2.278504 g / cm^3
# Si number density = 22.837016 Si / 1000 Ang^3
#
#
#
# Elastic Constant Matrix: (Units=GPa)
#
#
# Indices 1 2 3 4 5 6 
#
# 1 142.6204 63.5520 52.0690 0.0000 0.0000 0.0000
# 2 63.5520 176.1971 39.2267 0.0000 0.0000 0.0000
# 3 52.0690 39.2267 133.6305 0.0000 0.0000 0.0000
# 4 0.0000 0.0000 0.0000 15.8451 0.0000 0.0000
# 5 0.0000 0.0000 0.0000 0.0000 30.3881 0.0000
# 6 0.0000 0.0000 0.0000 0.0000 0.0000 25.8280
#
#
#
# Elastic Compliance Matrix: (Units=1/GPa)
#
#
# Indices 1 2 3 4 5 6 
#
# 1 0.009243 -0.002709 -0.002806 0.000000 0.000000 0.000000
# 2 -0.002709 0.006866 -0.000960 0.000000 0.000000 0.000000
# 3 -0.002806 -0.000960 0.008859 0.000000 0.000000 0.000000
# 4 0.000000 0.000000 0.000000 0.063111 0.000000 0.000000
# 5 0.000000 0.000000 0.000000 0.000000 0.032908 0.000000
# 6 0.000000 0.000000 0.000000 0.000000 0.000000 0.038718
#
#
# Mechanical properties :
#
#
# Convention : Reuss Voigt Hill
#
# Bulk Modulus (GPa) = 83.21356 84.68261 83.94808
# Shear Modulus (GPa) = 28.30268 34.25224 31.27746
#
# Velocity S-wave (km/s) = 3.52424 3.87700 3.70482
# Velocity P-wave (km/s) = 7.28543 7.56329 7.42566
#
# Compressibility (1/GPa) = 0.01201727
#
# Stress axis : x y z
#
# Youngs Moduli (GPa) = 108.18483 145.63780 112.88419
#
# Poissons Ratio (x) = 0.39456 0.31680
# Poissons Ratio (y) = 0.29309 0.10836
# Poissons Ratio (z) = 0.30361 0.13981
#
# Static dielectric constant tensor:
#      x y z
#    x 1.930210 0.000000 0.000000 
#    y 0.000000 2.139320 0.000000 
#    z 0.000000 0.000000 1.991450 
# 
# From -- ./inp_files/30532.got.cif
#   From: 2010.05.17/outbox.cif.g08.bks.cpg/sg50_16_cif.got.tgz:30532.got - 2010.06.03 11:33:33.
