data_PCOD9397427
_publ_section_title
;
Structure prediction by ZEFSAII (Michael W. Deem and Ramdas Pophale) SiO2 
 PCOD9397427
Probable space group: P B A N
;
_chemical_formula_sum "Si O2"
_cell_formula_units_Z 64
_cell_length_a 14.655601
_cell_length_b 29.274899
_cell_length_c 7.858836
_cell_angle_alpha 90.000000
_cell_angle_beta 90.000000
_cell_angle_gamma 90.000000
_cell_volume 3371.764735
_symmetry_space_group_name_H-M "P B A N"
_symmetry_group_IT_number 50
_space_group.IT_coordinate_system_code '2'
_symmetry_cell_setting 'orthorhombic'
loop_
_space_group_symop_operation_xyz
x,y,z
1/2-x,1/2-y,z
x,1/2-y,-z
1/2-x,y,-z
-x,-y,-z
1/2+x,1/2+y,-z
-x,1/2+y,z
1/2+x,-y,z
loop_
_atom_site_type_symbol
_atom_site_label
_atom_site_fract_x
_atom_site_fract_y
_atom_site_fract_z
Si Si1 0.175910 0.923023 0.128621
Si Si2 0.633289 0.647464 0.795106
Si Si3 0.786336 0.504388 0.317008
Si Si4 0.972069 0.940654 0.655287
Si Si5 0.153876 0.348380 0.209353
Si Si6 0.991186 0.920939 0.265887
Si Si7 0.389011 0.501634 0.869930
Si Si8 0.139303 0.251451 0.804556
O O1 0.216530 0.949280 0.291345
O O2 0.084222 0.899201 0.192267
O O3 0.250000 0.901297 0.000000
O O4 0.142425 0.968320 0.027464
O O5 0.565405 0.608579 0.723976
O O6 0.740439 0.641557 0.747529
O O7 0.609570 0.699324 0.735629
O O8 0.638711 0.648571 0.003081
O O9 0.750000 0.516903 0.500000
O O10 0.885604 0.526623 0.306157
O O11 0.705340 0.520687 0.194602
O O12 0.998207 0.941464 0.455405
O O13 0.059847 0.961512 0.750276
O O14 0.088163 0.384999 0.287553
O O15 0.121274 0.298250 0.271397
O O16 0.957457 0.959059 0.129919
O O17 0.250000 0.250000 0.810814
O O18 0.106720 0.250000 0.000000
#
# Coordination Sequence:
#
# PCOD9397427 Si02
#       8
#     8   8   8   8   8   8   8   8
#     4  10  23  37  54  71  94 136 180 222 265 304
#     4   9  18  31  49  75 103 138 179 213 255 307
#     4  11  21  36  50  71 102 139 170 210 268 314
#     4  12  23  34  50  74 106 145 175 214 265 313
#     4   9  18  30  52  75 101 137 178 219 253 300
#     4  12  21  34  48  72 102 134 175 217 262 308
#     4  11  22  36  52  70 100 133 180 221 254 306
#     4   7  12  28  48  70 100 134 170 212 254 295
#
# _framework density 18.981157
#
# number of rings (size 3 to 8) (size 9 to 14) (size 15 to 20)
#    0.000    1.875    2.500    4.500    1.750    0.000 
#    0.000    0.625    0.000    2.250    0.000    0.000 
#    0.000   23.500    0.000   24.625    0.000    0.375 
#
# Total GULP energy -356351.248588 kJ/mol
# GULP energy per Si atom -5567.988259 kJ/mol
# Density = 1.893796 g / cm^3
# Si number density = 18.981157 Si / 1000 Ang^3
#
#
#
# Elastic Constant Matrix: (Units=GPa)
#
#
# Indices 1 2 3 4 5 6 
#
# 1 89.2858 15.4655 17.9891 0.0000 0.0000 0.0000
# 2 15.4655 76.2238 1.8075 0.0000 0.0000 0.0000
# 3 17.9891 1.8075 46.0416 0.0000 0.0000 0.0000
# 4 0.0000 0.0000 0.0000 9.9382 0.0000 0.0000
# 5 0.0000 0.0000 0.0000 0.0000 21.4727 0.0000
# 6 0.0000 0.0000 0.0000 0.0000 0.0000 18.1629
#
#
#
# Elastic Compliance Matrix: (Units=1/GPa)
#
#
# Indices 1 2 3 4 5 6 
#
# 1 0.012595 -0.002441 -0.004825 0.000000 0.000000 0.000000
# 2 -0.002441 0.013605 0.000420 0.000000 0.000000 0.000000
# 3 -0.004825 0.000420 0.023588 0.000000 0.000000 0.000000
# 4 0.000000 0.000000 0.000000 0.100622 0.000000 0.000000
# 5 0.000000 0.000000 0.000000 0.000000 0.046571 0.000000
# 6 0.000000 0.000000 0.000000 0.000000 0.000000 0.055057
#
#
# Mechanical properties :
#
#
# Convention : Reuss Voigt Hill
#
# Bulk Modulus (GPa) = 27.70490 31.34170 29.52330
# Shear Modulus (GPa) = 18.00095 21.66735 19.83415
#
# Velocity S-wave (km/s) = 3.08288 3.38230 3.23606
# Velocity P-wave (km/s) = 5.22493 5.63925 5.43604
#
# Compressibility (1/GPa) = 0.03609469
#
# Stress axis : x y z
#
# Youngs Moduli (GPa) = 79.39668 73.50465 42.39388
#
# Poissons Ratio (x) = 0.17943 0.20456
# Poissons Ratio (y) = 0.19381 -0.01779
# Poissons Ratio (z) = 0.38311 -0.03085
#
# Static dielectric constant tensor:
#      x y z
#    x 1.729290 0.000000 0.000000 
#    y 0.000000 1.697040 0.000000 
#    z 0.000000 0.000000 1.761510 
# 
# From -- ./inp_files/13564.got.cif
#   From: 2010.05.17/outbox.cif.g08.bks.cpg/sg50_7_cif.got.tgz:13564.got - 2010.06.03 11:33:33.
