data_PCOD9397136
_publ_section_title
;
Structure prediction by ZEFSAII (Michael W. Deem and Ramdas Pophale) SiO2 
 PCOD9397136
Probable space group: P B A N
;
_chemical_formula_sum "Si O2"
_cell_formula_units_Z 38
_cell_length_a 8.142626
_cell_length_b 11.338874
_cell_length_c 17.465959
_cell_angle_alpha 90.000000
_cell_angle_beta 90.000000
_cell_angle_gamma 90.000000
_cell_volume 1612.600735
_symmetry_space_group_name_H-M "P B A N"
_symmetry_group_IT_number 50
_space_group.IT_coordinate_system_code '2'
_symmetry_cell_setting 'orthorhombic'
loop_
_space_group_symop_operation_xyz
x,y,z
1/2-x,1/2-y,z
x,1/2-y,-z
1/2-x,y,-z
-x,-y,-z
1/2+x,1/2+y,-z
-x,1/2+y,z
1/2+x,-y,z
loop_
_atom_site_type_symbol
_atom_site_label
_atom_site_fract_x
_atom_site_fract_y
_atom_site_fract_z
Si Si1 0.998140 0.418661 0.923200
Si Si2 0.286578 0.426437 0.811675
Si Si3 0.544009 0.156762 0.432464
Si Si4 0.114411 0.655160 0.741980
Si Si5 0.750000 0.250000 0.000000
Si Si6 0.250000 0.448564 0.500000
O O1 0.163649 0.380448 0.879059
O O2 0.907927 0.493864 0.860339
O O3 0.875216 0.317115 0.945886
O O4 0.000000 0.500000 0.000000
O O5 0.189167 0.521989 0.757070
O O6 0.423825 0.341659 0.772375
O O7 0.579573 0.250000 0.500000
O O8 0.593575 0.187292 0.347316
O O9 0.352801 0.128701 0.441396
O O10 0.634127 0.034952 0.452399
O O11 0.250000 0.750000 0.772530
#
# Coordination Sequence:
#
# PCOD9397136 Si02
#       6
#     8   8   8   8   2   4
#     4  11  22  45  74 110 147 191 252 304 366 449
#     4  10  24  45  71 106 155 188 248 319 368 464
#     4  11  22  41  67  99 134 183 245 309 370 466
#     4  11  24  44  71 103 147 197 249 311 394 448
#     4  12  24  40  90 106 150 200 242 308 374 430
#     4  10  22  38  66  92 132 174 232 302 386 430
#
# _framework density 23.564420999999999
#
# number of rings (size 3 to 8) (size 9 to 14) (size 15 to 20)
#    0.000    1.263    2.105    3.158    1.474    1.684 
#    0.000   16.842    0.000    0.000    0.000    0.000 
#    0.000    0.000    0.000    0.000    0.000    0.000 
#
# Total GULP energy -211869.993357 kJ/mol
# GULP energy per Si atom -5575.526141 kJ/mol
# Density = 2.351079 g / cm^3
# Si number density = 23.564421 Si / 1000 Ang^3
#
#
#
# Elastic Constant Matrix: (Units=GPa)
#
#
# Indices 1 2 3 4 5 6 
#
# 1 193.0679 63.3699 67.7784 0.0000 0.0000 0.0000
# 2 63.3699 75.7879 44.2301 0.0000 0.0000 0.0000
# 3 67.7784 44.2301 155.7688 0.0000 0.0000 0.0000
# 4 0.0000 0.0000 0.0000 0.5603 0.0000 0.0000
# 5 0.0000 0.0000 0.0000 0.0000 39.3191 0.0000
# 6 0.0000 0.0000 0.0000 0.0000 0.0000 58.9657
#
#
#
# Elastic Compliance Matrix: (Units=1/GPa)
#
#
# Indices 1 2 3 4 5 6 
#
# 1 0.007531 -0.005256 -0.001785 0.000000 0.000000 0.000000
# 2 -0.005256 0.019483 -0.003245 0.000000 0.000000 0.000000
# 3 -0.001785 -0.003245 0.008118 0.000000 0.000000 0.000000
# 4 0.000000 0.000000 0.000000 1.784888 0.000000 0.000000
# 5 0.000000 0.000000 0.000000 0.000000 0.025433 0.000000
# 6 0.000000 0.000000 0.000000 0.000000 0.000000 0.016959
#
#
# Mechanical properties :
#
#
# Convention : Reuss Voigt Hill
#
# Bulk Modulus (GPa) = 68.67707 86.15350 77.41529
# Shear Modulus (GPa) = 2.64853 36.38543 19.51698
#
# Velocity S-wave (km/s) = 1.06132 3.93375 2.88104
# Velocity P-wave (km/s) = 5.54162 7.56787 6.63258
#
# Compressibility (1/GPa) = 0.01456090
#
# Stress axis : x y z
#
# Youngs Moduli (GPa) = 132.78369 51.32635 123.18588
#
# Poissons Ratio (x) = 0.26975 0.21984
# Poissons Ratio (y) = 0.69785 0.39979
# Poissons Ratio (z) = 0.23697 0.16657
#
# Static dielectric constant tensor:
#      x y z
#    x 1.965550 0.000000 0.000000 
#    y 0.000000 1.955960 0.000000 
#    z 0.000000 0.000000 1.917890 
# 
# From -- ./inp_files/28537.got.cif
#   From: 2010.05.17/outbox.cif.g08.bks.cpg/sg50_15_cif.got.tgz:28537.got - 2010.06.03 11:33:33.
