data_PCOD9397665
_publ_section_title
;
Structure prediction by ZEFSAII (Michael W. Deem and Ramdas Pophale) SiO2 
 PCOD9397665
Probable space group: P B A N
;
_chemical_formula_sum "Si O2"
_cell_formula_units_Z 28
_cell_length_a 8.859579
_cell_length_b 16.063494
_cell_length_c 8.886364
_cell_angle_alpha 90.000000
_cell_angle_beta 90.000000
_cell_angle_gamma 90.000000
_cell_volume 1264.669949
_symmetry_space_group_name_H-M "P B A N"
_symmetry_group_IT_number 50
_space_group.IT_coordinate_system_code '2'
_symmetry_cell_setting 'orthorhombic'
loop_
_space_group_symop_operation_xyz
x,y,z
1/2-x,1/2-y,z
x,1/2-y,-z
1/2-x,y,-z
-x,-y,-z
1/2+x,1/2+y,-z
-x,1/2+y,z
1/2+x,-y,z
loop_
_atom_site_type_symbol
_atom_site_label
_atom_site_fract_x
_atom_site_fract_y
_atom_site_fract_z
Si Si1 0.375066 0.032062 0.883232
Si Si2 0.095290 0.638266 0.751936
Si Si3 0.746965 0.650966 0.323964
Si Si4 0.750000 0.250000 0.000000
Si Si5 0.250000 0.750000 0.500000
O O1 0.331221 0.951960 0.781982
O O2 0.384727 0.107811 0.765827
O O3 0.250000 0.060425 0.000000
O O4 0.500000 0.000000 0.000000
O O5 0.144850 0.693281 0.894683
O O6 0.151463 0.689870 0.607104
O O7 0.916894 0.623782 0.736630
O O8 0.750000 0.750000 0.307127
O O9 0.750000 0.630035 0.500000
#
# Coordination Sequence:
#
# PCOD9397665 Si02
#       5
#     8   8   8   2   2
#     4  12  26  45  70 107 142 189 240 299 365 426
#     4  11  24  45  70 105 142 188 241 298 362 438
#     4  11  27  47  72 103 145 193 245 298 363 434
#     4  10  24  42  74 102 146 186 234 294 364 426
#     4  10  24  42  74 106 142 190 240 304 368 430
#
# _framework density 22.140163000000001
#
# number of rings (size 3 to 8) (size 9 to 14) (size 15 to 20)
#    0.000    0.857    4.286    1.714    6.000    4.000 
#    0.000    0.000    0.000    0.000    0.000    0.000 
#    0.000    0.000    0.000    0.000    0.000    0.000 
#
# Total GULP energy -156365.868611 kJ/mol
# GULP energy per Si atom -5584.495308 kJ/mol
# Density = 2.208977 g / cm^3
# Si number density = 22.140163 Si / 1000 Ang^3
#
#
#
# Elastic Constant Matrix: (Units=GPa)
#
#
# Indices 1 2 3 4 5 6 
#
# 1 39.7398 0.7048 42.2008 0.0000 0.0000 0.0000
# 2 0.7048 92.0769 78.3175 0.0000 0.0000 0.0000
# 3 42.2008 78.3175 159.6657 0.0000 0.0000 0.0000
# 4 0.0000 0.0000 0.0000 43.9784 0.0000 0.0000
# 5 0.0000 0.0000 0.0000 0.0000 20.9628 0.0000
# 6 0.0000 0.0000 0.0000 0.0000 0.0000 22.8807
#
#
#
# Elastic Compliance Matrix: (Units=1/GPa)
#
#
# Indices 1 2 3 4 5 6 
#
# 1 0.047314 0.017630 -0.021153 0.000000 0.000000 0.000000
# 2 0.017630 0.025205 -0.017023 0.000000 0.000000 0.000000
# 3 -0.021153 -0.017023 0.020204 0.000000 0.000000 0.000000
# 4 0.000000 0.000000 0.000000 0.022738 0.000000 0.000000
# 5 0.000000 0.000000 0.000000 0.000000 0.047704 0.000000
# 6 0.000000 0.000000 0.000000 0.000000 0.000000 0.043705
#
#
# Mechanical properties :
#
#
# Convention : Reuss Voigt Hill
#
# Bulk Modulus (GPa) = 19.36832 59.32541 39.34687
# Shear Modulus (GPa) = 18.85569 28.91499 23.88534
#
# Velocity S-wave (km/s) = 2.92147 3.61778 3.28811
# Velocity P-wave (km/s) = 4.48855 6.65617 5.67678
#
# Compressibility (1/GPa) = 0.05163069
#
# Stress axis : x y z
#
# Youngs Moduli (GPa) = 21.13530 39.67537 49.49548
#
# Poissons Ratio (x) = -0.69948 1.04699
# Poissons Ratio (y) = -0.37262 0.84255
# Poissons Ratio (z) = 0.44708 0.67539
#
# Static dielectric constant tensor:
#      x y z
#    x 1.854460 0.000000 0.000000 
#    y 0.000000 1.633980 0.000000 
#    z 0.000000 0.000000 1.839430 
# 
# From -- ./inp_files/8834.got.cif
#   From: 2010.05.17/outbox.cif.g08.bks.cpg/sg50_5_cif.got.tgz:8834.got - 2010.06.03 11:33:33.
