data_PCOD9397649
_publ_section_title
;
Structure prediction by ZEFSAII (Michael W. Deem and Ramdas Pophale) SiO2 
 PCOD9397649
Probable space group: P B A N
;
_chemical_formula_sum "Si O2"
_cell_formula_units_Z 58
_cell_length_a 12.362525
_cell_length_b 18.259724
_cell_length_c 11.821833
_cell_angle_alpha 90.000000
_cell_angle_beta 90.000000
_cell_angle_gamma 90.000000
_cell_volume 2668.616775
_symmetry_space_group_name_H-M "P B A N"
_symmetry_group_IT_number 50
_space_group.IT_coordinate_system_code '2'
_symmetry_cell_setting 'orthorhombic'
loop_
_space_group_symop_operation_xyz
x,y,z
1/2-x,1/2-y,z
x,1/2-y,-z
1/2-x,y,-z
-x,-y,-z
1/2+x,1/2+y,-z
-x,1/2+y,z
1/2+x,-y,z
loop_
_atom_site_type_symbol
_atom_site_label
_atom_site_fract_x
_atom_site_fract_y
_atom_site_fract_z
Si Si1 0.473892 0.550054 0.332302
Si Si2 0.992277 0.688928 0.780395
Si Si3 0.750000 0.750000 0.500000
Si Si4 0.632044 0.546967 0.530767
Si Si5 0.101580 0.169236 0.312388
Si Si6 0.723543 0.885067 0.870780
Si Si7 0.568132 0.019850 0.888600
Si Si8 0.121194 0.833256 0.005275
O O1 0.485745 0.637115 0.325534
O O2 0.571156 0.529518 0.416460
O O3 0.363638 0.524235 0.390029
O O4 0.497254 0.506922 0.216820
O O5 0.981222 0.773480 0.745161
O O6 0.875693 0.665228 0.829369
O O7 0.077950 0.653599 0.868577
O O8 0.829082 0.787484 0.592747
O O9 0.750000 0.575345 0.500000
O O10 0.563494 0.602659 0.608730
O O11 0.178734 0.133464 0.214884
O O12 0.676114 0.968740 0.876151
O O13 0.750000 0.865848 0.000000
O O14 0.588086 0.106014 0.912723
O O15 0.500000 0.000000 0.000000
O O16 0.076767 0.750000 0.000000
O O17 0.250000 0.830962 0.000000
#
# Coordination Sequence:
#
# PCOD9397649 Si02
#       8
#     8   8   2   8   8   8   8   8
#     4  10  24  42  63 103 129 183 231 279 362 422
#     4  11  23  42  65  97 141 180 230 290 353 440
#     4  12  20  40  58  96 156 182 228 264 396 452
#     4  11  23  41  68  98 138 177 235 293 348 430
#     4  12  24  38  69 102 143 192 223 306 371 442
#     4  11  24  38  63 106 138 175 225 282 372 436
#     4  11  22  43  68  94 138 180 225 288 355 431
#     4  11  26  44  64  91 131 187 236 281 339 424
#
# _framework density 21.734106000000001
#
# number of rings (size 3 to 8) (size 9 to 14) (size 15 to 20)
#    0.000    0.966    4.828    2.897    5.793    2.759 
#    0.000    0.000    0.000    0.000    0.000    0.000 
#    0.000    0.000    0.000    0.000    0.000    0.000 
#
# Total GULP energy -323010.720508 kJ/mol
# GULP energy per Si atom -5569.150354 kJ/mol
# Density = 2.168464 g / cm^3
# Si number density = 21.734106 Si / 1000 Ang^3
#
#
#
# Elastic Constant Matrix: (Units=GPa)
#
#
# Indices 1 2 3 4 5 6 
#
# 1 30.0412 28.3775 16.7138 0.0000 0.0000 0.0000
# 2 28.3775 135.6511 48.4823 0.0000 0.0000 0.0000
# 3 16.7138 48.4823 124.7486 0.0000 0.0000 0.0000
# 4 0.0000 0.0000 0.0000 54.9626 0.0000 0.0000
# 5 0.0000 0.0000 0.0000 0.0000 23.2784 0.0000
# 6 0.0000 0.0000 0.0000 0.0000 0.0000 36.4951
#
#
#
# Elastic Compliance Matrix: (Units=1/GPa)
#
#
# Indices 1 2 3 4 5 6 
#
# 1 0.042189 -0.007903 -0.002581 0.000000 0.000000 0.000000
# 2 -0.007903 0.010042 -0.002844 0.000000 0.000000 0.000000
# 3 -0.002581 -0.002844 0.009467 0.000000 0.000000 0.000000
# 4 0.000000 0.000000 0.000000 0.018194 0.000000 0.000000
# 5 0.000000 0.000000 0.000000 0.000000 0.042958 0.000000
# 6 0.000000 0.000000 0.000000 0.000000 0.000000 0.027401
#
#
# Mechanical properties :
#
#
# Convention : Reuss Voigt Hill
#
# Bulk Modulus (GPa) = 28.53722 53.06535 40.80128
# Shear Modulus (GPa) = 26.51286 36.07171 31.29229
#
# Velocity S-wave (km/s) = 3.49646 4.07834 3.79856
# Velocity P-wave (km/s) = 5.42761 6.82978 6.16866
#
# Compressibility (1/GPa) = 0.03504196
#
# Stress axis : x y z
#
# Youngs Moduli (GPa) = 23.70274 99.58648 105.62926
#
# Poissons Ratio (x) = 0.78707 0.27262
# Poissons Ratio (y) = 0.18733 0.30037
# Poissons Ratio (z) = 0.06118 0.28319
#
# Static dielectric constant tensor:
#      x y z
#    x 1.834460 0.000000 0.000000 
#    y 0.000000 -4.428830 0.000000 
#    z 0.000000 0.000000 1.950350 
# 
# From -- ./inp_files/21312.got.cif
#   From: 2010.05.17/outbox.cif.g08.bks.cpg/sg50_11_cif.got.tgz:21312.got - 2010.06.03 11:33:33.
