data_PCOD9397340
_publ_section_title
;
Structure prediction by ZEFSAII (Michael W. Deem and Ramdas Pophale) SiO2 
 PCOD9397340
Probable space group: P B A N
;
_chemical_formula_sum "Si O2"
_cell_formula_units_Z 38
_cell_length_a 10.352288
_cell_length_b 21.163812
_cell_length_c 8.714513
_cell_angle_alpha 90.000000
_cell_angle_beta 90.000000
_cell_angle_gamma 90.000000
_cell_volume 1909.296439
_symmetry_space_group_name_H-M "P B A N"
_symmetry_group_IT_number 50
_space_group.IT_coordinate_system_code '2'
_symmetry_cell_setting 'orthorhombic'
loop_
_space_group_symop_operation_xyz
x,y,z
1/2-x,1/2-y,z
x,1/2-y,-z
1/2-x,y,-z
-x,-y,-z
1/2+x,1/2+y,-z
-x,1/2+y,z
1/2+x,-y,z
loop_
_atom_site_type_symbol
_atom_site_label
_atom_site_fract_x
_atom_site_fract_y
_atom_site_fract_z
Si Si1 0.002689 0.442468 0.383082
Si Si2 0.750000 0.614666 0.500000
Si Si3 0.750000 0.750000 0.000000
Si Si4 0.600504 0.181615 0.546995
Si Si5 0.122443 0.487286 0.896028
Si Si6 0.906607 0.843436 0.779353
O O1 0.157155 0.426542 0.385935
O O2 0.000000 0.500000 0.500000
O O3 0.947785 0.378007 0.450286
O O4 0.910971 0.465780 0.245179
O O5 0.669291 0.656625 0.617687
O O6 0.841982 0.794080 0.894941
O O7 0.545822 0.250000 0.500000
O O8 0.750000 0.184050 0.500000
O O9 0.553600 0.169644 0.722670
O O10 0.111602 0.414386 0.842555
O O11 0.250000 0.497347 0.000000
O O12 0.000000 0.500000 0.000000
#
# Coordination Sequence:
#
# PCOD9397340 Si02
#       6
#     8   4   2   8   8   8
#     4  11  23  39  71  95 131 180 233 289 341 419
#     4  10  22  43  66 102 129 168 248 286 346 400
#     4  12  28  42  68  98 156 182 236 280 388 438
#     4  10  24  43  69  99 132 173 237 290 345 412
#     4  12  26  43  65 105 146 180 229 293 366 426
#     4  11  25  43  69 100 135 187 229 295 346 436
#
# _framework density 19.902619000000001
#
# number of rings (size 3 to 8) (size 9 to 14) (size 15 to 20)
#    0.000    1.053    5.263    1.263   10.316    0.000 
#    0.000    0.000    0.000    0.000    0.000    0.000 
#    0.000    0.000    0.000    0.000    0.000    0.000 
#
# Total GULP energy -211536.653570 kJ/mol
# GULP energy per Si atom -5566.754041 kJ/mol
# Density = 1.985732 g / cm^3
# Si number density = 19.902619 Si / 1000 Ang^3
#
#
#
# Elastic Constant Matrix: (Units=GPa)
#
#
# Indices 1 2 3 4 5 6 
#
# 1 142.1268 57.4298 65.7121 0.0000 0.0000 0.0000
# 2 57.4298 168.5760 72.1271 0.0000 0.0000 0.0000
# 3 65.7121 72.1271 129.6690 0.0000 0.0000 0.0000
# 4 0.0000 0.0000 0.0000 33.3210 0.0000 0.0000
# 5 0.0000 0.0000 0.0000 0.0000 55.8430 0.0000
# 6 0.0000 0.0000 0.0000 0.0000 0.0000 32.3401
#
#
#
# Elastic Compliance Matrix: (Units=1/GPa)
#
#
# Indices 1 2 3 4 5 6 
#
# 1 0.009485 -0.001542 -0.003949 0.000000 0.000000 0.000000
# 2 -0.001542 0.008035 -0.003688 0.000000 0.000000 0.000000
# 3 -0.003949 -0.003688 0.011765 0.000000 0.000000 0.000000
# 4 0.000000 0.000000 0.000000 0.030011 0.000000 0.000000
# 5 0.000000 0.000000 0.000000 0.000000 0.017907 0.000000
# 6 0.000000 0.000000 0.000000 0.000000 0.000000 0.030921
#
#
# Mechanical properties :
#
#
# Convention : Reuss Voigt Hill
#
# Bulk Modulus (GPa) = 91.51742 92.32330 91.92036
# Shear Modulus (GPa) = 38.42460 40.64099 39.53280
#
# Velocity S-wave (km/s) = 4.39866 4.52374 4.46164
# Velocity P-wave (km/s) = 8.47821 8.58917 8.53387
#
# Compressibility (1/GPa) = 0.01092688
#
# Stress axis : x y z
#
# Youngs Moduli (GPa) = 105.43268 124.45058 84.99922
#
# Poissons Ratio (x) = 0.19185 0.33567
# Poissons Ratio (y) = 0.16253 0.31351
# Poissons Ratio (z) = 0.41636 0.45902
#
# Static dielectric constant tensor:
#      x y z
#    x 1.853980 0.000000 0.000000 
#    y 0.000000 -0.923950 0.000000 
#    z 0.000000 0.000000 1.652600 
# 
# From -- ./inp_files/11094.got.cif
#   From: 2010.05.17/outbox.cif.g08.bks.cpg/sg50_6_cif.got.tgz:11094.got - 2010.06.03 11:33:33.
