data_PCOD9397020
_publ_section_title
;
Structure prediction by ZEFSAII (Michael W. Deem and Ramdas Pophale) SiO2 
 PCOD9397020
Probable space group: P B A N
;
_chemical_formula_sum "Si O2"
_cell_formula_units_Z 40
_cell_length_a 8.855572
_cell_length_b 17.107346
_cell_length_c 10.760796
_cell_angle_alpha 90.000000
_cell_angle_beta 90.000000
_cell_angle_gamma 90.000000
_cell_volume 1630.210387
_symmetry_space_group_name_H-M "P B A N"
_symmetry_group_IT_number 50
_space_group.IT_coordinate_system_code '2'
_symmetry_cell_setting 'orthorhombic'
loop_
_space_group_symop_operation_xyz
x,y,z
1/2-x,1/2-y,z
x,1/2-y,-z
1/2-x,y,-z
-x,-y,-z
1/2+x,1/2+y,-z
-x,1/2+y,z
1/2+x,-y,z
loop_
_atom_site_type_symbol
_atom_site_label
_atom_site_fract_x
_atom_site_fract_y
_atom_site_fract_z
Si Si1 0.296534 0.840502 0.315156
Si Si2 0.037848 0.928514 0.187805
Si Si3 0.761738 0.664047 0.167002
Si Si4 0.451345 0.909427 0.094332
Si Si5 0.401053 0.335569 0.437942
O O1 0.250000 0.750000 0.339133
O O2 0.158391 0.901658 0.291387
O O3 0.368890 0.843961 0.175476
O O4 0.425030 0.864346 0.416896
O O5 0.900892 0.869216 0.196176
O O6 0.102257 0.923002 0.046383
O O7 0.960347 0.013869 0.182659
O O8 0.750000 0.750000 0.119086
O O9 0.847260 0.671155 0.297455
O O10 0.872869 0.613294 0.083100
O O11 0.413825 0.250000 0.500000
O O12 0.250000 0.374997 0.500000
#
# Coordination Sequence:
#
# PCOD9397020 Si02
#       5
#     8   8   8   8   8
#     4  11  24  38  64 106 129 170 233 296 333 396
#     4  11  22  40  62  96 140 187 220 260 339 418
#     4  11  21  37  65  98 118 176 230 278 319 403
#     4  10  23  40  62  91 146 191 210 259 344 421
#     4  10  21  42  66  90 126 170 216 288 357 415
#
# _framework density 24.536709999999999
#
# number of rings (size 3 to 8) (size 9 to 14) (size 15 to 20)
#    0.000    1.400    2.000    4.800    0.000    8.400 
#    0.000    0.000    0.000   19.200    0.000    0.000 
#    0.000    0.000    0.000    0.000    0.000    0.000 
#
# Total GULP energy -223033.013022 kJ/mol
# GULP energy per Si atom -5575.825326 kJ/mol
# Density = 2.448086 g / cm^3
# Si number density = 24.536710 Si / 1000 Ang^3
#
#
#
# Elastic Constant Matrix: (Units=GPa)
#
#
# Indices 1 2 3 4 5 6 
#
# 1 135.2932 41.4320 25.1107 0.0000 0.0000 0.0000
# 2 41.4320 87.7436 10.9672 0.0000 0.0000 0.0000
# 3 25.1107 10.9672 102.9100 0.0000 0.0000 0.0000
# 4 0.0000 0.0000 0.0000 78.7166 0.0000 0.0000
# 5 0.0000 0.0000 0.0000 0.0000 61.3288 0.0000
# 6 0.0000 0.0000 0.0000 0.0000 0.0000 35.5368
#
#
#
# Elastic Compliance Matrix: (Units=1/GPa)
#
#
# Indices 1 2 3 4 5 6 
#
# 1 0.008943 -0.004004 -0.001756 0.000000 0.000000 0.000000
# 2 -0.004004 0.013343 -0.000445 0.000000 0.000000 0.000000
# 3 -0.001756 -0.000445 0.010193 0.000000 0.000000 0.000000
# 4 0.000000 0.000000 0.000000 0.012704 0.000000 0.000000
# 5 0.000000 0.000000 0.000000 0.000000 0.016306 0.000000
# 6 0.000000 0.000000 0.000000 0.000000 0.000000 0.028140
#
#
# Mechanical properties :
#
#
# Convention : Reuss Voigt Hill
#
# Bulk Modulus (GPa) = 49.82344 53.44075 51.63209
# Shear Modulus (GPa) = 45.98678 51.67890 48.83284
#
# Velocity S-wave (km/s) = 4.33390 4.59430 4.46600
# Velocity P-wave (km/s) = 6.73746 7.06899 6.90522
#
# Compressibility (1/GPa) = 0.02007088
#
# Stress axis : x y z
#
# Youngs Moduli (GPa) = 111.81661 74.94617 98.10628
#
# Poissons Ratio (x) = 0.30005 0.17223
# Poissons Ratio (y) = 0.44766 0.04367
# Poissons Ratio (z) = 0.19630 0.03336
#
# Static dielectric constant tensor:
#      x y z
#    x 2.128440 0.000000 0.000000 
#    y 0.000000 1.872930 0.000000 
#    z 0.000000 0.000000 1.985300 
# 
# From -- ./inp_files/18734.got.cif
#   From: 2010.05.17/outbox.cif.g08.bks.cpg/sg50_10_cif.got.tgz:18734.got - 2010.06.03 11:33:33.
