data_PCOD9397085
_publ_section_title
;
Structure prediction by ZEFSAII (Michael W. Deem and Ramdas Pophale) SiO2 
 PCOD9397085
Probable space group: P B A N
;
_chemical_formula_sum "Si O2"
_cell_formula_units_Z 54
_cell_length_a 20.046391
_cell_length_b 12.700723
_cell_length_c 11.415569
_cell_angle_alpha 90.000000
_cell_angle_beta 90.000000
_cell_angle_gamma 90.000000
_cell_volume 2906.445640
_symmetry_space_group_name_H-M "P B A N"
_symmetry_group_IT_number 50
_space_group.IT_coordinate_system_code '2'
_symmetry_cell_setting 'orthorhombic'
loop_
_space_group_symop_operation_xyz
x,y,z
1/2-x,1/2-y,z
x,1/2-y,-z
1/2-x,y,-z
-x,-y,-z
1/2+x,1/2+y,-z
-x,1/2+y,z
1/2+x,-y,z
loop_
_atom_site_type_symbol
_atom_site_label
_atom_site_fract_x
_atom_site_fract_y
_atom_site_fract_z
Si Si1 0.171694 0.535982 0.141478
Si Si2 0.250000 0.750000 0.500000
Si Si3 0.502847 0.759987 0.637995
Si Si4 0.432955 0.094865 0.805775
Si Si5 0.651328 0.245197 0.711220
Si Si6 0.676045 0.061365 0.130603
Si Si7 0.449682 0.250000 0.000000
Si Si8 0.039684 0.420547 0.180802
O O1 0.163090 0.628100 0.237845
O O2 0.250350 0.512184 0.142286
O O3 0.117742 0.445189 0.166018
O O4 0.157519 0.568591 0.006544
O O5 0.305000 0.717085 0.400537
O O6 0.507675 0.750000 0.500000
O O7 0.546902 0.668499 0.698362
O O8 0.426166 0.750108 0.677884
O O9 0.526776 0.870862 0.692224
O O10 0.375358 0.009595 0.796251
O O11 0.498793 0.027397 0.838032
O O12 0.412435 0.172604 0.911350
O O13 0.672013 0.323286 0.815045
O O14 0.485485 0.168457 0.088389
#
# Coordination Sequence:
#
# PCOD9397085 Si02
#       8
#     8   2   8   8   8   8   4   8
#     4  11  23  40  62  95 128 163 209 259 320 381
#     4  12  24  40  62  92 144 170 198 250 324 384
#     4  11  25  42  61  92 126 160 215 268 303 367
#     4  11  22  39  63  91 122 166 204 258 319 374
#     4  12  22  40  64  94 129 166 205 260 315 376
#     4  11  23  40  62  95 128 163 209 259 320 381
#     4  10  22  36  57  90 127 150 210 252 316 368
#     4  11  22  39  63  91 122 166 204 258 319 374
#
# _framework density 18.579394000000001
#
# number of rings (size 3 to 8) (size 9 to 14) (size 15 to 20)
#    0.000    0.889    6.667    0.889    0.000    1.778 
#    2.667    3.704    0.000    0.889    0.000    0.000 
#    0.000    0.000    0.000    0.000    0.000    0.000 
#
# Total GULP energy -300812.034181 kJ/mol
# GULP energy per Si atom -5570.593226 kJ/mol
# Density = 1.853711 g / cm^3
# Si number density = 18.579394 Si / 1000 Ang^3
#
#
#
# Elastic Constant Matrix: (Units=GPa)
#
#
# Indices 1 2 3 4 5 6 
#
# 1 65.0599 -0.0716 26.9246 0.0000 0.0000 0.0000
# 2 -0.0716 48.7406 6.5701 0.0000 0.0000 0.0000
# 3 26.9246 6.5701 86.0177 0.0000 0.0000 0.0000
# 4 0.0000 0.0000 0.0000 18.3800 0.0000 0.0000
# 5 0.0000 0.0000 0.0000 0.0000 23.9788 0.0000
# 6 0.0000 0.0000 0.0000 0.0000 0.0000 17.7514
#
#
#
# Elastic Compliance Matrix: (Units=1/GPa)
#
#
# Indices 1 2 3 4 5 6 
#
# 1 0.017687 0.000780 -0.005596 0.000000 0.000000 0.000000
# 2 0.000780 0.020765 -0.001830 0.000000 0.000000 0.000000
# 3 -0.005596 -0.001830 0.013517 0.000000 0.000000 0.000000
# 4 0.000000 0.000000 0.000000 0.054407 0.000000 0.000000
# 5 0.000000 0.000000 0.000000 0.000000 0.041704 0.000000
# 6 0.000000 0.000000 0.000000 0.000000 0.000000 0.056334
#
#
# Mechanical properties :
#
#
# Convention : Reuss Voigt Hill
#
# Bulk Modulus (GPa) = 25.85522 29.62939 27.74230
# Shear Modulus (GPa) = 21.68288 23.11505 22.39896
#
# Velocity S-wave (km/s) = 3.41990 3.53104 3.47591
# Velocity P-wave (km/s) = 5.43512 5.71020 5.57436
#
# Compressibility (1/GPa) = 0.03867692
#
# Stress axis : x y z
#
# Youngs Moduli (GPa) = 56.53829 48.15885 73.98151
#
# Poissons Ratio (x) = -0.03758 0.41399
# Poissons Ratio (y) = -0.04412 0.13540
# Poissons Ratio (z) = 0.31638 0.08814
#
# Static dielectric constant tensor:
#      x y z
#    x 1.656390 0.000000 0.000000 
#    y 0.000000 1.647900 0.000000 
#    z 0.000000 0.000000 1.648520 
# 
# From -- ./inp_files/20403.got.cif
#   From: 2010.05.17/outbox.cif.g08.bks.cpg/sg50_11_cif.got.tgz:20403.got - 2010.06.03 11:33:33.
