data_PCOD9397336
_publ_section_title
;
Structure prediction by ZEFSAII (Michael W. Deem and Ramdas Pophale) SiO2 
 PCOD9397336
Probable space group: P B A N
;
_chemical_formula_sum "Si O2"
_cell_formula_units_Z 22
_cell_length_a 31.800691
_cell_length_b 4.947577
_cell_length_c 6.234768
_cell_angle_alpha 90.000000
_cell_angle_beta 90.000000
_cell_angle_gamma 90.000000
_cell_volume 980.955749
_symmetry_space_group_name_H-M "P B A N"
_symmetry_group_IT_number 50
_space_group.IT_coordinate_system_code '2'
_symmetry_cell_setting 'orthorhombic'
loop_
_space_group_symop_operation_xyz
x,y,z
1/2-x,1/2-y,z
x,1/2-y,-z
1/2-x,y,-z
-x,-y,-z
1/2+x,1/2+y,-z
-x,1/2+y,z
1/2+x,-y,z
loop_
_atom_site_type_symbol
_atom_site_label
_atom_site_fract_x
_atom_site_fract_y
_atom_site_fract_z
Si Si1 0.403756 0.501966 0.348194
Si Si2 0.250000 0.250000 0.000000
Si Si3 0.467495 0.250000 0.000000
Si Si4 0.690482 0.491587 0.656366
O O1 0.396278 0.250000 0.500000
O O2 0.357185 0.575091 0.263317
O O3 0.419483 0.750000 0.500000
O O4 0.435558 0.376222 0.176693
O O5 0.279358 0.063982 0.851223
O O6 0.500000 0.500000 0.000000
O O7 0.690728 0.750000 0.500000
O O8 0.703162 0.250000 0.500000
#
# Coordination Sequence:
#
# PCOD9397336 Si02
#       4
#     8   2   4   8
#     4  10  22  43  65  88 128 173 213 264 325 394
#     4  12  24  42  72  96 136 174 210 290 350 372
#     4  12  25  38  62  99 128 161 218 272 327 398
#     4  10  24  43  65  96 129 172 226 268 326 410
#
# _framework density 22.427109999999999
#
# number of rings (size 3 to 8) (size 9 to 14) (size 15 to 20)
#    0.000    1.455    0.000    3.818    0.000   10.182 
#    0.000   10.909    0.000    0.000    0.000    0.000 
#    0.000    0.000    0.000    0.000    0.000    0.000 
#
# Total GULP energy -122679.436236 kJ/mol
# GULP energy per Si atom -5576.338011 kJ/mol
# Density = 2.237606 g / cm^3
# Si number density = 22.427110 Si / 1000 Ang^3
#
#
#
# Elastic Constant Matrix: (Units=GPa)
#
#
# Indices 1 2 3 4 5 6 
#
# 1 205.8877 60.2485 123.4131 0.0000 0.0000 0.0000
# 2 60.2485 200.3127 75.5882 0.0000 0.0000 0.0000
# 3 123.4131 75.5882 147.9610 0.0000 0.0000 0.0000
# 4 0.0000 0.0000 0.0000 36.5620 0.0000 0.0000
# 5 0.0000 0.0000 0.0000 0.0000 163.8443 0.0000
# 6 0.0000 0.0000 0.0000 0.0000 0.0000 66.8012
#
#
#
# Elastic Compliance Matrix: (Units=1/GPa)
#
#
# Indices 1 2 3 4 5 6 
#
# 1 0.009718 0.000168 -0.008192 0.000000 0.000000 0.000000
# 2 0.000168 0.006187 -0.003301 0.000000 0.000000 0.000000
# 3 -0.008192 -0.003301 0.015278 0.000000 0.000000 0.000000
# 4 0.000000 0.000000 0.000000 0.027351 0.000000 0.000000
# 5 0.000000 0.000000 0.000000 0.000000 0.006103 0.000000
# 6 0.000000 0.000000 0.000000 0.000000 0.000000 0.014970
#
#
# Mechanical properties :
#
#
# Convention : Reuss Voigt Hill
#
# Bulk Modulus (GPa) = 117.18297 119.18455 118.18376
# Shear Modulus (GPa) = 47.57340 73.10228 60.33784
#
# Velocity S-wave (km/s) = 4.61069 5.71544 5.19253
# Velocity P-wave (km/s) = 8.98380 9.83938 9.42131
#
# Compressibility (1/GPa) = 0.00853366
#
# Stress axis : x y z
#
# Youngs Moduli (GPa) = 102.90140 161.62121 65.45524
#
# Poissons Ratio (x) = -0.02719 0.53619
# Poissons Ratio (y) = -0.01731 0.21608
# Poissons Ratio (z) = 0.84294 0.53354
#
# Static dielectric constant tensor:
#      x y z
#    x 1.975740 0.000000 0.000000 
#    y 0.000000 1.748870 0.000000 
#    z 0.000000 0.000000 1.826590 
# 
# From -- ./inp_files/445.got.cif
#   From: 2010.05.17/outbox.cif.g08.bks.cpg/sg50_1_cif.got.tgz:445.got - 2010.06.03 11:33:33.
