data_PCOD9397116
_publ_section_title
;
Structure prediction by ZEFSAII (Michael W. Deem and Ramdas Pophale) SiO2 
 PCOD9397116
Probable space group: P B A N
;
_chemical_formula_sum "Si O2"
_cell_formula_units_Z 48
_cell_length_a 24.306899
_cell_length_b 12.337754
_cell_length_c 7.466931
_cell_angle_alpha 90.000000
_cell_angle_beta 90.000000
_cell_angle_gamma 90.000000
_cell_volume 2239.276906
_symmetry_space_group_name_H-M "P B A N"
_symmetry_group_IT_number 50
_space_group.IT_coordinate_system_code '2'
_symmetry_cell_setting 'orthorhombic'
loop_
_space_group_symop_operation_xyz
x,y,z
1/2-x,1/2-y,z
x,1/2-y,-z
1/2-x,y,-z
-x,-y,-z
1/2+x,1/2+y,-z
-x,1/2+y,z
1/2+x,-y,z
loop_
_atom_site_type_symbol
_atom_site_label
_atom_site_fract_x
_atom_site_fract_y
_atom_site_fract_z
Si Si1 0.024531 0.633515 0.929467
Si Si2 0.817662 0.136162 0.204214
Si Si3 0.440459 0.925063 0.301896
Si Si4 0.542165 0.723524 0.690048
Si Si5 0.696154 0.110550 0.225575
Si Si6 0.592207 0.508809 0.664797
O O1 0.061006 0.583714 0.775180
O O2 0.967162 0.443754 0.895364
O O3 0.969547 0.680649 0.830966
O O4 0.048915 0.750000 0.000000
O O5 0.876786 0.099297 0.269655
O O6 0.759810 0.086017 0.268048
O O7 0.814013 0.262252 0.261861
O O8 0.814868 0.112393 0.989937
O O9 0.481956 0.828324 0.355597
O O10 0.436087 0.006942 0.468526
O O11 0.568176 0.750000 0.500000
O O12 0.578733 0.623086 0.758341
O O13 0.654863 0.029867 0.325102
#
# Coordination Sequence:
#
# PCOD9397116 Si02
#       6
#     8   8   8   8   8   8
#     4  10  22  38  55  84 119 158 204 251 311 369
#     4   9  18  33  56  88 119 158 198 247 305 375
#     4  11  22  36  59  86 117 162 209 251 308 374
#     4  11  24  41  57  84 127 168 210 261 314 372
#     4   9  18  34  56  84 124 157 198 248 305 370
#     4  12  23  39  60  86 126 168 209 259 313 377
#
# _framework density 21.435492
#
# number of rings (size 3 to 8) (size 9 to 14) (size 15 to 20)
#    0.000    1.667    3.333    3.500    2.333    3.333 
#    3.000    1.667    0.000    0.000    0.000    2.333 
#    0.000    2.667    0.000    0.000    0.000    0.000 
#
# Total GULP energy -267324.337698 kJ/mol
# GULP energy per Si atom -5569.257035 kJ/mol
# Density = 2.138670 g / cm^3
# Si number density = 21.435492 Si / 1000 Ang^3
#
#
#
# Elastic Constant Matrix: (Units=GPa)
#
#
# Indices 1 2 3 4 5 6 
#
# 1 132.7208 23.1073 24.0666 0.0000 0.0000 0.0000
# 2 23.1073 63.7047 37.7065 0.0000 0.0000 0.0000
# 3 24.0666 37.7065 95.7235 0.0000 0.0000 0.0000
# 4 0.0000 0.0000 0.0000 30.9778 0.0000 0.0000
# 5 0.0000 0.0000 0.0000 0.0000 26.4343 0.0000
# 6 0.0000 0.0000 0.0000 0.0000 0.0000 27.1861
#
#
#
# Elastic Compliance Matrix: (Units=1/GPa)
#
#
# Indices 1 2 3 4 5 6 
#
# 1 0.008139 -0.002270 -0.001152 0.000000 0.000000 0.000000
# 2 -0.002270 0.021103 -0.007742 0.000000 0.000000 0.000000
# 3 -0.001152 -0.007742 0.013786 0.000000 0.000000 0.000000
# 4 0.000000 0.000000 0.000000 0.032281 0.000000 0.000000
# 5 0.000000 0.000000 0.000000 0.000000 0.037830 0.000000
# 6 0.000000 0.000000 0.000000 0.000000 0.000000 0.036783
#
#
# Mechanical properties :
#
#
# Convention : Reuss Voigt Hill
#
# Bulk Modulus (GPa) = 48.31004 51.32330 49.81667
# Shear Modulus (GPa) = 27.90940 30.73754 29.32347
#
# Velocity S-wave (km/s) = 3.61226 3.79087 3.70264
# Velocity P-wave (km/s) = 6.32331 6.56932 6.44749
#
# Compressibility (1/GPa) = 0.02069963
#
# Stress axis : x y z
#
# Youngs Moduli (GPa) = 122.86869 47.38567 72.53712
#
# Poissons Ratio (x) = 0.10758 0.08356
# Poissons Ratio (y) = 0.27895 0.56159
# Poissons Ratio (z) = 0.14154 0.36686
#
# Static dielectric constant tensor:
#      x y z
#    x 1.790650 0.000000 0.000000 
#    y 0.000000 1.823160 0.000000 
#    z 0.000000 0.000000 1.905110 
# 
# From -- ./inp_files/11526.got.cif
#   From: 2010.05.17/outbox.cif.g08.bks.cpg/sg50_6_cif.got.tgz:11526.got - 2010.06.03 11:33:33.
