data_PCOD9397319
_publ_section_title
;
Structure prediction by ZEFSAII (Michael W. Deem and Ramdas Pophale) SiO2 
 PCOD9397319
Probable space group: P B A N
;
_chemical_formula_sum "Si O2"
_cell_formula_units_Z 32
_cell_length_a 8.868614
_cell_length_b 11.021386
_cell_length_c 14.154967
_cell_angle_alpha 90.000000
_cell_angle_beta 90.000000
_cell_angle_gamma 90.000000
_cell_volume 1383.569014
_symmetry_space_group_name_H-M "P B A N"
_symmetry_group_IT_number 50
_space_group.IT_coordinate_system_code '2'
_symmetry_cell_setting 'orthorhombic'
loop_
_space_group_symop_operation_xyz
x,y,z
1/2-x,1/2-y,z
x,1/2-y,-z
1/2-x,y,-z
-x,-y,-z
1/2+x,1/2+y,-z
-x,1/2+y,z
1/2+x,-y,z
loop_
_atom_site_type_symbol
_atom_site_label
_atom_site_fract_x
_atom_site_fract_y
_atom_site_fract_z
Si Si1 0.922707 0.119771 0.462352
Si Si2 0.115568 0.665759 0.254030
Si Si3 0.072623 0.185457 0.898039
Si Si4 0.201788 0.987398 0.103621
O O1 0.982776 0.250000 0.500000
O O2 0.750000 0.114987 0.500000
O O3 0.948892 0.112268 0.349402
O O4 0.000000 0.000000 0.500000
O O5 0.250000 0.750000 0.292197
O O6 0.997199 0.737097 0.188126
O O7 0.208169 0.577141 0.186429
O O8 0.968702 0.061298 0.892919
O O9 0.044060 0.250000 0.000000
O O10 0.241230 0.127267 0.891775
O O11 0.250000 0.944105 0.000000
#
# Coordination Sequence:
#
# PCOD9397319 Si02
#       4
#     8   8   8   8
#     4  11  25  48  76 104 144 188 241 303 368 428
#     4  10  22  42  71  96 134 184 230 282 359 419
#     4  11  24  44  65  98 140 181 230 281 346 423
#     4  11  23  41  66  94 137 179 223 281 339 417
#
# _framework density 23.128588000000001
#
# number of rings (size 3 to 8) (size 9 to 14) (size 15 to 20)
#    0.000    1.250    5.000    0.750    3.500    1.000 
#    0.000    0.000    5.500    0.000    0.000    0.000 
#    0.000    0.000    0.000    0.000    0.000    0.000 
#
# Total GULP energy -178685.380851 kJ/mol
# GULP energy per Si atom -5583.918152 kJ/mol
# Density = 2.307595 g / cm^3
# Si number density = 23.128588 Si / 1000 Ang^3
#
#
#
# Elastic Constant Matrix: (Units=GPa)
#
#
# Indices 1 2 3 4 5 6 
#
# 1 90.8574 38.5417 41.5261 0.0000 0.0000 0.0000
# 2 38.5417 135.7817 57.1843 0.0000 0.0000 0.0000
# 3 41.5261 57.1843 188.0958 0.0000 0.0000 0.0000
# 4 0.0000 0.0000 0.0000 36.8196 0.0000 0.0000
# 5 0.0000 0.0000 0.0000 0.0000 27.8786 0.0000
# 6 0.0000 0.0000 0.0000 0.0000 0.0000 -71.4582
#
#
#
# Elastic Compliance Matrix: (Units=1/GPa)
#
#
# Indices 1 2 3 4 5 6 
#
# 1 0.013155 -0.002880 -0.002029 0.000000 0.000000 0.000000
# 2 -0.002880 0.009077 -0.002124 0.000000 0.000000 0.000000
# 3 -0.002029 -0.002124 0.006410 0.000000 0.000000 0.000000
# 4 0.000000 0.000000 0.000000 0.027159 0.000000 0.000000
# 5 0.000000 0.000000 0.000000 0.000000 0.035870 0.000000
# 6 0.000000 0.000000 0.000000 0.000000 0.000000 -0.013994
#
#
# Mechanical properties :
#
#
# Convention : Reuss Voigt Hill
#
# Bulk Modulus (GPa) = 68.59968 76.58212 72.59090
# Shear Modulus (GPa) = 51.75983 17.14684 34.45334
#
# Velocity S-wave (km/s) = 4.73579 2.72577 3.86378
# Velocity P-wave (km/s) = 7.72193 6.56428 7.16652
#
# Compressibility (1/GPa) = 0.01457733
#
# Stress axis : x y z
#
# Youngs Moduli (GPa) = 76.01642 110.17423 156.00688
#
# Poissons Ratio (x) = 0.31726 0.31651
# Poissons Ratio (y) = 0.21890 0.33131
# Poissons Ratio (z) = 0.15422 0.23397
#
# Static dielectric constant tensor:
#      x y z
#    x 1.950200 0.000000 0.000000 
#    y 0.000000 2.031370 0.000000 
#    z 0.000000 0.000000 1.866080 
# 
# From -- ./inp_files/24336.got.cif
#   From: 2010.05.17/outbox.cif.g08.bks.cpg/sg50_13_cif.got.tgz:24336.got - 2010.06.03 11:33:33.
