data_PCOD9397410
_publ_section_title
;
Structure prediction by ZEFSAII (Michael W. Deem and Ramdas Pophale) SiO2 
 PCOD9397410
Probable space group: P B A N
;
_chemical_formula_sum "Si O2"
_cell_formula_units_Z 30
_cell_length_a 11.800161
_cell_length_b 13.297553
_cell_length_c 8.742324
_cell_angle_alpha 90.000000
_cell_angle_beta 90.000000
_cell_angle_gamma 90.000000
_cell_volume 1371.786614
_symmetry_space_group_name_H-M "P B A N"
_symmetry_group_IT_number 50
_space_group.IT_coordinate_system_code '2'
_symmetry_cell_setting 'orthorhombic'
loop_
_space_group_symop_operation_xyz
x,y,z
1/2-x,1/2-y,z
x,1/2-y,-z
1/2-x,y,-z
-x,-y,-z
1/2+x,1/2+y,-z
-x,1/2+y,z
1/2+x,-y,z
loop_
_atom_site_type_symbol
_atom_site_label
_atom_site_fract_x
_atom_site_fract_y
_atom_site_fract_z
Si Si1 0.554323 0.332005 0.904347
Si Si2 0.250000 0.750000 0.731501
Si Si3 0.750000 0.750000 0.500000
Si Si4 0.250000 0.512881 0.000000
Si Si5 0.250000 0.573263 0.500000
Si Si6 0.141220 0.417274 0.294354
O O1 0.638193 0.248086 0.831421
O O2 0.476853 0.392652 0.786214
O O3 0.479419 0.250000 0.000000
O O4 0.639499 0.416507 0.973143
O O5 0.224375 0.651390 0.634042
O O6 0.822458 0.680557 0.612192
O O7 0.275619 0.449481 0.846055
O O8 0.153368 0.503801 0.424458
#
# Coordination Sequence:
#
# PCOD9397410 Si02
#       6
#     8   4   2   4   4   8
#     4  12  23  43  74 107 142 188 242 298 362 426
#     4  11  21  42  72 103 150 181 234 297 348 433
#     4  10  28  52  60 108 148 184 248 298 356 446
#     4  12  23  47  70 106 146 180 248 302 348 434
#     4  10  22  46  68 102 144 186 236 296 352 434
#     4  11  26  45  71 100 142 193 240 298 365 421
#
# _framework density 21.869292000000002
#
# number of rings (size 3 to 8) (size 9 to 14) (size 15 to 20)
#    0.000    0.800    5.333    0.800    3.733    3.200 
#    0.000    0.000    0.000    0.000    0.000    0.000 
#    0.000    0.000    0.000    0.000    0.000    0.000 
#
# Total GULP energy -167041.724747 kJ/mol
# GULP energy per Si atom -5568.057492 kJ/mol
# Density = 2.181952 g / cm^3
# Si number density = 21.869292 Si / 1000 Ang^3
#
#
#
# Elastic Constant Matrix: (Units=GPa)
#
#
# Indices 1 2 3 4 5 6 
#
# 1 68.9071 49.3227 26.7268 0.0000 0.0000 0.0000
# 2 49.3227 135.1812 69.0808 0.0000 0.0000 0.0000
# 3 26.7268 69.0808 95.5700 0.0000 0.0000 0.0000
# 4 0.0000 0.0000 0.0000 56.7766 0.0000 0.0000
# 5 0.0000 0.0000 0.0000 0.0000 -207.5570 0.0000
# 6 0.0000 0.0000 0.0000 0.0000 0.0000 -0.6093
#
#
#
# Elastic Compliance Matrix: (Units=1/GPa)
#
#
# Indices 1 2 3 4 5 6 
#
# 1 0.019657 -0.006918 -0.000496 0.000000 0.000000 0.000000
# 2 -0.006918 0.014166 -0.008305 0.000000 0.000000 0.000000
# 3 -0.000496 -0.008305 0.016605 0.000000 0.000000 0.000000
# 4 0.000000 0.000000 0.000000 0.017613 0.000000 0.000000
# 5 0.000000 0.000000 0.000000 0.000000 -0.004818 0.000000
# 6 0.000000 0.000000 0.000000 0.000000 0.000000 -1.641262
#
#
# Mechanical properties :
#
#
# Convention : Reuss Voigt Hill
#
# Bulk Modulus (GPa) = 52.66202 65.54654 59.10428
# Shear Modulus (GPa) = -3.24618 -19.97607 -11.61113
#
# Velocity S-wave (km/s) = -1.21966 -3.02558 -2.30670
# Velocity P-wave (km/s) = 4.70629 4.22274 4.47106
#
# Compressibility (1/GPa) = 0.01898902
#
# Stress axis : x y z
#
# Youngs Moduli (GPa) = 50.87258 70.59357 60.22250
#
# Poissons Ratio (x) = 0.48840 0.02989
# Poissons Ratio (y) = 0.35196 0.50012
# Poissons Ratio (z) = 0.02525 0.58625
#
# Static dielectric constant tensor:
#      x y z
#    x 1.819990 0.000000 0.000000 
#    y 0.000000 1.866320 0.000000 
#    z 0.000000 0.000000 1.967280 
# 
# From -- ./inp_files/10637.got.cif
#   From: 2010.05.17/outbox.cif.g08.bks.cpg/sg50_6_cif.got.tgz:10637.got - 2010.06.03 11:33:33.
