data_PCOD9397497
_publ_section_title
;
Structure prediction by ZEFSAII (Michael W. Deem and Ramdas Pophale) SiO2 
 PCOD9397497
Probable space group: P B A N
;
_chemical_formula_sum "Si O2"
_cell_formula_units_Z 24
_cell_length_a 26.249992
_cell_length_b 7.555028
_cell_length_c 5.203483
_cell_angle_alpha 90.000000
_cell_angle_beta 90.000000
_cell_angle_gamma 90.000000
_cell_volume 1031.951754
_symmetry_space_group_name_H-M "P B A N"
_symmetry_group_IT_number 50
_space_group.IT_coordinate_system_code '2'
_symmetry_cell_setting 'orthorhombic'
loop_
_space_group_symop_operation_xyz
x,y,z
1/2-x,1/2-y,z
x,1/2-y,-z
1/2-x,y,-z
-x,-y,-z
1/2+x,1/2+y,-z
-x,1/2+y,z
1/2+x,-y,z
loop_
_atom_site_type_symbol
_atom_site_label
_atom_site_fract_x
_atom_site_fract_y
_atom_site_fract_z
Si Si1 0.881261 0.556627 0.584883
Si Si2 0.226792 0.551503 0.256803
Si Si3 0.058825 0.543341 0.936697
O O1 0.862987 0.750000 0.500000
O O2 0.832938 0.442103 0.680548
O O3 0.916962 0.488976 0.347680
O O4 0.913120 0.569667 0.845277
O O5 0.250000 0.750000 0.252177
O O6 0.250000 0.456199 0.500000
O O7 0.250000 0.469216 0.000000
O O8 0.066801 0.750000 0.000000
O O9 0.000000 0.500000 0.000000
#
# Coordination Sequence:
#
# PCOD9397497 Si02
#       3
#     8   8   8
#     4  12  26  46  74 110 150 196 248 311 382 441
#     4  10  23  41  70 100 144 184 252 291 360 439
#     4  12  27  47  76 108 149 195 251 310 377 454
#
# _framework density 23.256900999999999
#
# number of rings (size 3 to 8) (size 9 to 14) (size 15 to 20)
#    0.000    0.667    0.000    7.000   14.000    0.667 
#    0.000    1.667    0.000    0.000    0.000    0.000 
#    0.000    0.000    0.000    0.000    0.000    0.000 
#
# Total GULP energy -133884.869709 kJ/mol
# GULP energy per Si atom -5578.536238 kJ/mol
# Density = 2.320397 g / cm^3
# Si number density = 23.256901 Si / 1000 Ang^3
#
#
#
# Elastic Constant Matrix: (Units=GPa)
#
#
# Indices 1 2 3 4 5 6 
#
# 1 211.9645 21.5969 85.2054 0.0000 0.0000 0.0000
# 2 21.5969 111.0235 18.9477 0.0000 0.0000 0.0000
# 3 85.2054 18.9477 243.3120 0.0000 0.0000 0.0000
# 4 0.0000 0.0000 0.0000 20.5134 0.0000 0.0000
# 5 0.0000 0.0000 0.0000 0.0000 48.0171 0.0000
# 6 0.0000 0.0000 0.0000 0.0000 0.0000 34.8096
#
#
#
# Elastic Compliance Matrix: (Units=1/GPa)
#
#
# Indices 1 2 3 4 5 6 
#
# 1 0.005553 -0.000758 -0.001886 0.000000 0.000000 0.000000
# 2 -0.000758 0.009232 -0.000453 0.000000 0.000000 0.000000
# 3 -0.001886 -0.000453 0.004806 0.000000 0.000000 0.000000
# 4 0.000000 0.000000 0.000000 0.048749 0.000000 0.000000
# 5 0.000000 0.000000 0.000000 0.000000 0.020826 0.000000
# 6 0.000000 0.000000 0.000000 0.000000 0.000000 0.028728
#
#
# Mechanical properties :
#
#
# Convention : Reuss Voigt Hill
#
# Bulk Modulus (GPa) = 74.64938 90.86666 82.75802
# Shear Modulus (GPa) = 38.89453 50.03801 44.46627
#
# Velocity S-wave (km/s) = 4.09392 4.64349 4.37734
# Velocity P-wave (km/s) = 7.38338 8.24045 7.82366
#
# Compressibility (1/GPa) = 0.01339596
#
# Stress axis : x y z
#
# Youngs Moduli (GPa) = 180.08301 108.31886 208.09268
#
# Poissons Ratio (x) = 0.08215 0.39237
# Poissons Ratio (y) = 0.13658 0.09434
# Poissons Ratio (z) = 0.33955 0.04911
#
# Static dielectric constant tensor:
#      x y z
#    x 2.097390 0.000000 0.000000 
#    y 0.000000 1.880160 0.000000 
#    z 0.000000 0.000000 1.891940 
# 
# From -- ./inp_files/779.got.cif
#   From: 2010.05.17/outbox.cif.g08.bks.cpg/sg50_1_cif.got.tgz:779.got - 2010.06.03 11:33:33.
