data_PCOD9397553
_publ_section_title
;
Structure prediction by ZEFSAII (Michael W. Deem and Ramdas Pophale) SiO2 
 PCOD9397553
Probable space group: P B A N
;
_chemical_formula_sum "Si O2"
_cell_formula_units_Z 22
_cell_length_a 5.072624
_cell_length_b 11.808196
_cell_length_c 15.811378
_cell_angle_alpha 90.000000
_cell_angle_beta 90.000000
_cell_angle_gamma 90.000000
_cell_volume 947.078433
_symmetry_space_group_name_H-M "P B A N"
_symmetry_group_IT_number 50
_space_group.IT_coordinate_system_code '2'
_symmetry_cell_setting 'orthorhombic'
loop_
_space_group_symop_operation_xyz
x,y,z
1/2-x,1/2-y,z
x,1/2-y,-z
1/2-x,y,-z
-x,-y,-z
1/2+x,1/2+y,-z
-x,1/2+y,z
1/2+x,-y,z
loop_
_atom_site_type_symbol
_atom_site_label
_atom_site_fract_x
_atom_site_fract_y
_atom_site_fract_z
Si Si1 0.250000 0.250000 0.500000
Si Si2 0.823220 0.080547 0.091261
Si Si3 0.517481 0.915347 0.636497
Si Si4 0.250000 0.750000 0.233970
O O1 0.431704 0.166259 0.443993
O O2 0.877281 0.163886 0.168137
O O3 0.569310 0.001820 0.097689
O O4 0.750000 0.133899 0.000000
O O5 0.450703 0.823849 0.709674
O O6 0.773517 0.996571 0.639152
#
# Coordination Sequence:
#
# PCOD9397553 Si02
#       4
#     2   8   8   4
#     4  12  28  54  80 104 142 198 240 306 396 452
#     4  10  23  43  68 102 144 190 243 296 349 422
#     4  12  28  48  73 107 143 182 241 304 364 448
#     4  12  25  45  72 106 144 194 236 295 371 430
#
# _framework density 23.229336
#
# number of rings (size 3 to 8) (size 9 to 14) (size 15 to 20)
#    0.000    0.727    0.000    6.000    0.000   12.364 
#    0.000    5.455    0.000    0.000    0.000    0.000 
#    0.000    0.000    0.000    0.000    0.000    0.000 
#
# Total GULP energy -122812.955358 kJ/mol
# GULP energy per Si atom -5582.407062 kJ/mol
# Density = 2.317646 g / cm^3
# Si number density = 23.229336 Si / 1000 Ang^3
#
#
#
# Elastic Constant Matrix: (Units=GPa)
#
#
# Indices 1 2 3 4 5 6 
#
# 1 182.3348 93.2687 44.9721 0.0000 0.0000 0.0000
# 2 93.2687 198.7593 111.0237 0.0000 0.0000 0.0000
# 3 44.9721 111.0237 177.1730 0.0000 0.0000 0.0000
# 4 0.0000 0.0000 0.0000 38.0882 0.0000 0.0000
# 5 0.0000 0.0000 0.0000 0.0000 18.7051 0.0000
# 6 0.0000 0.0000 0.0000 0.0000 0.0000 6.4433
#
#
#
# Elastic Compliance Matrix: (Units=1/GPa)
#
#
# Indices 1 2 3 4 5 6 
#
# 1 0.007240 -0.003648 0.000448 0.000000 0.000000 0.000000
# 2 -0.003648 0.009578 -0.005076 0.000000 0.000000 0.000000
# 3 0.000448 -0.005076 0.008712 0.000000 0.000000 0.000000
# 4 0.000000 0.000000 0.000000 0.026255 0.000000 0.000000
# 5 0.000000 0.000000 0.000000 0.000000 0.053461 0.000000
# 6 0.000000 0.000000 0.000000 0.000000 0.000000 0.155201
#
#
# Mechanical properties :
#
#
# Convention : Reuss Voigt Hill
#
# Bulk Modulus (GPa) = 111.38437 117.42179 114.40308
# Shear Modulus (GPa) = 17.85770 33.24749 25.55259
#
# Velocity S-wave (km/s) = 2.77565 3.78732 3.32024
# Velocity P-wave (km/s) = 7.63717 8.35366 8.00344
#
# Compressibility (1/GPa) = 0.00897792
#
# Stress axis : x y z
#
# Youngs Moduli (GPa) = 138.12705 104.40157 114.79038
#
# Poissons Ratio (x) = 0.38081 -0.05143
# Poissons Ratio (y) = 0.50382 0.58272
# Poissons Ratio (z) = -0.06188 0.52998
#
# Static dielectric constant tensor:
#      x y z
#    x 1.885300 0.000000 0.000000 
#    y 0.000000 1.953460 0.000000 
#    z 0.000000 0.000000 1.977390 
# 
# From -- ./inp_files/23494.got.cif
#   From: 2010.05.17/outbox.cif.g08.bks.cpg/sg50_12_cif.got.tgz:23494.got - 2010.06.03 11:33:33.
