data_PCOD9397042
_publ_section_title
;
Structure prediction by ZEFSAII (Michael W. Deem and Ramdas Pophale) SiO2 
 PCOD9397042
Probable space group: P B A N
;
_chemical_formula_sum "Si O2"
_cell_formula_units_Z 38
_cell_length_a 13.963127
_cell_length_b 19.016367
_cell_length_c 6.364965
_cell_angle_alpha 90.000000
_cell_angle_beta 90.000000
_cell_angle_gamma 90.000000
_cell_volume 1690.076092
_symmetry_space_group_name_H-M "P B A N"
_symmetry_group_IT_number 50
_space_group.IT_coordinate_system_code '2'
_symmetry_cell_setting 'orthorhombic'
loop_
_space_group_symop_operation_xyz
x,y,z
1/2-x,1/2-y,z
x,1/2-y,-z
1/2-x,y,-z
-x,-y,-z
1/2+x,1/2+y,-z
-x,1/2+y,z
1/2+x,-y,z
loop_
_atom_site_type_symbol
_atom_site_label
_atom_site_fract_x
_atom_site_fract_y
_atom_site_fract_z
Si Si1 0.607368 0.852030 0.730922
Si Si2 0.874845 0.463099 0.269483
Si Si3 0.250000 0.057318 0.000000
Si Si4 0.515856 0.419086 0.358702
Si Si5 0.250000 0.250000 0.500000
Si Si6 0.076045 0.825679 0.018158
O O1 0.662670 0.898229 0.904102
O O2 0.561695 0.894172 0.533495
O O3 0.683659 0.798275 0.641995
O O4 0.518592 0.814064 0.841108
O O5 0.890010 0.441449 0.510830
O O6 0.874174 0.391731 0.133871
O O7 0.968592 0.514215 0.240695
O O8 0.788477 0.510197 0.190926
O O9 0.542499 0.356883 0.203690
O O10 0.125895 0.750000 0.000000
#
# Coordination Sequence:
#
# PCOD9397042 Si02
#       6
#     8   8   4   8   2   8
#     4  11  25  38  62  92 136 166 211 258 330 397
#     4  10  23  39  65  93 128 164 224 265 321 378
#     4  12  24  41  61  98 126 172 216 288 322 376
#     4  10  21  43  64  91 126 175 216 265 313 402
#     4  12  24  38  56 100 138 176 200 270 348 404
#     4  11  23  42  66  93 127 174 212 261 320 400
#
# _framework density 22.484193000000001
#
# number of rings (size 3 to 8) (size 9 to 14) (size 15 to 20)
#    0.000    1.263    2.105    3.158    8.842    2.526 
#    0.000    0.526    0.000    0.000    5.474    0.000 
#    0.000    0.000    0.000    0.000    0.000    0.000 
#
# Total GULP energy -212424.697568 kJ/mol
# GULP energy per Si atom -5590.123620 kJ/mol
# Density = 2.243302 g / cm^3
# Si number density = 22.484193 Si / 1000 Ang^3
#
#
#
# Elastic Constant Matrix: (Units=GPa)
#
#
# Indices 1 2 3 4 5 6 
#
# 1 24.5462 -3.9390 0.3010 0.0000 0.0000 0.0000
# 2 -3.9390 125.4220 27.2150 0.0000 0.0000 0.0000
# 3 0.3010 27.2150 77.9962 0.0000 0.0000 0.0000
# 4 0.0000 0.0000 0.0000 -8.3265 0.0000 0.0000
# 5 0.0000 0.0000 0.0000 0.0000 28.0421 0.0000
# 6 0.0000 0.0000 0.0000 0.0000 0.0000 25.9968
#
#
#
# Elastic Compliance Matrix: (Units=1/GPa)
#
#
# Indices 1 2 3 4 5 6 
#
# 1 0.040977 0.001429 -0.000657 0.000000 0.000000 0.000000
# 2 0.001429 0.008676 -0.003033 0.000000 0.000000 0.000000
# 3 -0.000657 -0.003033 0.013882 0.000000 0.000000 0.000000
# 4 0.000000 0.000000 0.000000 -0.120099 0.000000 0.000000
# 5 0.000000 0.000000 0.000000 0.000000 0.035661 0.000000
# 6 0.000000 0.000000 0.000000 0.000000 0.000000 0.038466
#
#
# Mechanical properties :
#
#
# Convention : Reuss Voigt Hill
#
# Bulk Modulus (GPa) = 16.94504 30.56873 23.75689
# Shear Modulus (GPa) = 119.74567 22.76830 71.25698
#
# Velocity S-wave (km/s) = 7.30571 3.18565 5.63568
# Velocity P-wave (km/s) = 8.87227 5.21117 7.27577
#
# Compressibility (1/GPa) = 0.05901431
#
# Stress axis : x y z
#
# Youngs Moduli (GPa) = 24.40396 115.25967 72.03620
#
# Poissons Ratio (x) = -0.16476 0.04732
# Poissons Ratio (y) = -0.03488 0.21847
# Poissons Ratio (z) = 0.01603 0.34956
#
# Static dielectric constant tensor:
#      x y z
#    x 1.807770 0.000000 0.000000 
#    y 0.000000 1.845570 0.000000 
#    z 0.000000 0.000000 1.830010 
# 
# From -- ./inp_files/3401.got.cif
#   From: 2010.05.17/outbox.cif.g08.bks.cpg/sg50_2_cif.got.tgz:3401.got - 2010.06.03 11:33:33.
