data_PCOD9397185
_publ_section_title
;
Structure prediction by ZEFSAII (Michael W. Deem and Ramdas Pophale) SiO2 
 PCOD9397185
Probable space group: P B A N
;
_chemical_formula_sum "Si O2"
_cell_formula_units_Z 64
_cell_length_a 9.823003
_cell_length_b 17.133518
_cell_length_c 15.899236
_cell_angle_alpha 90.000000
_cell_angle_beta 90.000000
_cell_angle_gamma 90.000000
_cell_volume 2675.882736
_symmetry_space_group_name_H-M "P B A N"
_symmetry_group_IT_number 50
_space_group.IT_coordinate_system_code '2'
_symmetry_cell_setting 'orthorhombic'
loop_
_space_group_symop_operation_xyz
x,y,z
1/2-x,1/2-y,z
x,1/2-y,-z
1/2-x,y,-z
-x,-y,-z
1/2+x,1/2+y,-z
-x,1/2+y,z
1/2+x,-y,z
loop_
_atom_site_type_symbol
_atom_site_label
_atom_site_fract_x
_atom_site_fract_y
_atom_site_fract_z
Si Si1 0.292358 0.998121 0.594334
Si Si2 0.092244 0.333496 0.803106
Si Si3 0.086244 0.749265 0.403468
Si Si4 0.887205 0.301331 0.232147
Si Si5 0.508807 0.068807 0.132546
Si Si6 0.387531 0.418333 0.033993
Si Si7 0.947210 0.020970 0.288554
Si Si8 0.182883 0.328323 0.632809
O O1 0.250000 0.968970 0.500000
O O2 0.189391 0.960776 0.661046
O O3 0.266573 0.091675 0.593991
O O4 0.441778 0.995120 0.639174
O O5 0.002875 0.255578 0.804297
O O6 0.004360 0.406253 0.765075
O O7 0.139734 0.353997 0.895809
O O8 0.208676 0.329471 0.732697
O O9 0.250000 0.750000 0.406499
O O10 0.045550 0.750000 0.500000
O O11 0.066184 0.813338 0.329737
O O12 0.981426 0.681727 0.374521
O O13 0.750000 0.250000 0.232441
O O14 0.875695 0.378968 0.177104
O O15 0.422917 0.043609 0.215179
O O16 0.542011 0.988057 0.085252
O O17 0.455419 0.114531 0.050691
O O18 0.250000 0.455788 0.000000
O O19 0.250000 0.250000 0.598017
#
# Coordination Sequence:
#
# PCOD9397185 Si02
#       8
#     8   8   8   8   8   8   8   8
#     4  11  25  43  67  98 134 182 240 293 342 408
#     4   9  22  43  61  94 135 169 226 278 345 411
#     4   9  20  39  61  92 138 180 224 271 339 420
#     4  10  22  39  66  94 133 174 219 280 343 405
#     4  10  24  40  66 101 126 176 228 272 352 413
#     4  10  23  43  68  95 130 173 228 281 334 424
#     4  10  24  43  70  92 135 184 227 286 346 422
#     4  10  23  38  64  98 135 176 222 282 355 418
#
# _framework density 23.917338999999998
#
# number of rings (size 3 to 8) (size 9 to 14) (size 15 to 20)
#    0.000    2.125    0.000    0.375   12.250    2.500 
#    0.000    2.500    0.000    0.000    0.000    0.000 
#    0.000    0.000    0.000    0.000    0.000    0.000 
#
# Total GULP energy -356289.499579 kJ/mol
# GULP energy per Si atom -5567.023431 kJ/mol
# Density = 2.386290 g / cm^3
# Si number density = 23.917339 Si / 1000 Ang^3
#
#
#
# Elastic Constant Matrix: (Units=GPa)
#
#
# Indices 1 2 3 4 5 6 
#
# 1 58.5526 0.2992 24.1608 0.0000 0.0000 0.0000
# 2 0.2992 53.4377 23.1490 0.0000 0.0000 0.0000
# 3 24.1608 23.1490 217.0901 0.0000 0.0000 0.0000
# 4 0.0000 0.0000 0.0000 309.9232 0.0000 0.0000
# 5 0.0000 0.0000 0.0000 0.0000 13.9067 0.0000
# 6 0.0000 0.0000 0.0000 0.0000 0.0000 28.5865
#
#
#
# Elastic Compliance Matrix: (Units=1/GPa)
#
#
# Indices 1 2 3 4 5 6 
#
# 1 0.017933 0.000801 -0.002081 0.000000 0.000000 0.000000
# 2 0.000801 0.019655 -0.002185 0.000000 0.000000 0.000000
# 3 -0.002081 -0.002185 0.005071 0.000000 0.000000 0.000000
# 4 0.000000 0.000000 0.000000 0.003227 0.000000 0.000000
# 5 0.000000 0.000000 0.000000 0.000000 0.071908 0.000000
# 6 0.000000 0.000000 0.000000 0.000000 0.000000 0.034982
#
#
# Mechanical properties :
#
#
# Convention : Reuss Voigt Hill
#
# Bulk Modulus (GPa) = 27.98808 47.14426 37.56617
# Shear Modulus (GPa) = 29.13481 89.24803 59.19142
#
# Velocity S-wave (km/s) = 3.49398 6.11524 4.98017
# Velocity P-wave (km/s) = 5.29194 8.34360 6.98643
#
# Compressibility (1/GPa) = 0.03572950
#
# Stress axis : x y z
#
# Youngs Moduli (GPa) = 55.76193 50.87643 197.19886
#
# Poissons Ratio (x) = -0.04076 0.41043
# Poissons Ratio (y) = -0.04468 0.43090
# Poissons Ratio (z) = 0.11606 0.11117
#
# Static dielectric constant tensor:
#      x y z
#    x 1.959280 0.000000 0.000000 
#    y 0.000000 1.991630 0.000000 
#    z 0.000000 0.000000 1.998320 
# 
# From -- ./inp_files/26052.got.cif
#   From: 2010.05.17/outbox.cif.g08.bks.cpg/sg50_14_cif.got.tgz:26052.got - 2010.06.03 11:33:33.
