data_PCOD9397961
_publ_section_title
;
Structure prediction by ZEFSAII (Michael W. Deem and Ramdas Pophale) SiO2 
 PCOD9397961
Probable space group: P B A N
;
_chemical_formula_sum "Si O2"
_cell_formula_units_Z 34
_cell_length_a 21.733852
_cell_length_b 5.278822
_cell_length_c 12.578379
_cell_angle_alpha 90.000000
_cell_angle_beta 90.000000
_cell_angle_gamma 90.000000
_cell_volume 1443.106556
_symmetry_space_group_name_H-M "P B A N"
_symmetry_group_IT_number 50
_space_group.IT_coordinate_system_code '2'
_symmetry_cell_setting 'orthorhombic'
loop_
_space_group_symop_operation_xyz
x,y,z
1/2-x,1/2-y,z
x,1/2-y,-z
1/2-x,y,-z
-x,-y,-z
1/2+x,1/2+y,-z
-x,1/2+y,z
1/2+x,-y,z
loop_
_atom_site_type_symbol
_atom_site_label
_atom_site_fract_x
_atom_site_fract_y
_atom_site_fract_z
Si Si1 0.250000 0.750000 0.000000
Si Si2 0.250000 0.250000 0.783496
Si Si3 0.032447 0.196614 0.253535
Si Si4 0.250000 0.750000 0.338781
Si Si5 0.062458 0.250000 0.500000
Si Si6 0.354474 0.374318 0.104284
Si Si7 0.643387 0.250000 0.500000
O O1 0.301177 0.580090 0.067663
O O2 0.231166 0.492240 0.717602
O O3 0.308807 0.337848 0.849191
O O4 0.031424 0.229840 0.382856
O O5 0.094693 0.091867 0.196467
O O6 0.017347 0.484496 0.219350
O O7 0.310177 0.811961 0.405434
O O8 0.102212 0.503507 0.505699
O O9 0.384562 0.250000 0.000000
#
# Coordination Sequence:
#
# PCOD9397961 Si02
#       7
#     2   4   8   4   4   8   4
#     4  12  24  52  78 118 154 200 248 318 384 464
#     4  12  23  43  68 106 140 195 238 308 375 454
#     4  12  29  50  77 110 149 202 252 313 370 443
#     4  11  23  36  62 102 154 183 247 298 380 450
#     4  12  24  48  74 101 146 194 262 305 372 436
#     4  12  27  46  76 111 150 197 249 308 380 452
#     4  11  22  39  64 105 140 199 236 314 370 442
#
# _framework density 23.560286000000001
#
# number of rings (size 3 to 8) (size 9 to 14) (size 15 to 20)
#    0.000    0.235    2.353    7.059    3.294    2.824 
#    0.000    0.000    0.000    0.000    0.000    0.000 
#    0.000    0.000    0.000    0.000    0.000    0.000 
#
# Total GULP energy -189278.432364 kJ/mol
# GULP energy per Si atom -5567.012717 kJ/mol
# Density = 2.350666 g / cm^3
# Si number density = 23.560286 Si / 1000 Ang^3
#
#
#
# Elastic Constant Matrix: (Units=GPa)
#
#
# Indices 1 2 3 4 5 6 
#
# 1 83.3338 25.2162 22.0485 0.0000 0.0000 0.0000
# 2 25.2162 96.1381 -0.2000 0.0000 0.0000 0.0000
# 3 22.0485 -0.2000 79.4544 0.0000 0.0000 0.0000
# 4 0.0000 0.0000 0.0000 15.9867 0.0000 0.0000
# 5 0.0000 0.0000 0.0000 0.0000 220.0673 0.0000
# 6 0.0000 0.0000 0.0000 0.0000 0.0000 49.4481
#
#
#
# Elastic Compliance Matrix: (Units=1/GPa)
#
#
# Indices 1 2 3 4 5 6 
#
# 1 0.014170 -0.003725 -0.003942 0.000000 0.000000 0.000000
# 2 -0.003725 0.011381 0.001062 0.000000 0.000000 0.000000
# 3 -0.003942 0.001062 0.013682 0.000000 0.000000 0.000000
# 4 0.000000 0.000000 0.000000 0.062552 0.000000 0.000000
# 5 0.000000 0.000000 0.000000 0.000000 0.004544 0.000000
# 6 0.000000 0.000000 0.000000 0.000000 0.000000 0.020223
#
#
# Mechanical properties :
#
#
# Convention : Reuss Voigt Hill
#
# Bulk Modulus (GPa) = 38.42466 39.22841 38.82654
# Shear Modulus (GPa) = 33.68470 71.22453 52.45461
#
# Velocity S-wave (km/s) = 3.78527 5.50422 4.72359
# Velocity P-wave (km/s) = 5.95389 7.55523 6.80185
#
# Compressibility (1/GPa) = 0.02602495
#
# Stress axis : x y z
#
# Youngs Moduli (GPa) = 70.57219 87.86653 73.08729
#
# Poissons Ratio (x) = 0.32729 0.28807
# Poissons Ratio (y) = 0.26287 -0.07764
# Poissons Ratio (z) = 0.27816 -0.09334
#
# Static dielectric constant tensor:
#      x y z
#    x 1.840510 0.000000 0.000000 
#    y 0.000000 1.614420 0.000000 
#    z 0.000000 0.000000 2.065150 
# 
# From -- ./inp_files/22658.got.cif
#   From: 2010.05.17/outbox.cif.g08.bks.cpg/sg50_12_cif.got.tgz:22658.got - 2010.06.03 11:33:33.
