data_PCOD9397671
_publ_section_title
;
Structure prediction by ZEFSAII (Michael W. Deem and Ramdas Pophale) SiO2 
 PCOD9397671
Probable space group: P B A N
;
_chemical_formula_sum "Si O2"
_cell_formula_units_Z 30
_cell_length_a 24.613969
_cell_length_b 5.693611
_cell_length_c 9.232344
_cell_angle_alpha 90.000000
_cell_angle_beta 90.000000
_cell_angle_gamma 90.000000
_cell_volume 1293.842519
_symmetry_space_group_name_H-M "P B A N"
_symmetry_group_IT_number 50
_space_group.IT_coordinate_system_code '2'
_symmetry_cell_setting 'orthorhombic'
loop_
_space_group_symop_operation_xyz
x,y,z
1/2-x,1/2-y,z
x,1/2-y,-z
1/2-x,y,-z
-x,-y,-z
1/2+x,1/2+y,-z
-x,1/2+y,z
1/2+x,-y,z
loop_
_atom_site_type_symbol
_atom_site_label
_atom_site_fract_x
_atom_site_fract_y
_atom_site_fract_z
Si Si1 0.680044 0.250000 0.000000
Si Si2 0.701834 0.935499 0.742418
Si Si3 0.603654 0.870300 0.147917
Si Si4 0.750000 0.250000 0.500000
Si Si5 0.938340 0.999035 0.556764
O O1 0.641973 0.419134 0.904697
O O2 0.710102 0.085589 0.886788
O O3 0.750000 0.750000 0.733728
O O4 0.644125 0.812695 0.771687
O O5 0.711129 0.095417 0.602446
O O6 0.563823 0.973503 0.269258
O O7 0.581391 0.750000 0.000000
O O8 0.914910 0.250000 0.500000
O O9 0.914265 0.750000 0.500000
O O10 0.000000 0.000000 0.500000
#
# Coordination Sequence:
#
# PCOD9397671 Si02
#       5
#     4   8   8   2   8
#     4  10  24  43  68  94 136 182 240 294 353 426
#     4  11  25  43  62  97 138 186 240 290 355 425
#     4  10  24  44  70 101 138 189 243 298 364 445
#     4  12  26  42  60  94 144 190 246 300 346 422
#     4  10  24  47  74 106 144 184 238 305 378 443
#
# _framework density 23.186747
#
# number of rings (size 3 to 8) (size 9 to 14) (size 15 to 20)
#    0.000    1.600    0.000    2.000    7.467   17.067 
#    2.400    5.333    0.000    0.000    0.000    0.000 
#    0.000    0.000    0.000    0.000    0.000    0.000 
#
# Total GULP energy -167650.505964 kJ/mol
# GULP energy per Si atom -5588.350199 kJ/mol
# Density = 2.313397 g / cm^3
# Si number density = 23.186747 Si / 1000 Ang^3
#
#
#
# Elastic Constant Matrix: (Units=GPa)
#
#
# Indices 1 2 3 4 5 6 
#
# 1 57.5340 21.4561 68.2474 0.0000 0.0000 0.0000
# 2 21.4561 165.1323 85.3842 0.0000 0.0000 0.0000
# 3 68.2474 85.3842 230.1311 0.0000 0.0000 0.0000
# 4 0.0000 0.0000 0.0000 47.8948 0.0000 0.0000
# 5 0.0000 0.0000 0.0000 0.0000 27.4682 0.0000
# 6 0.0000 0.0000 0.0000 0.0000 0.0000 8.1411
#
#
#
# Elastic Compliance Matrix: (Units=1/GPa)
#
#
# Indices 1 2 3 4 5 6 
#
# 1 0.026894 0.000779 -0.008265 0.000000 0.000000 0.000000
# 2 0.000779 0.007516 -0.003020 0.000000 0.000000 0.000000
# 3 -0.008265 -0.003020 0.007917 0.000000 0.000000 0.000000
# 4 0.000000 0.000000 0.000000 0.020879 0.000000 0.000000
# 5 0.000000 0.000000 0.000000 0.000000 0.036406 0.000000
# 6 0.000000 0.000000 0.000000 0.000000 0.000000 0.122833
#
#
# Mechanical properties :
#
#
# Convention : Reuss Voigt Hill
#
# Bulk Modulus (GPa) = 46.91293 89.21918 68.06605
# Shear Modulus (GPa) = 19.95524 35.21481 27.58503
#
# Velocity S-wave (km/s) = 2.93683 3.90134 3.45293
# Velocity P-wave (km/s) = 5.63707 7.67177 6.73174
#
# Compressibility (1/GPa) = 0.02131608
#
# Stress axis : x y z
#
# Youngs Moduli (GPa) = 37.18266 133.05212 126.31585
#
# Poissons Ratio (x) = -0.10364 1.04397
# Poissons Ratio (y) = -0.02896 0.38142
# Poissons Ratio (z) = 0.30730 0.40176
#
# Static dielectric constant tensor:
#      x y z
#    x 1.705710 0.000000 0.000000 
#    y 0.000000 1.907830 0.000000 
#    z 0.000000 0.000000 1.846090 
# 
# From -- ./inp_files/7923.got.cif
#   From: 2010.05.17/outbox.cif.g08.bks.cpg/sg50_4_cif.got.tgz:7923.got - 2010.06.03 11:33:33.
