data_PCOD9397738
_publ_section_title
;
Structure prediction by ZEFSAII (Michael W. Deem and Ramdas Pophale) SiO2 
 PCOD9397738
Probable space group: P B A N
;
_chemical_formula_sum "Si O2"
_cell_formula_units_Z 22
_cell_length_a 5.133581
_cell_length_b 16.470622
_cell_length_c 11.285672
_cell_angle_alpha 90.000000
_cell_angle_beta 90.000000
_cell_angle_gamma 90.000000
_cell_volume 954.240496
_symmetry_space_group_name_H-M "P B A N"
_symmetry_group_IT_number 50
_space_group.IT_coordinate_system_code '2'
_symmetry_cell_setting 'orthorhombic'
loop_
_space_group_symop_operation_xyz
x,y,z
1/2-x,1/2-y,z
x,1/2-y,-z
1/2-x,y,-z
-x,-y,-z
1/2+x,1/2+y,-z
-x,1/2+y,z
1/2+x,-y,z
loop_
_atom_site_type_symbol
_atom_site_label
_atom_site_fract_x
_atom_site_fract_y
_atom_site_fract_z
Si Si1 0.250000 0.443101 0.000000
Si Si2 0.404958 0.329865 0.196905
Si Si3 0.228376 0.552725 0.359823
Si Si4 0.750000 0.250000 0.000000
O O1 0.272876 0.392239 0.877446
O O2 0.500000 0.500000 0.000000
O O3 0.250000 0.250000 0.241895
O O4 0.598075 0.372501 0.290065
O O5 0.577536 0.301815 0.086739
O O6 0.250000 0.571005 0.500000
O O7 0.518032 0.519259 0.334873
#
# Coordination Sequence:
#
# PCOD9397738 Si02
#       4
#     4   8   8   2
#     4  12  24  40  65 105 148 196 246 288 368 448
#     4  12  25  43  70 108 154 196 239 313 376 447
#     4  10  24  48  78 105 141 193 256 311 364 439
#     4  12  24  44  66 104 164 186 238 300 378 454
#
# _framework density 23.054984999999999
#
# number of rings (size 3 to 8) (size 9 to 14) (size 15 to 20)
#    0.000    0.727    3.636    3.273    5.091    0.000 
#    0.000    0.909    0.000    0.000    0.000    0.000 
#    0.000    0.000    0.000    0.000    0.000    0.000 
#
# Total GULP energy -122974.122216 kJ/mol
# GULP energy per Si atom -5589.732828 kJ/mol
# Density = 2.300251 g / cm^3
# Si number density = 23.054985 Si / 1000 Ang^3
#
#
#
# Elastic Constant Matrix: (Units=GPa)
#
#
# Indices 1 2 3 4 5 6 
#
# 1 125.5554 47.4940 56.5620 0.0000 0.0000 0.0000
# 2 47.4940 117.4952 85.1219 0.0000 0.0000 0.0000
# 3 56.5620 85.1219 165.2279 0.0000 0.0000 0.0000
# 4 0.0000 0.0000 0.0000 35.8785 0.0000 0.0000
# 5 0.0000 0.0000 0.0000 0.0000 43.3480 0.0000
# 6 0.0000 0.0000 0.0000 0.0000 0.0000 64.2840
#
#
#
# Elastic Compliance Matrix: (Units=1/GPa)
#
#
# Indices 1 2 3 4 5 6 
#
# 1 0.009841 -0.002453 -0.002105 0.000000 0.000000 0.000000
# 2 -0.002453 0.014190 -0.006471 0.000000 0.000000 0.000000
# 3 -0.002105 -0.006471 0.010107 0.000000 0.000000 0.000000
# 4 0.000000 0.000000 0.000000 0.027872 0.000000 0.000000
# 5 0.000000 0.000000 0.000000 0.000000 0.023069 0.000000
# 6 0.000000 0.000000 0.000000 0.000000 0.000000 0.015556
#
#
# Mechanical properties :
#
#
# Convention : Reuss Voigt Hill
#
# Bulk Modulus (GPa) = 82.78076 87.40381 85.09229
# Shear Modulus (GPa) = 39.45729 43.30881 41.38305
#
# Velocity S-wave (km/s) = 4.14145 4.33887 4.24131
# Velocity P-wave (km/s) = 7.67154 7.94320 7.80855
#
# Compressibility (1/GPa) = 0.01208010
#
# Stress axis : x y z
#
# Youngs Moduli (GPa) = 101.61808 70.46978 98.94482
#
# Poissons Ratio (x) = 0.17284 0.20830
# Poissons Ratio (y) = 0.24924 0.64027
# Poissons Ratio (z) = 0.21393 0.45601
#
# Static dielectric constant tensor:
#      x y z
#    x 1.824430 0.000000 0.000000 
#    y 0.000000 2.275000 0.000000 
#    z 0.000000 0.000000 1.812740 
# 
# From -- ./inp_files/17263.got.cif
#   From: 2010.05.17/outbox.cif.g08.bks.cpg/sg50_9_cif.got.tgz:17263.got - 2010.06.03 11:33:33.
