data_PCOD9397991
_publ_section_title
;
Structure prediction by ZEFSAII (Michael W. Deem and Ramdas Pophale) SiO2 
 PCOD9397991
Probable space group: P B A N
;
_chemical_formula_sum "Si O2"
_cell_formula_units_Z 60
_cell_length_a 8.853025
_cell_length_b 26.125766
_cell_length_c 11.757602
_cell_angle_alpha 90.000000
_cell_angle_beta 90.000000
_cell_angle_gamma 90.000000
_cell_volume 2719.439982
_symmetry_space_group_name_H-M "P B A N"
_symmetry_group_IT_number 50
_space_group.IT_coordinate_system_code '2'
_symmetry_cell_setting 'orthorhombic'
loop_
_space_group_symop_operation_xyz
x,y,z
1/2-x,1/2-y,z
x,1/2-y,-z
1/2-x,y,-z
-x,-y,-z
1/2+x,1/2+y,-z
-x,1/2+y,z
1/2+x,-y,z
loop_
_atom_site_type_symbol
_atom_site_label
_atom_site_fract_x
_atom_site_fract_y
_atom_site_fract_z
Si Si1 0.840069 0.204158 0.705843
Si Si2 0.103756 0.859398 0.076444
Si Si3 0.750000 0.362064 0.500000
Si Si4 0.386201 0.167383 0.909557
Si Si5 0.602224 0.779097 0.333764
Si Si6 0.920354 0.889188 0.550790
Si Si7 0.321751 0.534854 0.120452
Si Si8 0.003997 0.437120 0.788088
O O1 0.750000 0.250000 0.765273
O O2 0.885320 0.164293 0.800250
O O3 0.745709 0.174316 0.610857
O O4 0.974989 0.236102 0.651288
O O5 0.059774 0.918657 0.098592
O O6 0.250000 0.867686 0.000000
O O7 0.015607 0.819483 0.998662
O O8 0.586158 0.390626 0.513063
O O9 0.379347 0.203689 0.799832
O O10 0.435878 0.111884 0.859759
O O11 0.250000 0.163563 0.000000
O O12 0.750000 0.750000 0.368522
O O13 0.586675 0.830929 0.403923
O O14 0.750000 0.899776 0.500000
O O15 0.951138 0.925013 0.659020
O O16 0.409395 0.487779 0.173626
O O17 0.176762 0.555508 0.192827
O O18 0.250000 0.518874 0.000000
#
# Coordination Sequence:
#
# PCOD9397991 Si02
#       8
#     8   8   4   8   8   8   8   8
#     4  12  24  39  67  99 132 179 234 283 345 414
#     4  11  23  40  63  97 138 179 222 278 346 418
#     4  12  25  46  74 102 136 186 242 300 350 419
#     4  11  23  39  62  95 144 182 225 280 350 428
#     4  11  24  41  63 100 138 184 235 289 348 419
#     4  11  26  49  74 101 142 183 242 303 361 419
#     4  11  22  41  71 102 138 181 230 286 354 438
#     4  11  24  45  68 105 135 179 236 293 357 434
#
# _framework density 22.063367
#
# number of rings (size 3 to 8) (size 9 to 14) (size 15 to 20)
#    0.000    0.800    4.000    4.200    1.867    5.600 
#    2.400    0.667    1.467    0.000    0.000    0.000 
#    0.000    0.000    0.000    0.000    0.000    0.000 
#
# Total GULP energy -334592.954771 kJ/mol
# GULP energy per Si atom -5576.549246 kJ/mol
# Density = 2.201315 g / cm^3
# Si number density = 22.063367 Si / 1000 Ang^3
#
#
#
# Elastic Constant Matrix: (Units=GPa)
#
#
# Indices 1 2 3 4 5 6 
#
# 1 94.2627 -0.0616 9.2625 0.0000 0.0000 0.0000
# 2 -0.0616 53.5229 9.5990 0.0000 0.0000 0.0000
# 3 9.2625 9.5990 90.4210 0.0000 0.0000 0.0000
# 4 0.0000 0.0000 0.0000 38.8462 0.0000 0.0000
# 5 0.0000 0.0000 0.0000 0.0000 33.8525 0.0000
# 6 0.0000 0.0000 0.0000 0.0000 0.0000 -29.2814
#
#
#
# Elastic Compliance Matrix: (Units=1/GPa)
#
#
# Indices 1 2 3 4 5 6 
#
# 1 0.010719 0.000213 -0.001121 0.000000 0.000000 0.000000
# 2 0.000213 0.019050 -0.002044 0.000000 0.000000 0.000000
# 3 -0.001121 -0.002044 0.011391 0.000000 0.000000 0.000000
# 4 0.000000 0.000000 0.000000 0.025743 0.000000 0.000000
# 5 0.000000 0.000000 0.000000 0.000000 0.029540 0.000000
# 6 0.000000 0.000000 0.000000 0.000000 0.000000 -0.034151
#
#
# Mechanical properties :
#
#
# Convention : Reuss Voigt Hill
#
# Bulk Modulus (GPa) = 28.36283 30.64515 29.50399
# Shear Modulus (GPa) = 62.54128 23.31058 42.92593
#
# Velocity S-wave (km/s) = 5.32989 3.25396 4.41565
# Velocity P-wave (km/s) = 7.12461 5.29503 6.27684
#
# Compressibility (1/GPa) = 0.03525741
#
# Stress axis : x y z
#
# Youngs Moduli (GPa) = 93.29306 52.49221 87.78714
#
# Poissons Ratio (x) = -0.01120 0.09838
# Poissons Ratio (y) = -0.01990 0.17946
# Poissons Ratio (z) = 0.10455 0.10731
#
# Static dielectric constant tensor:
#      x y z
#    x 1.478490 0.000000 0.000000 
#    y 0.000000 1.791240 0.000000 
#    z 0.000000 0.000000 1.921860 
# 
# From -- ./inp_files/19420.got.cif
#   From: 2010.05.17/outbox.cif.g08.bks.cpg/sg50_10_cif.got.tgz:19420.got - 2010.06.03 11:33:33.
