data_PCOD9398052
_publ_section_title
;
Structure prediction by ZEFSAII (Michael W. Deem and Ramdas Pophale) SiO2 
 PCOD9398052
Probable space group: P B A N
;
_chemical_formula_sum "Si O2"
_cell_formula_units_Z 30
_cell_length_a 10.684630
_cell_length_b 19.966229
_cell_length_c 6.529197
_cell_angle_alpha 90.000000
_cell_angle_beta 90.000000
_cell_angle_gamma 90.000000
_cell_volume 1392.885149
_symmetry_space_group_name_H-M "P B A N"
_symmetry_group_IT_number 50
_space_group.IT_coordinate_system_code '2'
_symmetry_cell_setting 'orthorhombic'
loop_
_space_group_symop_operation_xyz
x,y,z
1/2-x,1/2-y,z
x,1/2-y,-z
1/2-x,y,-z
-x,-y,-z
1/2+x,1/2+y,-z
-x,1/2+y,z
1/2+x,-y,z
loop_
_atom_site_type_symbol
_atom_site_label
_atom_site_fract_x
_atom_site_fract_y
_atom_site_fract_z
Si Si1 0.250000 0.896539 0.500000
Si Si2 0.102417 0.103869 0.972266
Si Si3 0.444866 0.971183 0.287808
Si Si4 0.455916 0.798451 0.680241
Si Si5 0.250000 0.750000 0.000000
O O1 0.305897 0.941800 0.320616
O O2 0.368129 0.854104 0.572381
O O3 0.051381 0.164621 0.833250
O O4 0.070972 0.036322 0.849623
O O5 0.250000 0.110929 0.000000
O O6 0.029628 0.087159 0.184985
O O7 0.500000 0.000000 0.500000
O O8 0.506136 0.750000 0.500000
O O9 0.357119 0.761698 0.824971
#
# Coordination Sequence:
#
# PCOD9398052 Si02
#       5
#     4   8   8   8   2
#     4  12  21  44  72 106 133 174 242 306 358 422
#     4  11  26  44  69 107 147 190 238 287 377 454
#     4  11  23  42  72 108 143 183 229 306 370 431
#     4  12  25  44  72 104 140 191 246 308 359 432
#     4  12  22  44  74  98 136 176 258 302 362 418
#
# _framework density 21.538029000000002
#
# number of rings (size 3 to 8) (size 9 to 14) (size 15 to 20)
#    0.000    0.533    5.333    3.200    3.733    0.000 
#    0.000    0.667    5.867    0.000    0.000    0.000 
#    0.000    0.000    0.000    0.000    0.000    0.000 
#
# Total GULP energy -167128.458873 kJ/mol
# GULP energy per Si atom -5570.948629 kJ/mol
# Density = 2.148901 g / cm^3
# Si number density = 21.538029 Si / 1000 Ang^3
#
#
#
# Elastic Constant Matrix: (Units=GPa)
#
#
# Indices 1 2 3 4 5 6 
#
# 1 145.9050 57.3950 62.5459 0.0000 0.0000 0.0000
# 2 57.3950 110.1129 54.3780 0.0000 0.0000 0.0000
# 3 62.5459 54.3780 135.3999 0.0000 0.0000 0.0000
# 4 0.0000 0.0000 0.0000 23.9601 0.0000 0.0000
# 5 0.0000 0.0000 0.0000 0.0000 38.0585 0.0000
# 6 0.0000 0.0000 0.0000 0.0000 0.0000 -4.2865
#
#
#
# Elastic Compliance Matrix: (Units=1/GPa)
#
#
# Indices 1 2 3 4 5 6 
#
# 1 0.009505 -0.003475 -0.002995 0.000000 0.000000 0.000000
# 2 -0.003475 0.012599 -0.003455 0.000000 0.000000 0.000000
# 3 -0.002995 -0.003455 0.010156 0.000000 0.000000 0.000000
# 4 0.000000 0.000000 0.000000 0.041736 0.000000 0.000000
# 5 0.000000 0.000000 0.000000 0.000000 0.026275 0.000000
# 6 0.000000 0.000000 0.000000 0.000000 0.000000 -0.233291
#
#
# Mechanical properties :
#
#
# Convention : Reuss Voigt Hill
#
# Bulk Modulus (GPa) = 80.57536 82.22839 81.40188
# Shear Modulus (GPa) = -45.85738 26.01969 -9.91884
#
# Velocity S-wave (km/s) = -4.61926 3.47952 -2.14832
# Velocity P-wave (km/s) = 3.00697 7.37590 5.63230
#
# Compressibility (1/GPa) = 0.01241074
#
# Stress axis : x y z
#
# Youngs Moduli (GPa) = 105.21167 79.37141 98.46065
#
# Poissons Ratio (x) = 0.27583 0.29487
# Poissons Ratio (y) = 0.36563 0.34014
# Poissons Ratio (z) = 0.31509 0.27419
#
# Static dielectric constant tensor:
#      x y z
#    x 1.755470 0.000000 0.000000 
#    y 0.000000 1.899980 0.000000 
#    z 0.000000 0.000000 -1.053120 
# 
# From -- ./inp_files/2001.got.cif
#   From: 2010.05.17/outbox.cif.g08.bks.cpg/sg50_2_cif.got.tgz:2001.got - 2010.06.03 11:33:33.
