data_PCOD9398187
_publ_section_title
;
Structure prediction by ZEFSAII (Michael W. Deem and Ramdas Pophale) SiO2 
 PCOD9398187
Probable space group: P B A N
;
_chemical_formula_sum "Si O2"
_cell_formula_units_Z 28
_cell_length_a 10.123162
_cell_length_b 9.627088
_cell_length_c 13.179962
_cell_angle_alpha 90.000000
_cell_angle_beta 90.000000
_cell_angle_gamma 90.000000
_cell_volume 1284.473908
_symmetry_space_group_name_H-M "P B A N"
_symmetry_group_IT_number 50
_space_group.IT_coordinate_system_code '2'
_symmetry_cell_setting 'orthorhombic'
loop_
_space_group_symop_operation_xyz
x,y,z
1/2-x,1/2-y,z
x,1/2-y,-z
1/2-x,y,-z
-x,-y,-z
1/2+x,1/2+y,-z
-x,1/2+y,z
1/2+x,-y,z
loop_
_atom_site_type_symbol
_atom_site_label
_atom_site_fract_x
_atom_site_fract_y
_atom_site_fract_z
Si Si1 0.750000 0.750000 0.822561
Si Si2 0.575564 0.960356 0.727780
Si Si3 0.009658 0.867240 0.928586
Si Si4 0.592615 0.268464 0.384978
O O1 0.709603 0.877585 0.751058
O O2 0.873628 0.794653 0.891519
O O3 0.473603 0.837713 0.696195
O O4 0.562325 0.060155 0.826459
O O5 0.567996 0.071486 0.640011
O O6 0.078453 0.750000 0.000000
O O7 0.000000 0.000000 0.000000
O O8 0.750000 0.250000 0.380560
O O9 0.544381 0.250000 0.500000
#
# Coordination Sequence:
#
# PCOD9398187 Si02
#       4
#     4   8   8   8
#     4  12  25  44  71 100 150 174 235 288 343 418
#     4  12  24  46  72 103 140 183 232 290 356 414
#     4  12  24  42  68  99 137 185 226 280 340 405
#     4  11  25  46  72 101 138 179 237 293 352 420
#
# _framework density 21.79881
#
# number of rings (size 3 to 8) (size 9 to 14) (size 15 to 20)
#    0.000    0.286    5.714    3.000    0.000    0.000 
#    0.000    1.429    0.000    0.000    0.000    0.000 
#    0.000    0.000    0.000    0.000    0.000    0.000 
#
# Total GULP energy -156113.908251 kJ/mol
# GULP energy per Si atom -5575.496723 kJ/mol
# Density = 2.174919 g / cm^3
# Si number density = 21.798810 Si / 1000 Ang^3
#
#
#
# Elastic Constant Matrix: (Units=GPa)
#
#
# Indices 1 2 3 4 5 6 
#
# 1 29.5699 17.7533 5.9717 0.0000 0.0000 0.0000
# 2 17.7533 182.3680 54.1582 0.0000 0.0000 0.0000
# 3 5.9717 54.1582 122.7389 0.0000 0.0000 0.0000
# 4 0.0000 0.0000 0.0000 20.7424 0.0000 0.0000
# 5 0.0000 0.0000 0.0000 0.0000 628.6483 0.0000
# 6 0.0000 0.0000 0.0000 0.0000 0.0000 42.4168
#
#
#
# Elastic Compliance Matrix: (Units=1/GPa)
#
#
# Indices 1 2 3 4 5 6 
#
# 1 0.035923 -0.003427 -0.000236 0.000000 0.000000 0.000000
# 2 -0.003427 0.006637 -0.002762 0.000000 0.000000 0.000000
# 3 -0.000236 -0.002762 0.009378 0.000000 0.000000 0.000000
# 4 0.000000 0.000000 0.000000 0.048210 0.000000 0.000000
# 5 0.000000 0.000000 0.000000 0.000000 0.001591 0.000000
# 6 0.000000 0.000000 0.000000 0.000000 0.000000 0.023576
#
#
# Mechanical properties :
#
#
# Convention : Reuss Voigt Hill
#
# Bulk Modulus (GPa) = 25.58272 54.49367 40.03819
# Shear Modulus (GPa) = 33.07013 155.48107 94.27560
#
# Velocity S-wave (km/s) = 3.89917 8.45460 6.58346
# Velocity P-wave (km/s) = 5.65974 10.97086 8.72905
#
# Compressibility (1/GPa) = 0.03908889
#
# Stress axis : x y z
#
# Youngs Moduli (GPa) = 27.83700 150.66455 106.63783
#
# Poissons Ratio (x) = 0.51635 0.02512
# Poissons Ratio (y) = 0.09540 0.29453
# Poissons Ratio (z) = 0.00656 0.41612
#
# Static dielectric constant tensor:
#      x y z
#    x 1.846900 0.000000 0.000000 
#    y 0.000000 1.744870 0.000000 
#    z 0.000000 0.000000 1.894900 
# 
# From -- ./inp_files/24288.got.cif
#   From: 2010.05.17/outbox.cif.g08.bks.cpg/sg50_13_cif.got.tgz:24288.got - 2010.06.03 11:33:33.
