data_PCOD9398601
_publ_section_title
;
Structure prediction by ZEFSAII (Michael W. Deem and Ramdas Pophale) SiO2 
 PCOD9398601
Probable space group: P M M A
;
_chemical_formula_sum "Si O2"
_cell_formula_units_Z 56
_cell_length_a 22.299113
_cell_length_b 7.661337
_cell_length_c 17.066156
_cell_angle_alpha 90.000000
_cell_angle_beta 90.000000
_cell_angle_gamma 90.000000
_cell_volume 2915.599490
_symmetry_space_group_name_H-M "P M M A"
_symmetry_group_IT_number 51
_symmetry_cell_setting 'orthorhombic'
loop_
_space_group_symop_operation_xyz
x,y,z
1/2-x,-y,z
1/2+x,-y,-z
-x,y,-z
-x,-y,-z
1/2+x,y,-z
1/2-x,y,z
x,-y,z
loop_
_atom_site_type_symbol
_atom_site_label
_atom_site_fract_x
_atom_site_fract_y
_atom_site_fract_z
Si Si1 0.182979 0.787024 0.539940
Si Si2 0.318678 0.213954 0.860701
Si Si3 0.512908 0.298536 0.876423
Si Si4 0.061049 0.202196 0.462307
Si Si5 0.406208 0.799988 0.987985
Si Si6 0.484085 0.296553 0.299002
Si Si7 0.621576 0.210969 0.300462
O O1 0.250000 0.725561 0.518976
O O2 0.125275 0.725421 0.489901
O O3 0.166428 0.741469 0.629619
O O4 0.184686 0.000000 0.534966
O O5 0.250000 0.266357 0.854735
O O6 0.350125 0.273856 0.940518
O O7 0.355042 0.270893 0.783940
O O8 0.320876 0.000000 0.861365
O O9 0.493849 0.500000 0.867881
O O10 0.459932 0.204416 0.923693
O O11 0.524308 0.227652 0.789582
O O12 0.569476 0.291486 0.934500
O O13 0.000000 0.281158 0.500000
O O14 0.052094 0.209563 0.369246
O O15 0.061824 0.000000 0.489045
O O16 0.394545 0.000000 0.009483
O O17 0.467626 0.500000 0.299257
O O18 0.554848 0.277436 0.316376
O O19 0.618177 0.000000 0.299026
#
# Coordination Sequence:
#
# PCOD9398601 Si02
#       7
#     8   8   8   8   8   8   8
#     4   9  17  30  51  77 102 130 166 206 250 301
#     4   9  17  28  46  75 106 133 161 199 247 296
#     4  10  20  33  48  67  97 131 162 201 248 292
#     4  10  19  33  53  77 101 129 167 210 254 300
#     4  10  18  29  50  75  97 124 163 204 241 289
#     4  11  22  33  49  73 103 136 168 207 252 295
#     4  10  17  30  51  74 103 135 167 200 242 299
#
# _framework density 19.207027
#
# number of rings (size 3 to 8) (size 9 to 14) (size 15 to 20)
#    0.000    2.143    2.857    2.571    0.000    3.714 
#    0.000    0.000    0.000    7.286    0.000    6.000 
#    0.000    0.000    0.000    0.000    0.000    0.000 
#
# Total GULP energy -312433.571920 kJ/mol
# GULP energy per Si atom -5579.170927 kJ/mol
# Density = 1.916331 g / cm^3
# Si number density = 19.207027 Si / 1000 Ang^3
#
#
#
# Elastic Constant Matrix: (Units=GPa)
#
#
# Indices 1 2 3 4 5 6 
#
# 1 121.3917 -0.4813 52.8957 0.0000 0.0000 0.0000
# 2 -0.4813 35.9552 -3.7562 0.0000 0.0000 0.0000
# 3 52.8957 -3.7562 98.2910 0.0000 0.0000 0.0000
# 4 0.0000 0.0000 0.0000 25.6787 0.0000 0.0000
# 5 0.0000 0.0000 0.0000 0.0000 28.1195 0.0000
# 6 0.0000 0.0000 0.0000 0.0000 0.0000 100.1057
#
#
#
# Elastic Compliance Matrix: (Units=1/GPa)
#
#
# Indices 1 2 3 4 5 6 
#
# 1 0.010769 -0.000463 -0.005813 0.000000 0.000000 0.000000
# 2 -0.000463 0.027944 0.001317 0.000000 0.000000 0.000000
# 3 -0.005813 0.001317 0.013353 0.000000 0.000000 0.000000
# 4 0.000000 0.000000 0.000000 0.038943 0.000000 0.000000
# 5 0.000000 0.000000 0.000000 0.000000 0.035562 0.000000
# 6 0.000000 0.000000 0.000000 0.000000 0.000000 0.009989
#
#
# Mechanical properties :
#
#
# Convention : Reuss Voigt Hill
#
# Bulk Modulus (GPa) = 23.72639 39.21713 31.47176
# Shear Modulus (GPa) = 31.14736 44.57944 37.86340
#
# Velocity S-wave (km/s) = 4.03136 4.82290 4.44478
# Velocity P-wave (km/s) = 5.83515 7.17469 6.53931
#
# Compressibility (1/GPa) = 0.04214717
#
# Stress axis : x y z
#
# Youngs Moduli (GPa) = 92.85939 35.78609 74.89217
#
# Poissons Ratio (x) = 0.01657 0.43535
# Poissons Ratio (y) = 0.04301 -0.09864
# Poissons Ratio (z) = 0.53980 -0.04713
#
# Static dielectric constant tensor:
#      x y z
#    x 1.666940 0.000000 0.000000 
#    y 0.000000 1.703780 0.000000 
#    z 0.000000 0.000000 1.673150 
# 
# From -- ./inp_files/30762.got.cif
#   From: 2010.05.17/outbox.cif.g08.bks.cpg/sg51_16_cif.got.tgz:30762.got - 2010.06.03 11:52:47.
