data_PCOD9398183
_publ_section_title
;
Structure prediction by ZEFSAII (Michael W. Deem and Ramdas Pophale) SiO2 
 PCOD9398183
Probable space group: P B A N
;
_chemical_formula_sum "Si O2"
_cell_formula_units_Z 24
_cell_length_a 6.996636
_cell_length_b 20.446295
_cell_length_c 6.907025
_cell_angle_alpha 90.000000
_cell_angle_beta 90.000000
_cell_angle_gamma 90.000000
_cell_volume 988.086421
_symmetry_space_group_name_H-M "P B A N"
_symmetry_group_IT_number 50
_space_group.IT_coordinate_system_code '2'
_symmetry_cell_setting 'orthorhombic'
loop_
_space_group_symop_operation_xyz
x,y,z
1/2-x,1/2-y,z
x,1/2-y,-z
1/2-x,y,-z
-x,-y,-z
1/2+x,1/2+y,-z
-x,1/2+y,z
1/2+x,-y,z
loop_
_atom_site_type_symbol
_atom_site_label
_atom_site_fract_x
_atom_site_fract_y
_atom_site_fract_z
Si Si1 0.250000 0.580551 0.500000
Si Si2 0.442451 0.314606 0.614565
Si Si3 0.568450 0.437031 0.116437
Si Si4 0.250000 0.161823 0.000000
O O1 0.404834 0.628265 0.401109
O O2 0.358592 0.543321 0.670720
O O3 0.511961 0.250000 0.500000
O O4 0.250000 0.333089 0.500000
O O5 0.378421 0.303080 0.836217
O O6 0.398877 0.384750 0.114919
O O7 0.750000 0.409397 0.000000
O O8 0.500000 0.500000 0.000000
#
# Coordination Sequence:
#
# PCOD9398183 Si02
#       4
#     4   8   8   4
#     4  12  25  48  76 106 152 190 249 310 360 446
#     4  11  25  45  76 108 143 192 244 296 375 438
#     4  12  26  46  74 110 146 197 249 303 372 438
#     4  12  24  49  74 106 150 186 245 312 362 442
#
# _framework density 24.289373000000001
#
# number of rings (size 3 to 8) (size 9 to 14) (size 15 to 20)
#    0.000    0.333    8.333    0.500    0.000    4.000 
#    3.000    0.000    0.000    0.000    0.000    0.000 
#    0.000    0.000    0.000    0.000    0.000    0.000 
#
# Total GULP energy -134375.923624 kJ/mol
# GULP energy per Si atom -5598.996818 kJ/mol
# Density = 2.423409 g / cm^3
# Si number density = 24.289373 Si / 1000 Ang^3
#
#
#
# Elastic Constant Matrix: (Units=GPa)
#
#
# Indices 1 2 3 4 5 6 
#
# 1 88.4992 12.9306 26.2429 0.0000 0.0000 0.0000
# 2 12.9306 67.2891 47.9759 0.0000 0.0000 0.0000
# 3 26.2429 47.9759 224.2652 0.0000 0.0000 0.0000
# 4 0.0000 0.0000 0.0000 33.3546 0.0000 0.0000
# 5 0.0000 0.0000 0.0000 0.0000 51.5888 0.0000
# 6 0.0000 0.0000 0.0000 0.0000 0.0000 25.5071
#
#
#
# Elastic Compliance Matrix: (Units=1/GPa)
#
#
# Indices 1 2 3 4 5 6 
#
# 1 0.011836 -0.001519 -0.001060 0.000000 0.000000 0.000000
# 2 -0.001519 0.017731 -0.003615 0.000000 0.000000 0.000000
# 3 -0.001060 -0.003615 0.005356 0.000000 0.000000 0.000000
# 4 0.000000 0.000000 0.000000 0.029981 0.000000 0.000000
# 5 0.000000 0.000000 0.000000 0.000000 0.019384 0.000000
# 6 0.000000 0.000000 0.000000 0.000000 0.000000 0.039205
#
#
# Mechanical properties :
#
#
# Convention : Reuss Voigt Hill
#
# Bulk Modulus (GPa) = 44.37564 61.59472 52.98518
# Shear Modulus (GPa) = 34.86933 41.61702 38.24318
#
# Velocity S-wave (km/s) = 3.79301 4.14379 3.97228
# Velocity P-wave (km/s) = 6.12306 6.95043 6.54982
#
# Compressibility (1/GPa) = 0.02253488
#
# Stress axis : x y z
#
# Youngs Moduli (GPa) = 84.48961 56.39923 186.69003
#
# Poissons Ratio (x) = 0.08565 0.19792
# Poissons Ratio (y) = 0.12830 0.67495
# Poissons Ratio (z) = 0.08957 0.20390
#
# Static dielectric constant tensor:
#      x y z
#    x 1.945910 0.000000 0.000000 
#    y 0.000000 1.950800 0.000000 
#    z 0.000000 0.000000 1.960090 
# 
# From -- ./inp_files/818.got.cif
#   From: 2010.05.17/outbox.cif.g08.bks.cpg/sg50_1_cif.got.tgz:818.got - 2010.06.03 11:33:33.
