data_PCOD9398435
_publ_section_title
;
Structure prediction by ZEFSAII (Michael W. Deem and Ramdas Pophale) SiO2 
 PCOD9398435
Probable space group: P M M A
;
_chemical_formula_sum "Si O2"
_cell_formula_units_Z 56
_cell_length_a 22.594272
_cell_length_b 8.324356
_cell_length_c 18.544821
_cell_angle_alpha 90.000000
_cell_angle_beta 90.000000
_cell_angle_gamma 90.000000
_cell_volume 3487.961186
_symmetry_space_group_name_H-M "P M M A"
_symmetry_group_IT_number 51
_symmetry_cell_setting 'orthorhombic'
loop_
_space_group_symop_operation_xyz
x,y,z
1/2-x,-y,z
1/2+x,-y,-z
-x,y,-z
-x,-y,-z
1/2+x,y,-z
1/2-x,y,z
x,-y,z
loop_
_atom_site_type_symbol
_atom_site_label
_atom_site_fract_x
_atom_site_fract_y
_atom_site_fract_z
Si Si1 0.033456 0.808797 0.237751
Si Si2 0.547299 0.686502 0.911218
Si Si3 0.397480 0.805691 0.789265
Si Si4 0.317386 0.305966 0.658978
Si Si5 0.958249 0.693986 0.605986
Si Si6 0.413198 0.695577 0.545467
Si Si7 0.418034 0.812230 0.945305
O O1 0.066436 0.731252 0.169351
O O2 0.057010 0.761566 0.316025
O O3 0.964228 0.754048 0.233102
O O4 0.034405 0.000000 0.229326
O O5 0.530995 0.500000 0.914333
O O6 0.487561 0.788816 0.925179
O O7 0.589911 0.725066 0.978357
O O8 0.350753 0.743010 0.731979
O O9 0.386415 0.753651 0.872182
O O10 0.397093 0.000000 0.788744
O O11 0.250000 0.247477 0.656582
O O12 0.316338 0.500000 0.655932
O O13 0.357614 0.248318 0.591990
O O14 0.957285 0.500000 0.609619
O O15 0.918212 0.745402 0.537984
O O16 0.025491 0.742786 0.584736
O O17 0.412786 0.500000 0.545315
O O18 0.405915 0.000000 0.955150
#
# Coordination Sequence:
#
# PCOD9398435 Si02
#       7
#     8   8   8   8   8   8   8
#     4  10  18  27  39  59  86 112 140 175 213 252
#     4  10  17  24  37  58  81 110 143 168 200 245
#     4   9  18  29  41  57  80 112 143 172 211 252
#     4  10  19  30  45  63  83 109 143 182 217 251
#     4   9  15  26  44  60  79 110 142 175 212 258
#     4   8  15  27  42  61  82 106 139 176 218 259
#     4   9  16  27  39  54  80 110 140 173 207 240
#
# _framework density 16.055223999999999
#
# number of rings (size 3 to 8) (size 9 to 14) (size 15 to 20)
#    0.000    2.714    1.429    4.714    0.000    3.143 
#    0.000    2.143    0.000    0.000    0.000    0.000 
#    0.000    1.143    0.000    6.000    0.000    3.286 
#
# Total GULP energy -311801.428292 kJ/mol
# GULP energy per Si atom -5567.882648 kJ/mol
# Density = 1.601868 g / cm^3
# Si number density = 16.055224 Si / 1000 Ang^3
#
#
#
# Elastic Constant Matrix: (Units=GPa)
#
#
# Indices 1 2 3 4 5 6 
#
# 1 53.6645 6.9162 47.0325 0.0000 0.0000 0.0000
# 2 6.9162 16.4098 19.1194 0.0000 0.0000 0.0000
# 3 47.0325 19.1194 178.3001 0.0000 0.0000 0.0000
# 4 0.0000 0.0000 0.0000 29.1833 0.0000 0.0000
# 5 0.0000 0.0000 0.0000 0.0000 11.2703 0.0000
# 6 0.0000 0.0000 0.0000 0.0000 0.0000 12.6576
#
#
#
# Elastic Compliance Matrix: (Units=1/GPa)
#
#
# Indices 1 2 3 4 5 6 
#
# 1 0.024382 -0.003180 -0.006091 0.000000 0.000000 0.000000
# 2 -0.003180 0.070055 -0.006673 0.000000 0.000000 0.000000
# 3 -0.006091 -0.006673 0.007931 0.000000 0.000000 0.000000
# 4 0.000000 0.000000 0.000000 0.034266 0.000000 0.000000
# 5 0.000000 0.000000 0.000000 0.000000 0.088729 0.000000
# 6 0.000000 0.000000 0.000000 0.000000 0.000000 0.079004
#
#
# Mechanical properties :
#
#
# Convention : Reuss Voigt Hill
#
# Bulk Modulus (GPa) = 14.18848 43.83454 29.01151
# Shear Modulus (GPa) = 13.89867 22.30934 18.10400
#
# Velocity S-wave (km/s) = 2.94543 3.73169 3.36163
# Velocity P-wave (km/s) = 4.51928 6.77709 5.75990
#
# Compressibility (1/GPa) = 0.07047971
#
# Stress axis : x y z
#
# Youngs Moduli (GPa) = 41.01387 14.27455 126.09245
#
# Poissons Ratio (x) = 0.04539 0.76797
# Poissons Ratio (y) = 0.13043 0.84145
# Poissons Ratio (z) = 0.24980 0.09526
#
# Static dielectric constant tensor:
#      x y z
#    x 1.505990 0.000000 0.000000 
#    y 0.000000 1.555260 0.000000 
#    z 0.000000 0.000000 1.594950 
# 
# From -- ./inp_files/30776.got.cif
#   From: 2010.05.17/outbox.cif.g08.bks.cpg/sg51_16_cif.got.tgz:30776.got - 2010.06.03 11:52:47.
