data_PCOD9398060
_publ_section_title
;
Structure prediction by ZEFSAII (Michael W. Deem and Ramdas Pophale) SiO2 
 PCOD9398060
Probable space group: P B A N
;
_chemical_formula_sum "Si O2"
_cell_formula_units_Z 48
_cell_length_a 23.991138
_cell_length_b 8.844729
_cell_length_c 9.051396
_cell_angle_alpha 90.000000
_cell_angle_beta 90.000000
_cell_angle_gamma 90.000000
_cell_volume 1920.662006
_symmetry_space_group_name_H-M "P B A N"
_symmetry_group_IT_number 50
_space_group.IT_coordinate_system_code '2'
_symmetry_cell_setting 'orthorhombic'
loop_
_space_group_symop_operation_xyz
x,y,z
1/2-x,1/2-y,z
x,1/2-y,-z
1/2-x,y,-z
-x,-y,-z
1/2+x,1/2+y,-z
-x,1/2+y,z
1/2+x,-y,z
loop_
_atom_site_type_symbol
_atom_site_label
_atom_site_fract_x
_atom_site_fract_y
_atom_site_fract_z
Si Si1 0.041259 0.054752 0.128663
Si Si2 0.997163 0.180106 0.653904
Si Si3 0.310159 0.586055 0.767228
Si Si4 0.617155 0.584271 0.433008
Si Si5 0.185613 0.917595 0.325002
Si Si6 0.165613 0.084779 0.040346
O O1 0.020195 0.196584 0.227391
O O2 0.098601 0.080522 0.043517
O O3 0.044371 0.923727 0.253051
O O4 0.000000 0.000000 0.000000
O O5 0.975200 0.250000 0.500000
O O6 0.051326 0.083343 0.599951
O O7 0.351301 0.452289 0.717455
O O8 0.253239 0.583938 0.671691
O O9 0.332070 0.755030 0.740279
O O10 0.306829 0.545093 0.939414
O O11 0.627836 0.750000 0.500000
O O12 0.647528 0.461724 0.537125
O O13 0.177726 0.050370 0.209083
O O14 0.185832 0.250000 0.000000
#
# Coordination Sequence:
#
# PCOD9398060 Si02
#       6
#     8   8   8   8   8   8
#     4  12  25  45  71 101 138 185 240 301 366 438
#     4  11  25  46  69 101 141 182 239 304 365 437
#     4  11  24  43  67 101 139 178 228 285 347 427
#     4  11  23  43  69  99 135 177 228 288 349 420
#     4  11  25  43  67  99 138 181 228 283 350 426
#     4  12  25  44  68  99 137 177 230 291 351 422
#
# _framework density 24.991382999999999
#
# number of rings (size 3 to 8) (size 9 to 14) (size 15 to 20)
#    0.000    0.667    0.000    9.000    0.000   10.667 
#    0.000    3.333    0.000    0.000    0.000    0.000 
#    0.000    0.000    0.000    0.000    0.000    0.000 
#
# Total GULP energy -268559.178380 kJ/mol
# GULP energy per Si atom -5594.982883 kJ/mol
# Density = 2.493450 g / cm^3
# Si number density = 24.991383 Si / 1000 Ang^3
#
#
#
# Elastic Constant Matrix: (Units=GPa)
#
#
# Indices 1 2 3 4 5 6 
#
# 1 88.3182 48.9767 29.3048 0.0000 0.0000 0.0000
# 2 48.9767 119.7652 25.2006 0.0000 0.0000 0.0000
# 3 29.3048 25.2006 117.1087 0.0000 0.0000 0.0000
# 4 0.0000 0.0000 0.0000 60.9779 0.0000 0.0000
# 5 0.0000 0.0000 0.0000 0.0000 47.5976 0.0000
# 6 0.0000 0.0000 0.0000 0.0000 0.0000 23.8001
#
#
#
# Elastic Compliance Matrix: (Units=1/GPa)
#
#
# Indices 1 2 3 4 5 6 
#
# 1 0.015370 -0.005736 -0.002612 0.000000 0.000000 0.000000
# 2 -0.005736 0.010886 -0.000907 0.000000 0.000000 0.000000
# 3 -0.002612 -0.000907 0.009388 0.000000 0.000000 0.000000
# 4 0.000000 0.000000 0.000000 0.016399 0.000000 0.000000
# 5 0.000000 0.000000 0.000000 0.000000 0.021009 0.000000
# 6 0.000000 0.000000 0.000000 0.000000 0.000000 0.042017
#
#
# Mechanical properties :
#
#
# Convention : Reuss Voigt Hill
#
# Bulk Modulus (GPa) = 58.36276 59.12848 58.74562
# Shear Modulus (GPa) = 35.89601 41.25578 38.57590
#
# Velocity S-wave (km/s) = 3.79401 4.06741 3.93309
# Velocity P-wave (km/s) = 6.52660 6.76531 6.64703
#
# Compressibility (1/GPa) = 0.01713421
#
# Stress axis : x y z
#
# Youngs Moduli (GPa) = 65.06115 91.85933 106.52020
#
# Poissons Ratio (x) = 0.52689 0.27822
# Poissons Ratio (y) = 0.37318 0.09664
# Poissons Ratio (z) = 0.16993 0.08334
#
# Static dielectric constant tensor:
#      x y z
#    x 2.155840 0.000000 0.000000 
#    y 0.000000 1.970700 0.000000 
#    z 0.000000 0.000000 1.841120 
# 
# From -- ./inp_files/16959.got.cif
#   From: 2010.05.17/outbox.cif.g08.bks.cpg/sg50_9_cif.got.tgz:16959.got - 2010.06.03 11:33:33.
