data_PCOD9398815
_publ_section_title
;
Structure prediction by ZEFSAII (Michael W. Deem and Ramdas Pophale) SiO2 
 PCOD9398815
Probable space group: P M M A
;
_chemical_formula_sum "Si O2"
_cell_formula_units_Z 56
_cell_length_a 9.125015
_cell_length_b 18.980087
_cell_length_c 21.451247
_cell_angle_alpha 90.000000
_cell_angle_beta 90.000000
_cell_angle_gamma 90.000000
_cell_volume 3715.218233
_symmetry_space_group_name_H-M "P M M A"
_symmetry_group_IT_number 51
_symmetry_cell_setting 'orthorhombic'
loop_
_space_group_symop_operation_xyz
x,y,z
1/2-x,-y,z
1/2+x,-y,-z
-x,y,-z
-x,-y,-z
1/2+x,y,-z
1/2-x,y,z
x,-y,z
loop_
_atom_site_type_symbol
_atom_site_label
_atom_site_fract_x
_atom_site_fract_y
_atom_site_fract_z
Si Si1 0.425088 0.655908 0.182920
Si Si2 0.082093 0.294565 0.625283
Si Si3 0.927329 0.846904 0.436181
Si Si4 0.571428 0.079715 0.306888
Si Si5 0.919074 0.216217 0.240157
Si Si6 0.925859 0.419581 0.686346
Si Si7 0.076566 0.584158 0.934719
O O1 0.250000 0.654668 0.176029
O O2 0.482830 0.734479 0.197047
O O3 0.463546 0.609342 0.244398
O O4 0.502579 0.623840 0.122764
O O5 0.250000 0.312246 0.609876
O O6 0.028129 0.234280 0.578181
O O7 0.083171 0.254170 0.692028
O O8 0.991038 0.364980 0.636550
O O9 0.750000 0.848454 0.440234
O O10 0.970512 0.893105 0.375902
O O11 0.000000 0.871207 0.500000
O O12 0.750000 0.080962 0.306020
O O13 0.525948 0.137667 0.255773
O O14 0.522633 0.000000 0.295936
O O15 0.750000 0.214266 0.218094
O O16 0.750000 0.418338 0.682016
O O17 0.976562 0.500000 0.678822
O O18 0.250000 0.598296 0.937394
O O19 0.056452 0.500000 0.925942
O O20 0.000000 0.603182 0.000000
#
# Coordination Sequence:
#
# PCOD9398815 Si02
#       7
#     8   8   8   8   8   8   8
#     4  10  18  28  43  62  87 116 144 175 211 252
#     4   8  15  27  40  55  76 102 132 167 206 247
#     4   9  17  28  42  60  81 106 138 171 202 244
#     4   8  14  26  44  64  87 114 140 169 208 252
#     4   8  14  26  43  61  81 107 141 176 208 247
#     4   9  17  27  40  60  82 102 128 167 213 254
#     4  10  20  32  45  62  87 120 155 187 217 248
#
# _framework density 15.073138999999999
#
# number of rings (size 3 to 8) (size 9 to 14) (size 15 to 20)
#    0.000    3.143    0.000    3.000    0.000    3.143 
#    0.000    2.143    0.000    1.714    0.000    0.000 
#    0.000    0.571    0.000    1.571    0.000    2.286 
#
# Total GULP energy -311762.741516 kJ/mol
# GULP energy per Si atom -5567.191813 kJ/mol
# Density = 1.503883 g / cm^3
# Si number density = 15.073139 Si / 1000 Ang^3
#
#
#
# Elastic Constant Matrix: (Units=GPa)
#
#
# Indices 1 2 3 4 5 6 
#
# 1 28.9816 25.8908 17.3765 0.0000 0.0000 0.0000
# 2 25.8908 103.7236 12.7750 0.0000 0.0000 0.0000
# 3 17.3765 12.7750 26.1721 0.0000 0.0000 0.0000
# 4 0.0000 0.0000 0.0000 17.8090 0.0000 0.0000
# 5 0.0000 0.0000 0.0000 0.0000 22.6109 0.0000
# 6 0.0000 0.0000 0.0000 0.0000 0.0000 14.1325
#
#
#
# Elastic Compliance Matrix: (Units=1/GPa)
#
#
# Indices 1 2 3 4 5 6 
#
# 1 0.069755 -0.012457 -0.040232 0.000000 0.000000 0.000000
# 2 -0.012457 0.012482 0.002178 0.000000 0.000000 0.000000
# 3 -0.040232 0.002178 0.063857 0.000000 0.000000 0.000000
# 4 0.000000 0.000000 0.000000 0.056151 0.000000 0.000000
# 5 0.000000 0.000000 0.000000 0.000000 0.044226 0.000000
# 6 0.000000 0.000000 0.000000 0.000000 0.000000 0.070759
#
#
# Mechanical properties :
#
#
# Convention : Reuss Voigt Hill
#
# Bulk Modulus (GPa) = 22.18687 30.10688 26.14687
# Shear Modulus (GPa) = 11.53996 17.76614 14.65305
#
# Velocity S-wave (km/s) = 2.76995 3.43689 3.12128
# Velocity P-wave (km/s) = 4.99816 5.98054 5.51128
#
# Compressibility (1/GPa) = 0.04507171
#
# Stress axis : x y z
#
# Youngs Moduli (GPa) = 14.33594 80.11453 15.65993
#
# Poissons Ratio (x) = 0.99795 0.63003
# Poissons Ratio (y) = 0.17858 -0.03410
# Poissons Ratio (z) = 0.57677 -0.17445
#
# Static dielectric constant tensor:
#      x y z
#    x 1.503290 0.000000 0.000000 
#    y 0.000000 1.517680 0.000000 
#    z 0.000000 0.000000 1.478770 
# 
# From -- ./inp_files/32224.got.cif
#   From: 2010.05.17/outbox.cif.g08.bks.cpg/sg51_17_cif.got.tgz:32224.got - 2010.06.03 11:52:47.
