data_PCOD9398772
_publ_section_title
;
Structure prediction by ZEFSAII (Michael W. Deem and Ramdas Pophale) SiO2 
 PCOD9398772
Probable space group: P M M A
;
_chemical_formula_sum "Si O2"
_cell_formula_units_Z 52
_cell_length_a 7.761332
_cell_length_b 19.478765
_cell_length_c 19.701103
_cell_angle_alpha 90.000000
_cell_angle_beta 90.000000
_cell_angle_gamma 90.000000
_cell_volume 2978.435646
_symmetry_space_group_name_H-M "P M M A"
_symmetry_group_IT_number 51
_symmetry_cell_setting 'orthorhombic'
loop_
_space_group_symop_operation_xyz
x,y,z
1/2-x,-y,z
1/2+x,-y,-z
-x,y,-z
-x,-y,-z
1/2+x,y,-z
1/2-x,y,z
x,-y,z
loop_
_atom_site_type_symbol
_atom_site_label
_atom_site_fract_x
_atom_site_fract_y
_atom_site_fract_z
Si Si1 0.046598 0.000000 0.579874
Si Si2 0.539075 0.789387 0.712387
Si Si3 0.460998 0.707564 0.160213
Si Si4 0.043752 0.158039 0.078188
Si Si5 0.542534 0.577622 0.922297
Si Si6 0.960060 0.924411 0.795376
Si Si7 0.950952 0.152088 0.578911
O O1 0.000000 0.000000 0.500000
O O2 0.979058 0.926530 0.604259
O O3 0.250000 0.000000 0.587454
O O4 0.500000 0.842388 0.500000
O O5 0.750000 0.787298 0.711778
O O6 0.484687 0.729139 0.763731
O O7 0.474167 0.796118 0.635186
O O8 0.250000 0.706739 0.159852
O O9 0.516503 0.769602 0.110289
O O10 0.520682 0.635403 0.129731
O O11 0.250000 0.159621 0.083271
O O12 0.986068 0.097363 0.128519
O O13 0.000000 0.149990 0.000000
O O14 0.750000 0.575625 0.917084
O O15 0.477335 0.500000 0.910626
O O16 0.500000 0.596861 0.000000
O O17 0.750000 0.926092 0.793250
O O18 0.011742 0.860927 0.748450
O O19 0.022316 0.000000 0.775965
O O20 0.750000 0.163969 0.579029
#
# Coordination Sequence:
#
# PCOD9398772 Si02
#       7
#     4   8   8   8   8   8   8
#     4  10  18  28  40  56  80 106 129 158 199 242
#     4   8  15  25  40  59  75  98 131 165 196 231
#     4   8  14  26  40  57  80 102 132 166 192 225
#     4   9  16  25  38  54  70  93 122 156 194 225
#     4   9  16  25  40  62  87 113 137 164 198 233
#     4   8  14  24  37  53  69  87 121 163 192 219
#     4  10  18  28  43  62  80 100 130 165 204 245
#
# _framework density 17.458829999999999
#
# number of rings (size 3 to 8) (size 9 to 14) (size 15 to 20)
#    0.000    3.231    0.000    4.385    1.077    0.308 
#    0.000    0.000    0.000    9.231    0.000    0.000 
#    0.000    0.615    0.000    0.462    0.000    0.923 
#
# Total GULP energy -289554.734197 kJ/mol
# GULP energy per Si atom -5568.360273 kJ/mol
# Density = 1.741909 g / cm^3
# Si number density = 17.458830 Si / 1000 Ang^3
#
#
#
# Elastic Constant Matrix: (Units=GPa)
#
#
# Indices 1 2 3 4 5 6 
#
# 1 19.4205 3.8921 6.0600 0.0000 0.0000 0.0000
# 2 3.8921 96.0281 56.0306 0.0000 0.0000 0.0000
# 3 6.0600 56.0306 121.5638 0.0000 0.0000 0.0000
# 4 0.0000 0.0000 0.0000 28.8995 0.0000 0.0000
# 5 0.0000 0.0000 0.0000 0.0000 11.3354 0.0000
# 6 0.0000 0.0000 0.0000 0.0000 0.0000 3.9459
#
#
#
# Elastic Compliance Matrix: (Units=1/GPa)
#
#
# Indices 1 2 3 4 5 6 
#
# 1 0.052353 -0.000820 -0.002232 0.000000 0.000000 0.000000
# 2 -0.000820 0.014257 -0.006531 0.000000 0.000000 0.000000
# 3 -0.002232 -0.006531 0.011347 0.000000 0.000000 0.000000
# 4 0.000000 0.000000 0.000000 0.034603 0.000000 0.000000
# 5 0.000000 0.000000 0.000000 0.000000 0.088220 0.000000
# 6 0.000000 0.000000 0.000000 0.000000 0.000000 0.253428
#
#
# Mechanical properties :
#
#
# Convention : Reuss Voigt Hill
#
# Bulk Modulus (GPa) = 17.00882 40.99755 29.00318
# Shear Modulus (GPa) = 10.14262 20.23813 15.19037
#
# Velocity S-wave (km/s) = 2.41289 3.40838 2.95289
# Velocity P-wave (km/s) = 4.18642 6.24683 5.31738
#
# Compressibility (1/GPa) = 0.05879303
#
# Stress axis : x y z
#
# Youngs Moduli (GPa) = 19.10124 70.13958 88.12569
#
# Poissons Ratio (x) = 0.05748 0.19670
# Poissons Ratio (y) = 0.01565 0.57551
# Poissons Ratio (z) = 0.04264 0.45805
#
# Static dielectric constant tensor:
#      x y z
#    x 1.643690 0.000000 0.000000 
#    y 0.000000 1.583070 0.000000 
#    z 0.000000 0.000000 1.653470 
# 
# From -- ./inp_files/21617.got.cif
#   From: 2010.05.17/outbox.cif.g08.bks.cpg/sg51_11_cif.got.tgz:21617.got - 2010.06.03 11:52:47.
