data_PCOD9398839
_publ_section_title
;
Structure prediction by ZEFSAII (Michael W. Deem and Ramdas Pophale) SiO2 
 PCOD9398839
Probable space group: P M M A
;
_chemical_formula_sum "Si O2"
_cell_formula_units_Z 36
_cell_length_a 7.390643
_cell_length_b 11.456174
_cell_length_c 19.220194
_cell_angle_alpha 90.000000
_cell_angle_beta 90.000000
_cell_angle_gamma 90.000000
_cell_volume 1627.344845
_symmetry_space_group_name_H-M "P M M A"
_symmetry_group_IT_number 51
_symmetry_cell_setting 'orthorhombic'
loop_
_space_group_symop_operation_xyz
x,y,z
1/2-x,-y,z
1/2+x,-y,-z
-x,y,-z
-x,-y,-z
1/2+x,y,-z
1/2-x,y,z
x,-y,z
loop_
_atom_site_type_symbol
_atom_site_label
_atom_site_fract_x
_atom_site_fract_y
_atom_site_fract_z
Si Si1 0.965324 0.000000 0.419098
Si Si2 0.970477 0.198110 0.315923
Si Si3 0.966710 0.370722 0.425051
Si Si4 0.971031 0.133357 0.160212
Si Si5 0.965860 0.369668 0.082481
O O1 0.031360 0.109468 0.375571
O O2 0.000000 0.000000 0.500000
O O3 0.750000 0.000000 0.411650
O O4 0.750000 0.197159 0.312308
O O5 0.028306 0.317816 0.351811
O O6 0.028294 0.159457 0.239739
O O7 0.750000 0.374827 0.420385
O O8 0.042962 0.500000 0.431509
O O9 0.000000 0.308983 0.500000
O O10 0.750000 0.131819 0.157570
O O11 0.031457 0.247874 0.116694
O O12 0.027287 0.000000 0.140388
O O13 0.750000 0.371366 0.094572
O O14 0.032918 0.500000 0.105534
O O15 0.000000 0.363225 0.000000
#
# Coordination Sequence:
#
# PCOD9398839 Si02
#       5
#     4   8   8   8   8
#     4  10  18  28  44  64  85 114 150 186 225 266
#     4   9  16  27  43  64  88 114 147 187 228 267
#     4   9  17  28  42  61  85 113 146 186 229 272
#     4   9  16  28  47  71  97 124 156 195 235 276
#     4   9  18  32  51  75 100 125 155 192 233 279
#
# _framework density 22.121922999999999
#
# number of rings (size 3 to 8) (size 9 to 14) (size 15 to 20)
#    0.000    2.889    1.111    0.667    0.000    1.333 
#    0.000    4.444    0.000    2.667    0.000    6.222 
#    0.000    0.000    0.000    0.000    0.000    0.000 
#
# Total GULP energy -200441.984309 kJ/mol
# GULP energy per Si atom -5567.832897 kJ/mol
# Density = 2.207157 g / cm^3
# Si number density = 22.121923 Si / 1000 Ang^3
#
#
#
# Elastic Constant Matrix: (Units=GPa)
#
#
# Indices 1 2 3 4 5 6 
#
# 1 75.9433 4.5523 -4.8271 0.0000 0.0000 0.0000
# 2 4.5523 187.5904 91.2588 0.0000 0.0000 0.0000
# 3 -4.8271 91.2588 105.4588 0.0000 0.0000 0.0000
# 4 0.0000 0.0000 0.0000 25.8665 0.0000 0.0000
# 5 0.0000 0.0000 0.0000 0.0000 17.0145 0.0000
# 6 0.0000 0.0000 0.0000 0.0000 0.0000 7.2386
#
#
#
# Elastic Compliance Matrix: (Units=1/GPa)
#
#
# Indices 1 2 3 4 5 6 
#
# 1 0.013330 -0.001071 0.001537 0.000000 0.000000 0.000000
# 2 -0.001071 0.009293 -0.008090 0.000000 0.000000 0.000000
# 3 0.001537 -0.008090 0.016554 0.000000 0.000000 0.000000
# 4 0.000000 0.000000 0.000000 0.038660 0.000000 0.000000
# 5 0.000000 0.000000 0.000000 0.000000 0.058773 0.000000
# 6 0.000000 0.000000 0.000000 0.000000 0.000000 0.138149
#
#
# Mechanical properties :
#
#
# Convention : Reuss Voigt Hill
#
# Bulk Modulus (GPa) = 41.79383 61.21783 51.50583
# Shear Modulus (GPa) = 16.77948 28.55782 22.66865
#
# Velocity S-wave (km/s) = 2.75708 3.59685 3.20459
# Velocity P-wave (km/s) = 5.39155 6.70692 6.08488
#
# Compressibility (1/GPa) = 0.02392697
#
# Stress axis : x y z
#
# Youngs Moduli (GPa) = 75.02083 107.61326 60.40946
#
# Poissons Ratio (x) = 0.11528 -0.09286
# Poissons Ratio (y) = 0.08037 0.48873
# Poissons Ratio (z) = -0.11532 0.87063
#
# Static dielectric constant tensor:
#      x y z
#    x 1.854760 0.000000 0.000000 
#    y 0.000000 1.967240 0.000000 
#    z 0.000000 0.000000 1.765460 
# 
# From -- ./inp_files/28895.got.cif
#   From: 2010.05.17/outbox.cif.g08.bks.cpg/sg51_15_cif.got.tgz:28895.got - 2010.06.03 11:52:47.
