data_PCOD9398529
_publ_section_title
;
Structure prediction by ZEFSAII (Michael W. Deem and Ramdas Pophale) SiO2 
 PCOD9398529
Probable space group: P M M A
;
_chemical_formula_sum "Si O2"
_cell_formula_units_Z 56
_cell_length_a 8.953380
_cell_length_b 22.873403
_cell_length_c 16.120634
_cell_angle_alpha 90.000000
_cell_angle_beta 90.000000
_cell_angle_gamma 90.000000
_cell_volume 3301.413455
_symmetry_space_group_name_H-M "P M M A"
_symmetry_group_IT_number 51
_symmetry_cell_setting 'orthorhombic'
loop_
_space_group_symop_operation_xyz
x,y,z
1/2-x,-y,z
1/2+x,-y,-z
-x,y,-z
-x,-y,-z
1/2+x,y,-z
1/2-x,y,z
x,-y,z
loop_
_atom_site_type_symbol
_atom_site_label
_atom_site_fract_x
_atom_site_fract_y
_atom_site_fract_z
Si Si1 0.071529 0.099501 0.083433
Si Si2 0.571768 0.307775 0.591257
Si Si3 0.422876 0.237138 0.734853
Si Si4 0.923273 0.096255 0.251416
Si Si5 0.915960 0.930955 0.579526
Si Si6 0.069449 0.769929 0.917674
Si Si7 0.570146 0.437354 0.591658
O O1 0.250000 0.098629 0.078530
O O2 0.013743 0.075007 0.170901
O O3 0.008900 0.166261 0.085068
O O4 0.000000 0.072973 0.000000
O O5 0.500000 0.299146 0.500000
O O6 0.750000 0.305283 0.581845
O O7 0.518803 0.262047 0.660021
O O8 0.528385 0.373136 0.624266
O O9 0.250000 0.252134 0.718963
O O10 0.432745 0.166840 0.741137
O O11 0.462460 0.258585 0.828108
O O12 0.750000 0.080535 0.241983
O O13 0.990834 0.074226 0.336938
O O14 0.750000 0.905599 0.589636
O O15 0.000000 0.904659 0.500000
O O16 0.899736 0.000000 0.563455
O O17 0.250000 0.776964 0.924579
O O18 0.000000 0.740952 0.000000
O O19 0.500000 0.438252 0.500000
O O20 0.750000 0.437395 0.585530
O O21 0.526595 0.500000 0.631903
#
# Coordination Sequence:
#
# PCOD9398529 Si02
#       7
#     8   8   8   8   8   8   8
#     4  10  17  27  45  69  96 123 151 183 220 265
#     4  10  19  29  43  61  85 120 154 184 221 264
#     4   9  19  32  44  63  93 123 150 182 218 262
#     4  10  20  34  51  71  94 122 155 188 226 269
#     4  10  21  37  56  76  95 117 149 190 233 272
#     4   9  16  27  43  63  87 116 149 185 224 263
#     4   8  14  25  40  58  79 105 142 185 223 259
#
# _framework density 16.962430999999999
#
# number of rings (size 3 to 8) (size 9 to 14) (size 15 to 20)
#    0.000    2.571    0.000    4.714    0.000    5.429 
#    0.000    0.000    0.000    0.429    0.000    0.000 
#    0.000    0.571    0.000    1.286    0.000    2.429 
#
# Total GULP energy -311783.253371 kJ/mol
# GULP energy per Si atom -5567.558096 kJ/mol
# Density = 1.692382 g / cm^3
# Si number density = 16.962431 Si / 1000 Ang^3
#
#
#
# Elastic Constant Matrix: (Units=GPa)
#
#
# Indices 1 2 3 4 5 6 
#
# 1 101.7951 22.1078 64.3445 0.0000 0.0000 0.0000
# 2 22.1078 19.8991 17.9658 0.0000 0.0000 0.0000
# 3 64.3445 17.9658 130.0713 0.0000 0.0000 0.0000
# 4 0.0000 0.0000 0.0000 1.2427 0.0000 0.0000
# 5 0.0000 0.0000 0.0000 0.0000 31.6594 0.0000
# 6 0.0000 0.0000 0.0000 0.0000 0.0000 6.9531
#
#
#
# Elastic Compliance Matrix: (Units=1/GPa)
#
#
# Indices 1 2 3 4 5 6 
#
# 1 0.016686 -0.012665 -0.006505 0.000000 0.000000 0.000000
# 2 -0.012665 0.067026 -0.002993 0.000000 0.000000 0.000000
# 3 -0.006505 -0.002993 0.011319 0.000000 0.000000 0.000000
# 4 0.000000 0.000000 0.000000 0.804682 0.000000 0.000000
# 5 0.000000 0.000000 0.000000 0.000000 0.031586 0.000000
# 6 0.000000 0.000000 0.000000 0.000000 0.000000 0.143820
#
#
# Mechanical properties :
#
#
# Convention : Reuss Voigt Hill
#
# Bulk Modulus (GPa) = 19.72140 51.17796 35.44968
# Shear Modulus (GPa) = 4.40006 17.79420 11.09713
#
# Velocity S-wave (km/s) = 1.61234 3.24240 2.56054
# Velocity P-wave (km/s) = 3.88818 6.65240 5.44850
#
# Compressibility (1/GPa) = 0.05070635
#
# Stress axis : x y z
#
# Youngs Moduli (GPa) = 59.93015 14.91948 88.34397
#
# Poissons Ratio (x) = 0.18896 0.57468
# Poissons Ratio (y) = 0.75903 0.26438
# Poissons Ratio (z) = 0.38985 0.04465
#
# Static dielectric constant tensor:
#      x y z
#    x 2.029920 0.000000 0.000000 
#    y 0.000000 1.615250 0.000000 
#    z 0.000000 0.000000 1.599040 
# 
# From -- ./inp_files/21727.got.cif
#   From: 2010.05.17/outbox.cif.g08.bks.cpg/sg51_11_cif.got.tgz:21727.got - 2010.06.03 11:52:47.
