data_PCOD9398015
_publ_section_title
;
Structure prediction by ZEFSAII (Michael W. Deem and Ramdas Pophale) SiO2 
 PCOD9398015
Probable space group: P B A N
;
_chemical_formula_sum "Si O2"
_cell_formula_units_Z 24
_cell_length_a 10.105395
_cell_length_b 21.734192
_cell_length_c 4.910016
_cell_angle_alpha 90.000000
_cell_angle_beta 90.000000
_cell_angle_gamma 90.000000
_cell_volume 1078.399556
_symmetry_space_group_name_H-M "P B A N"
_symmetry_group_IT_number 50
_space_group.IT_coordinate_system_code '2'
_symmetry_cell_setting 'orthorhombic'
loop_
_space_group_symop_operation_xyz
x,y,z
1/2-x,1/2-y,z
x,1/2-y,-z
1/2-x,y,-z
-x,-y,-z
1/2+x,1/2+y,-z
-x,1/2+y,z
1/2+x,-y,z
loop_
_atom_site_type_symbol
_atom_site_label
_atom_site_fract_x
_atom_site_fract_y
_atom_site_fract_z
Si Si1 0.482090 0.104359 0.937318
Si Si2 0.905285 0.821826 0.446700
Si Si3 0.373968 0.988101 0.697601
O O1 0.497241 0.138211 0.649064
O O2 0.377708 0.049991 0.876917
O O3 0.432287 0.156368 0.142331
O O4 0.598164 0.067977 0.095600
O O5 0.927067 0.750000 0.500000
O O6 0.750000 0.835050 0.500000
O O7 0.250000 0.981009 0.500000
O O8 0.500000 0.000000 0.500000
#
# Coordination Sequence:
#
# PCOD9398015 Si02
#       3
#     8   8   8
#     4  11  23  40  64  96 138 178 222 285 341 408
#     4  11  23  39  64  99 137 180 230 285 344 405
#     4  11  25  42  67 104 136 181 224 280 347 413
#
# _framework density 22.255199999999999
#
# number of rings (size 3 to 8) (size 9 to 14) (size 15 to 20)
#    0.000    1.000    3.333    3.000    4.667    6.667 
#    0.000    0.000    0.000    1.000    8.667    0.000 
#    0.000    0.000    0.000    0.000    0.000    0.000 
#
# Total GULP energy -134204.495426 kJ/mol
# GULP energy per Si atom -5591.853976 kJ/mol
# Density = 2.220455 g / cm^3
# Si number density = 22.255200 Si / 1000 Ang^3
#
#
#
# Elastic Constant Matrix: (Units=GPa)
#
#
# Indices 1 2 3 4 5 6 
#
# 1 114.1202 20.5778 37.5578 0.0000 0.0000 0.0000
# 2 20.5778 119.6868 26.0753 0.0000 0.0000 0.0000
# 3 37.5578 26.0753 119.1284 0.0000 0.0000 0.0000
# 4 0.0000 0.0000 0.0000 56.7228 0.0000 0.0000
# 5 0.0000 0.0000 0.0000 0.0000 46.0654 0.0000
# 6 0.0000 0.0000 0.0000 0.0000 0.0000 -12.2414
#
#
#
# Elastic Compliance Matrix: (Units=1/GPa)
#
#
# Indices 1 2 3 4 5 6 
#
# 1 0.009907 -0.001074 -0.002888 0.000000 0.000000 0.000000
# 2 -0.001074 0.008890 -0.001607 0.000000 0.000000 0.000000
# 3 -0.002888 -0.001607 0.009657 0.000000 0.000000 0.000000
# 4 0.000000 0.000000 0.000000 0.017630 0.000000 0.000000
# 5 0.000000 0.000000 0.000000 0.000000 0.021708 0.000000
# 6 0.000000 0.000000 0.000000 0.000000 0.000000 -0.081690
#
#
# Mechanical properties :
#
#
# Convention : Reuss Voigt Hill
#
# Bulk Modulus (GPa) = 57.75535 57.92858 57.84197
# Shear Modulus (GPa) = 1659.87212 36.02431 847.94821
#
# Velocity S-wave (km/s) = 27.33962 4.02766 19.54069
# Velocity P-wave (km/s) = 31.97834 6.90762 23.13363
#
# Compressibility (1/GPa) = 0.01731441
#
# Stress axis : x y z
#
# Youngs Moduli (GPa) = 100.93960 112.48643 103.55503
#
# Poissons Ratio (x) = 0.12082 0.29910
# Poissons Ratio (y) = 0.10841 0.16644
# Poissons Ratio (z) = 0.29154 0.18079
#
# Static dielectric constant tensor:
#      x y z
#    x 1.855830 0.000000 0.000000 
#    y 0.000000 1.819730 0.000000 
#    z 0.000000 0.000000 1.853150 
# 
# From -- ./inp_files/797.got.cif
#   From: 2010.05.17/outbox.cif.g08.bks.cpg/sg50_1_cif.got.tgz:797.got - 2010.06.03 11:33:33.
