data_PCOD9398507
_publ_section_title
;
Structure prediction by ZEFSAII (Michael W. Deem and Ramdas Pophale) SiO2 
 PCOD9398507
Probable space group: P M M A
;
_chemical_formula_sum "Si O2"
_cell_formula_units_Z 64
_cell_length_a 27.798674
_cell_length_b 9.065227
_cell_length_c 17.450502
_cell_angle_alpha 90.000000
_cell_angle_beta 90.000000
_cell_angle_gamma 90.000000
_cell_volume 4397.549017
_symmetry_space_group_name_H-M "P M M A"
_symmetry_group_IT_number 51
_symmetry_cell_setting 'orthorhombic'
loop_
_space_group_symop_operation_xyz
x,y,z
1/2-x,-y,z
1/2+x,-y,-z
-x,y,-z
-x,-y,-z
1/2+x,y,-z
1/2-x,y,z
x,-y,z
loop_
_atom_site_type_symbol
_atom_site_label
_atom_site_fract_x
_atom_site_fract_y
_atom_site_fract_z
Si Si1 0.622406 0.675657 0.275753
Si Si2 0.805391 0.677734 0.407741
Si Si3 0.422729 0.824123 0.864176
Si Si4 0.379005 0.826735 0.478686
Si Si5 0.559456 0.821046 0.656560
Si Si6 0.547279 0.827298 0.385021
Si Si7 0.465471 0.822620 0.172812
Si Si8 0.057172 0.330292 0.019034
O O1 0.622520 0.500000 0.265523
O O2 0.668246 0.719242 0.327873
O O3 0.615010 0.755148 0.194986
O O4 0.577212 0.726865 0.327161
O O5 0.750000 0.725058 0.409837
O O6 0.807159 0.500000 0.412345
O O7 0.836717 0.743428 0.477112
O O8 0.477244 0.789241 0.834097
O O9 0.418544 0.000000 0.866667
O O10 0.418751 0.756160 0.948862
O O11 0.396522 0.768925 0.396145
O O12 0.425931 0.817776 0.533901
O O13 0.366334 0.000000 0.473067
O O14 0.508399 0.785522 0.616885
O O15 0.554938 0.774072 0.744843
O O16 0.562585 0.000000 0.656771
O O17 0.550545 0.000000 0.359722
O O18 0.439179 0.747635 0.101187
O O19 0.461261 0.000000 0.167029
O O20 0.072818 0.500000 0.021638
O O21 0.000000 0.328487 0.000000
#
# Coordination Sequence:
#
# PCOD9398507 Si02
#       8
#     8   8   8   8   8   8   8   8
#     4  10  18  27  42  63  83 107 142 181 216 250
#     4   9  19  35  49  60  82 114 142 173 219 268
#     4  10  17  27  42  59  81 111 145 175 207 251
#     4   9  17  27  44  65  83 105 141 182 213 248
#     4   9  15  25  40  60  85 114 144 174 209 249
#     4   9  15  26  40  57  82 114 144 170 206 251
#     4   9  16  26  39  55  80 116 150 173 202 247
#     4   9  17  27  38  55  80 110 145 181 210 234
#
# _framework density 14.553561999999999
#
# number of rings (size 3 to 8) (size 9 to 14) (size 15 to 20)
#    0.000    2.750    1.250    1.500    0.000    4.250 
#    0.000    1.250    0.000    3.000    0.000    0.000 
#    0.000    1.000    0.000    7.250    0.000    3.750 
#
# Total GULP energy -356404.593524 kJ/mol
# GULP energy per Si atom -5568.821774 kJ/mol
# Density = 1.452044 g / cm^3
# Si number density = 14.553562 Si / 1000 Ang^3
#
#
#
# Elastic Constant Matrix: (Units=GPa)
#
#
# Indices 1 2 3 4 5 6 
#
# 1 73.7545 26.7001 58.4055 0.0000 0.0000 0.0000
# 2 26.7001 33.8730 40.3991 0.0000 0.0000 0.0000
# 3 58.4055 40.3991 112.8763 0.0000 0.0000 0.0000
# 4 0.0000 0.0000 0.0000 18.2013 0.0000 0.0000
# 5 0.0000 0.0000 0.0000 0.0000 11.9598 0.0000
# 6 0.0000 0.0000 0.0000 0.0000 0.0000 12.5090
#
#
#
# Elastic Compliance Matrix: (Units=1/GPa)
#
#
# Indices 1 2 3 4 5 6 
#
# 1 0.023922 -0.007142 -0.009821 0.000000 0.000000 0.000000
# 2 -0.007142 0.053642 -0.015503 0.000000 0.000000 0.000000
# 3 -0.009821 -0.015503 0.019490 0.000000 0.000000 0.000000
# 4 0.000000 0.000000 0.000000 0.054941 0.000000 0.000000
# 5 0.000000 0.000000 0.000000 0.000000 0.083614 0.000000
# 6 0.000000 0.000000 0.000000 0.000000 0.000000 0.079943
#
#
# Mechanical properties :
#
#
# Convention : Reuss Voigt Hill
#
# Bulk Modulus (GPa) = 31.13372 52.39035 41.76203
# Shear Modulus (GPa) = 12.78149 14.86729 13.82439
#
# Velocity S-wave (km/s) = 2.96672 3.19965 3.08538
# Velocity P-wave (km/s) = 5.75971 7.05172 6.43821
#
# Compressibility (1/GPa) = 0.03211952
#
# Stress axis : x y z
#
# Youngs Moduli (GPa) = 41.80320 18.64219 51.30894
#
# Poissons Ratio (x) = 0.13315 0.50393
# Poissons Ratio (y) = 0.29857 0.79544
# Poissons Ratio (z) = 0.41057 0.28901
#
# Static dielectric constant tensor:
#      x y z
#    x 1.455440 0.000000 0.000000 
#    y 0.000000 1.487650 0.000000 
#    z 0.000000 0.000000 1.501520 
# 
# From -- ./inp_files/30806.got.cif
#   From: 2010.05.17/outbox.cif.g08.bks.cpg/sg51_16_cif.got.tgz:30806.got - 2010.06.03 11:52:47.
