data_PCOD9398907
_publ_section_title
;
Structure prediction by ZEFSAII (Michael W. Deem and Ramdas Pophale) SiO2 
 PCOD9398907
Probable space group: P M M A
;
_chemical_formula_sum "Si O2"
_cell_formula_units_Z 56
_cell_length_a 14.310045
_cell_length_b 20.872647
_cell_length_c 7.930180
_cell_angle_alpha 90.000000
_cell_angle_beta 90.000000
_cell_angle_gamma 90.000000
_cell_volume 2368.653710
_symmetry_space_group_name_H-M "P M M A"
_symmetry_group_IT_number 51
_symmetry_cell_setting 'orthorhombic'
loop_
_space_group_symop_operation_xyz
x,y,z
1/2-x,-y,z
1/2+x,-y,-z
-x,y,-z
-x,-y,-z
1/2+x,y,-z
1/2-x,y,z
x,-y,z
loop_
_atom_site_type_symbol
_atom_site_label
_atom_site_fract_x
_atom_site_fract_y
_atom_site_fract_z
Si Si1 0.862851 0.932332 0.970236
Si Si2 0.603660 0.209417 0.573766
Si Si3 0.105788 0.069552 0.432484
Si Si4 0.143654 0.647900 0.526991
Si Si5 0.635479 0.661410 0.109136
Si Si6 0.136563 0.795618 0.028141
Si Si7 0.635375 0.573315 0.797808
O O1 0.750000 0.932747 0.977708
O O2 0.888904 0.931318 0.771876
O O3 0.894566 0.864515 0.044421
O O4 0.896059 0.000000 0.045912
O O5 0.500000 0.210515 0.500000
O O6 0.645200 0.139849 0.520139
O O7 0.646592 0.276156 0.512263
O O8 0.607046 0.210632 0.777033
O O9 0.000000 0.069816 0.500000
O O10 0.145948 0.000000 0.487223
O O11 0.250000 0.624732 0.541802
O O12 0.103585 0.609023 0.371330
O O13 0.100313 0.639318 0.709994
O O14 0.750000 0.662695 0.112541
O O15 0.604923 0.734128 0.074367
O O16 0.607653 0.615376 0.958140
O O17 0.250000 0.795295 0.029930
O O18 0.750000 0.573508 0.798250
O O19 0.604553 0.500000 0.806363
#
# Coordination Sequence:
#
# PCOD9398907 Si02
#       7
#     8   8   8   8   8   8   8
#     4   8  13  20  34  59  85 112 152 194 230 277
#     4  10  18  28  46  71  97 128 166 204 243 288
#     4   8  14  24  38  59  88 121 158 200 243 283
#     4  10  19  32  51  74 101 130 160 197 242 287
#     4   9  17  29  48  73  97 126 161 195 235 283
#     4   9  15  27  46  64  90 126 159 195 241 286
#     4   9  17  30  50  76 102 126 156 197 240 281
#
# _framework density 23.642120999999999
#
# number of rings (size 3 to 8) (size 9 to 14) (size 15 to 20)
#    0.000    3.000    1.429    0.429    0.000    1.143 
#    0.000    3.571    0.000    1.286    0.000    3.000 
#    0.000   11.429    0.000    0.000    0.000    0.000 
#
# Total GULP energy -312646.537141 kJ/mol
# GULP energy per Si atom -5582.973878 kJ/mol
# Density = 2.358831 g / cm^3
# Si number density = 23.642121 Si / 1000 Ang^3
#
#
#
# Elastic Constant Matrix: (Units=GPa)
#
#
# Indices 1 2 3 4 5 6 
#
# 1 86.8390 12.5043 0.3365 0.0000 0.0000 0.0000
# 2 12.5043 207.0733 101.2179 0.0000 0.0000 0.0000
# 3 0.3365 101.2179 121.5799 0.0000 0.0000 0.0000
# 4 0.0000 0.0000 0.0000 -151.6083 0.0000 0.0000
# 5 0.0000 0.0000 0.0000 0.0000 12.9733 0.0000
# 6 0.0000 0.0000 0.0000 0.0000 0.0000 0.3580
#
#
#
# Elastic Compliance Matrix: (Units=1/GPa)
#
#
# Indices 1 2 3 4 5 6 
#
# 1 0.011679 -0.001163 0.000936 0.000000 0.000000 0.000000
# 2 -0.001163 0.008259 -0.006872 0.000000 0.000000 0.000000
# 3 0.000936 -0.006872 0.013944 0.000000 0.000000 0.000000
# 4 0.000000 0.000000 0.000000 -0.006596 0.000000 0.000000
# 5 0.000000 0.000000 0.000000 0.000000 0.077081 0.000000
# 6 0.000000 0.000000 0.000000 0.000000 0.000000 2.793110
#
#
# Mechanical properties :
#
#
# Convention : Reuss Voigt Hill
#
# Bulk Modulus (GPa) = 50.80488 71.51217 61.15853
# Shear Modulus (GPa) = 1.71336 -7.55981 -2.92323
#
# Velocity S-wave (km/s) = 0.85222 -1.79012 -1.11316
# Velocity P-wave (km/s) = 4.74386 5.10301 4.92671
#
# Compressibility (1/GPa) = 0.01968315
#
# Stress axis : x y z
#
# Youngs Moduli (GPa) = 85.62126 121.08646 71.71686
#
# Poissons Ratio (x) = 0.14077 -0.06709
# Poissons Ratio (y) = 0.09954 0.49285
# Poissons Ratio (z) = -0.08010 0.83213
#
# Static dielectric constant tensor:
#      x y z
#    x 3.521550 0.000000 0.000000 
#    y 0.000000 1.909090 0.000000 
#    z 0.000000 0.000000 1.802410 
# 
# From -- ./inp_files/9968.got.cif
#   From: 2010.05.17/outbox.cif.g08.bks.cpg/sg51_5_cif.got.tgz:9968.got - 2010.06.03 11:52:47.
