data_PCOD9398959
_publ_section_title
;
Structure prediction by ZEFSAII (Michael W. Deem and Ramdas Pophale) SiO2 
 PCOD9398959
Probable space group: P M M A
;
_chemical_formula_sum "Si O2"
_cell_formula_units_Z 64
_cell_length_a 26.509156
_cell_length_b 9.265829
_cell_length_c 18.696113
_cell_angle_alpha 90.000000
_cell_angle_beta 90.000000
_cell_angle_gamma 90.000000
_cell_volume 4592.313269
_symmetry_space_group_name_H-M "P M M A"
_symmetry_group_IT_number 51
_symmetry_cell_setting 'orthorhombic'
loop_
_space_group_symop_operation_xyz
x,y,z
1/2-x,-y,z
1/2+x,-y,-z
-x,y,-z
-x,-y,-z
1/2+x,y,-z
1/2-x,y,z
x,-y,z
loop_
_atom_site_type_symbol
_atom_site_label
_atom_site_fract_x
_atom_site_fract_y
_atom_site_fract_z
Si Si1 0.896334 0.671841 0.576864
Si Si2 0.690877 0.670589 0.683603
Si Si3 0.690302 0.828751 0.832525
Si Si4 0.448025 0.833619 0.546265
Si Si5 0.003963 0.672039 0.166226
Si Si6 0.052077 0.834024 0.954316
Si Si7 0.106499 0.327966 0.077489
Si Si8 0.502837 0.327779 0.667259
O O1 0.896619 0.500000 0.563086
O O2 0.845225 0.710533 0.618114
O O3 0.907377 0.754916 0.503677
O O4 0.942729 0.702235 0.631250
O O5 0.750000 0.688448 0.666726
O O6 0.682003 0.500000 0.699379
O O7 0.679325 0.762308 0.754269
O O8 0.750000 0.805668 0.846023
O O9 0.655225 0.747291 0.888923
O O10 0.680534 0.000000 0.833313
O O11 0.500000 0.827960 0.500000
O O12 0.461374 0.753118 0.619655
O O13 0.435233 0.000000 0.558275
O O14 0.994762 0.500000 0.160044
O O15 0.059103 0.698049 0.131345
O O16 0.003247 0.712430 0.249507
O O17 0.963185 0.758067 0.119578
O O18 0.067962 0.000000 0.945157
O O19 0.090864 0.743103 0.002189
O O20 0.000000 0.834385 0.000000
O O21 0.112840 0.500000 0.071007
O O22 0.494908 0.500000 0.662051
#
# Coordination Sequence:
#
# PCOD9398959 Si02
#       8
#     8   8   8   8   8   8   8   8
#     4   9  16  27  42  58  78 107 139 167 200 239
#     4   9  17  29  44  61  81 106 138 173 204 237
#     4  10  20  31  42  59  84 111 139 173 210 244
#     4   9  17  27  38  55  78 103 133 168 203 238
#     4   9  17  28  42  61  83 108 139 171 203 241
#     4   9  17  28  41  59  83 109 136 167 204 243
#     4  10  18  29  45  61  80 109 143 174 203 239
#     4   9  16  26  40  57  79 107 137 167 199 238
#
# _framework density 13.936330999999999
#
# number of rings (size 3 to 8) (size 9 to 14) (size 15 to 20)
#    0.000    2.750    0.000    2.250    0.000    7.250 
#    0.000    2.500    0.000    0.000    0.000    0.000 
#    0.000    1.000    0.000    8.250    0.000    3.875 
#
# Total GULP energy -356617.934578 kJ/mol
# GULP energy per Si atom -5572.155228 kJ/mol
# Density = 1.390461 g / cm^3
# Si number density = 13.936331 Si / 1000 Ang^3
#
#
#
# Elastic Constant Matrix: (Units=GPa)
#
#
# Indices 1 2 3 4 5 6 
#
# 1 48.9833 40.2670 31.4901 0.0000 0.0000 0.0000
# 2 40.2670 66.5783 50.8947 0.0000 0.0000 0.0000
# 3 31.4901 50.8947 91.4616 0.0000 0.0000 0.0000
# 4 0.0000 0.0000 0.0000 10.7865 0.0000 0.0000
# 5 0.0000 0.0000 0.0000 0.0000 27.7446 0.0000
# 6 0.0000 0.0000 0.0000 0.0000 0.0000 16.9843
#
#
#
# Elastic Compliance Matrix: (Units=1/GPa)
#
#
# Indices 1 2 3 4 5 6 
#
# 1 0.040617 -0.024147 -0.000548 0.000000 0.000000 0.000000
# 2 -0.024147 0.040494 -0.014220 0.000000 0.000000 0.000000
# 3 -0.000548 -0.014220 0.019035 0.000000 0.000000 0.000000
# 4 0.000000 0.000000 0.000000 0.092708 0.000000 0.000000
# 5 0.000000 0.000000 0.000000 0.000000 0.036043 0.000000
# 6 0.000000 0.000000 0.000000 0.000000 0.000000 0.058878
#
#
# Mechanical properties :
#
#
# Convention : Reuss Voigt Hill
#
# Bulk Modulus (GPa) = 44.80743 50.25855 47.53299
# Shear Modulus (GPa) = 13.40327 16.72785 15.06556
#
# Velocity S-wave (km/s) = 3.10457 3.46830 3.29147
# Velocity P-wave (km/s) = 6.71361 7.22358 6.97325
#
# Compressibility (1/GPa) = 0.02231773
#
# Stress axis : x y z
#
# Youngs Moduli (GPa) = 24.61998 24.69491 52.53553
#
# Poissons Ratio (x) = 0.59631 0.02877
# Poissons Ratio (y) = 0.59450 0.74703
# Poissons Ratio (z) = 0.01348 0.35115
#
# Static dielectric constant tensor:
#      x y z
#    x 1.442070 0.000000 0.000000 
#    y 0.000000 1.465590 0.000000 
#    z 0.000000 0.000000 1.440790 
# 
# From -- ./inp_files/30846.got.cif
#   From: 2010.05.17/outbox.cif.g08.bks.cpg/sg51_16_cif.got.tgz:30846.got - 2010.06.03 11:52:47.
