data_PCOD9398860
_publ_section_title
;
Structure prediction by ZEFSAII (Michael W. Deem and Ramdas Pophale) SiO2 
 PCOD9398860
Probable space group: P M M A
;
_chemical_formula_sum "Si O2"
_cell_formula_units_Z 56
_cell_length_a 8.258559
_cell_length_b 19.129838
_cell_length_c 19.812430
_cell_angle_alpha 90.000000
_cell_angle_beta 90.000000
_cell_angle_gamma 90.000000
_cell_volume 3130.064689
_symmetry_space_group_name_H-M "P M M A"
_symmetry_group_IT_number 51
_symmetry_cell_setting 'orthorhombic'
loop_
_space_group_symop_operation_xyz
x,y,z
1/2-x,-y,z
1/2+x,-y,-z
-x,y,-z
-x,-y,-z
1/2+x,y,-z
1/2-x,y,z
x,-y,z
loop_
_atom_site_type_symbol
_atom_site_label
_atom_site_fract_x
_atom_site_fract_y
_atom_site_fract_z
Si Si1 0.555239 0.345683 0.215564
Si Si2 0.945406 0.841188 0.927100
Si Si3 0.445048 0.283285 0.575075
Si Si4 0.445419 0.206128 0.708249
Si Si5 0.052304 0.422131 0.649712
Si Si6 0.442533 0.680100 0.072444
Si Si7 0.554777 0.079148 0.793464
O O1 0.750000 0.345194 0.214971
O O2 0.500396 0.268780 0.241463
O O3 0.504597 0.399185 0.274389
O O4 0.496753 0.358823 0.140064
O O5 0.750000 0.839902 0.925567
O O6 0.004633 0.760689 0.921651
O O7 0.003052 0.886901 0.864083
O O8 0.000000 0.868327 0.000000
O O9 0.500000 0.267117 0.500000
O O10 0.250000 0.284021 0.576311
O O11 0.498151 0.229344 0.633377
O O12 0.500707 0.360399 0.599559
O O13 0.250000 0.205874 0.709306
O O14 0.506226 0.132428 0.734761
O O15 0.250000 0.422351 0.648541
O O16 0.996098 0.500000 0.633048
O O17 0.250000 0.682572 0.071473
O O18 0.500000 0.652326 0.000000
O O19 0.750000 0.077181 0.796286
O O20 0.495604 0.000000 0.784812
#
# Coordination Sequence:
#
# PCOD9398860 Si02
#       7
#     8   8   8   8   8   8   8
#     4   9  16  28  48  70  91 121 161 200 235 276
#     4   9  18  30  43  63  91 123 156 192 236 283
#     4   9  18  32  51  77 103 129 158 190 227 272
#     4   9  18  32  49  69  95 123 158 197 232 278
#     4   8  15  29  49  73 102 133 160 187 226 277
#     4  10  18  28  44  66  92 122 157 201 247 285
#     4  10  20  33  48  68  95 125 159 200 244 286
#
# _framework density 17.891003000000001
#
# number of rings (size 3 to 8) (size 9 to 14) (size 15 to 20)
#    0.000    2.857    1.429    2.143    0.000    2.571 
#    0.000    2.143    0.000    2.143    0.000    0.000 
#    0.000    0.000    0.000    0.000    0.000    0.000 
#
# Total GULP energy -312109.810331 kJ/mol
# GULP energy per Si atom -5573.389470 kJ/mol
# Density = 1.785028 g / cm^3
# Si number density = 17.891003 Si / 1000 Ang^3
#
#
#
# Elastic Constant Matrix: (Units=GPa)
#
#
# Indices 1 2 3 4 5 6 
#
# 1 4.2152 -0.7597 5.9633 0.0000 0.0000 0.0000
# 2 -0.7597 46.5348 25.6239 0.0000 0.0000 0.0000
# 3 5.9633 25.6239 137.3542 0.0000 0.0000 0.0000
# 4 0.0000 0.0000 0.0000 15.0803 0.0000 0.0000
# 5 0.0000 0.0000 0.0000 0.0000 27.6778 0.0000
# 6 0.0000 0.0000 0.0000 0.0000 0.0000 10.2239
#
#
#
# Elastic Compliance Matrix: (Units=1/GPa)
#
#
# Indices 1 2 3 4 5 6 
#
# 1 0.258242 0.011579 -0.013372 0.000000 0.000000 0.000000
# 2 0.011579 0.024469 -0.005067 0.000000 0.000000 0.000000
# 3 -0.013372 -0.005067 0.008806 0.000000 0.000000 0.000000
# 4 0.000000 0.000000 0.000000 0.066312 0.000000 0.000000
# 5 0.000000 0.000000 0.000000 0.000000 0.036130 0.000000
# 6 0.000000 0.000000 0.000000 0.000000 0.000000 0.097810
#
#
# Mechanical properties :
#
#
# Convention : Reuss Voigt Hill
#
# Bulk Modulus (GPa) = 3.59976 27.75103 15.67539
# Shear Modulus (GPa) = 8.35996 21.08151 14.72073
#
# Velocity S-wave (km/s) = 2.16399 3.43641 2.87156
# Velocity P-wave (km/s) = 2.87406 5.59375 4.44692
#
# Compressibility (1/GPa) = 0.27779654
#
# Stress axis : x y z
#
# Youngs Moduli (GPa) = 3.87233 40.86868 113.55466
#
# Poissons Ratio (x) = -0.47321 1.51843
# Poissons Ratio (y) = -0.04484 0.57543
# Poissons Ratio (z) = 0.05178 0.20710
#
# Static dielectric constant tensor:
#      x y z
#    x 1.628860 0.000000 0.000000 
#    y 0.000000 1.613460 0.000000 
#    z 0.000000 0.000000 1.612810 
# 
# From -- ./inp_files/28212.got.cif
#   From: 2010.05.17/outbox.cif.g08.bks.cpg/sg51_15_cif.got.tgz:28212.got - 2010.06.03 11:52:47.
