data_PCOD9398991
_publ_section_title
;
Structure prediction by ZEFSAII (Michael W. Deem and Ramdas Pophale) SiO2 
 PCOD9398991
Probable space group: P M M A
;
_chemical_formula_sum "Si O2"
_cell_formula_units_Z 48
_cell_length_a 19.365796
_cell_length_b 21.864349
_cell_length_c 5.747092
_cell_angle_alpha 90.000000
_cell_angle_beta 90.000000
_cell_angle_gamma 90.000000
_cell_volume 2433.436697
_symmetry_space_group_name_H-M "P M M A"
_symmetry_group_IT_number 51
_symmetry_cell_setting 'orthorhombic'
loop_
_space_group_symop_operation_xyz
x,y,z
1/2-x,-y,z
1/2+x,-y,-z
-x,y,-z
-x,-y,-z
1/2+x,y,-z
1/2-x,y,z
x,-y,z
loop_
_atom_site_type_symbol
_atom_site_label
_atom_site_fract_x
_atom_site_fract_y
_atom_site_fract_z
Si Si1 0.428404 0.245443 0.604578
Si Si2 0.170917 0.312274 0.271347
Si Si3 0.429200 0.634762 0.887316
Si Si4 0.082486 0.118641 0.768988
Si Si5 0.173914 0.567423 0.592959
Si Si6 0.923200 0.073079 0.735005
O O1 0.500000 0.221530 0.500000
O O2 0.368209 0.260747 0.421570
O O3 0.447875 0.310992 0.710630
O O4 0.407764 0.191880 0.780274
O O5 0.250000 0.296351 0.214210
O O6 0.172313 0.375452 0.419504
O O7 0.123635 0.330224 0.055905
O O8 0.387270 0.580311 0.770327
O O9 0.500000 0.613568 0.000000
O O10 0.108263 0.098024 0.509874
O O11 0.001683 0.098725 0.755140
O O12 0.109534 0.090853 0.013305
O O13 0.250000 0.569588 0.708492
O O14 0.167135 0.500000 0.484440
O O15 0.926563 0.000000 0.717786
#
# Coordination Sequence:
#
# PCOD9398991 Si02
#       6
#     8   8   8   8   8   8
#     4  11  21  35  55  81 114 153 190 232 291 356
#     4  10  22  39  58  81 112 149 189 240 295 350
#     4  11  22  33  58  83 113 146 191 240 294 349
#     4  10  19  28  49  73 112 157 194 235 290 357
#     4   9  20  39  58  79 110 148 191 235 290 358
#     4  10  18  29  45  74 117 157 191 238 297 350
#
# _framework density 19.725189
#
# number of rings (size 3 to 8) (size 9 to 14) (size 15 to 20)
#    0.000    1.833    3.333    3.000    4.667    1.667 
#    0.000    2.500    0.000    0.000    0.000    0.000 
#    0.000    7.333    0.000    0.000    0.000    0.000 
#
# Total GULP energy -267339.748181 kJ/mol
# GULP energy per Si atom -5569.578087 kJ/mol
# Density = 1.968029 g / cm^3
# Si number density = 19.725189 Si / 1000 Ang^3
#
#
#
# Elastic Constant Matrix: (Units=GPa)
#
#
# Indices 1 2 3 4 5 6 
#
# 1 72.6639 5.6925 20.4565 0.0000 0.0000 0.0000
# 2 5.6925 92.7465 9.4708 0.0000 0.0000 0.0000
# 3 20.4565 9.4708 91.4004 0.0000 0.0000 0.0000
# 4 0.0000 0.0000 0.0000 19.3225 0.0000 0.0000
# 5 0.0000 0.0000 0.0000 0.0000 20.9979 0.0000
# 6 0.0000 0.0000 0.0000 0.0000 0.0000 -33.6302
#
#
#
# Elastic Compliance Matrix: (Units=1/GPa)
#
#
# Indices 1 2 3 4 5 6 
#
# 1 0.014717 -0.000573 -0.003235 0.000000 0.000000 0.000000
# 2 -0.000573 0.010920 -0.001003 0.000000 0.000000 0.000000
# 3 -0.003235 -0.001003 0.011769 0.000000 0.000000 0.000000
# 4 0.000000 0.000000 0.000000 0.051753 0.000000 0.000000
# 5 0.000000 0.000000 0.000000 0.000000 0.047624 0.000000
# 6 0.000000 0.000000 0.000000 0.000000 0.000000 -0.029735
#
#
# Mechanical properties :
#
#
# Convention : Reuss Voigt Hill
#
# Bulk Modulus (GPa) = 35.99158 36.45005 36.22081
# Shear Modulus (GPa) = 39.70433 16.08411 27.89422
#
# Velocity S-wave (km/s) = 4.49137 2.85864 3.76459
# Velocity P-wave (km/s) = 6.72181 5.42354 6.10727
#
# Compressibility (1/GPa) = 0.02778428
#
# Stress axis : x y z
#
# Youngs Moduli (GPa) = 67.94640 91.57768 84.97078
#
# Poissons Ratio (x) = 0.05248 0.27484
# Poissons Ratio (y) = 0.03893 0.08525
# Poissons Ratio (z) = 0.21978 0.09187
#
# Static dielectric constant tensor:
#      x y z
#    x 1.688790 0.000000 0.000000 
#    y 0.000000 1.669500 0.000000 
#    z 0.000000 0.000000 1.788480 
# 
# From -- ./inp_files/2534.got.cif
#   From: 2010.05.17/outbox.cif.g08.bks.cpg/sg51_2_cif.got.tgz:2534.got - 2010.06.03 11:52:47.
