data_PCOD9398838
_publ_section_title
;
Structure prediction by ZEFSAII (Michael W. Deem and Ramdas Pophale) SiO2 
 PCOD9398838
Probable space group: P M M A
;
_chemical_formula_sum "Si O2"
_cell_formula_units_Z 64
_cell_length_a 9.009688
_cell_length_b 22.162679
_cell_length_c 21.892934
_cell_angle_alpha 90.000000
_cell_angle_beta 90.000000
_cell_angle_gamma 90.000000
_cell_volume 4371.555294
_symmetry_space_group_name_H-M "P M M A"
_symmetry_group_IT_number 51
_symmetry_cell_setting 'orthorhombic'
loop_
_space_group_symop_operation_xyz
x,y,z
1/2-x,-y,z
1/2+x,-y,-z
-x,y,-z
-x,-y,-z
1/2+x,y,-z
1/2-x,y,z
x,-y,z
loop_
_atom_site_type_symbol
_atom_site_label
_atom_site_fract_x
_atom_site_fract_y
_atom_site_fract_z
Si Si1 0.418301 0.931762 0.774269
Si Si2 0.916893 0.153617 0.853102
Si Si3 0.929254 0.661858 0.846763
Si Si4 0.079084 0.252029 0.257210
Si Si5 0.078786 0.159212 0.660146
Si Si6 0.428061 0.931331 0.433013
Si Si7 0.924956 0.239024 0.065198
Si Si8 0.424227 0.572559 0.935379
O O1 0.250000 0.927227 0.798861
O O2 0.534808 0.908973 0.823737
O O3 0.424881 0.887544 0.716731
O O4 0.445553 0.000000 0.755148
O O5 0.750000 0.154020 0.877691
O O6 0.921346 0.201817 0.797063
O O7 0.033797 0.176299 0.902386
O O8 0.750000 0.661201 0.849250
O O9 0.970849 0.687056 0.778870
O O10 0.995992 0.710961 0.893169
O O11 0.995971 0.601149 0.876132
O O12 0.250000 0.260111 0.276438
O O13 0.987786 0.221518 0.312273
O O14 0.250000 0.167904 0.641764
O O15 0.989181 0.123294 0.608221
O O16 0.500000 0.926884 0.500000
O O17 0.250000 0.927641 0.436692
O O18 0.464921 0.000000 0.409900
O O19 0.750000 0.248839 0.062600
O O20 0.000000 0.241442 0.000000
O O21 0.250000 0.589524 0.936358
O O22 0.434418 0.500000 0.932892
O O23 0.500000 0.591838 0.000000
#
# Coordination Sequence:
#
# PCOD9398838 Si02
#       8
#     8   8   8   8   8   8   8   8
#     4   9  17  28  42  60  80 102 127 156 194 240
#     4   9  17  29  42  58  78  97 122 156 195 239
#     4  10  19  31  46  64  85 108 137 173 211 249
#     4   8  16  29  43  60  82 106 132 166 207 249
#     4  10  18  28  44  64  85 108 136 171 208 246
#     4  10  20  32  45  61  84 115 149 183 217 254
#     4  11  20  30  44  60  78  99 124 156 197 243
#     4  10  20  32  45  62  86 117 151 184 217 255
#
# _framework density 14.640098
#
# number of rings (size 3 to 8) (size 9 to 14) (size 15 to 20)
#    0.000    2.375    0.000    4.500    0.000    6.250 
#    0.000    0.000    0.000    0.375    0.000    0.000 
#    0.000    0.000    0.000    0.000    0.000    0.625 
#
# Total GULP energy -356328.182873 kJ/mol
# GULP energy per Si atom -5567.627857 kJ/mol
# Density = 1.460678 g / cm^3
# Si number density = 14.640098 Si / 1000 Ang^3
#
#
#
# Elastic Constant Matrix: (Units=GPa)
#
#
# Indices 1 2 3 4 5 6 
#
# 1 81.8844 27.4250 34.9081 0.0000 0.0000 0.0000
# 2 27.4250 41.1408 21.5052 0.0000 0.0000 0.0000
# 3 34.9081 21.5052 48.2297 0.0000 0.0000 0.0000
# 4 0.0000 0.0000 0.0000 28.3991 0.0000 0.0000
# 5 0.0000 0.0000 0.0000 0.0000 22.3382 0.0000
# 6 0.0000 0.0000 0.0000 0.0000 0.0000 21.6304
#
#
#
# Elastic Compliance Matrix: (Units=1/GPa)
#
#
# Indices 1 2 3 4 5 6 
#
# 1 0.019172 -0.007206 -0.010663 0.000000 0.000000 0.000000
# 2 -0.007206 0.034403 -0.010124 0.000000 0.000000 0.000000
# 3 -0.010663 -0.010124 0.032966 0.000000 0.000000 0.000000
# 4 0.000000 0.000000 0.000000 0.035212 0.000000 0.000000
# 5 0.000000 0.000000 0.000000 0.000000 0.044766 0.000000
# 6 0.000000 0.000000 0.000000 0.000000 0.000000 0.046231
#
#
# Mechanical properties :
#
#
# Convention : Reuss Voigt Hill
#
# Bulk Modulus (GPa) = 32.72919 37.65907 35.19413
# Shear Modulus (GPa) = 17.92619 20.30130 19.11375
#
# Velocity S-wave (km/s) = 3.50302 3.72787 3.61719
# Velocity P-wave (km/s) = 6.22623 6.65646 6.44494
#
# Compressibility (1/GPa) = 0.03055376
#
# Stress axis : x y z
#
# Youngs Moduli (GPa) = 52.16046 29.06752 30.33421
#
# Poissons Ratio (x) = 0.20947 0.32345
# Poissons Ratio (y) = 0.37588 0.30711
# Poissons Ratio (z) = 0.55619 0.29428
#
# Static dielectric constant tensor:
#      x y z
#    x 1.506630 0.000000 0.000000 
#    y 0.000000 1.513710 0.000000 
#    z 0.000000 0.000000 1.454680 
# 
# From -- ./inp_files/28602.got.cif
#   From: 2010.05.17/outbox.cif.g08.bks.cpg/sg51_15_cif.got.tgz:28602.got - 2010.06.03 11:52:47.
