data_PCOD9398279
_publ_section_title
;
Structure prediction by ZEFSAII (Michael W. Deem and Ramdas Pophale) SiO2 
 PCOD9398279
Probable space group: P B A N
;
_chemical_formula_sum "Si O2"
_cell_formula_units_Z 22
_cell_length_a 12.814724
_cell_length_b 4.930306
_cell_length_c 13.649863
_cell_angle_alpha 90.000000
_cell_angle_beta 90.000000
_cell_angle_gamma 90.000000
_cell_volume 862.405314
_symmetry_space_group_name_H-M "P B A N"
_symmetry_group_IT_number 50
_space_group.IT_coordinate_system_code '2'
_symmetry_cell_setting 'orthorhombic'
loop_
_space_group_symop_operation_xyz
x,y,z
1/2-x,1/2-y,z
x,1/2-y,-z
1/2-x,y,-z
-x,-y,-z
1/2+x,1/2+y,-z
-x,1/2+y,z
1/2+x,-y,z
loop_
_atom_site_type_symbol
_atom_site_label
_atom_site_fract_x
_atom_site_fract_y
_atom_site_fract_z
Si Si1 0.430694 0.563649 0.883895
Si Si2 0.750000 0.750000 0.000000
Si Si3 0.922998 0.750000 0.500000
Si Si4 0.182929 0.480711 0.309062
O O1 0.528424 0.365179 0.904540
O O2 0.328099 0.445934 0.937654
O O3 0.406054 0.560616 0.767413
O O4 0.856782 0.680151 0.595800
O O5 0.000000 0.500000 0.500000
O O6 0.250000 0.750000 0.333067
O O7 0.250000 0.250000 0.255488
#
# Coordination Sequence:
#
# PCOD9398279 Si02
#       4
#     8   2   4   8
#     4  12  27  49  77 114 156 205 260 326 398 473
#     4  12  28  50  80 114 160 202 272 326 408 474
#     4  12  25  44  71 108 150 200 260 321 386 473
#     4  12  25  47  75 109 153 206 258 318 392 471
#
# _framework density 25.510047
#
# number of rings (size 3 to 8) (size 9 to 14) (size 15 to 20)
#    0.000    0.000    1.818    8.182    0.000    2.909 
#    0.000    0.000    0.000    0.000    0.000    0.000 
#    0.000    0.000    0.000    0.000    0.000    0.000 
#
# Total GULP energy -123258.789596 kJ/mol
# GULP energy per Si atom -5602.672254 kJ/mol
# Density = 2.545198 g / cm^3
# Si number density = 25.510047 Si / 1000 Ang^3
#
#
#
# Elastic Constant Matrix: (Units=GPa)
#
#
# Indices 1 2 3 4 5 6 
#
# 1 136.1375 60.1585 65.0491 0.0000 0.0000 0.0000
# 2 60.1585 196.8661 39.7971 0.0000 0.0000 0.0000
# 3 65.0491 39.7971 156.6315 0.0000 0.0000 0.0000
# 4 0.0000 0.0000 0.0000 32.8576 0.0000 0.0000
# 5 0.0000 0.0000 0.0000 0.0000 -1.3701 0.0000
# 6 0.0000 0.0000 0.0000 0.0000 0.0000 63.1411
#
#
#
# Elastic Compliance Matrix: (Units=1/GPa)
#
#
# Indices 1 2 3 4 5 6 
#
# 1 0.010108 -0.002362 -0.003598 0.000000 0.000000 0.000000
# 2 -0.002362 0.005906 -0.000520 0.000000 0.000000 0.000000
# 3 -0.003598 -0.000520 0.008011 0.000000 0.000000 0.000000
# 4 0.000000 0.000000 0.000000 0.030434 0.000000 0.000000
# 5 0.000000 0.000000 0.000000 0.000000 -0.729849 0.000000
# 6 0.000000 0.000000 0.000000 0.000000 0.000000 0.015838
#
#
# Mechanical properties :
#
#
# Convention : Reuss Voigt Hill
#
# Bulk Modulus (GPa) = 90.36291 91.07160 90.71725
# Shear Modulus (GPa) = -7.77721 40.56775 16.39527
#
# Velocity S-wave (km/s) = -1.74794 3.99214 2.53790
# Velocity P-wave (km/s) = 5.60586 7.55165 6.65030
#
# Compressibility (1/GPa) = 0.01106649
#
# Stress axis : x y z
#
# Youngs Moduli (GPa) = 98.92928 169.30942 124.83245
#
# Poissons Ratio (x) = 0.39983 0.44914
# Poissons Ratio (y) = 0.23363 0.06491
# Poissons Ratio (z) = 0.35594 0.08803
#
# Static dielectric constant tensor:
#      x y z
#    x 2.141110 0.000000 0.000000 
#    y 0.000000 1.896780 0.000000 
#    z 0.000000 0.000000 2.097510 
# 
# From -- ./inp_files/20637.got.cif
#   From: 2010.05.17/outbox.cif.g08.bks.cpg/sg50_11_cif.got.tgz:20637.got - 2010.06.03 11:33:33.
