data_PCOD9398231
_publ_section_title
;
Structure prediction by ZEFSAII (Michael W. Deem and Ramdas Pophale) SiO2 
 PCOD9398231
Probable space group: P B A N
;
_chemical_formula_sum "Si O2"
_cell_formula_units_Z 46
_cell_length_a 12.385956
_cell_length_b 17.801833
_cell_length_c 8.763801
_cell_angle_alpha 90.000000
_cell_angle_beta 90.000000
_cell_angle_gamma 90.000000
_cell_volume 1932.354322
_symmetry_space_group_name_H-M "P B A N"
_symmetry_group_IT_number 50
_space_group.IT_coordinate_system_code '2'
_symmetry_cell_setting 'orthorhombic'
loop_
_space_group_symop_operation_xyz
x,y,z
1/2-x,1/2-y,z
x,1/2-y,-z
1/2-x,y,-z
-x,-y,-z
1/2+x,1/2+y,-z
-x,1/2+y,z
1/2+x,-y,z
loop_
_atom_site_type_symbol
_atom_site_label
_atom_site_fract_x
_atom_site_fract_y
_atom_site_fract_z
Si Si1 0.790983 0.912494 0.157392
Si Si2 0.074369 0.549161 0.110226
Si Si3 0.750000 0.146840 0.000000
Si Si4 0.750000 0.750000 0.500000
Si Si5 0.102205 0.039574 0.359850
Si Si6 0.436085 0.351802 0.631896
Si Si7 0.825779 0.362509 0.350941
O O1 0.697268 0.911909 0.281782
O O2 0.905249 0.878064 0.200079
O O3 0.818229 0.000187 0.137736
O O4 0.750000 0.880404 0.000000
O O5 0.126381 0.620331 0.031083
O O6 0.004616 0.557218 0.261714
O O7 0.000000 0.500000 0.000000
O O8 0.774324 0.162678 0.812065
O O9 0.662934 0.702890 0.404484
O O10 0.082015 0.074413 0.525594
O O11 0.139597 0.952544 0.351201
O O12 0.557370 0.323880 0.622087
O O13 0.750000 0.351746 0.500000
#
# Coordination Sequence:
#
# PCOD9398231 Si02
#       7
#     8   8   4   2   8   8   8
#     4  12  20  35  59  96 136 178 218 270 341 413
#     4  12  18  31  53  92 142 185 208 260 343 421
#     4  12  22  36  56  96 151 183 220 264 346 434
#     4  12  28  52  72  92 128 188 238 292 344 384
#     4  12  22  35  62  96 141 180 217 272 348 414
#     4  12  26  45  67  94 133 184 243 288 331 412
#     4  12  24  40  67 106 142 177 220 279 355 422
#
# _framework density 23.805160000000001
#
# number of rings (size 3 to 8) (size 9 to 14) (size 15 to 20)
#    0.000    0.000    9.565    2.609    0.000    0.000 
#    0.000    0.870    0.000    0.000    0.000    4.870 
#    0.000    0.000    0.000    0.000    0.000    0.000 
#
# Total GULP energy -256165.418060 kJ/mol
# GULP energy per Si atom -5568.813436 kJ/mol
# Density = 2.375098 g / cm^3
# Si number density = 23.805160 Si / 1000 Ang^3
#
#
#
# Elastic Constant Matrix: (Units=GPa)
#
#
# Indices 1 2 3 4 5 6 
#
# 1 190.5295 19.1936 85.9271 0.0000 0.0000 0.0000
# 2 19.1936 34.6491 15.6619 0.0000 0.0000 0.0000
# 3 85.9271 15.6619 149.5878 0.0000 0.0000 0.0000
# 4 0.0000 0.0000 0.0000 -9.7260 0.0000 0.0000
# 5 0.0000 0.0000 0.0000 0.0000 74.9322 0.0000
# 6 0.0000 0.0000 0.0000 0.0000 0.0000 -3.9132
#
#
#
# Elastic Compliance Matrix: (Units=1/GPa)
#
#
# Indices 1 2 3 4 5 6 
#
# 1 0.007245 -0.002238 -0.003928 0.000000 0.000000 0.000000
# 2 -0.002238 0.030986 -0.001959 0.000000 0.000000 0.000000
# 3 -0.003928 -0.001959 0.009146 0.000000 0.000000 0.000000
# 4 0.000000 0.000000 0.000000 -0.102817 0.000000 0.000000
# 5 0.000000 0.000000 0.000000 0.000000 0.013345 0.000000
# 6 0.000000 0.000000 0.000000 0.000000 0.000000 -0.255545
#
#
# Mechanical properties :
#
#
# Convention : Reuss Voigt Hill
#
# Bulk Modulus (GPa) = 32.12460 68.48131 50.30295
# Shear Modulus (GPa) = -18.44922 29.19084 5.37081
#
# Velocity S-wave (km/s) = -2.78692 3.50557 1.50368
# Velocity P-wave (km/s) = 1.77995 6.72423 4.91851
#
# Compressibility (1/GPa) = 0.03112879
#
# Stress axis : x y z
#
# Youngs Moduli (GPa) = 138.02071 32.27275 109.33525
#
# Poissons Ratio (x) = 0.07223 0.42942
# Poissons Ratio (y) = 0.30891 0.21414
# Poissons Ratio (z) = 0.54208 0.06321
#
# Static dielectric constant tensor:
#      x y z
#    x 1.898600 0.000000 0.000000 
#    y 0.000000 2.116700 0.000000 
#    z 0.000000 0.000000 1.861260 
# 
# From -- ./inp_files/11591.got.cif
#   From: 2010.05.17/outbox.cif.g08.bks.cpg/sg50_6_cif.got.tgz:11591.got - 2010.06.03 11:33:33.
