data_PCOD9398948
_publ_section_title
;
Structure prediction by ZEFSAII (Michael W. Deem and Ramdas Pophale) SiO2 
 PCOD9398948
Probable space group: P M M A
;
_chemical_formula_sum "Si O2"
_cell_formula_units_Z 48
_cell_length_a 26.524237
_cell_length_b 7.554921
_cell_length_c 12.560511
_cell_angle_alpha 90.000000
_cell_angle_beta 90.000000
_cell_angle_gamma 90.000000
_cell_volume 2516.982148
_symmetry_space_group_name_H-M "P M M A"
_symmetry_group_IT_number 51
_symmetry_cell_setting 'orthorhombic'
loop_
_space_group_symop_operation_xyz
x,y,z
1/2-x,-y,z
1/2+x,-y,-z
-x,y,-z
-x,-y,-z
1/2+x,y,-z
1/2-x,y,z
x,-y,z
loop_
_atom_site_type_symbol
_atom_site_label
_atom_site_fract_x
_atom_site_fract_y
_atom_site_fract_z
Si Si1 0.614426 0.287658 0.511358
Si Si2 0.307591 0.283556 0.667292
Si Si3 0.921809 0.299751 0.726692
Si Si4 0.555839 0.716716 0.961037
Si Si5 0.390373 0.285823 0.829701
Si Si6 0.472041 0.797957 0.651752
O O1 0.619225 0.500000 0.518387
O O2 0.659310 0.224315 0.434442
O O3 0.611180 0.217270 0.631640
O O4 0.562331 0.252469 0.448469
O O5 0.250000 0.224347 0.665306
O O6 0.307471 0.500000 0.665557
O O7 0.338630 0.229812 0.772872
O O8 0.902900 0.500000 0.743965
O O9 0.929288 0.218755 0.843499
O O10 0.977796 0.308390 0.676450
O O11 0.553938 0.500000 0.956385
O O12 0.500000 0.772302 0.000000
O O13 0.596056 0.769001 0.051099
O O14 0.391482 0.500000 0.827417
O O15 0.435120 0.223332 0.752563
O O16 0.487919 0.000000 0.640084
#
# Coordination Sequence:
#
# PCOD9398948 Si02
#       6
#     8   8   8   8   8   8
#     4   9  18  30  45  63  84 114 149 178 212 261
#     4   8  14  26  46  68  85 105 140 185 225 257
#     4  10  18  29  44  61  85 119 154 178 205 254
#     4   9  15  25  44  64  84 113 149 181 202 239
#     4   9  16  29  47  65  86 116 150 179 213 256
#     4  11  20  28  41  63  92 119 144 179 218 253
#
# _framework density 19.070457999999999
#
# number of rings (size 3 to 8) (size 9 to 14) (size 15 to 20)
#    0.000    2.667    1.667    3.000    0.000    2.667 
#    0.000    1.667    0.000    9.000    0.000    7.000 
#    0.000    0.000    0.000   12.000    0.000   13.333 
#
# Total GULP energy -267632.696321 kJ/mol
# GULP energy per Si atom -5575.681173 kJ/mol
# Density = 1.902705 g / cm^3
# Si number density = 19.070458 Si / 1000 Ang^3
#
#
#
# Elastic Constant Matrix: (Units=GPa)
#
#
# Indices 1 2 3 4 5 6 
#
# 1 92.5650 6.3676 68.4486 0.0000 0.0000 0.0000
# 2 6.3676 49.7179 8.9331 0.0000 0.0000 0.0000
# 3 68.4486 8.9331 202.5814 0.0000 0.0000 0.0000
# 4 0.0000 0.0000 0.0000 -16.0719 0.0000 0.0000
# 5 0.0000 0.0000 0.0000 0.0000 10.5477 0.0000
# 6 0.0000 0.0000 0.0000 0.0000 0.0000 -18.7179
#
#
#
# Elastic Compliance Matrix: (Units=1/GPa)
#
#
# Indices 1 2 3 4 5 6 
#
# 1 0.014449 -0.000981 -0.004839 0.000000 0.000000 0.000000
# 2 -0.000981 0.020341 -0.000565 0.000000 0.000000 0.000000
# 3 -0.004839 -0.000565 0.006596 0.000000 0.000000 0.000000
# 4 0.000000 0.000000 0.000000 -0.062220 0.000000 0.000000
# 5 0.000000 0.000000 0.000000 0.000000 0.094807 0.000000
# 6 0.000000 0.000000 0.000000 0.000000 0.000000 -0.053425
#
#
# Mechanical properties :
#
#
# Convention : Reuss Voigt Hill
#
# Bulk Modulus (GPa) = 34.94662 56.92923 45.93792
# Shear Modulus (GPa) = 116.66776 12.55925 64.61350
#
# Velocity S-wave (km/s) = 7.83007 2.56905 5.82709
# Velocity P-wave (km/s) = 10.00557 6.22229 8.33152
#
# Compressibility (1/GPa) = 0.02861507
#
# Stress axis : x y z
#
# Youngs Moduli (GPa) = 69.20999 49.16241 151.60386
#
# Poissons Ratio (x) = 0.04823 0.73357
# Poissons Ratio (y) = 0.06790 0.08572
# Poissons Ratio (z) = 0.33489 0.02780
#
# Static dielectric constant tensor:
#      x y z
#    x 1.627520 0.000000 0.000000 
#    y 0.000000 1.688880 0.000000 
#    z 0.000000 0.000000 1.703540 
# 
# From -- ./inp_files/19006.got.cif
#   From: 2010.05.17/outbox.cif.g08.bks.cpg/sg51_10_cif.got.tgz:19006.got - 2010.06.03 11:52:47.
