data_PCOD9398068
_publ_section_title
;
Structure prediction by ZEFSAII (Michael W. Deem and Ramdas Pophale) SiO2 
 PCOD9398068
Probable space group: P B A N
;
_chemical_formula_sum "Si O2"
_cell_formula_units_Z 50
_cell_length_a 17.496450
_cell_length_b 14.807772
_cell_length_c 9.342961
_cell_angle_alpha 90.000000
_cell_angle_beta 90.000000
_cell_angle_gamma 90.000000
_cell_volume 2420.606498
_symmetry_space_group_name_H-M "P B A N"
_symmetry_group_IT_number 50
_space_group.IT_coordinate_system_code '2'
_symmetry_cell_setting 'orthorhombic'
loop_
_space_group_symop_operation_xyz
x,y,z
1/2-x,1/2-y,z
x,1/2-y,-z
1/2-x,y,-z
-x,-y,-z
1/2+x,1/2+y,-z
-x,1/2+y,z
1/2+x,-y,z
loop_
_atom_site_type_symbol
_atom_site_label
_atom_site_fract_x
_atom_site_fract_y
_atom_site_fract_z
Si Si1 0.830295 0.503189 0.437007
Si Si2 0.500310 0.702803 0.345496
Si Si3 0.843069 0.532030 0.990573
Si Si4 0.250000 0.750000 0.000000
Si Si5 0.144295 0.630788 0.806485
Si Si6 0.432204 0.495615 0.701482
Si Si7 0.925267 0.873951 0.772463
O O1 0.750000 0.532971 0.500000
O O2 0.818527 0.421861 0.326078
O O3 0.886346 0.470480 0.562998
O O4 0.869706 0.583011 0.347468
O O5 0.488741 0.750000 0.500000
O O6 0.423071 0.691196 0.255659
O O7 0.531791 0.600313 0.348078
O O8 0.555468 0.771244 0.262327
O O9 0.873165 0.523220 0.830024
O O10 0.750000 0.532007 0.000000
O O11 0.877846 0.447995 0.081771
O O12 0.882914 0.613917 0.075902
O O13 0.200759 0.810213 0.103722
O O14 0.497324 0.565279 0.754620
#
# Coordination Sequence:
#
# PCOD9398068 Si02
#       7
#     8   8   8   2   8   8   8
#     4  11  23  44  71 101 136 189 231 288 359 423
#     4  12  25  43  70 106 139 181 246 297 346 423
#     4  11  24  46  70 102 141 189 233 296 367 424
#     4  12  28  44  62 112 140 178 232 292 372 444
#     4  11  26  44  69 100 144 179 230 297 360 429
#     4  12  23  44  72 100 139 183 242 292 348 428
#     4  11  24  43  70 104 138 188 238 289 357 423
#
# _framework density 20.655981000000001
#
# number of rings (size 3 to 8) (size 9 to 14) (size 15 to 20)
#    0.000    0.640    5.600    3.840    2.240    1.920 
#    0.000    4.800    0.000    0.000    0.000    0.000 
#    0.000    0.000    0.000    0.000    0.000    0.000 
#
# Total GULP energy -279510.365390 kJ/mol
# GULP energy per Si atom -5590.207308 kJ/mol
# Density = 2.060897 g / cm^3
# Si number density = 20.655981 Si / 1000 Ang^3
#
#
#
# Elastic Constant Matrix: (Units=GPa)
#
#
# Indices 1 2 3 4 5 6 
#
# 1 90.4617 13.7955 33.8908 0.0000 0.0000 0.0000
# 2 13.7955 46.3427 20.6544 0.0000 0.0000 0.0000
# 3 33.8908 20.6544 128.2073 0.0000 0.0000 0.0000
# 4 0.0000 0.0000 0.0000 13.6629 0.0000 0.0000
# 5 0.0000 0.0000 0.0000 0.0000 40.1261 0.0000
# 6 0.0000 0.0000 0.0000 0.0000 0.0000 14.3164
#
#
#
# Elastic Compliance Matrix: (Units=1/GPa)
#
#
# Indices 1 2 3 4 5 6 
#
# 1 0.012518 -0.002426 -0.002918 0.000000 0.000000 0.000000
# 2 -0.002426 0.023718 -0.003180 0.000000 0.000000 0.000000
# 3 -0.002918 -0.003180 0.009084 0.000000 0.000000 0.000000
# 4 0.000000 0.000000 0.000000 0.073191 0.000000 0.000000
# 5 0.000000 0.000000 0.000000 0.000000 0.024921 0.000000
# 6 0.000000 0.000000 0.000000 0.000000 0.000000 0.069850
#
#
# Mechanical properties :
#
#
# Convention : Reuss Voigt Hill
#
# Bulk Modulus (GPa) = 35.37124 44.63258 40.00191
# Shear Modulus (GPa) = 20.85491 26.73250 23.79370
#
# Velocity S-wave (km/s) = 3.18092 3.60137 3.39765
# Velocity P-wave (km/s) = 5.53643 6.24080 5.89914
#
# Compressibility (1/GPa) = 0.02827156
#
# Stress axis : x y z
#
# Youngs Moduli (GPa) = 79.88760 42.16272 110.08936
#
# Poissons Ratio (x) = 0.10227 0.32126
# Poissons Ratio (y) = 0.19378 0.35006
# Poissons Ratio (z) = 0.23313 0.13407
#
# Static dielectric constant tensor:
#      x y z
#    x 1.740950 0.000000 0.000000 
#    y 0.000000 1.791010 0.000000 
#    z 0.000000 0.000000 1.733560 
# 
# From -- ./inp_files/14271.got.cif
#   From: 2010.05.17/outbox.cif.g08.bks.cpg/sg50_8_cif.got.tgz:14271.got - 2010.06.03 11:33:33.
