data_PCOD9398419
_publ_section_title
;
Structure prediction by ZEFSAII (Michael W. Deem and Ramdas Pophale) SiO2 
 PCOD9398419
Probable space group: P M M A
;
_chemical_formula_sum "Si O2"
_cell_formula_units_Z 48
_cell_length_a 14.232829
_cell_length_b 17.695058
_cell_length_c 10.313594
_cell_angle_alpha 90.000000
_cell_angle_beta 90.000000
_cell_angle_gamma 90.000000
_cell_volume 2597.486226
_symmetry_space_group_name_H-M "P M M A"
_symmetry_group_IT_number 51
_symmetry_cell_setting 'orthorhombic'
loop_
_space_group_symop_operation_xyz
x,y,z
1/2-x,-y,z
1/2+x,-y,-z
-x,y,-z
-x,-y,-z
1/2+x,y,-z
1/2-x,y,z
x,-y,z
loop_
_atom_site_type_symbol
_atom_site_label
_atom_site_fract_x
_atom_site_fract_y
_atom_site_fract_z
Si Si1 0.075722 0.175818 0.615257
Si Si2 0.750000 0.910712 0.487835
Si Si3 0.442069 0.176239 0.135809
Si Si4 0.541371 0.652409 0.857887
Si Si5 0.750000 0.908136 0.792563
Si Si6 0.385707 0.500000 0.505537
Si Si7 0.083456 0.344803 0.607313
Si Si8 0.852363 0.500000 0.797289
O O1 0.158046 0.118073 0.585837
O O2 0.122297 0.259841 0.609015
O O3 0.000000 0.171147 0.500000
O O4 0.017120 0.162819 0.747557
O O5 0.750000 0.885796 0.639324
O O6 0.750000 0.000000 0.491108
O O7 0.412523 0.264623 0.154865
O O8 0.347439 0.125930 0.148031
O O9 0.500000 0.168152 0.000000
O O10 0.462421 0.646137 0.747730
O O11 0.601631 0.578019 0.838728
O O12 0.500000 0.650533 0.000000
O O13 0.750000 0.000000 0.803451
O O14 0.500000 0.500000 0.500000
O O15 0.359978 0.579323 0.573003
O O16 0.352477 0.500000 0.358655
O O17 0.000000 0.341852 0.500000
O O18 0.750000 0.500000 0.853843
#
# Coordination Sequence:
#
# PCOD9398419 Si02
#       8
#     8   4   8   8   4   4   8   4
#     4  10  20  38  61  91 120 160 207 247 303 367
#     4  11  24  39  63  96 126 161 202 259 312 362
#     4  10  23  42  65  92 125 165 203 252 310 369
#     4  10  20  37  59  85 112 161 199 239 295 353
#     4  11  24  41  65  96 124 157 202 255 314 370
#     4  10  16  32  51  78 114 146 188 241 281 338
#     4   9  16  32  58  80 112 146 199 237 291 346
#     4  12  23  32  52  92 117 146 203 250 288 346
#
# _framework density 18.479403999999999
#
# number of rings (size 3 to 8) (size 9 to 14) (size 15 to 20)
#    0.000    1.833    5.000    0.250    1.167    2.000 
#    1.500    0.833    1.833    1.000    0.000    0.000 
#    0.000    0.000    0.000    0.000    0.000    0.000 
#
# Total GULP energy -267413.721120 kJ/mol
# GULP energy per Si atom -5571.119190 kJ/mol
# Density = 1.843734 g / cm^3
# Si number density = 18.479404 Si / 1000 Ang^3
#
#
#
# Elastic Constant Matrix: (Units=GPa)
#
#
# Indices 1 2 3 4 5 6 
#
# 1 92.1894 60.6434 34.8897 0.0000 0.0000 0.0000
# 2 60.6434 119.3463 38.3118 0.0000 0.0000 0.0000
# 3 34.8897 38.3118 125.4434 0.0000 0.0000 0.0000
# 4 0.0000 0.0000 0.0000 26.7614 0.0000 0.0000
# 5 0.0000 0.0000 0.0000 0.0000 7.4794 0.0000
# 6 0.0000 0.0000 0.0000 0.0000 0.0000 34.2394
#
#
#
# Elastic Compliance Matrix: (Units=1/GPa)
#
#
# Indices 1 2 3 4 5 6 
#
# 1 0.016871 -0.007835 -0.002300 0.000000 0.000000 0.000000
# 2 -0.007835 0.012928 -0.001769 0.000000 0.000000 0.000000
# 3 -0.002300 -0.001769 0.009152 0.000000 0.000000 0.000000
# 4 0.000000 0.000000 0.000000 0.037367 0.000000 0.000000
# 5 0.000000 0.000000 0.000000 0.000000 0.133701 0.000000
# 6 0.000000 0.000000 0.000000 0.000000 0.000000 0.029206
#
#
# Mechanical properties :
#
#
# Convention : Reuss Voigt Hill
#
# Bulk Modulus (GPa) = 66.03350 67.18544 66.60947
# Shear Modulus (GPa) = 18.65116 27.23831 22.94473
#
# Velocity S-wave (km/s) = 3.18039 3.84341 3.52751
# Velocity P-wave (km/s) = 7.02123 7.49210 7.26048
#
# Compressibility (1/GPa) = 0.01514383
#
# Stress axis : x y z
#
# Youngs Moduli (GPa) = 59.27256 77.35210 109.26944
#
# Poissons Ratio (x) = 0.60602 0.25128
# Poissons Ratio (y) = 0.46437 0.19333
# Poissons Ratio (z) = 0.13631 0.13686
#
# Static dielectric constant tensor:
#      x y z
#    x 1.644270 0.000000 0.000000 
#    y 0.000000 1.662300 0.000000 
#    z 0.000000 0.000000 1.619610 
# 
# From -- ./inp_files/8401.got.cif
#   From: 2010.05.17/outbox.cif.g08.bks.cpg/sg51_5_cif.got.tgz:8401.got - 2010.06.03 11:52:47.
