data_PCOD9398130
_publ_section_title
;
Structure prediction by ZEFSAII (Michael W. Deem and Ramdas Pophale) SiO2 
 PCOD9398130
Probable space group: P B A N
;
_chemical_formula_sum "Si O2"
_cell_formula_units_Z 34
_cell_length_a 8.800287
_cell_length_b 11.436219
_cell_length_c 16.093723
_cell_angle_alpha 90.000000
_cell_angle_beta 90.000000
_cell_angle_gamma 90.000000
_cell_volume 1619.704621
_symmetry_space_group_name_H-M "P B A N"
_symmetry_group_IT_number 50
_space_group.IT_coordinate_system_code '2'
_symmetry_cell_setting 'orthorhombic'
loop_
_space_group_symop_operation_xyz
x,y,z
1/2-x,1/2-y,z
x,1/2-y,-z
1/2-x,y,-z
-x,-y,-z
1/2+x,1/2+y,-z
-x,1/2+y,z
1/2+x,-y,z
loop_
_atom_site_type_symbol
_atom_site_label
_atom_site_fract_x
_atom_site_fract_y
_atom_site_fract_z
Si Si1 0.250000 0.250000 0.500000
Si Si2 0.812664 0.874367 0.905867
Si Si3 0.169986 0.871875 0.859821
Si Si4 0.266207 0.624488 0.330010
Si Si5 0.942336 0.559511 0.585127
O O1 0.141667 0.324465 0.441875
O O2 0.750000 0.750000 0.867407
O O3 0.995482 0.874169 0.891980
O O4 0.749859 0.002509 0.878342
O O5 0.750000 0.869693 0.000000
O O6 0.250000 0.750000 0.891355
O O7 0.190093 0.864996 0.760195
O O8 0.250000 0.750000 0.372125
O O9 0.439639 0.586420 0.341058
O O10 0.178182 0.528848 0.379953
O O11 0.000000 0.500000 0.500000
#
# Coordination Sequence:
#
# PCOD9398130 Si02
#       5
#     2   8   8   8   8
#     4  12  24  40  68 100 132 176 236 290 344 400
#     4  11  24  44  71 106 142 181 229 285 348 417
#     4  11  24  45  70 103 143 184 233 284 348 419
#     4  11  25  43  66  95 136 178 227 280 341 402
#     4  12  23  43  65  96 132 179 229 283 340 402
#
# _framework density 20.991479999999999
#
# number of rings (size 3 to 8) (size 9 to 14) (size 15 to 20)
#    0.000    0.706    2.353    4.941    0.000    5.176 
#    2.118    0.000    0.000    0.000    0.000    0.000 
#    0.000    0.000    0.000    0.000    0.000    0.000 
#
# Total GULP energy -189553.007044 kJ/mol
# GULP energy per Si atom -5575.088442 kJ/mol
# Density = 2.094370 g / cm^3
# Si number density = 20.991480 Si / 1000 Ang^3
#
#
#
# Elastic Constant Matrix: (Units=GPa)
#
#
# Indices 1 2 3 4 5 6 
#
# 1 179.4803 82.0787 37.1179 0.0000 0.0000 0.0000
# 2 82.0787 194.7451 13.9151 0.0000 0.0000 0.0000
# 3 37.1179 13.9151 63.3410 0.0000 0.0000 0.0000
# 4 0.0000 0.0000 0.0000 46.0088 0.0000 0.0000
# 5 0.0000 0.0000 0.0000 0.0000 37.0262 0.0000
# 6 0.0000 0.0000 0.0000 0.0000 0.0000 49.2164
#
#
#
# Elastic Compliance Matrix: (Units=1/GPa)
#
#
# Indices 1 2 3 4 5 6 
#
# 1 0.007739 -0.002984 -0.003879 0.000000 0.000000 0.000000
# 2 -0.002984 0.006368 0.000350 0.000000 0.000000 0.000000
# 3 -0.003879 0.000350 0.017984 0.000000 0.000000 0.000000
# 4 0.000000 0.000000 0.000000 0.021735 0.000000 0.000000
# 5 0.000000 0.000000 0.000000 0.000000 0.027008 0.000000
# 6 0.000000 0.000000 0.000000 0.000000 0.000000 0.020318
#
#
# Mechanical properties :
#
#
# Convention : Reuss Voigt Hill
#
# Bulk Modulus (GPa) = 52.45772 78.19888 65.32830
# Shear Modulus (GPa) = 41.48223 46.74724 44.11473
#
# Velocity S-wave (km/s) = 4.45021 4.72419 4.58924
# Velocity P-wave (km/s) = 7.17287 8.19090 7.69873
#
# Compressibility (1/GPa) = 0.01906297
#
# Stress axis : x y z
#
# Youngs Moduli (GPa) = 129.22011 157.04123 55.60515
#
# Poissons Ratio (x) = 0.46868 0.21571
# Poissons Ratio (y) = 0.38565 -0.01946
# Poissons Ratio (z) = 0.50128 -0.05496
#
# Static dielectric constant tensor:
#      x y z
#    x 1.634240 0.000000 0.000000 
#    y 0.000000 1.762530 0.000000 
#    z 0.000000 0.000000 1.943560 
# 
# From -- ./inp_files/24441.got.cif
#   From: 2010.05.17/outbox.cif.g08.bks.cpg/sg50_13_cif.got.tgz:24441.got - 2010.06.03 11:33:33.
