data_PCOD9398182
_publ_section_title
;
Structure prediction by ZEFSAII (Michael W. Deem and Ramdas Pophale) SiO2 
 PCOD9398182
Probable space group: P B A N
;
_chemical_formula_sum "Si O2"
_cell_formula_units_Z 40
_cell_length_a 8.980515
_cell_length_b 25.034995
_cell_length_c 7.955363
_cell_angle_alpha 90.000000
_cell_angle_beta 90.000000
_cell_angle_gamma 90.000000
_cell_volume 1788.581576
_symmetry_space_group_name_H-M "P B A N"
_symmetry_group_IT_number 50
_space_group.IT_coordinate_system_code '2'
_symmetry_cell_setting 'orthorhombic'
loop_
_space_group_symop_operation_xyz
x,y,z
1/2-x,1/2-y,z
x,1/2-y,-z
1/2-x,y,-z
-x,-y,-z
1/2+x,1/2+y,-z
-x,1/2+y,z
1/2+x,-y,z
loop_
_atom_site_type_symbol
_atom_site_label
_atom_site_fract_x
_atom_site_fract_y
_atom_site_fract_z
Si Si1 0.466830 0.964007 0.660545
Si Si2 0.941333 0.860407 0.826222
Si Si3 0.400200 0.141352 0.224617
Si Si4 0.423210 0.750184 0.702132
Si Si5 0.660770 0.044167 0.825870
O O1 0.521860 0.903263 0.661143
O O2 0.293076 0.964498 0.695560
O O3 0.500000 0.000000 0.500000
O O4 0.556127 0.992378 0.814020
O O5 0.776810 0.862265 0.746636
O O6 0.005185 0.802582 0.781283
O O7 0.058103 0.905943 0.775559
O O8 0.923959 0.869228 0.026285
O O9 0.478454 0.198357 0.250869
O O10 0.250000 0.750000 0.756996
O O11 0.424171 0.750000 0.500000
O O12 0.750000 0.052580 0.000000
#
# Coordination Sequence:
#
# PCOD9398182 Si02
#       5
#     8   8   8   8   8
#     4  12  27  45  71 105 150 190 243 309 376 444
#     4  11  25  45  76 105 142 192 246 306 364 445
#     4  11  25  47  72 106 145 190 248 302 369 439
#     4  11  26  46  72 106 147 190 240 303 373 444
#     4  12  25  46  73 107 143 195 252 305 371 450
#
# _framework density 22.364091999999999
#
# number of rings (size 3 to 8) (size 9 to 14) (size 15 to 20)
#    0.000    0.600    2.000    4.800    5.600    4.000 
#    0.000    0.000    0.000    0.000    0.000    0.000 
#    0.000    0.000    0.000    0.000    0.000    0.000 
#
# Total GULP energy -223936.445468 kJ/mol
# GULP energy per Si atom -5598.411137 kJ/mol
# Density = 2.231319 g / cm^3
# Si number density = 22.364092 Si / 1000 Ang^3
#
#
#
# Elastic Constant Matrix: (Units=GPa)
#
#
# Indices 1 2 3 4 5 6 
#
# 1 191.9314 59.5832 31.7745 0.0000 0.0000 0.0000
# 2 59.5832 137.7338 12.8092 0.0000 0.0000 0.0000
# 3 31.7745 12.8092 70.9207 0.0000 0.0000 0.0000
# 4 0.0000 0.0000 0.0000 28.1477 0.0000 0.0000
# 5 0.0000 0.0000 0.0000 0.0000 36.1991 0.0000
# 6 0.0000 0.0000 0.0000 0.0000 0.0000 50.4003
#
#
#
# Elastic Compliance Matrix: (Units=1/GPa)
#
#
# Indices 1 2 3 4 5 6 
#
# 1 0.006399 -0.002544 -0.002407 0.000000 0.000000 0.000000
# 2 -0.002544 0.008396 -0.000377 0.000000 0.000000 0.000000
# 3 -0.002407 -0.000377 0.015247 0.000000 0.000000 0.000000
# 4 0.000000 0.000000 0.000000 0.035527 0.000000 0.000000
# 5 0.000000 0.000000 0.000000 0.000000 0.027625 0.000000
# 6 0.000000 0.000000 0.000000 0.000000 0.000000 0.019841
#
#
# Mechanical properties :
#
#
# Convention : Reuss Voigt Hill
#
# Bulk Modulus (GPa) = 51.58513 67.65774 59.62144
# Shear Modulus (GPa) = 38.41664 42.71068 40.56366
#
# Velocity S-wave (km/s) = 4.14911 4.37485 4.26348
# Velocity P-wave (km/s) = 6.78746 7.47246 7.13818
#
# Compressibility (1/GPa) = 0.01938543
#
# Stress axis : x y z
#
# Youngs Moduli (GPa) = 156.28650 119.10465 65.58769
#
# Poissons Ratio (x) = 0.30301 0.15788
# Poissons Ratio (y) = 0.39761 0.02470
# Poissons Ratio (z) = 0.37622 0.04485
#
# Static dielectric constant tensor:
#      x y z
#    x 1.838980 0.000000 0.000000 
#    y 0.000000 1.778360 0.000000 
#    z 0.000000 0.000000 1.867880 
# 
# From -- ./inp_files/9523.got.cif
#   From: 2010.05.17/outbox.cif.g08.bks.cpg/sg50_5_cif.got.tgz:9523.got - 2010.06.03 11:33:33.
