data_PCOD9398880
_publ_section_title
;
Structure prediction by ZEFSAII (Michael W. Deem and Ramdas Pophale) SiO2 
 PCOD9398880
Probable space group: P M M A
;
_chemical_formula_sum "Si O2"
_cell_formula_units_Z 48
_cell_length_a 26.599297
_cell_length_b 9.313269
_cell_length_c 12.196164
_cell_angle_alpha 90.000000
_cell_angle_beta 90.000000
_cell_angle_gamma 90.000000
_cell_volume 3021.311901
_symmetry_space_group_name_H-M "P M M A"
_symmetry_group_IT_number 51
_symmetry_cell_setting 'orthorhombic'
loop_
_space_group_symop_operation_xyz
x,y,z
1/2-x,-y,z
1/2+x,-y,-z
-x,y,-z
-x,-y,-z
1/2+x,y,-z
1/2-x,y,z
x,-y,z
loop_
_atom_site_type_symbol
_atom_site_label
_atom_site_fract_x
_atom_site_fract_y
_atom_site_fract_z
Si Si1 0.386334 0.170865 0.483382
Si Si2 0.426634 0.670188 0.285919
Si Si3 0.308219 0.827384 0.670795
Si Si4 0.880486 0.333157 0.168389
Si Si5 0.943847 0.675243 0.963675
Si Si6 0.459675 0.336581 0.635812
O O1 0.389175 0.245876 0.365576
O O2 0.338951 0.211847 0.560275
O O3 0.434390 0.226971 0.552375
O O4 0.387572 0.000000 0.472139
O O5 0.415621 0.500000 0.287771
O O6 0.429717 0.718557 0.159558
O O7 0.482739 0.689106 0.334892
O O8 0.250000 0.785243 0.665123
O O9 0.336864 0.755940 0.773011
O O10 0.311119 0.000000 0.680866
O O11 0.865163 0.500000 0.157505
O O12 0.927633 0.329852 0.252330
O O13 0.902431 0.279909 0.052973
O O14 0.945045 0.500000 0.965306
O O15 0.000000 0.721905 0.000000
O O16 0.454267 0.500000 0.592101
#
# Coordination Sequence:
#
# PCOD9398880 Si02
#       6
#     8   8   8   8   8   8
#     4  10  20  31  44  65  92 120 154 197 239 277
#     4  10  18  28  45  67  95 130 160 183 216 269
#     4   9  19  36  54  68  87 119 156 197 247 292
#     4   9  16  28  49  75  97 119 155 198 231 266
#     4   9  15  27  47  70  97 130 162 186 215 268
#     4   9  16  27  44  66  93 125 158 187 218 268
#
# _framework density 15.887138999999999
#
# number of rings (size 3 to 8) (size 9 to 14) (size 15 to 20)
#    0.000    2.667    1.667    1.000    0.000    3.667 
#    0.000    0.833    0.000    2.000    0.000    4.667 
#    0.000    0.000    0.000    0.000    0.000    0.000 
#
# Total GULP energy -267486.774948 kJ/mol
# GULP energy per Si atom -5572.641145 kJ/mol
# Density = 1.585098 g / cm^3
# Si number density = 15.887139 Si / 1000 Ang^3
#
#
#
# Elastic Constant Matrix: (Units=GPa)
#
#
# Indices 1 2 3 4 5 6 
#
# 1 93.6070 38.0223 65.0150 0.0000 0.0000 0.0000
# 2 38.0223 28.0345 42.5066 0.0000 0.0000 0.0000
# 3 65.0150 42.5066 142.2755 0.0000 0.0000 0.0000
# 4 0.0000 0.0000 0.0000 10.9691 0.0000 0.0000
# 5 0.0000 0.0000 0.0000 0.0000 9.2023 0.0000
# 6 0.0000 0.0000 0.0000 0.0000 0.0000 65.4117
#
#
#
# Elastic Compliance Matrix: (Units=1/GPa)
#
#
# Indices 1 2 3 4 5 6 
#
# 1 0.024189 -0.029336 -0.002289 0.000000 0.000000 0.000000
# 2 -0.029336 0.100788 -0.016706 0.000000 0.000000 0.000000
# 3 -0.002289 -0.016706 0.013066 0.000000 0.000000 0.000000
# 4 0.000000 0.000000 0.000000 0.091165 0.000000 0.000000
# 5 0.000000 0.000000 0.000000 0.000000 0.108669 0.000000
# 6 0.000000 0.000000 0.000000 0.000000 0.000000 0.015288
#
#
# Mechanical properties :
#
#
# Convention : Reuss Voigt Hill
#
# Bulk Modulus (GPa) = 24.16600 61.66718 42.91659
# Shear Modulus (GPa) = 10.78471 25.00817 17.89644
#
# Velocity S-wave (km/s) = 2.60827 3.97181 3.35994
# Velocity P-wave (km/s) = 4.93101 7.74169 6.49032
#
# Compressibility (1/GPa) = 0.04138044
#
# Stress axis : x y z
#
# Youngs Moduli (GPa) = 41.34168 9.92184 76.53573
#
# Poissons Ratio (x) = 0.29106 0.17519
# Poissons Ratio (y) = 1.21279 1.27862
# Poissons Ratio (z) = 0.09463 0.16576
#
# Static dielectric constant tensor:
#      x y z
#    x 1.511980 0.000000 0.000000 
#    y 0.000000 1.531380 0.000000 
#    z 0.000000 0.000000 1.553420 
# 
# From -- ./inp_files/18591.got.cif
#   From: 2010.05.17/outbox.cif.g08.bks.cpg/sg51_10_cif.got.tgz:18591.got - 2010.06.03 11:52:47.
