data_PCOD9398196
_publ_section_title
;
Structure prediction by ZEFSAII (Michael W. Deem and Ramdas Pophale) SiO2 
 PCOD9398196
Probable space group: P B A N
;
_chemical_formula_sum "Si O2"
_cell_formula_units_Z 32
_cell_length_a 7.460966
_cell_length_b 19.877392
_cell_length_c 8.162805
_cell_angle_alpha 90.000000
_cell_angle_beta 90.000000
_cell_angle_gamma 90.000000
_cell_volume 1210.581089
_symmetry_space_group_name_H-M "P B A N"
_symmetry_group_IT_number 50
_space_group.IT_coordinate_system_code '2'
_symmetry_cell_setting 'orthorhombic'
loop_
_space_group_symop_operation_xyz
x,y,z
1/2-x,1/2-y,z
x,1/2-y,-z
1/2-x,y,-z
-x,-y,-z
1/2+x,1/2+y,-z
-x,1/2+y,z
1/2+x,-y,z
loop_
_atom_site_type_symbol
_atom_site_label
_atom_site_fract_x
_atom_site_fract_y
_atom_site_fract_z
Si Si1 0.070032 0.351835 0.610662
Si Si2 0.538330 0.732632 0.176135
Si Si3 0.540476 0.461581 0.172243
Si Si4 0.086733 0.591753 0.699377
O O1 0.250000 0.340931 0.500000
O O2 0.982819 0.283820 0.681143
O O3 0.094066 0.402736 0.765469
O O4 0.930794 0.386239 0.488488
O O5 0.750000 0.750000 0.171726
O O6 0.497577 0.655745 0.209425
O O7 0.460849 0.750000 0.000000
O O8 0.527758 0.523840 0.294862
O O9 0.500000 0.500000 0.000000
O O10 0.767193 0.427405 0.797869
#
# Coordination Sequence:
#
# PCOD9398196 Si02
#       4
#     8   8   8   8
#     4  12  25  49  82 121 167 222 286 358 434 519
#     4  11  25  48  83 117 163 221 283 351 438 519
#     4  12  28  51  80 120 171 222 286 356 435 520
#     4  12  26  48  80 119 162 222 285 356 432 513
#
# _framework density 26.433584
#
# number of rings (size 3 to 8) (size 9 to 14) (size 15 to 20)
#    0.000    0.250    2.500    6.000    0.000    1.000 
#    0.000    3.750    0.000    0.000    0.000    0.000 
#    0.000    0.000    0.000    0.000    0.000    0.000 
#
# Total GULP energy -179036.730711 kJ/mol
# GULP energy per Si atom -5594.897835 kJ/mol
# Density = 2.637342 g / cm^3
# Si number density = 26.433584 Si / 1000 Ang^3
#
#
#
# Elastic Constant Matrix: (Units=GPa)
#
#
# Indices 1 2 3 4 5 6 
#
# 1 135.4647 64.0189 39.3438 0.0000 0.0000 0.0000
# 2 64.0189 214.4129 51.6587 0.0000 0.0000 0.0000
# 3 39.3438 51.6587 160.9160 0.0000 0.0000 0.0000
# 4 0.0000 0.0000 0.0000 66.3197 0.0000 0.0000
# 5 0.0000 0.0000 0.0000 0.0000 26.6427 0.0000
# 6 0.0000 0.0000 0.0000 0.0000 0.0000 -26.4974
#
#
#
# Elastic Compliance Matrix: (Units=1/GPa)
#
#
# Indices 1 2 3 4 5 6 
#
# 1 0.008889 -0.002309 -0.001432 0.000000 0.000000 0.000000
# 2 -0.002309 0.005655 -0.001251 0.000000 0.000000 0.000000
# 3 -0.001432 -0.001251 0.006966 0.000000 0.000000 0.000000
# 4 0.000000 0.000000 0.000000 0.015078 0.000000 0.000000
# 5 0.000000 0.000000 0.000000 0.000000 0.037534 0.000000
# 6 0.000000 0.000000 0.000000 0.000000 0.000000 -0.037740
#
#
# Mechanical properties :
#
#
# Convention : Reuss Voigt Hill
#
# Bulk Modulus (GPa) = 86.75976 91.20405 88.98190
# Shear Modulus (GPa) = 99.58473 37.01115 68.29794
#
# Velocity S-wave (km/s) = 6.14454 3.74593 5.08858
# Velocity P-wave (km/s) = 9.12324 7.29981 8.26198
#
# Compressibility (1/GPa) = 0.01152608
#
# Stress axis : x y z
#
# Youngs Moduli (GPa) = 112.49637 176.84475 143.55233
#
# Poissons Ratio (x) = 0.40835 0.20558
# Poissons Ratio (y) = 0.25976 0.17955
# Poissons Ratio (z) = 0.16111 0.22119
#
# Static dielectric constant tensor:
#      x y z
#    x 2.240020 0.000000 0.000000 
#    y 0.000000 2.029790 0.000000 
#    z 0.000000 0.000000 2.190040 
# 
# From -- ./inp_files/12676.got.cif
#   From: 2010.05.17/outbox.cif.g08.bks.cpg/sg50_7_cif.got.tgz:12676.got - 2010.06.03 11:33:33.
