data_PCOD9398912
_publ_section_title
;
Structure prediction by ZEFSAII (Michael W. Deem and Ramdas Pophale) SiO2 
 PCOD9398912
Probable space group: P M M A
;
_chemical_formula_sum "Si O2"
_cell_formula_units_Z 48
_cell_length_a 27.483769
_cell_length_b 12.596840
_cell_length_c 7.444065
_cell_angle_alpha 90.000000
_cell_angle_beta 90.000000
_cell_angle_gamma 90.000000
_cell_volume 2577.199625
_symmetry_space_group_name_H-M "P M M A"
_symmetry_group_IT_number 51
_symmetry_cell_setting 'orthorhombic'
loop_
_space_group_symop_operation_xyz
x,y,z
1/2-x,-y,z
1/2+x,-y,-z
-x,y,-z
-x,-y,-z
1/2+x,y,-z
1/2-x,y,z
x,-y,z
loop_
_atom_site_type_symbol
_atom_site_label
_atom_site_fract_x
_atom_site_fract_y
_atom_site_fract_z
Si Si1 0.696307 0.619552 0.961986
Si Si2 0.409187 0.381868 0.533729
Si Si3 0.194576 0.876362 0.366883
Si Si4 0.945539 0.377758 0.073155
Si Si5 0.695180 0.310585 0.350251
Si Si6 0.616341 0.735533 0.793218
O O1 0.750000 0.630373 0.884841
O O2 0.691282 0.500000 0.032193
O O3 0.657458 0.644233 0.812124
O O4 0.691461 0.695819 0.133865
O O5 0.420857 0.500000 0.465567
O O6 0.439835 0.362692 0.714050
O O7 0.352322 0.375471 0.591530
O O8 0.415348 0.294231 0.380037
O O9 0.250000 0.862529 0.292425
O O10 0.191876 0.800000 0.541342
O O11 0.150391 0.837488 0.238893
O O12 0.189050 0.000000 0.410605
O O13 0.927472 0.500000 0.037781
O O14 0.915186 0.287577 0.969086
O O15 0.000000 0.373723 0.000000
O O16 0.750000 0.354158 0.385077
#
# Coordination Sequence:
#
# PCOD9398912 Si02
#       6
#     8   8   8   8   8   8
#     4  10  18  28  46  75 112 146 173 207 255 322
#     4  10  19  31  50  76 107 144 178 211 260 322
#     4   9  19  36  55  77 108 143 183 230 271 313
#     4  10  21  36  53  77 111 146 183 229 277 330
#     4   9  17  29  48  74 104 139 174 211 257 312
#     4  11  20  33  54  77 106 142 180 220 270 325
#
# _framework density 18.624866000000001
#
# number of rings (size 3 to 8) (size 9 to 14) (size 15 to 20)
#    0.000    2.167    1.667    2.500    0.000    2.333 
#    0.000    3.333    0.000    3.500    0.000    4.667 
#    0.000    0.000    0.000    0.000    0.000    0.000 
#
# Total GULP energy -267329.535498 kJ/mol
# GULP energy per Si atom -5569.365323 kJ/mol
# Density = 1.858248 g / cm^3
# Si number density = 18.624866 Si / 1000 Ang^3
#
#
#
# Elastic Constant Matrix: (Units=GPa)
#
#
# Indices 1 2 3 4 5 6 
#
# 1 22.9787 7.1286 -10.5450 0.0000 0.0000 0.0000
# 2 7.1286 75.5929 11.6222 0.0000 0.0000 0.0000
# 3 -10.5450 11.6222 40.3497 0.0000 0.0000 0.0000
# 4 0.0000 0.0000 0.0000 15.4549 0.0000 0.0000
# 5 0.0000 0.0000 0.0000 0.0000 7.5838 0.0000
# 6 0.0000 0.0000 0.0000 0.0000 0.0000 14.9923
#
#
#
# Elastic Compliance Matrix: (Units=1/GPa)
#
#
# Indices 1 2 3 4 5 6 
#
# 1 0.053213 -0.007488 0.016064 0.000000 0.000000 0.000000
# 2 -0.007488 0.014895 -0.006247 0.000000 0.000000 0.000000
# 3 0.016064 -0.006247 0.030781 0.000000 0.000000 0.000000
# 4 0.000000 0.000000 0.000000 0.064705 0.000000 0.000000
# 5 0.000000 0.000000 0.000000 0.000000 0.131860 0.000000
# 6 0.000000 0.000000 0.000000 0.000000 0.000000 0.066701
#
#
# Mechanical properties :
#
#
# Convention : Reuss Voigt Hill
#
# Bulk Modulus (GPa) = 9.65755 17.25922 13.45838
# Shear Modulus (GPa) = 12.75467 16.32057 14.53762
#
# Velocity S-wave (km/s) = 2.61974 2.96341 2.79686
# Velocity P-wave (km/s) = 3.78778 4.58213 4.20376
#
# Compressibility (1/GPa) = 0.10354598
#
# Stress axis : x y z
#
# Youngs Moduli (GPa) = 18.79239 67.13489 32.48775
#
# Poissons Ratio (x) = 0.50270 -0.52187
# Poissons Ratio (y) = 0.14071 0.20296
# Poissons Ratio (z) = -0.30187 0.41941
#
# Static dielectric constant tensor:
#      x y z
#    x 1.709350 0.000000 0.000000 
#    y 0.000000 1.621560 0.000000 
#    z 0.000000 0.000000 1.696290 
# 
# From -- ./inp_files/12299.got.cif
#   From: 2010.05.17/outbox.cif.g08.bks.cpg/sg51_7_cif.got.tgz:12299.got - 2010.06.03 11:52:47.
