data_PCOD9398423
_publ_section_title
;
Structure prediction by ZEFSAII (Michael W. Deem and Ramdas Pophale) SiO2 
 PCOD9398423
Probable space group: P M M A
;
_chemical_formula_sum "Si O2"
_cell_formula_units_Z 64
_cell_length_a 15.504103
_cell_length_b 18.459488
_cell_length_c 11.769218
_cell_angle_alpha 90.000000
_cell_angle_beta 90.000000
_cell_angle_gamma 90.000000
_cell_volume 3368.324338
_symmetry_space_group_name_H-M "P M M A"
_symmetry_group_IT_number 51
_symmetry_cell_setting 'orthorhombic'
loop_
_space_group_symop_operation_xyz
x,y,z
1/2-x,-y,z
1/2+x,-y,-z
-x,y,-z
-x,-y,-z
1/2+x,y,-z
1/2-x,y,z
x,-y,z
loop_
_atom_site_type_symbol
_atom_site_label
_atom_site_fract_x
_atom_site_fract_y
_atom_site_fract_z
Si Si1 0.152373 0.336481 0.708570
Si Si2 0.103078 0.584518 0.485352
Si Si3 0.594052 0.200071 0.016189
Si Si4 0.020783 0.354309 0.887376
Si Si5 0.847950 0.168924 0.258317
Si Si6 0.347889 0.335286 0.258361
Si Si7 0.653697 0.826937 0.759703
Si Si8 0.996453 0.086295 0.633428
O O1 0.250000 0.339469 0.753097
O O2 0.146895 0.369641 0.584440
O O3 0.086610 0.378700 0.790724
O O4 0.127234 0.251415 0.706183
O O5 0.123100 0.500000 0.498402
O O6 0.133758 0.612450 0.363425
O O7 0.000000 0.594123 0.500000
O O8 0.569819 0.281818 0.061352
O O9 0.644850 0.166784 0.121380
O O10 0.500000 0.164659 0.000000
O O11 0.638282 0.191551 0.893885
O O12 0.928814 0.341482 0.827017
O O13 0.000000 0.399703 0.000000
O O14 0.750000 0.155956 0.294247
O O15 0.915233 0.114124 0.311273
O O16 0.250000 0.347574 0.212413
O O17 0.350008 0.251927 0.298780
O O18 0.750000 0.857303 0.746748
O O19 0.580801 0.875890 0.703262
O O20 0.000000 0.106540 0.500000
O O21 0.987925 0.000000 0.641185
#
# Coordination Sequence:
#
# PCOD9398423 Si02
#       8
#     8   8   8   8   8   8   8   8
#     4  10  21  36  61  91 120 157 201 250 306 359
#     4  11  24  41  63  89 123 165 206 256 316 372
#     4  10  16  34  61  90 124 157 188 249 312 352
#     4  10  18  34  56  86 126 158 192 245 297 360
#     4  10  21  37  62  93 119 153 204 256 304 365
#     4  11  22  35  59  93 123 159 200 249 310 364
#     4  11  22  38  64  96 123 155 208 258 303 367
#     4  11  26  44  61  83 121 171 205 247 312 365
#
# _framework density 19.000546
#
# number of rings (size 3 to 8) (size 9 to 14) (size 15 to 20)
#    0.000    1.500    5.000    1.500    1.750    3.000 
#    0.000    2.500    0.000    3.000    0.000    1.750 
#    0.000    0.000    0.000    0.000    0.000    0.000 
#
# Total GULP energy -356723.091164 kJ/mol
# GULP energy per Si atom -5573.798299 kJ/mol
# Density = 1.895730 g / cm^3
# Si number density = 19.000546 Si / 1000 Ang^3
#
#
#
# Elastic Constant Matrix: (Units=GPa)
#
#
# Indices 1 2 3 4 5 6 
#
# 1 79.2536 21.2438 26.0308 0.0000 0.0000 0.0000
# 2 21.2438 38.4296 29.1715 0.0000 0.0000 0.0000
# 3 26.0308 29.1715 97.4273 0.0000 0.0000 0.0000
# 4 0.0000 0.0000 0.0000 -53.2339 0.0000 0.0000
# 5 0.0000 0.0000 0.0000 0.0000 13.0832 0.0000
# 6 0.0000 0.0000 0.0000 0.0000 0.0000 10.5873
#
#
#
# Elastic Compliance Matrix: (Units=1/GPa)
#
#
# Indices 1 2 3 4 5 6 
#
# 1 0.015104 -0.006841 -0.001987 0.000000 0.000000 0.000000
# 2 -0.006841 0.036774 -0.009183 0.000000 0.000000 0.000000
# 3 -0.001987 -0.009183 0.013545 0.000000 0.000000 0.000000
# 4 0.000000 0.000000 0.000000 -0.018785 0.000000 0.000000
# 5 0.000000 0.000000 0.000000 0.000000 0.076434 0.000000
# 6 0.000000 0.000000 0.000000 0.000000 0.000000 0.094453
#
#
# Mechanical properties :
#
#
# Convention : Reuss Voigt Hill
#
# Bulk Modulus (GPa) = 34.01339 40.88919 37.45129
# Shear Modulus (GPa) = 18.98636 3.33161 11.15899
#
# Velocity S-wave (km/s) = 3.16453 1.32561 2.42605
# Velocity P-wave (km/s) = 5.59396 4.88976 5.25367
#
# Compressibility (1/GPa) = 0.02940019
#
# Stress axis : x y z
#
# Youngs Moduli (GPa) = 66.20695 27.19306 73.83024
#
# Poissons Ratio (x) = 0.18603 0.14672
# Poissons Ratio (y) = 0.45293 0.67799
# Poissons Ratio (z) = 0.13157 0.24971
#
# Static dielectric constant tensor:
#      x y z
#    x 1.690380 0.000000 0.000000 
#    y 0.000000 1.653060 0.000000 
#    z 0.000000 0.000000 1.705180 
# 
# From -- ./inp_files/16885.got.cif
#   From: 2010.05.17/outbox.cif.g08.bks.cpg/sg51_9_cif.got.tgz:16885.got - 2010.06.03 11:52:47.
