data_PCOD9398621
_publ_section_title
;
Structure prediction by ZEFSAII (Michael W. Deem and Ramdas Pophale) SiO2 
 PCOD9398621
Probable space group: P M M A
;
_chemical_formula_sum "Si O2"
_cell_formula_units_Z 64
_cell_length_a 7.569542
_cell_length_b 16.178128
_cell_length_c 24.400463
_cell_angle_alpha 90.000000
_cell_angle_beta 90.000000
_cell_angle_gamma 90.000000
_cell_volume 2988.105572
_symmetry_space_group_name_H-M "P M M A"
_symmetry_group_IT_number 51
_symmetry_cell_setting 'orthorhombic'
loop_
_space_group_symop_operation_xyz
x,y,z
1/2-x,-y,z
1/2+x,-y,-z
-x,y,-z
-x,-y,-z
1/2+x,y,-z
1/2-x,y,z
x,-y,z
loop_
_atom_site_type_symbol
_atom_site_label
_atom_site_fract_x
_atom_site_fract_y
_atom_site_fract_z
Si Si1 0.966032 0.908603 0.130342
Si Si2 0.538249 0.748520 0.064117
Si Si3 0.036565 0.850592 0.750124
Si Si4 0.034196 0.341000 0.748017
Si Si5 0.958810 0.247563 0.563929
Si Si6 0.960565 0.590820 0.368046
Si Si7 0.541169 0.090334 0.629791
Si Si8 0.965995 0.592207 0.134156
O O1 0.750000 0.907808 0.129660
O O2 0.027283 0.832313 0.093155
O O3 0.020285 0.892370 0.193215
O O4 0.022472 0.000000 0.112373
O O5 0.750000 0.748707 0.071204
O O6 0.472949 0.666120 0.094825
O O7 0.500000 0.747337 0.000000
O O8 0.250000 0.851507 0.749903
O O9 0.979710 0.754809 0.749539
O O10 0.977598 0.894032 0.694572
O O11 0.250000 0.341573 0.747526
O O12 0.971286 0.382752 0.691964
O O13 0.980623 0.386677 0.803573
O O14 0.750000 0.244030 0.570614
O O15 0.034936 0.169377 0.597586
O O16 0.000000 0.242040 0.500000
O O17 0.011348 0.335082 0.589737
O O18 0.750000 0.584372 0.362216
O O19 0.028158 0.500000 0.384303
O O20 0.750000 0.087293 0.617548
O O21 0.466122 0.000000 0.615658
O O22 0.750000 0.592452 0.133319
O O23 0.023320 0.500000 0.118500
#
# Coordination Sequence:
#
# PCOD9398621 Si02
#       8
#     8   8   8   8   8   8   8   8
#     4   9  17  30  50  76 103 131 168 215 262 307
#     4  10  20  34  50  70  97 133 175 218 260 305
#     4  10  17  30  56  85 109 135 171 216 264 316
#     4   9  15  27  51  82 111 135 167 212 259 312
#     4  11  24  41  60  80 107 145 186 228 267 310
#     4  10  20  35  58  87 116 143 173 216 269 322
#     4  10  22  39  57  81 114 147 176 213 269 328
#     4   9  16  28  49  76 104 134 168 209 259 310
#
# _framework density 21.418251000000001
#
# number of rings (size 3 to 8) (size 9 to 14) (size 15 to 20)
#    0.000    2.250    2.500    1.125    0.000    4.000 
#    0.000    0.625    0.000    1.500    0.000    0.000 
#    0.000    0.000    0.000    0.000    0.000    0.000 
#
# Total GULP energy -357487.855239 kJ/mol
# GULP energy per Si atom -5585.747738 kJ/mol
# Density = 2.136950 g / cm^3
# Si number density = 21.418251 Si / 1000 Ang^3
#
#
#
# Elastic Constant Matrix: (Units=GPa)
#
#
# Indices 1 2 3 4 5 6 
#
# 1 47.2322 8.4462 -8.7458 0.0000 0.0000 0.0000
# 2 8.4462 225.6055 88.6581 0.0000 0.0000 0.0000
# 3 -8.7458 88.6581 135.4906 0.0000 0.0000 0.0000
# 4 0.0000 0.0000 0.0000 -0.7167 0.0000 0.0000
# 5 0.0000 0.0000 0.0000 0.0000 10.9535 0.0000
# 6 0.0000 0.0000 0.0000 0.0000 0.0000 2.4565
#
#
#
# Elastic Compliance Matrix: (Units=1/GPa)
#
#
# Indices 1 2 3 4 5 6 
#
# 1 0.021993 -0.001859 0.002636 0.000000 0.000000 0.000000
# 2 -0.001859 0.006124 -0.004127 0.000000 0.000000 0.000000
# 3 0.002636 -0.004127 0.010251 0.000000 0.000000 0.000000
# 4 0.000000 0.000000 0.000000 -1.395191 0.000000 0.000000
# 5 0.000000 0.000000 0.000000 0.000000 0.091295 0.000000
# 6 0.000000 0.000000 0.000000 0.000000 0.000000 0.407085
#
#
# Mechanical properties :
#
#
# Convention : Reuss Voigt Hill
#
# Bulk Modulus (GPa) = 31.57821 65.00503 48.29162
# Shear Modulus (GPa) = -5.94399 23.86996 8.96299
#
# Velocity S-wave (km/s) = -1.66770 3.34199 2.04788
# Velocity P-wave (km/s) = 3.32676 6.73112 5.30921
#
# Compressibility (1/GPa) = 0.03166740
#
# Stress axis : x y z
#
# Youngs Moduli (GPa) = 45.46973 163.29032 97.54724
#
# Poissons Ratio (x) = 0.30361 -0.25716
# Poissons Ratio (y) = 0.08454 0.40261
# Poissons Ratio (z) = -0.11987 0.67395
#
# Static dielectric constant tensor:
#      x y z
#    x 1.817710 0.000000 0.000000 
#    y 0.000000 1.803210 0.000000 
#    z 0.000000 0.000000 1.703590 
# 
# From -- ./inp_files/34890.got.cif
#   From: 2010.05.17/outbox.cif.g08.bks.cpg/sg51_18_cif.got.tgz:34890.got - 2010.06.03 11:52:47.
