data_PCOD9398698
_publ_section_title
;
Structure prediction by ZEFSAII (Michael W. Deem and Ramdas Pophale) SiO2 
 PCOD9398698
Probable space group: P M M A
;
_chemical_formula_sum "Si O2"
_cell_formula_units_Z 56
_cell_length_a 22.170277
_cell_length_b 9.344824
_cell_length_c 18.169605
_cell_angle_alpha 90.000000
_cell_angle_beta 90.000000
_cell_angle_gamma 90.000000
_cell_volume 3764.330371
_symmetry_space_group_name_H-M "P M M A"
_symmetry_group_IT_number 51
_symmetry_cell_setting 'orthorhombic'
loop_
_space_group_symop_operation_xyz
x,y,z
1/2-x,-y,z
1/2+x,-y,-z
-x,y,-z
-x,-y,-z
1/2+x,y,-z
1/2-x,y,z
x,-y,z
loop_
_atom_site_type_symbol
_atom_site_label
_atom_site_fract_x
_atom_site_fract_y
_atom_site_fract_z
Si Si1 0.679285 0.329845 0.758256
Si Si2 0.529922 0.827792 0.328562
Si Si3 0.571199 0.664510 0.021692
Si Si4 0.600492 0.831019 0.878740
Si Si5 0.540557 0.168244 0.162402
Si Si6 0.572064 0.835794 0.482527
Si Si7 0.092369 0.670076 0.375779
O O1 0.750000 0.296799 0.755749
O O2 0.672161 0.500000 0.773037
O O3 0.645135 0.241806 0.821039
O O4 0.646709 0.301273 0.680435
O O5 0.553588 0.794903 0.247157
O O6 0.574204 0.794006 0.396711
O O7 0.467396 0.745497 0.342818
O O8 0.518318 0.000000 0.331775
O O9 0.591096 0.500000 0.022764
O O10 0.573977 0.738161 0.101310
O O11 0.500000 0.665972 0.000000
O O12 0.603433 0.754577 0.957900
O O13 0.531605 0.812612 0.849610
O O14 0.611507 0.000000 0.885171
O O15 0.553168 0.000000 0.150187
O O16 0.500000 0.832974 0.500000
O O17 0.601912 0.735367 0.543159
O O18 0.592159 0.000000 0.491539
O O19 0.082673 0.500000 0.380434
#
# Coordination Sequence:
#
# PCOD9398698 Si02
#       7
#     8   8   8   8   8   8   8
#     4  10  21  34  45  59  82 113 147 182 220 256
#     4   9  16  27  41  59  84 114 140 166 206 254
#     4   9  17  27  40  59  84 112 140 168 205 254
#     4  10  18  29  45  61  80 108 143 181 214 247
#     4   9  16  26  41  61  85 111 141 172 204 247
#     4   8  15  26  40  56  79 110 139 165 203 254
#     4  10  18  27  41  58  79 107 141 179 213 246
#
# _framework density 14.876483
#
# number of rings (size 3 to 8) (size 9 to 14) (size 15 to 20)
#    0.000    2.714    1.429    2.143    0.000    6.286 
#    0.000    0.000    0.000    0.000    0.000    0.000 
#    0.000    1.143    0.000    9.143    0.000    3.000 
#
# Total GULP energy -311905.134822 kJ/mol
# GULP energy per Si atom -5569.734550 kJ/mol
# Density = 1.484262 g / cm^3
# Si number density = 14.876483 Si / 1000 Ang^3
#
#
#
# Elastic Constant Matrix: (Units=GPa)
#
#
# Indices 1 2 3 4 5 6 
#
# 1 37.6308 39.0706 37.5407 0.0000 0.0000 0.0000
# 2 39.0706 77.8421 81.2367 0.0000 0.0000 0.0000
# 3 37.5407 81.2367 168.9575 0.0000 0.0000 0.0000
# 4 0.0000 0.0000 0.0000 28.0690 0.0000 0.0000
# 5 0.0000 0.0000 0.0000 0.0000 10.2395 0.0000
# 6 0.0000 0.0000 0.0000 0.0000 0.0000 11.6129
#
#
#
# Elastic Compliance Matrix: (Units=1/GPa)
#
#
# Indices 1 2 3 4 5 6 
#
# 1 0.055878 -0.030286 0.002147 0.000000 0.000000 0.000000
# 2 -0.030286 0.042200 -0.013561 0.000000 0.000000 0.000000
# 3 0.002147 -0.013561 0.011962 0.000000 0.000000 0.000000
# 4 0.000000 0.000000 0.000000 0.035627 0.000000 0.000000
# 5 0.000000 0.000000 0.000000 0.000000 0.097661 0.000000
# 6 0.000000 0.000000 0.000000 0.000000 0.000000 0.086111
#
#
# Mechanical properties :
#
#
# Convention : Reuss Voigt Hill
#
# Bulk Modulus (GPa) = 37.53990 66.68073 52.11032
# Shear Modulus (GPa) = 11.85618 18.42308 15.13963
#
# Velocity S-wave (km/s) = 2.82614 3.52291 3.19358
# Velocity P-wave (km/s) = 5.99488 7.84016 6.97878
#
# Compressibility (1/GPa) = 0.02663832
#
# Stress axis : x y z
#
# Youngs Moduli (GPa) = 17.89617 23.69645 83.59787
#
# Poissons Ratio (x) = 0.71768 -0.17945
# Poissons Ratio (y) = 0.54201 1.13368
# Poissons Ratio (z) = -0.03842 0.32135
#
# Static dielectric constant tensor:
#      x y z
#    x 1.449660 0.000000 0.000000 
#    y 0.000000 1.497520 0.000000 
#    z 0.000000 0.000000 1.518970 
# 
# From -- ./inp_files/30397.got.cif
#   From: 2010.05.17/outbox.cif.g08.bks.cpg/sg51_16_cif.got.tgz:30397.got - 2010.06.03 11:52:47.
