data_PCOD9398886
_publ_section_title
;
Structure prediction by ZEFSAII (Michael W. Deem and Ramdas Pophale) SiO2 
 PCOD9398886
Probable space group: P M M A
;
_chemical_formula_sum "Si O2"
_cell_formula_units_Z 56
_cell_length_a 14.737314
_cell_length_b 14.976261
_cell_length_c 13.154150
_cell_angle_alpha 90.000000
_cell_angle_beta 90.000000
_cell_angle_gamma 90.000000
_cell_volume 2903.250617
_symmetry_space_group_name_H-M "P M M A"
_symmetry_group_IT_number 51
_symmetry_cell_setting 'orthorhombic'
loop_
_space_group_symop_operation_xyz
x,y,z
1/2-x,-y,z
1/2+x,-y,-z
-x,y,-z
-x,-y,-z
1/2+x,y,-z
1/2-x,y,z
x,-y,z
loop_
_atom_site_type_symbol
_atom_site_label
_atom_site_fract_x
_atom_site_fract_y
_atom_site_fract_z
Si Si1 0.139979 0.600732 0.779455
Si Si2 0.398396 0.598057 0.543848
Si Si3 0.145691 0.775586 0.885916
Si Si4 0.611106 0.790173 0.509290
Si Si5 0.141040 0.101830 0.064707
Si Si6 0.116851 0.102522 0.691105
Si Si7 0.398629 0.897853 0.294171
O O1 0.250000 0.608312 0.770062
O O2 0.119877 0.500000 0.815294
O O3 0.101407 0.610799 0.665681
O O4 0.105460 0.681065 0.850064
O O5 0.500000 0.594292 0.500000
O O6 0.356778 0.500000 0.524458
O O7 0.356908 0.688197 0.498763
O O8 0.250000 0.755632 0.914210
O O9 0.146223 0.840227 0.788050
O O10 0.105091 0.831089 0.979214
O O11 0.500000 0.788803 0.500000
O O12 0.643002 0.848117 0.413020
O O13 0.636017 0.836426 0.614965
O O14 0.250000 0.096814 0.051502
O O15 0.122897 0.131929 0.179864
O O16 0.105830 0.000000 0.053206
O O17 0.007384 0.100501 0.694919
O O18 0.147588 0.000000 0.695043
O O19 0.365360 0.000000 0.305096
#
# Coordination Sequence:
#
# PCOD9398886 Si02
#       7
#     8   8   8   8   8   8   8
#     4   9  17  30  48  71  97 121 151 193 237 284
#     4   9  16  27  46  70  94 122 155 188 229 283
#     4  10  19  31  47  68  93 120 151 190 238 280
#     4   9  16  28  45  67  95 121 151 186 232 275
#     4   9  18  33  50  67  91 124 160 196 231 271
#     4  10  18  28  45  69  95 122 152 191 235 276
#     4   9  18  31  47  66  91 126 163 192 222 273
#
# _framework density 19.288723999999998
#
# number of rings (size 3 to 8) (size 9 to 14) (size 15 to 20)
#    0.000    2.714    1.429    0.857    0.000    3.143 
#    0.000    3.571    0.000    2.571    0.000    1.000 
#    0.000    0.000    0.000    0.000    0.000    0.000 
#
# Total GULP energy -312316.916949 kJ/mol
# GULP energy per Si atom -5577.087803 kJ/mol
# Density = 1.924482 g / cm^3
# Si number density = 19.288724 Si / 1000 Ang^3
#
#
#
# Elastic Constant Matrix: (Units=GPa)
#
#
# Indices 1 2 3 4 5 6 
#
# 1 48.8762 5.0427 6.8559 0.0000 0.0000 0.0000
# 2 5.0427 176.0930 109.8262 0.0000 0.0000 0.0000
# 3 6.8559 109.8262 161.5260 0.0000 0.0000 0.0000
# 4 0.0000 0.0000 0.0000 -47.5312 0.0000 0.0000
# 5 0.0000 0.0000 0.0000 0.0000 22.2168 0.0000
# 6 0.0000 0.0000 0.0000 0.0000 0.0000 -19.9293
#
#
#
# Elastic Compliance Matrix: (Units=1/GPa)
#
#
# Indices 1 2 3 4 5 6 
#
# 1 0.020583 -0.000077 -0.000821 0.000000 0.000000 0.000000
# 2 -0.000077 0.009860 -0.006701 0.000000 0.000000 0.000000
# 3 -0.000821 -0.006701 0.010782 0.000000 0.000000 0.000000
# 4 0.000000 0.000000 0.000000 -0.021039 0.000000 0.000000
# 5 0.000000 0.000000 0.000000 0.000000 0.045011 0.000000
# 6 0.000000 0.000000 0.000000 0.000000 0.000000 -0.050177
#
#
# Mechanical properties :
#
#
# Convention : Reuss Voigt Hill
#
# Bulk Modulus (GPa) = 38.42239 69.99387 54.20813
# Shear Modulus (GPa) = 128.55207 8.60261 68.57734
#
# Velocity S-wave (km/s) = 8.17257 2.11414 5.96911
# Velocity P-wave (km/s) = 10.44114 6.50582 8.69894
#
# Compressibility (1/GPa) = 0.02602649
#
# Stress axis : x y z
#
# Youngs Moduli (GPa) = 48.58377 101.41600 92.74671
#
# Poissons Ratio (x) = 0.00785 0.07615
# Poissons Ratio (y) = 0.00376 0.62150
# Poissons Ratio (z) = 0.03989 0.67960
#
# Static dielectric constant tensor:
#      x y z
#    x 1.721810 0.000000 0.000000 
#    y 0.000000 1.699810 0.000000 
#    z 0.000000 0.000000 1.642250 
# 
# From -- ./inp_files/16590.got.cif
#   From: 2010.05.17/outbox.cif.g08.bks.cpg/sg51_9_cif.got.tgz:16590.got - 2010.06.03 11:52:47.
