data_PCOD9398554
_publ_section_title
;
Structure prediction by ZEFSAII (Michael W. Deem and Ramdas Pophale) SiO2 
 PCOD9398554
Probable space group: P M M A
;
_chemical_formula_sum "Si O2"
_cell_formula_units_Z 48
_cell_length_a 22.202811
_cell_length_b 8.750462
_cell_length_c 15.568690
_cell_angle_alpha 90.000000
_cell_angle_beta 90.000000
_cell_angle_gamma 90.000000
_cell_volume 3024.760663
_symmetry_space_group_name_H-M "P M M A"
_symmetry_group_IT_number 51
_symmetry_cell_setting 'orthorhombic'
loop_
_space_group_symop_operation_xyz
x,y,z
1/2-x,-y,z
1/2+x,-y,-z
-x,y,-z
-x,-y,-z
1/2+x,y,-z
1/2-x,y,z
x,-y,z
loop_
_atom_site_type_symbol
_atom_site_label
_atom_site_fract_x
_atom_site_fract_y
_atom_site_fract_z
Si Si1 0.915558 0.815882 0.553397
Si Si2 0.681275 0.186231 0.694098
Si Si3 0.459998 0.818198 0.798886
Si Si4 0.070704 0.676904 0.973420
Si Si5 0.097687 0.816174 0.149485
Si Si6 0.457604 0.682109 0.617599
O O1 0.859073 0.770637 0.612108
O O2 0.915532 0.748213 0.457768
O O3 0.976498 0.753413 0.597636
O O4 0.919285 0.000000 0.550047
O O5 0.750000 0.239339 0.690344
O O6 0.646438 0.234680 0.780465
O O7 0.681860 0.000000 0.695552
O O8 0.424734 0.767288 0.884283
O O9 0.530616 0.778097 0.815587
O O10 0.439640 0.734651 0.712574
O O11 0.456518 0.000000 0.787509
O O12 0.085756 0.500000 0.960549
O O13 0.104988 0.745381 0.055279
O O14 0.000000 0.686490 0.000000
O O15 0.099863 0.000000 0.142038
O O16 0.460920 0.500000 0.611370
#
# Coordination Sequence:
#
# PCOD9398554 Si02
#       6
#     8   8   8   8   8   8
#     4  10  18  31  47  66  91 123 159 195 234 280
#     4   9  17  30  49  71  93 121 160 200 233 268
#     4  10  17  28  45  67  91 122 155 187 227 279
#     4   9  17  27  40  63  92 122 149 182 224 269
#     4   9  16  28  44  64  90 122 155 189 225 269
#     4  11  20  29  44  67  95 125 154 192 239 286
#
# _framework density 15.869024
#
# number of rings (size 3 to 8) (size 9 to 14) (size 15 to 20)
#    0.000    2.333    1.667    4.000    0.000    2.667 
#    0.000    0.000    0.000    4.500    0.000    1.167 
#    0.000    9.333    0.000    0.000    0.000    0.000 
#
# Total GULP energy -267587.960870 kJ/mol
# GULP energy per Si atom -5574.749185 kJ/mol
# Density = 1.583291 g / cm^3
# Si number density = 15.869024 Si / 1000 Ang^3
#
#
#
# Elastic Constant Matrix: (Units=GPa)
#
#
# Indices 1 2 3 4 5 6 
#
# 1 70.1224 20.3946 56.2868 0.0000 0.0000 0.0000
# 2 20.3946 59.3678 50.5260 0.0000 0.0000 0.0000
# 3 56.2868 50.5260 158.5065 0.0000 0.0000 0.0000
# 4 0.0000 0.0000 0.0000 14.9681 0.0000 0.0000
# 5 0.0000 0.0000 0.0000 0.0000 15.3911 0.0000
# 6 0.0000 0.0000 0.0000 0.0000 0.0000 0.6728
#
#
#
# Elastic Compliance Matrix: (Units=1/GPa)
#
#
# Indices 1 2 3 4 5 6 
#
# 1 0.020002 -0.001134 -0.006741 0.000000 0.000000 0.000000
# 2 -0.001134 0.023179 -0.006986 0.000000 0.000000 0.000000
# 3 -0.006741 -0.006986 0.010930 0.000000 0.000000 0.000000
# 4 0.000000 0.000000 0.000000 0.066809 0.000000 0.000000
# 5 0.000000 0.000000 0.000000 0.000000 0.064973 0.000000
# 6 0.000000 0.000000 0.000000 0.000000 0.000000 1.486420
#
#
# Mechanical properties :
#
#
# Convention : Reuss Voigt Hill
#
# Bulk Modulus (GPa) = 41.00341 60.26795 50.63568
# Shear Modulus (GPa) = 2.92369 16.92567 9.92468
#
# Velocity S-wave (km/s) = 1.35882 3.26940 2.50354
# Velocity P-wave (km/s) = 5.32509 7.23276 6.35096
#
# Compressibility (1/GPa) = 0.02438822
#
# Stress axis : x y z
#
# Youngs Moduli (GPa) = 49.99550 43.14205 91.49400
#
# Poissons Ratio (x) = 0.04892 0.61679
# Poissons Ratio (y) = 0.05669 0.63918
# Poissons Ratio (z) = 0.33704 0.30139
#
# Static dielectric constant tensor:
#      x y z
#    x 1.505530 0.000000 0.000000 
#    y 0.000000 1.528030 0.000000 
#    z 0.000000 0.000000 1.546020 
# 
# From -- ./inp_files/25462.got.cif
#   From: 2010.05.17/outbox.cif.g08.bks.cpg/sg51_13_cif.got.tgz:25462.got - 2010.06.03 11:52:47.
