data_PCOD9398916
_publ_section_title
;
Structure prediction by ZEFSAII (Michael W. Deem and Ramdas Pophale) SiO2 
 PCOD9398916
Probable space group: P M M A
;
_chemical_formula_sum "Si O2"
_cell_formula_units_Z 48
_cell_length_a 20.779083
_cell_length_b 9.162572
_cell_length_c 14.532601
_cell_angle_alpha 90.000000
_cell_angle_beta 90.000000
_cell_angle_gamma 90.000000
_cell_volume 2766.859638
_symmetry_space_group_name_H-M "P M M A"
_symmetry_group_IT_number 51
_symmetry_cell_setting 'orthorhombic'
loop_
_space_group_symop_operation_xyz
x,y,z
1/2-x,-y,z
1/2+x,-y,-z
-x,y,-z
-x,-y,-z
1/2+x,y,-z
1/2-x,y,z
x,-y,z
loop_
_atom_site_type_symbol
_atom_site_label
_atom_site_fract_x
_atom_site_fract_y
_atom_site_fract_z
Si Si1 0.925774 0.331686 0.536821
Si Si2 0.399464 0.829928 0.636010
Si Si3 0.478547 0.675451 0.272864
Si Si4 0.326716 0.327842 0.990805
Si Si5 0.553104 0.824910 0.920763
Si Si6 0.325925 0.840357 0.814047
O O1 0.905877 0.500000 0.527947
O O2 0.887825 0.231849 0.465469
O O3 0.927787 0.291830 0.644426
O O4 0.000000 0.323389 0.500000
O O5 0.455449 0.738837 0.686085
O O6 0.341936 0.815483 0.708168
O O7 0.418075 0.000000 0.629620
O O8 0.481810 0.500000 0.264016
O O9 0.465210 0.751037 0.176048
O O10 0.250000 0.295870 0.005278
O O11 0.335587 0.500000 0.005203
O O12 0.376697 0.236207 0.051249
O O13 0.345398 0.282654 0.886210
O O14 0.554363 0.000000 0.911948
O O15 0.500000 0.788595 0.000000
O O16 0.250000 0.850460 0.823517
O O17 0.354871 0.000000 0.840021
#
# Coordination Sequence:
#
# PCOD9398916 Si02
#       6
#     8   8   8   8   8   8
#     4   8  16  30  46  66  93 125 157 190 237 295
#     4  10  18  28  47  73  98 126 161 200 243 293
#     4  10  20  33  49  70  98 130 162 201 249 296
#     4  10  21  36  54  76 101 133 173 210 248 301
#     4  11  23  36  52  77 106 134 168 211 257 303
#     4   9  18  32  48  68  97 130 161 196 240 289
#
# _framework density 17.348186999999999
#
# number of rings (size 3 to 8) (size 9 to 14) (size 15 to 20)
#    0.000    2.333    0.000    4.000    0.000   11.333 
#    0.000    0.000    0.000    1.000    0.000    4.667 
#    0.000    0.000    0.000    0.000    0.000    0.000 
#
# Total GULP energy -267336.666503 kJ/mol
# GULP energy per Si atom -5569.513885 kJ/mol
# Density = 1.730870 g / cm^3
# Si number density = 17.348187 Si / 1000 Ang^3
#
#
#
# Elastic Constant Matrix: (Units=GPa)
#
#
# Indices 1 2 3 4 5 6 
#
# 1 28.3870 31.3814 26.2800 0.0000 0.0000 0.0000
# 2 31.3814 79.8871 68.1029 0.0000 0.0000 0.0000
# 3 26.2800 68.1029 141.4986 0.0000 0.0000 0.0000
# 4 0.0000 0.0000 0.0000 48.6397 0.0000 0.0000
# 5 0.0000 0.0000 0.0000 0.0000 23.5979 0.0000
# 6 0.0000 0.0000 0.0000 0.0000 0.0000 15.5183
#
#
#
# Elastic Compliance Matrix: (Units=1/GPa)
#
#
# Indices 1 2 3 4 5 6 
#
# 1 0.062278 -0.024765 0.000352 0.000000 0.000000 0.000000
# 2 -0.024765 0.031075 -0.010357 0.000000 0.000000 0.000000
# 3 0.000352 -0.010357 0.011986 0.000000 0.000000 0.000000
# 4 0.000000 0.000000 0.000000 0.020559 0.000000 0.000000
# 5 0.000000 0.000000 0.000000 0.000000 0.042377 0.000000
# 6 0.000000 0.000000 0.000000 0.000000 0.000000 0.064440
#
#
# Mechanical properties :
#
#
# Convention : Reuss Voigt Hill
#
# Bulk Modulus (GPa) = 27.93186 55.70014 41.81600
# Shear Modulus (GPa) = 15.91409 25.81839 20.86624
#
# Velocity S-wave (km/s) = 3.03204 3.86197 3.47189
# Velocity P-wave (km/s) = 5.32854 7.21549 6.34258
#
# Compressibility (1/GPa) = 0.03580141
#
# Stress axis : x y z
#
# Youngs Moduli (GPa) = 16.05702 32.18044 83.42774
#
# Poissons Ratio (x) = 0.79694 -0.02941
# Poissons Ratio (y) = 0.39765 0.86404
# Poissons Ratio (z) = -0.00566 0.33328
#
# Static dielectric constant tensor:
#      x y z
#    x 1.603070 0.000000 0.000000 
#    y 0.000000 1.602040 0.000000 
#    z 0.000000 0.000000 1.628230 
# 
# From -- ./inp_files/18553.got.cif
#   From: 2010.05.17/outbox.cif.g08.bks.cpg/sg51_10_cif.got.tgz:18553.got - 2010.06.03 11:52:47.
