data_PCOD9398220
_publ_section_title
;
Structure prediction by ZEFSAII (Michael W. Deem and Ramdas Pophale) SiO2 
 PCOD9398220
Probable space group: P B A N
;
_chemical_formula_sum "Si O2"
_cell_formula_units_Z 18
_cell_length_a 14.422448
_cell_length_b 10.139792
_cell_length_c 5.114377
_cell_angle_alpha 90.000000
_cell_angle_beta 90.000000
_cell_angle_gamma 90.000000
_cell_volume 747.929678
_symmetry_space_group_name_H-M "P B A N"
_symmetry_group_IT_number 50
_space_group.IT_coordinate_system_code '2'
_symmetry_cell_setting 'orthorhombic'
loop_
_space_group_symop_operation_xyz
x,y,z
1/2-x,1/2-y,z
x,1/2-y,-z
1/2-x,y,-z
-x,-y,-z
1/2+x,1/2+y,-z
-x,1/2+y,z
1/2+x,-y,z
loop_
_atom_site_type_symbol
_atom_site_label
_atom_site_fract_x
_atom_site_fract_y
_atom_site_fract_z
Si Si1 0.002486 0.374357 0.811627
Si Si2 0.849374 0.454156 0.391096
Si Si3 0.250000 0.750000 0.000000
O O1 0.919618 0.386648 0.600554
O O2 0.099027 0.408969 0.672444
O O3 0.004408 0.250000 0.000000
O O4 0.000000 0.500000 0.000000
O O5 0.750000 0.489191 0.500000
O O6 0.816909 0.347498 0.168893
#
# Coordination Sequence:
#
# PCOD9398220 Si02
#       3
#     8   8   2
#     4  11  28  52  78 122 165 208 272 343 410 488
#     4  11  27  47  84 118 164 216 276 337 410 503
#     4  12  26  48  84 124 152 220 278 326 412 516
#
# _framework density 24.066434999999998
#
# number of rings (size 3 to 8) (size 9 to 14) (size 15 to 20)
#    0.000    0.889    0.000    3.333   18.667    5.333 
#    0.000   16.667    4.889    0.000    0.000    0.000 
#    0.000    0.000    0.000    0.000    0.000    0.000 
#
# Total GULP energy -100592.619794 kJ/mol
# GULP energy per Si atom -5588.478877 kJ/mol
# Density = 2.401166 g / cm^3
# Si number density = 24.066435 Si / 1000 Ang^3
#
#
#
# Elastic Constant Matrix: (Units=GPa)
#
#
# Indices 1 2 3 4 5 6 
#
# 1 274.3152 102.5542 110.1966 0.0000 0.0000 0.0000
# 2 102.5542 189.7957 92.9451 0.0000 0.0000 0.0000
# 3 110.1966 92.9451 156.3828 0.0000 0.0000 0.0000
# 4 0.0000 0.0000 0.0000 61.7511 0.0000 0.0000
# 5 0.0000 0.0000 0.0000 0.0000 63.2000 0.0000
# 6 0.0000 0.0000 0.0000 0.0000 0.0000 -7.4413
#
#
#
# Elastic Compliance Matrix: (Units=1/GPa)
#
#
# Indices 1 2 3 4 5 6 
#
# 1 0.005363 -0.001477 -0.002901 0.000000 0.000000 0.000000
# 2 -0.001477 0.007839 -0.003618 0.000000 0.000000 0.000000
# 3 -0.002901 -0.003618 0.010589 0.000000 0.000000 0.000000
# 4 0.000000 0.000000 0.000000 0.016194 0.000000 0.000000
# 5 0.000000 0.000000 0.000000 0.000000 0.015823 0.000000
# 6 0.000000 0.000000 0.000000 0.000000 0.000000 -0.134385
#
#
# Mechanical properties :
#
#
# Convention : Reuss Voigt Hill
#
# Bulk Modulus (GPa) = 128.23215 136.87616 132.55415
# Shear Modulus (GPa) = -83.35481 44.48849 -19.43316
#
# Velocity S-wave (km/s) = -5.89156 4.30416 -2.84470
# Velocity P-wave (km/s) = 2.66788 9.03874 6.66395
#
# Compressibility (1/GPa) = 0.00779836
#
# Stress axis : x y z
#
# Youngs Moduli (GPa) = 186.45710 127.57085 94.43470
#
# Poissons Ratio (x) = 0.18844 0.27398
# Poissons Ratio (y) = 0.27542 0.34167
# Poissons Ratio (z) = 0.54096 0.46156
#
# Static dielectric constant tensor:
#      x y z
#    x 2.105550 0.000000 0.000000 
#    y 0.000000 1.920990 0.000000 
#    z 0.000000 0.000000 15.821730 
# 
# From -- ./inp_files/3809.got.cif
#   From: 2010.05.17/outbox.cif.g08.bks.cpg/sg50_2_cif.got.tgz:3809.got - 2010.06.03 11:33:33.
