data_PCOD9398920
_publ_section_title
;
Structure prediction by ZEFSAII (Michael W. Deem and Ramdas Pophale) SiO2 
 PCOD9398920
Probable space group: P M M A
;
_chemical_formula_sum "Si O2"
_cell_formula_units_Z 48
_cell_length_a 32.091323
_cell_length_b 7.690172
_cell_length_c 9.384665
_cell_angle_alpha 90.000000
_cell_angle_beta 90.000000
_cell_angle_gamma 90.000000
_cell_volume 2316.020769
_symmetry_space_group_name_H-M "P M M A"
_symmetry_group_IT_number 51
_symmetry_cell_setting 'orthorhombic'
loop_
_space_group_symop_operation_xyz
x,y,z
1/2-x,-y,z
1/2+x,-y,-z
-x,y,-z
-x,-y,-z
1/2+x,y,-z
1/2-x,y,z
x,-y,z
loop_
_atom_site_type_symbol
_atom_site_label
_atom_site_fract_x
_atom_site_fract_y
_atom_site_fract_z
Si Si1 0.250000 0.697682 0.695436
Si Si2 0.659746 0.713047 0.329610
Si Si3 0.915798 0.703358 0.844678
Si Si4 0.494361 0.203521 0.340556
Si Si5 0.250000 0.797812 0.372033
Si Si6 0.923556 0.711404 0.165045
Si Si7 0.160035 0.709350 0.341537
O O1 0.250000 0.500000 0.750356
O O2 0.295331 0.775299 0.729192
O O3 0.250000 0.694554 0.521770
O O4 0.661450 0.500000 0.330042
O O5 0.619757 0.764129 0.238860
O O6 0.655035 0.769689 0.494373
O O7 0.906208 0.500000 0.867799
O O8 0.956405 0.715037 0.746398
O O9 0.876194 0.778228 0.760371
O O10 0.924465 0.774702 0.001963
O O11 0.500000 0.275911 0.500000
O O12 0.536980 0.224683 0.253871
O O13 0.484181 0.000000 0.353827
O O14 0.206862 0.755363 0.294791
O O15 0.250000 0.000000 0.409949
O O16 0.925730 0.500000 0.167657
O O17 0.156817 0.500000 0.345975
#
# Coordination Sequence:
#
# PCOD9398920 Si02
#       7
#     4   8   8   8   4   8   8
#     4   8  14  28  49  72 100 136 174 210 255 304
#     4   8  14  27  50  75 100 132 169 210 252 298
#     4  10  21  36  56  81 107 137 173 215 264 316
#     4  11  24  39  55  77 104 137 177 217 259 310
#     4  10  18  28  47  76 104 132 172 220 261 296
#     4  10  20  35  55  81 109 136 171 214 263 317
#     4   9  17  32  52  74 102 137 174 211 257 309
#
# _framework density 20.725203
#
# number of rings (size 3 to 8) (size 9 to 14) (size 15 to 20)
#    0.000    2.500    0.000    3.750    0.000    6.000 
#    0.000    5.833    0.000    4.000    0.000    4.667 
#    0.000    0.000    0.000    0.000    0.000    0.000 
#
# Total GULP energy -267845.595574 kJ/mol
# GULP energy per Si atom -5580.116574 kJ/mol
# Density = 2.067803 g / cm^3
# Si number density = 20.725203 Si / 1000 Ang^3
#
#
#
# Elastic Constant Matrix: (Units=GPa)
#
#
# Indices 1 2 3 4 5 6 
#
# 1 159.2152 -24.3965 74.2394 0.0000 0.0000 0.0000
# 2 -24.3965 35.7201 -5.6707 0.0000 0.0000 0.0000
# 3 74.2394 -5.6707 127.7166 0.0000 0.0000 0.0000
# 4 0.0000 0.0000 0.0000 1.4161 0.0000 0.0000
# 5 0.0000 0.0000 0.0000 0.0000 -19.1725 0.0000
# 6 0.0000 0.0000 0.0000 0.0000 0.0000 -182.9835
#
#
#
# Elastic Compliance Matrix: (Units=1/GPa)
#
#
# Indices 1 2 3 4 5 6 
#
# 1 0.009661 0.005747 -0.005361 0.000000 0.000000 0.000000
# 2 0.005747 0.031613 -0.001937 0.000000 0.000000 0.000000
# 3 -0.005361 -0.001937 0.010860 0.000000 0.000000 0.000000
# 4 0.000000 0.000000 0.000000 0.706145 0.000000 0.000000
# 5 0.000000 0.000000 0.000000 0.000000 -0.052158 0.000000
# 6 0.000000 0.000000 0.000000 0.000000 0.000000 -0.005465
#
#
# Mechanical properties :
#
#
# Convention : Reuss Voigt Hill
#
# Bulk Modulus (GPa) = 20.39427 45.66627 33.03027
# Shear Modulus (GPa) = 6.94346 -21.58266 -7.31960
#
# Velocity S-wave (km/s) = 1.83235 -3.23053 -1.88133
# Velocity P-wave (km/s) = 3.78661 2.85778 3.35450
#
# Compressibility (1/GPa) = 0.04903338
#
# Stress axis : x y z
#
# Youngs Moduli (GPa) = 103.50861 31.63221 92.08232
#
# Poissons Ratio (x) = -0.18180 0.49362
# Poissons Ratio (y) = -0.59490 0.17838
# Poissons Ratio (z) = 0.55487 0.06128
#
# Static dielectric constant tensor:
#      x y z
#    x 1.734600 0.000000 0.000000 
#    y 0.000000 1.773390 0.000000 
#    z 0.000000 0.000000 1.718940 
# 
# From -- ./inp_files/12916.got.cif
#   From: 2010.05.17/outbox.cif.g08.bks.cpg/sg51_7_cif.got.tgz:12916.got - 2010.06.03 11:52:47.
