data_PCOD9398666
_publ_section_title
;
Structure prediction by ZEFSAII (Michael W. Deem and Ramdas Pophale) SiO2 
 PCOD9398666
Probable space group: P M M A
;
_chemical_formula_sum "Si O2"
_cell_formula_units_Z 56
_cell_length_a 8.857722
_cell_length_b 30.217529
_cell_length_c 14.108274
_cell_angle_alpha 90.000000
_cell_angle_beta 90.000000
_cell_angle_gamma 90.000000
_cell_volume 3776.199053
_symmetry_space_group_name_H-M "P M M A"
_symmetry_group_IT_number 51
_symmetry_cell_setting 'orthorhombic'
loop_
_space_group_symop_operation_xyz
x,y,z
1/2-x,-y,z
1/2+x,-y,-z
-x,y,-z
-x,-y,-z
1/2+x,y,-z
1/2-x,y,z
x,-y,z
loop_
_atom_site_type_symbol
_atom_site_label
_atom_site_fract_x
_atom_site_fract_y
_atom_site_fract_z
Si Si1 0.931664 0.721579 0.897647
Si Si2 0.432091 0.368073 0.209852
Si Si3 0.068599 0.145005 0.606007
Si Si4 0.068154 0.047518 0.605606
Si Si5 0.569635 0.550807 0.103649
Si Si6 0.568551 0.318246 0.601930
Si Si7 0.932183 0.228429 0.708722
O O1 0.750000 0.722233 0.903456
O O2 0.974962 0.672627 0.859770
O O3 0.975418 0.755961 0.814647
O O4 0.000000 0.730562 0.000000
O O5 0.250000 0.371760 0.206846
O O6 0.505553 0.413189 0.175542
O O7 0.475924 0.352467 0.315374
O O8 0.250000 0.147770 0.599152
O O9 0.025934 0.095856 0.644712
O O10 0.000000 0.149550 0.500000
O O11 0.006557 0.183853 0.671673
O O12 0.250000 0.047476 0.599296
O O13 0.000000 0.047203 0.500000
O O14 0.023011 0.000000 0.650490
O O15 0.750000 0.554349 0.097765
O O16 0.530853 0.500000 0.129263
O O17 0.500000 0.559561 0.000000
O O18 0.500000 0.327365 0.500000
O O19 0.750000 0.318991 0.596095
O O20 0.525744 0.269328 0.639658
O O21 0.750000 0.224345 0.706036
#
# Coordination Sequence:
#
# PCOD9398666 Si02
#       7
#     8   8   8   8   8   8   8
#     4   9  18  31  46  64  87 113 140 172 208 248
#     4   9  18  32  48  67  90 115 143 174 209 248
#     4  10  18  26  39  59  82 111 145 177 209 247
#     4   8  14  24  36  51  74 104 137 172 208 245
#     4  10  20  32  47  69  94 117 141 171 209 253
#     4   9  18  31  46  64  87 115 146 178 210 245
#     4   9  18  31  43  59  86 115 141 172 210 249
#
# _framework density 14.829727
#
# number of rings (size 3 to 8) (size 9 to 14) (size 15 to 20)
#    0.000    2.857    0.000    3.429    0.000    6.000 
#    0.000    2.857    0.000    0.429    0.000    0.000 
#    0.000    0.571    0.000    1.286    0.000    2.286 
#
# Total GULP energy -311856.305906 kJ/mol
# GULP energy per Si atom -5568.862605 kJ/mol
# Density = 1.479597 g / cm^3
# Si number density = 14.829727 Si / 1000 Ang^3
#
#
#
# Elastic Constant Matrix: (Units=GPa)
#
#
# Indices 1 2 3 4 5 6 
#
# 1 21.9432 39.8867 29.4012 0.0000 0.0000 0.0000
# 2 39.8867 148.3606 75.1367 0.0000 0.0000 0.0000
# 3 29.4012 75.1367 101.7849 0.0000 0.0000 0.0000
# 4 0.0000 0.0000 0.0000 17.5847 0.0000 0.0000
# 5 0.0000 0.0000 0.0000 0.0000 25.8106 0.0000
# 6 0.0000 0.0000 0.0000 0.0000 0.0000 31.1439
#
#
#
# Elastic Compliance Matrix: (Units=1/GPa)
#
#
# Indices 1 2 3 4 5 6 
#
# 1 0.101098 -0.019789 -0.014595 0.000000 0.000000 0.000000
# 2 -0.019789 0.014638 -0.005090 0.000000 0.000000 0.000000
# 3 -0.014595 -0.005090 0.017798 0.000000 0.000000 0.000000
# 4 0.000000 0.000000 0.000000 0.056868 0.000000 0.000000
# 5 0.000000 0.000000 0.000000 0.000000 0.038744 0.000000
# 6 0.000000 0.000000 0.000000 0.000000 0.000000 0.032109
#
#
# Mechanical properties :
#
#
# Convention : Reuss Voigt Hill
#
# Bulk Modulus (GPa) = 18.31927 62.32643 40.32285
# Shear Modulus (GPa) = 13.95101 23.41879 18.68490
#
# Velocity S-wave (km/s) = 3.07049 3.97820 3.55345
# Velocity P-wave (km/s) = 4.99504 7.95114 6.63970
#
# Compressibility (1/GPa) = 0.05458733
#
# Stress axis : x y z
#
# Youngs Moduli (GPa) = 9.89137 68.31458 56.18715
#
# Poissons Ratio (x) = 1.35185 0.82005
# Poissons Ratio (y) = 0.19574 0.28597
# Poissons Ratio (z) = 0.14436 0.34770
#
# Static dielectric constant tensor:
#      x y z
#    x 1.498030 0.000000 0.000000 
#    y 0.000000 1.515140 0.000000 
#    z 0.000000 0.000000 1.464240 
# 
# From -- ./inp_files/22548.got.cif
#   From: 2010.05.17/outbox.cif.g08.bks.cpg/sg51_12_cif.got.tgz:22548.got - 2010.06.03 11:52:47.
