data_PCOD9398654
_publ_section_title
;
Structure prediction by ZEFSAII (Michael W. Deem and Ramdas Pophale) SiO2 
 PCOD9398654
Probable space group: P M M A
;
_chemical_formula_sum "Si O2"
_cell_formula_units_Z 64
_cell_length_a 8.815720
_cell_length_b 27.714025
_cell_length_c 18.692016
_cell_angle_alpha 90.000000
_cell_angle_beta 90.000000
_cell_angle_gamma 90.000000
_cell_volume 4566.816236
_symmetry_space_group_name_H-M "P M M A"
_symmetry_group_IT_number 51
_symmetry_cell_setting 'orthorhombic'
loop_
_space_group_symop_operation_xyz
x,y,z
1/2-x,-y,z
1/2+x,-y,-z
-x,y,-z
-x,-y,-z
1/2+x,y,-z
1/2-x,y,z
x,-y,z
loop_
_atom_site_type_symbol
_atom_site_label
_atom_site_fract_x
_atom_site_fract_y
_atom_site_fract_z
Si Si1 0.570516 0.646861 0.922726
Si Si2 0.923755 0.699980 0.203310
Si Si3 0.923888 0.601499 0.297332
Si Si4 0.067010 0.158026 0.419611
Si Si5 0.930297 0.344598 0.577826
Si Si6 0.933414 0.554168 0.155078
Si Si7 0.567383 0.051832 0.579952
Si Si8 0.933096 0.749248 0.343951
O O1 0.750000 0.643771 0.927701
O O2 0.522472 0.687625 0.865431
O O3 0.506263 0.596089 0.892259
O O4 0.500000 0.656212 0.000000
O O5 0.750000 0.709511 0.181478
O O6 0.922074 0.650921 0.250741
O O7 0.975144 0.739615 0.260883
O O8 0.750000 0.591264 0.318838
O O9 0.976019 0.562787 0.238506
O O10 0.022910 0.613527 0.366268
O O11 0.250000 0.162371 0.422689
O O12 0.025854 0.104467 0.389961
O O13 0.000000 0.161620 0.500000
O O14 0.996953 0.200910 0.373560
O O15 0.750000 0.340107 0.573694
O O16 0.000000 0.353332 0.500000
O O17 0.999736 0.294779 0.609253
O O18 0.750000 0.559512 0.151882
O O19 0.973433 0.500000 0.132526
O O20 0.500000 0.051630 0.500000
O O21 0.750000 0.051813 0.575183
O O22 0.521579 0.000000 0.613519
O O23 0.750000 0.747374 0.348713
#
# Coordination Sequence:
#
# PCOD9398654 Si02
#       8
#     8   8   8   8   8   8   8   8
#     4  11  21  32  48  68  90 112 134 161 188 220
#     4   8  16  31  47  61  80 106 133 160 192 233
#     4   8  15  29  46  63  82 103 128 157 192 234
#     4  10  18  26  37  54  77 104 137 177 216 252
#     4  11  20  29  42  59  79 102 130 164 201 240
#     4   9  18  33  51  68  87 110 132 156 190 230
#     4   8  14  24  36  49  67  95 132 173 214 251
#     4  10  19  30  42  57  80 106 131 163 204 246
#
# _framework density 14.014139999999999
#
# number of rings (size 3 to 8) (size 9 to 14) (size 15 to 20)
#    0.000    2.625    0.000    4.875    0.000    6.000 
#    0.000    0.000    0.000    0.375    0.000    0.000 
#    0.000    0.000    0.000    0.000    0.000    0.625 
#
# Total GULP energy -356366.245336 kJ/mol
# GULP energy per Si atom -5568.222583 kJ/mol
# Density = 1.398224 g / cm^3
# Si number density = 14.014140 Si / 1000 Ang^3
#
#
#
# Elastic Constant Matrix: (Units=GPa)
#
#
# Indices 1 2 3 4 5 6 
#
# 1 62.9101 19.4567 43.1026 0.0000 0.0000 0.0000
# 2 19.4567 54.1751 31.4129 0.0000 0.0000 0.0000
# 3 43.1026 31.4129 87.0974 0.0000 0.0000 0.0000
# 4 0.0000 0.0000 0.0000 9.4980 0.0000 0.0000
# 5 0.0000 0.0000 0.0000 0.0000 21.2987 0.0000
# 6 0.0000 0.0000 0.0000 0.0000 0.0000 -6.7396
#
#
#
# Elastic Compliance Matrix: (Units=1/GPa)
#
#
# Indices 1 2 3 4 5 6 
#
# 1 0.024259 -0.002214 -0.011206 0.000000 0.000000 0.000000
# 2 -0.002214 0.023542 -0.007395 0.000000 0.000000 0.000000
# 3 -0.011206 -0.007395 0.019694 0.000000 0.000000 0.000000
# 4 0.000000 0.000000 0.000000 0.105285 0.000000 0.000000
# 5 0.000000 0.000000 0.000000 0.000000 0.046951 0.000000
# 6 0.000000 0.000000 0.000000 0.000000 0.000000 -0.148377
#
#
# Mechanical properties :
#
#
# Convention : Reuss Voigt Hill
#
# Bulk Modulus (GPa) = 38.66474 43.56968 41.11721
# Shear Modulus (GPa) = 41.11616 12.15879 26.63747
#
# Velocity S-wave (km/s) = 5.42243 2.94871 4.36450
# Velocity P-wave (km/s) = 8.17639 6.53839 7.40283
#
# Compressibility (1/GPa) = 0.02586336
#
# Stress axis : x y z
#
# Youngs Moduli (GPa) = 41.22252 42.47775 50.77625
#
# Poissons Ratio (x) = 0.09406 0.56902
# Poissons Ratio (y) = 0.09128 0.37548
# Poissons Ratio (z) = 0.46196 0.31411
#
# Static dielectric constant tensor:
#      x y z
#    x 1.468330 0.000000 0.000000 
#    y 0.000000 1.484340 0.000000 
#    z 0.000000 0.000000 1.451530 
# 
# From -- ./inp_files/28692.got.cif
#   From: 2010.05.17/outbox.cif.g08.bks.cpg/sg51_15_cif.got.tgz:28692.got - 2010.06.03 11:52:47.
