data_PCOD9398628
_publ_section_title
;
Structure prediction by ZEFSAII (Michael W. Deem and Ramdas Pophale) SiO2 
 PCOD9398628
Probable space group: P M M A
;
_chemical_formula_sum "Si O2"
_cell_formula_units_Z 40
_cell_length_a 27.163952
_cell_length_b 7.706899
_cell_length_c 10.785355
_cell_angle_alpha 90.000000
_cell_angle_beta 90.000000
_cell_angle_gamma 90.000000
_cell_volume 2257.912284
_symmetry_space_group_name_H-M "P M M A"
_symmetry_group_IT_number 51
_symmetry_cell_setting 'orthorhombic'
loop_
_space_group_symop_operation_xyz
x,y,z
1/2-x,-y,z
1/2+x,-y,-z
-x,y,-z
-x,-y,-z
1/2+x,y,-z
1/2-x,y,z
x,-y,z
loop_
_atom_site_type_symbol
_atom_site_label
_atom_site_fract_x
_atom_site_fract_y
_atom_site_fract_z
Si Si1 0.750000 0.793028 0.710827
Si Si2 0.750000 0.696783 0.992371
Si Si3 0.076405 0.500000 0.436094
Si Si4 0.141913 0.799272 0.325472
Si Si5 0.041850 0.799160 0.897113
Si Si6 0.357402 0.289282 0.034328
Si Si7 0.528817 0.500000 0.302192
O O1 0.801086 0.756418 0.643699
O O2 0.750000 0.000000 0.740040
O O3 0.750000 0.695895 0.841948
O O4 0.750000 0.500000 0.040548
O O5 0.804247 0.772274 0.019544
O O6 0.106403 0.668611 0.394171
O O7 0.065593 0.500000 0.581775
O O8 0.025335 0.500000 0.361209
O O9 0.132081 0.000000 0.354173
O O10 0.137868 0.773495 0.176487
O O11 0.095451 0.772762 0.958385
O O12 0.035821 0.667668 0.784049
O O13 0.035624 0.000000 0.860528
O O14 0.000000 0.759119 0.000000
O O15 0.356799 0.500000 0.036098
#
# Coordination Sequence:
#
# PCOD9398628 Si02
#       7
#     4   4   4   8   8   8   4
#     4   8  16  28  48  80 115 142 170 220 271 315
#     4   8  16  26  46  80 113 144 172 211 268 330
#     4  11  24  39  58  77 102 149 186 226 275 314
#     4  10  19  33  55  86 116 143 180 221 270 327
#     4  11  23  38  60  85 110 143 179 223 279 334
#     4  10  17  31  55  84 116 144 177 220 274 330
#     4  11  25  42  56  77 109 141 186 231 273 321
#
# _framework density 17.715478999999998
#
# number of rings (size 3 to 8) (size 9 to 14) (size 15 to 20)
#    0.000    2.000    2.000    2.100    1.400    4.000 
#    0.000    2.000    0.000    2.400    0.000    0.000 
#    0.000    0.000    0.000    0.000    0.000    0.000 
#
# Total GULP energy -223156.858934 kJ/mol
# GULP energy per Si atom -5578.921473 kJ/mol
# Density = 1.767516 g / cm^3
# Si number density = 17.715479 Si / 1000 Ang^3
#
#
#
# Elastic Constant Matrix: (Units=GPa)
#
#
# Indices 1 2 3 4 5 6 
#
# 1 129.8026 45.8436 58.5253 0.0000 0.0000 0.0000
# 2 45.8436 88.9622 52.0525 0.0000 0.0000 0.0000
# 3 58.5253 52.0525 90.5213 0.0000 0.0000 0.0000
# 4 0.0000 0.0000 0.0000 -9.0216 0.0000 0.0000
# 5 0.0000 0.0000 0.0000 0.0000 24.1098 0.0000
# 6 0.0000 0.0000 0.0000 0.0000 0.0000 3.6951
#
#
#
# Elastic Compliance Matrix: (Units=1/GPa)
#
#
# Indices 1 2 3 4 5 6 
#
# 1 0.011180 -0.002309 -0.005901 0.000000 0.000000 0.000000
# 2 -0.002309 0.017417 -0.008523 0.000000 0.000000 0.000000
# 3 -0.005901 -0.008523 0.019763 0.000000 0.000000 0.000000
# 4 0.000000 0.000000 0.000000 -0.110845 0.000000 0.000000
# 5 0.000000 0.000000 0.000000 0.000000 0.041477 0.000000
# 6 0.000000 0.000000 0.000000 0.000000 0.000000 0.270627
#
#
# Mechanical properties :
#
#
# Convention : Reuss Voigt Hill
#
# Bulk Modulus (GPa) = 67.13277 69.12542 68.12910
# Shear Modulus (GPa) = 17.35818 13.94764 15.65291
#
# Velocity S-wave (km/s) = 3.13362 2.80896 2.97572
# Velocity P-wave (km/s) = 7.14633 7.04449 7.09559
#
# Compressibility (1/GPa) = 0.01489585
#
# Stress axis : x y z
#
# Youngs Moduli (GPa) = 89.44673 57.41469 50.59972
#
# Poissons Ratio (x) = 0.13255 0.29857
# Poissons Ratio (y) = 0.20650 0.43125
# Poissons Ratio (z) = 0.52779 0.48933
#
# Static dielectric constant tensor:
#      x y z
#    x 1.648410 0.000000 0.000000 
#    y 0.000000 1.649920 0.000000 
#    z 0.000000 0.000000 1.547480 
# 
# From -- ./inp_files/12227.got.cif
#   From: 2010.05.17/outbox.cif.g08.bks.cpg/sg51_7_cif.got.tgz:12227.got - 2010.06.03 11:52:47.
