data_PCOD9398343
_publ_section_title
;
Structure prediction by ZEFSAII (Michael W. Deem and Ramdas Pophale) SiO2 
 PCOD9398343
Probable space group: P M M A
;
_chemical_formula_sum "Si O2"
_cell_formula_units_Z 48
_cell_length_a 15.505696
_cell_length_b 18.839822
_cell_length_c 7.364564
_cell_angle_alpha 90.000000
_cell_angle_beta 90.000000
_cell_angle_gamma 90.000000
_cell_volume 2151.369964
_symmetry_space_group_name_H-M "P M M A"
_symmetry_group_IT_number 51
_symmetry_cell_setting 'orthorhombic'
loop_
_space_group_symop_operation_xyz
x,y,z
1/2-x,-y,z
1/2+x,-y,-z
-x,y,-z
-x,-y,-z
1/2+x,y,-z
1/2-x,y,z
x,-y,z
loop_
_atom_site_type_symbol
_atom_site_label
_atom_site_fract_x
_atom_site_fract_y
_atom_site_fract_z
Si Si1 0.485809 0.579336 0.286727
Si Si2 0.526464 0.826317 0.787049
Si Si3 0.656512 0.823159 0.310761
Si Si4 0.156474 0.665629 0.813052
Si Si5 0.151935 0.698755 0.233278
Si Si6 0.843158 0.080016 0.950806
O O1 0.500000 0.573420 0.500000
O O2 0.475270 0.500000 0.210364
O O3 0.571032 0.618617 0.209400
O O4 0.400983 0.627436 0.272232
O O5 0.444283 0.839026 0.659584
O O6 0.591344 0.765268 0.718649
O O7 0.581325 0.896902 0.818508
O O8 0.500000 0.805349 0.000000
O O9 0.750000 0.841898 0.399082
O O10 0.653550 0.737370 0.304016
O O11 0.661618 0.863771 0.114991
O O12 0.250000 0.629396 0.779423
O O13 0.158338 0.696290 0.015697
O O14 0.250000 0.701381 0.304201
O O15 0.750000 0.083340 0.857295
O O16 0.855428 0.000000 0.020468
#
# Coordination Sequence:
#
# PCOD9398343 Si02
#       6
#     8   8   8   8   8   8
#     4  11  25  42  57  77 107 140 175 221 278 332
#     4  10  15  25  45  69 103 140 174 210 258 310
#     4   9  16  26  43  69 101 138 173 212 257 307
#     4  10  19  35  59  83 106 139 180 221 267 319
#     4  11  20  34  58  84 107 138 178 222 268 318
#     4   9  16  24  37  66 109 148 175 207 263 324
#
# _framework density 22.311364999999999
#
# number of rings (size 3 to 8) (size 9 to 14) (size 15 to 20)
#    0.000    2.000    5.000    1.000    0.000    5.667 
#    0.000    3.333    0.000    0.000    0.000    0.000 
#    0.000    2.667    0.000    8.500    0.000    0.000 
#
# Total GULP energy -267377.942931 kJ/mol
# GULP energy per Si atom -5570.373811 kJ/mol
# Density = 2.226058 g / cm^3
# Si number density = 22.311365 Si / 1000 Ang^3
#
#
#
# Elastic Constant Matrix: (Units=GPa)
#
#
# Indices 1 2 3 4 5 6 
#
# 1 221.6686 60.2415 18.9951 0.0000 0.0000 0.0000
# 2 60.2415 106.7524 -0.9870 0.0000 0.0000 0.0000
# 3 18.9951 -0.9870 43.6843 0.0000 0.0000 0.0000
# 4 0.0000 0.0000 0.0000 -26.5293 0.0000 0.0000
# 5 0.0000 0.0000 0.0000 0.0000 13.0536 0.0000
# 6 0.0000 0.0000 0.0000 0.0000 0.0000 40.5061
#
#
#
# Elastic Compliance Matrix: (Units=1/GPa)
#
#
# Indices 1 2 3 4 5 6 
#
# 1 0.005589 -0.003177 -0.002502 0.000000 0.000000 0.000000
# 2 -0.003177 0.011175 0.001634 0.000000 0.000000 0.000000
# 3 -0.002502 0.001634 0.024016 0.000000 0.000000 0.000000
# 4 0.000000 0.000000 0.000000 -0.037694 0.000000 0.000000
# 5 0.000000 0.000000 0.000000 0.000000 0.076607 0.000000
# 6 0.000000 0.000000 0.000000 0.000000 0.000000 0.024688
#
#
# Mechanical properties :
#
#
# Convention : Reuss Voigt Hill
#
# Bulk Modulus (GPa) = 30.58986 58.73382 44.66184
# Shear Modulus (GPa) = 40.52887 24.99646 32.76267
#
# Velocity S-wave (km/s) = 4.26668 3.35079 3.83617
# Velocity P-wave (km/s) = 6.16546 6.43056 6.29941
#
# Compressibility (1/GPa) = 0.03269057
#
# Stress axis : x y z
#
# Youngs Moduli (GPa) = 178.92078 89.48185 41.63823
#
# Poissons Ratio (x) = 0.28429 0.10418
# Poissons Ratio (y) = 0.56845 -0.06804
# Poissons Ratio (z) = 0.44767 -0.14621
#
# Static dielectric constant tensor:
#      x y z
#    x 1.884420 0.000000 0.000000 
#    y 0.000000 1.811310 0.000000 
#    z 0.000000 0.000000 1.898130 
# 
# From -- ./inp_files/8219.got.cif
#   From: 2010.05.17/outbox.cif.g08.bks.cpg/sg51_5_cif.got.tgz:8219.got - 2010.06.03 11:52:47.
