data_PCOD9398294
_publ_section_title
;
Structure prediction by ZEFSAII (Michael W. Deem and Ramdas Pophale) SiO2 
 PCOD9398294
Probable space group: P B A N
;
_chemical_formula_sum "Si O2"
_cell_formula_units_Z 22
_cell_length_a 11.179250
_cell_length_b 9.470335
_cell_length_c 9.787053
_cell_angle_alpha 90.000000
_cell_angle_beta 90.000000
_cell_angle_gamma 90.000000
_cell_volume 1036.167462
_symmetry_space_group_name_H-M "P B A N"
_symmetry_group_IT_number 50
_space_group.IT_coordinate_system_code '2'
_symmetry_cell_setting 'orthorhombic'
loop_
_space_group_symop_operation_xyz
x,y,z
1/2-x,1/2-y,z
x,1/2-y,-z
1/2-x,y,-z
-x,-y,-z
1/2+x,1/2+y,-z
-x,1/2+y,z
1/2+x,-y,z
loop_
_atom_site_type_symbol
_atom_site_label
_atom_site_fract_x
_atom_site_fract_y
_atom_site_fract_z
Si Si1 0.905218 0.509495 0.374134
Si Si2 0.750000 0.750000 0.500000
Si Si3 0.250000 0.750000 0.745284
Si Si4 0.526638 0.374939 0.100502
O O1 0.822941 0.641560 0.409705
O O2 0.828503 0.365587 0.342468
O O3 0.000000 0.500000 0.500000
O O4 0.967974 0.565510 0.238462
O O5 0.342410 0.668630 0.844210
O O6 0.482596 0.250000 0.000000
O O7 0.500000 0.500000 0.000000
#
# Coordination Sequence:
#
# PCOD9398294 Si02
#       4
#     8   2   4   8
#     4  12  28  51  79 113 156 206 267 324 391 478
#     4  12  28  46  74 118 136 206 258 316 392 448
#     4  12  27  53  78 112 162 208 250 332 404 450
#     4  12  27  49  77 115 157 205 262 320 395 480
#
# _framework density 21.232088999999998
#
# number of rings (size 3 to 8) (size 9 to 14) (size 15 to 20)
#    0.000    0.000    3.636    4.909    5.091    5.091 
#    0.000    0.000    0.000    0.000    0.000    0.000 
#    0.000    0.000    0.000    0.000    0.000    0.000 
#
# Total GULP energy -122564.362081 kJ/mol
# GULP energy per Si atom -5571.107367 kJ/mol
# Density = 2.118376 g / cm^3
# Si number density = 21.232089 Si / 1000 Ang^3
#
#
#
# Elastic Constant Matrix: (Units=GPa)
#
#
# Indices 1 2 3 4 5 6 
#
# 1 125.4068 103.7096 103.6443 0.0000 0.0000 0.0000
# 2 103.7096 225.5416 104.9041 0.0000 0.0000 0.0000
# 3 103.6443 104.9041 238.0329 0.0000 0.0000 0.0000
# 4 0.0000 0.0000 0.0000 103.4022 0.0000 0.0000
# 5 0.0000 0.0000 0.0000 0.0000 3.7667 0.0000
# 6 0.0000 0.0000 0.0000 0.0000 0.0000 38.3927
#
#
#
# Elastic Compliance Matrix: (Units=1/GPa)
#
#
# Indices 1 2 3 4 5 6 
#
# 1 0.016261 -0.005263 -0.004761 0.000000 0.000000 0.000000
# 2 -0.005263 0.007280 -0.000917 0.000000 0.000000 0.000000
# 3 -0.004761 -0.000917 0.006678 0.000000 0.000000 0.000000
# 4 0.000000 0.000000 0.000000 0.009671 0.000000 0.000000
# 5 0.000000 0.000000 0.000000 0.000000 0.265485 0.000000
# 6 0.000000 0.000000 0.000000 0.000000 0.000000 0.026047
#
#
# Mechanical properties :
#
#
# Convention : Reuss Voigt Hill
#
# Bulk Modulus (GPa) = 119.93245 134.83303 127.38274
# Shear Modulus (GPa) = 14.04168 47.56055 30.80111
#
# Velocity S-wave (km/s) = 2.57445 4.73803 3.81292
# Velocity P-wave (km/s) = 8.08988 9.67337 8.91684
#
# Compressibility (1/GPa) = 0.00833803
#
# Stress axis : x y z
#
# Youngs Moduli (GPa) = 61.49623 137.35805 149.73940
#
# Poissons Ratio (x) = 0.72289 0.71292
# Poissons Ratio (y) = 0.32364 0.13730
# Poissons Ratio (z) = 0.29279 0.12595
#
# Static dielectric constant tensor:
#      x y z
#    x 1.787920 0.000000 0.000000 
#    y 0.000000 1.696340 0.000000 
#    z 0.000000 0.000000 1.672110 
# 
# From -- ./inp_files/8289.got.cif
#   From: 2010.05.17/outbox.cif.g08.bks.cpg/sg50_5_cif.got.tgz:8289.got - 2010.06.03 11:33:33.
