data_PCOD9398129
_publ_section_title
;
Structure prediction by ZEFSAII (Michael W. Deem and Ramdas Pophale) SiO2 
 PCOD9398129
Probable space group: P B A N
;
_chemical_formula_sum "Si O2"
_cell_formula_units_Z 32
_cell_length_a 7.883937
_cell_length_b 14.104885
_cell_length_c 10.951767
_cell_angle_alpha 90.000000
_cell_angle_beta 90.000000
_cell_angle_gamma 90.000000
_cell_volume 1217.858665
_symmetry_space_group_name_H-M "P B A N"
_symmetry_group_IT_number 50
_space_group.IT_coordinate_system_code '2'
_symmetry_cell_setting 'orthorhombic'
loop_
_space_group_symop_operation_xyz
x,y,z
1/2-x,1/2-y,z
x,1/2-y,-z
1/2-x,y,-z
-x,-y,-z
1/2+x,1/2+y,-z
-x,1/2+y,z
1/2+x,-y,z
loop_
_atom_site_type_symbol
_atom_site_label
_atom_site_fract_x
_atom_site_fract_y
_atom_site_fract_z
Si Si1 0.576790 0.811787 0.733635
Si Si2 0.357812 0.543851 0.377372
Si Si3 0.543002 0.388304 0.245448
Si Si4 0.550517 0.136187 0.015562
O O1 0.750000 0.750000 0.728927
O O2 0.517205 0.883792 0.628575
O O3 0.447013 0.723931 0.735030
O O4 0.550729 0.873367 0.857779
O O5 0.250000 0.550397 0.500000
O O6 0.424492 0.440575 0.342719
O O7 0.229663 0.573146 0.270051
O O8 0.473954 0.406602 0.108692
O O9 0.541694 0.250000 0.000000
O O10 0.750000 0.112209 0.000000
#
# Coordination Sequence:
#
# PCOD9398129 Si02
#       4
#     8   8   8   8
#     4  11  24  45  75 109 148 199 258 318 394 461
#     4  12  26  47  73 110 153 208 264 316 372 459
#     4  11  24  44  71 102 150 199 254 322 386 450
#     4   9  18  39  69 101 143 192 244 312 388 457
#
# _framework density 26.275627
#
# number of rings (size 3 to 8) (size 9 to 14) (size 15 to 20)
#    0.000    1.250    2.500    3.000    0.000    7.500 
#    0.000    1.250    0.000    0.000    0.000    0.000 
#    0.000    0.000    0.000    0.000    0.000    0.000 
#
# Total GULP energy -178917.770078 kJ/mol
# GULP energy per Si atom -5591.180315 kJ/mol
# Density = 2.621582 g / cm^3
# Si number density = 26.275627 Si / 1000 Ang^3
#
#
#
# Elastic Constant Matrix: (Units=GPa)
#
#
# Indices 1 2 3 4 5 6 
#
# 1 138.4259 30.4290 68.4376 0.0000 0.0000 0.0000
# 2 30.4290 117.5679 59.7953 0.0000 0.0000 0.0000
# 3 68.4376 59.7953 181.6254 0.0000 0.0000 0.0000
# 4 0.0000 0.0000 0.0000 -7.4783 0.0000 0.0000
# 5 0.0000 0.0000 0.0000 0.0000 30.3033 0.0000
# 6 0.0000 0.0000 0.0000 0.0000 0.0000 47.9715
#
#
#
# Elastic Compliance Matrix: (Units=1/GPa)
#
#
# Indices 1 2 3 4 5 6 
#
# 1 0.008928 -0.000720 -0.003127 0.000000 0.000000 0.000000
# 2 -0.000720 0.010275 -0.003111 0.000000 0.000000 0.000000
# 3 -0.003127 -0.003111 0.007708 0.000000 0.000000 0.000000
# 4 0.000000 0.000000 0.000000 -0.133720 0.000000 0.000000
# 5 0.000000 0.000000 0.000000 0.000000 0.033000 0.000000
# 6 0.000000 0.000000 0.000000 0.000000 0.000000 0.020846
#
#
# Mechanical properties :
#
#
# Convention : Reuss Voigt Hill
#
# Bulk Modulus (GPa) = 76.95835 83.88254 80.42044
# Shear Modulus (GPa) = -144.03151 32.75645 -55.63753
#
# Velocity S-wave (km/s) = -7.41179 3.53462 -4.60658
# Velocity P-wave (km/s) = 6.62523 6.97506 1.54236
#
# Compressibility (1/GPa) = 0.01299404
#
# Stress axis : x y z
#
# Youngs Moduli (GPa) = 112.00101 97.32809 129.72812
#
# Poissons Ratio (x) = 0.07012 0.40568
# Poissons Ratio (y) = 0.08069 0.40360
# Poissons Ratio (z) = 0.35024 0.30280
#
# Static dielectric constant tensor:
#      x y z
#    x 2.144730 0.000000 0.000000 
#    y 0.000000 2.016910 0.000000 
#    z 0.000000 0.000000 2.180790 
# 
# From -- ./inp_files/18357.got.cif
#   From: 2010.05.17/outbox.cif.g08.bks.cpg/sg50_10_cif.got.tgz:18357.got - 2010.06.03 11:33:33.
