data_PCOD9398530
_publ_section_title
;
Structure prediction by ZEFSAII (Michael W. Deem and Ramdas Pophale) SiO2 
 PCOD9398530
Probable space group: P M M A
;
_chemical_formula_sum "Si O2"
_cell_formula_units_Z 48
_cell_length_a 9.090631
_cell_length_b 15.182563
_cell_length_c 16.276917
_cell_angle_alpha 90.000000
_cell_angle_beta 90.000000
_cell_angle_gamma 90.000000
_cell_volume 2246.525075
_symmetry_space_group_name_H-M "P M M A"
_symmetry_group_IT_number 51
_symmetry_cell_setting 'orthorhombic'
loop_
_space_group_symop_operation_xyz
x,y,z
1/2-x,-y,z
1/2+x,-y,-z
-x,y,-z
-x,-y,-z
1/2+x,y,-z
1/2-x,y,z
x,-y,z
loop_
_atom_site_type_symbol
_atom_site_label
_atom_site_fract_x
_atom_site_fract_y
_atom_site_fract_z
Si Si1 0.071580 0.155252 0.079546
Si Si2 0.087354 0.105641 0.578555
Si Si3 0.583655 0.394737 0.419230
Si Si4 0.572613 0.350698 0.083258
Si Si5 0.581520 0.642304 0.750545
Si Si6 0.914663 0.854523 0.741757
O O1 0.250000 0.167444 0.071544
O O2 0.044908 0.110931 0.167796
O O3 0.986673 0.249405 0.083581
O O4 0.000000 0.110433 0.000000
O O5 0.250000 0.142456 0.576678
O O6 0.000000 0.140144 0.500000
O O7 0.016230 0.123652 0.666068
O O8 0.094012 0.000000 0.570083
O O9 0.500000 0.359866 0.500000
O O10 0.750000 0.360008 0.413006
O O11 0.593972 0.500000 0.429677
O O12 0.495534 0.380394 0.335103
O O13 0.750000 0.354249 0.080057
O O14 0.509589 0.387777 0.169157
O O15 0.500000 0.389321 0.000000
O O16 0.750000 0.610359 0.754071
O O17 0.587963 0.748776 0.751495
O O18 0.750000 0.885039 0.721845
#
# Coordination Sequence:
#
# PCOD9398530 Si02
#       6
#     8   8   8   8   8   8
#     4   9  16  27  44  69 100 132 166 202 244 293
#     4  10  21  36  54  74  96 127 166 205 248 301
#     4  10  21  37  56  77 101 133 172 209 250 302
#     4  10  17  27  45  70 101 135 169 205 248 296
#     4  10  20  34  52  77 106 134 169 210 253 298
#     4   9  19  33  50  75 104 132 164 205 249 293
#
# _framework density 21.366332
#
# number of rings (size 3 to 8) (size 9 to 14) (size 15 to 20)
#    0.000    2.333    0.000    5.500    0.000    6.667 
#    0.000    0.000    0.000    1.000    0.000    0.000 
#    0.000    0.000    0.000    0.000    0.000    0.000 
#
# Total GULP energy -267834.949452 kJ/mol
# GULP energy per Si atom -5579.894780 kJ/mol
# Density = 2.131770 g / cm^3
# Si number density = 21.366332 Si / 1000 Ang^3
#
#
#
# Elastic Constant Matrix: (Units=GPa)
#
#
# Indices 1 2 3 4 5 6 
#
# 1 213.7216 7.6695 151.8040 0.0000 0.0000 0.0000
# 2 7.6695 43.2894 3.9766 0.0000 0.0000 0.0000
# 3 151.8040 3.9766 245.4689 0.0000 0.0000 0.0000
# 4 0.0000 0.0000 0.0000 32.7983 0.0000 0.0000
# 5 0.0000 0.0000 0.0000 0.0000 48.1746 0.0000
# 6 0.0000 0.0000 0.0000 0.0000 0.0000 21.4044
#
#
#
# Elastic Compliance Matrix: (Units=1/GPa)
#
#
# Indices 1 2 3 4 5 6 
#
# 1 0.008388 -0.001011 -0.005171 0.000000 0.000000 0.000000
# 2 -0.001011 0.023257 0.000249 0.000000 0.000000 0.000000
# 3 -0.005171 0.000249 0.007268 0.000000 0.000000 0.000000
# 4 0.000000 0.000000 0.000000 0.030489 0.000000 0.000000
# 5 0.000000 0.000000 0.000000 0.000000 0.020758 0.000000
# 6 0.000000 0.000000 0.000000 0.000000 0.000000 0.046719
#
#
# Mechanical properties :
#
#
# Convention : Reuss Voigt Hill
#
# Bulk Modulus (GPa) = 36.97506 92.15333 64.56420
# Shear Modulus (GPa) = 31.69340 43.07747 37.38544
#
# Velocity S-wave (km/s) = 3.85559 4.49501 4.18752
# Velocity P-wave (km/s) = 6.09619 8.37639 7.32556
#
# Compressibility (1/GPa) = 0.02704526
#
# Stress axis : x y z
#
# Youngs Moduli (GPa) = 119.21431 42.99850 137.59402
#
# Poissons Ratio (x) = 0.04348 0.71152
# Poissons Ratio (y) = 0.12054 -0.03420
# Poissons Ratio (z) = 0.61647 -0.01069
#
# Static dielectric constant tensor:
#      x y z
#    x 1.748800 0.000000 0.000000 
#    y 0.000000 1.819860 0.000000 
#    z 0.000000 0.000000 1.800620 
# 
# From -- ./inp_files/21403.got.cif
#   From: 2010.05.17/outbox.cif.g08.bks.cpg/sg51_11_cif.got.tgz:21403.got - 2010.06.03 11:52:47.
