data_PCOD9398040
_publ_section_title
;
Structure prediction by ZEFSAII (Michael W. Deem and Ramdas Pophale) SiO2 
 PCOD9398040
Probable space group: P B A N
;
_chemical_formula_sum "Si O2"
_cell_formula_units_Z 34
_cell_length_a 9.561159
_cell_length_b 13.214113
_cell_length_c 12.909250
_cell_angle_alpha 90.000000
_cell_angle_beta 90.000000
_cell_angle_gamma 90.000000
_cell_volume 1630.983503
_symmetry_space_group_name_H-M "P B A N"
_symmetry_group_IT_number 50
_space_group.IT_coordinate_system_code '2'
_symmetry_cell_setting 'orthorhombic'
loop_
_space_group_symop_operation_xyz
x,y,z
1/2-x,1/2-y,z
x,1/2-y,-z
1/2-x,y,-z
-x,-y,-z
1/2+x,1/2+y,-z
-x,1/2+y,z
1/2+x,-y,z
loop_
_atom_site_type_symbol
_atom_site_label
_atom_site_fract_x
_atom_site_fract_y
_atom_site_fract_z
Si Si1 0.210135 0.555393 0.275648
Si Si2 0.750000 0.750000 0.500000
Si Si3 0.062929 0.070199 0.407361
Si Si4 0.516402 0.250000 0.000000
Si Si5 0.250000 0.750000 0.839904
Si Si6 0.617173 0.946962 0.931240
O O1 0.320595 0.494138 0.344786
O O2 0.288185 0.652591 0.227271
O O3 0.148318 0.485951 0.183280
O O4 0.074102 0.592655 0.338541
O O5 0.855158 0.828045 0.558557
O O6 0.000000 0.000000 0.500000
O O7 0.623943 0.210833 0.912548
O O8 0.422495 0.329861 0.940028
O O9 0.750000 0.967731 0.000000
O O10 0.500000 0.000000 0.000000
#
# Coordination Sequence:
#
# PCOD9398040 Si02
#       6
#     8   2   8   4   4   8
#     4  12  26  46  77 108 149 196 252 308 381 456
#     4  12  28  52  82 102 158 184 250 328 396 446
#     4  12  27  53  75 111 146 192 253 323 384 457
#     4  11  23  42  66 104 152 196 234 296 356 434
#     4  11  24  40  71 110 146 194 243 290 371 446
#     4  12  24  45  68 104 149 189 238 298 354 440
#
# _framework density 20.846316999999999
#
# number of rings (size 3 to 8) (size 9 to 14) (size 15 to 20)
#    0.000    0.235    4.706    4.588    3.294    1.882 
#    0.000    0.000    0.000    0.000    0.000    0.000 
#    0.000    0.000    0.000    0.000    0.000    0.000 
#
# Total GULP energy -189884.845681 kJ/mol
# GULP energy per Si atom -5584.848402 kJ/mol
# Density = 2.079887 g / cm^3
# Si number density = 20.846317 Si / 1000 Ang^3
#
#
#
# Elastic Constant Matrix: (Units=GPa)
#
#
# Indices 1 2 3 4 5 6 
#
# 1 136.4623 30.8578 49.3194 0.0000 0.0000 0.0000
# 2 30.8578 129.2567 60.5900 0.0000 0.0000 0.0000
# 3 49.3194 60.5900 116.9184 0.0000 0.0000 0.0000
# 4 0.0000 0.0000 0.0000 25.0068 0.0000 0.0000
# 5 0.0000 0.0000 0.0000 0.0000 8.8375 0.0000
# 6 0.0000 0.0000 0.0000 0.0000 0.0000 62.3701
#
#
#
# Elastic Compliance Matrix: (Units=1/GPa)
#
#
# Indices 1 2 3 4 5 6 
#
# 1 0.008668 -0.000469 -0.003413 0.000000 0.000000 0.000000
# 2 -0.000469 0.010244 -0.005111 0.000000 0.000000 0.000000
# 3 -0.003413 -0.005111 0.012641 0.000000 0.000000 0.000000
# 4 0.000000 0.000000 0.000000 0.039989 0.000000 0.000000
# 5 0.000000 0.000000 0.000000 0.000000 0.113154 0.000000
# 6 0.000000 0.000000 0.000000 0.000000 0.000000 0.016033
#
#
# Mechanical properties :
#
#
# Convention : Reuss Voigt Hill
#
# Bulk Modulus (GPa) = 73.70969 73.79688 73.75328
# Shear Modulus (GPa) = 22.39756 35.36758 28.88257
#
# Velocity S-wave (km/s) = 3.28138 4.12343 3.72627
# Velocity P-wave (km/s) = 7.05634 7.62545 7.34641
#
# Compressibility (1/GPa) = 0.01356674
#
# Stress axis : x y z
#
# Youngs Moduli (GPa) = 115.37105 97.61468 79.10598
#
# Poissons Ratio (x) = 0.04582 0.26999
# Poissons Ratio (y) = 0.05415 0.40430
# Poissons Ratio (z) = 0.39376 0.49890
#
# Static dielectric constant tensor:
#      x y z
#    x 1.714640 0.000000 0.000000 
#    y 0.000000 1.837900 0.000000 
#    z 0.000000 0.000000 1.757150 
# 
# From -- ./inp_files/18552.got.cif
#   From: 2010.05.17/outbox.cif.g08.bks.cpg/sg50_10_cif.got.tgz:18552.got - 2010.06.03 11:33:33.
