data_PCOD9398871
_publ_section_title
;
Structure prediction by ZEFSAII (Michael W. Deem and Ramdas Pophale) SiO2 
 PCOD9398871
Probable space group: P M M A
;
_chemical_formula_sum "Si O2"
_cell_formula_units_Z 64
_cell_length_a 21.099615
_cell_length_b 7.315827
_cell_length_c 18.669322
_cell_angle_alpha 90.000000
_cell_angle_beta 90.000000
_cell_angle_gamma 90.000000
_cell_volume 2881.817698
_symmetry_space_group_name_H-M "P M M A"
_symmetry_group_IT_number 51
_symmetry_cell_setting 'orthorhombic'
loop_
_space_group_symop_operation_xyz
x,y,z
1/2-x,-y,z
1/2+x,-y,-z
-x,y,-z
-x,-y,-z
1/2+x,y,-z
1/2-x,y,z
x,-y,z
loop_
_atom_site_type_symbol
_atom_site_label
_atom_site_fract_x
_atom_site_fract_y
_atom_site_fract_z
Si Si1 0.821433 0.213479 0.759328
Si Si2 0.431507 0.288193 0.511503
Si Si3 0.317866 0.221023 0.926773
Si Si4 0.559817 0.778971 0.323638
Si Si5 0.820741 0.279058 0.590651
Si Si6 0.317069 0.778990 0.758521
Si Si7 0.040761 0.222589 0.931513
Si Si8 0.539479 0.223417 0.791241
O O1 0.750000 0.288748 0.774204
O O2 0.831096 0.225637 0.673318
O O3 0.887118 0.285734 0.793463
O O4 0.818629 0.000000 0.779113
O O5 0.500000 0.201114 0.500000
O O6 0.435876 0.500000 0.488417
O O7 0.424847 0.282398 0.596534
O O8 0.374542 0.212056 0.463783
O O9 0.250000 0.285120 0.957732
O O10 0.316563 0.262724 0.842235
O O11 0.387558 0.285692 0.947343
O O12 0.317685 0.000000 0.935008
O O13 0.618933 0.714497 0.276537
O O14 0.495502 0.721635 0.282968
O O15 0.558425 0.000000 0.324655
O O16 0.750000 0.217547 0.570001
O O17 0.820247 0.500000 0.589005
O O18 0.250000 0.716728 0.726506
O O19 0.318182 0.000000 0.753467
O O20 0.005291 0.279479 0.858075
O O21 0.043683 0.000000 0.926561
O O22 0.000000 0.272349 0.000000
O O23 0.540807 0.000000 0.792018
#
# Coordination Sequence:
#
# PCOD9398871 Si02
#       8
#     8   8   8   8   8   8   8   8
#     4   9  17  29  46  66  87 114 146 182 225 267
#     4  10  21  34  45  61  88 117 143 176 222 268
#     4   8  12  20  34  51  76 110 144 176 211 253
#     4  10  18  28  45  65  84 110 146 184 219 257
#     4   9  18  33  50  65  85 116 150 182 218 263
#     4   8  13  22  37  58  82 105 132 171 215 252
#     4   9  15  23  36  56  84 119 153 181 216 267
#     4   9  16  27  41  60  86 113 145 183 220 260
#
# _framework density 22.208207000000002
#
# number of rings (size 3 to 8) (size 9 to 14) (size 15 to 20)
#    0.000    3.000    1.250    1.500    0.000    1.250 
#    0.000    0.625    0.000    3.750    0.000    0.000 
#    0.000    2.000    0.000    0.000    0.750    0.250 
#
# Total GULP energy -356729.545724 kJ/mol
# GULP energy per Si atom -5573.899152 kJ/mol
# Density = 2.215766 g / cm^3
# Si number density = 22.208207 Si / 1000 Ang^3
#
#
#
# Elastic Constant Matrix: (Units=GPa)
#
#
# Indices 1 2 3 4 5 6 
#
# 1 226.1480 6.6661 40.4026 0.0000 0.0000 0.0000
# 2 6.6661 87.0389 -8.0531 0.0000 0.0000 0.0000
# 3 40.4026 -8.0531 30.2751 0.0000 0.0000 0.0000
# 4 0.0000 0.0000 0.0000 -1.7614 0.0000 0.0000
# 5 0.0000 0.0000 0.0000 0.0000 29.6483 0.0000
# 6 0.0000 0.0000 0.0000 0.0000 0.0000 -29.6733
#
#
#
# Elastic Compliance Matrix: (Units=1/GPa)
#
#
# Indices 1 2 3 4 5 6 
#
# 1 0.005929 -0.001216 -0.008236 0.000000 0.000000 0.000000
# 2 -0.001216 0.012028 0.004822 0.000000 0.000000 0.000000
# 3 -0.008236 0.004822 0.045304 0.000000 0.000000 0.000000
# 4 0.000000 0.000000 0.000000 -0.567743 0.000000 0.000000
# 5 0.000000 0.000000 0.000000 0.000000 0.033729 0.000000
# 6 0.000000 0.000000 0.000000 0.000000 0.000000 -0.033700
#
#
# Mechanical properties :
#
#
# Convention : Reuss Voigt Hill
#
# Bulk Modulus (GPa) = 18.51766 46.83257 32.67512
# Shear Modulus (GPa) = -10.47796 19.93917 4.73060
#
# Velocity S-wave (km/s) = -2.17447 2.99963 1.46107
# Velocity P-wave (km/s) = 1.43245 5.75593 4.19420
#
# Compressibility (1/GPa) = 0.05400249
#
# Stress axis : x y z
#
# Youngs Moduli (GPa) = 168.65848 83.13625 22.07299
#
# Poissons Ratio (x) = 0.10110 0.18179
# Poissons Ratio (y) = 0.20511 -0.10645
# Poissons Ratio (z) = 1.38907 -0.40092
#
# Static dielectric constant tensor:
#      x y z
#    x 1.896870 0.000000 0.000000 
#    y 0.000000 1.864510 0.000000 
#    z 0.000000 0.000000 1.794400 
# 
# From -- ./inp_files/30701.got.cif
#   From: 2010.05.17/outbox.cif.g08.bks.cpg/sg51_16_cif.got.tgz:30701.got - 2010.06.03 11:52:47.
