data_PCOD9398041
_publ_section_title
;
Structure prediction by ZEFSAII (Michael W. Deem and Ramdas Pophale) SiO2 
 PCOD9398041
Probable space group: P B A N
;
_chemical_formula_sum "Si O2"
_cell_formula_units_Z 28
_cell_length_a 8.060543
_cell_length_b 20.352757
_cell_length_c 8.787318
_cell_angle_alpha 90.000000
_cell_angle_beta 90.000000
_cell_angle_gamma 90.000000
_cell_volume 1441.597066
_symmetry_space_group_name_H-M "P B A N"
_symmetry_group_IT_number 50
_space_group.IT_coordinate_system_code '2'
_symmetry_cell_setting 'orthorhombic'
loop_
_space_group_symop_operation_xyz
x,y,z
1/2-x,1/2-y,z
x,1/2-y,-z
1/2-x,y,-z
-x,-y,-z
1/2+x,1/2+y,-z
-x,1/2+y,z
1/2+x,-y,z
loop_
_atom_site_type_symbol
_atom_site_label
_atom_site_fract_x
_atom_site_fract_y
_atom_site_fract_z
Si Si1 0.466621 0.522607 0.675195
Si Si2 0.218232 0.404933 0.177991
Si Si3 0.750000 0.109134 0.500000
Si Si4 0.908299 0.678670 0.579023
O O1 0.500000 0.500000 0.500000
O O2 0.417188 0.460430 0.776585
O O3 0.611721 0.566778 0.746281
O O4 0.303032 0.566554 0.646396
O O5 0.146029 0.336655 0.248240
O O6 0.250000 0.399707 0.000000
O O7 0.586596 0.149223 0.456856
O O8 0.912686 0.750000 0.500000
O O9 0.750000 0.643297 0.500000
#
# Coordination Sequence:
#
# PCOD9398041 Si02
#       4
#     8   8   4   8
#     4  12  20  37  66  98 133 172 219 265 326 418
#     4  12  23  39  63 105 143 171 212 287 349 388
#     4  12  21  38  70  96 123 162 240 270 310 388
#     4  11  23  42  66  92 123 177 235 267 318 402
#
# _framework density 19.422902000000001
#
# number of rings (size 3 to 8) (size 9 to 14) (size 15 to 20)
#    0.000    0.286    8.571    1.286    0.000    0.000 
#    0.000    2.857    0.000    0.000   14.857    0.000 
#    0.000    0.000    0.000    0.000    0.000    0.000 
#
# Total GULP energy -155955.628202 kJ/mol
# GULP energy per Si atom -5569.843864 kJ/mol
# Density = 1.937869 g / cm^3
# Si number density = 19.422902 Si / 1000 Ang^3
#
#
#
# Elastic Constant Matrix: (Units=GPa)
#
#
# Indices 1 2 3 4 5 6 
#
# 1 139.1668 43.6937 47.5500 0.0000 0.0000 0.0000
# 2 43.6937 104.0543 63.9870 0.0000 0.0000 0.0000
# 3 47.5500 63.9870 163.9258 0.0000 0.0000 0.0000
# 4 0.0000 0.0000 0.0000 23.4866 0.0000 0.0000
# 5 0.0000 0.0000 0.0000 0.0000 28.0626 0.0000
# 6 0.0000 0.0000 0.0000 0.0000 0.0000 41.0436
#
#
#
# Elastic Compliance Matrix: (Units=1/GPa)
#
#
# Indices 1 2 3 4 5 6 
#
# 1 0.008519 -0.002708 -0.001414 0.000000 0.000000 0.000000
# 2 -0.002708 0.013506 -0.004487 0.000000 0.000000 0.000000
# 3 -0.001414 -0.004487 0.008262 0.000000 0.000000 0.000000
# 4 0.000000 0.000000 0.000000 0.042578 0.000000 0.000000
# 5 0.000000 0.000000 0.000000 0.000000 0.035635 0.000000
# 6 0.000000 0.000000 0.000000 0.000000 0.000000 0.024364
#
#
# Mechanical properties :
#
#
# Convention : Reuss Voigt Hill
#
# Bulk Modulus (GPa) = 76.50981 79.73423 78.12202
# Shear Modulus (GPa) = 32.37561 35.31297 33.84429
#
# Velocity S-wave (km/s) = 4.08717 4.26856 4.17885
# Velocity P-wave (km/s) = 7.85814 8.08918 7.97450
#
# Compressibility (1/GPa) = 0.01307022
#
# Stress axis : x y z
#
# Youngs Moduli (GPa) = 117.38606 74.03929 121.03772
#
# Poissons Ratio (x) = 0.20046 0.17117
# Poissons Ratio (y) = 0.31783 0.54306
# Poissons Ratio (z) = 0.16601 0.33219
#
# Static dielectric constant tensor:
#      x y z
#    x 1.739010 0.000000 0.000000 
#    y 0.000000 1.818890 0.000000 
#    z 0.000000 0.000000 1.696380 
# 
# From -- ./inp_files/8951.got.cif
#   From: 2010.05.17/outbox.cif.g08.bks.cpg/sg50_5_cif.got.tgz:8951.got - 2010.06.03 11:33:33.
