data_PCOD9398731
_publ_section_title
;
Structure prediction by ZEFSAII (Michael W. Deem and Ramdas Pophale) SiO2 
 PCOD9398731
Probable space group: P M M A
;
_chemical_formula_sum "Si O2"
_cell_formula_units_Z 64
_cell_length_a 19.600196
_cell_length_b 7.735924
_cell_length_c 22.532236
_cell_angle_alpha 90.000000
_cell_angle_beta 90.000000
_cell_angle_gamma 90.000000
_cell_volume 3416.464403
_symmetry_space_group_name_H-M "P M M A"
_symmetry_group_IT_number 51
_symmetry_cell_setting 'orthorhombic'
loop_
_space_group_symop_operation_xyz
x,y,z
1/2-x,-y,z
1/2+x,-y,-z
-x,y,-z
-x,-y,-z
1/2+x,y,-z
1/2-x,y,z
x,-y,z
loop_
_atom_site_type_symbol
_atom_site_label
_atom_site_fract_x
_atom_site_fract_y
_atom_site_fract_z
Si Si1 0.588849 0.707786 0.351850
Si Si2 0.058675 0.293206 0.308761
Si Si3 0.527938 0.712397 0.063925
Si Si4 0.381687 0.203449 0.774208
Si Si5 0.176732 0.707212 0.895296
Si Si6 0.672096 0.707565 0.464062
Si Si7 0.029050 0.303489 0.184402
Si Si8 0.327296 0.794226 0.403065
O O1 0.584485 0.500000 0.356553
O O2 0.512226 0.773233 0.337661
O O3 0.633564 0.750866 0.293665
O O4 0.623229 0.774006 0.411998
O O5 0.050538 0.500000 0.302060
O O6 0.067229 0.223622 0.241316
O O7 0.121257 0.263164 0.352243
O O8 0.528042 0.500000 0.066434
O O9 0.605992 0.770501 0.075613
O O10 0.480383 0.773554 0.118786
O O11 0.500000 0.763731 0.000000
O O12 0.329080 0.251691 0.825328
O O13 0.450861 0.303819 0.791831
O O14 0.395783 0.000000 0.777947
O O15 0.250000 0.772758 0.917844
O O16 0.176415 0.500000 0.902227
O O17 0.750000 0.773742 0.458317
O O18 0.674948 0.500000 0.458137
O O19 0.648334 0.745454 0.530855
O O20 0.054024 0.500000 0.176207
O O21 0.250000 0.724200 0.396017
O O22 0.323737 0.000000 0.400625
#
# Coordination Sequence:
#
# PCOD9398731 Si02
#       8
#     8   8   8   8   8   8   8   8
#     4   9  18  32  48  69  96 123 153 187 226 274
#     4   9  17  30  49  69  91 120 152 189 227 269
#     4   8  13  24  46  72  94 118 150 187 225 266
#     4  10  18  27  42  65  92 120 150 186 226 265
#     4   9  17  29  44  62  88 124 161 192 225 271
#     4   9  18  33  51  67  86 118 156 188 223 277
#     4   8  15  29  47  68  94 121 148 180 223 272
#     4  10  21  35  49  66  89 116 149 194 244 286
#
# _framework density 18.732817000000001
#
# number of rings (size 3 to 8) (size 9 to 14) (size 15 to 20)
#    0.000    3.000    0.000    3.000    0.000    4.500 
#    0.000    3.750    0.000    6.750    0.000    3.500 
#    0.000    0.000    0.000    0.000    0.000    0.000 
#
# Total GULP energy -356370.487417 kJ/mol
# GULP energy per Si atom -5568.288866 kJ/mol
# Density = 1.869018 g / cm^3
# Si number density = 18.732817 Si / 1000 Ang^3
#
#
#
# Elastic Constant Matrix: (Units=GPa)
#
#
# Indices 1 2 3 4 5 6 
#
# 1 75.1320 0.1422 78.8311 0.0000 0.0000 0.0000
# 2 0.1422 31.4440 -3.0762 0.0000 0.0000 0.0000
# 3 78.8311 -3.0762 188.6797 0.0000 0.0000 0.0000
# 4 0.0000 0.0000 0.0000 -24.3433 0.0000 0.0000
# 5 0.0000 0.0000 0.0000 0.0000 14.6461 0.0000
# 6 0.0000 0.0000 0.0000 0.0000 0.0000 -2.0831
#
#
#
# Elastic Compliance Matrix: (Units=1/GPa)
#
#
# Indices 1 2 3 4 5 6 
#
# 1 0.023735 -0.001079 -0.009934 0.000000 0.000000 0.000000
# 2 -0.001079 0.031902 0.000971 0.000000 0.000000 0.000000
# 3 -0.009934 0.000971 0.009466 0.000000 0.000000 0.000000
# 4 0.000000 0.000000 0.000000 -0.041079 0.000000 0.000000
# 5 0.000000 0.000000 0.000000 0.000000 0.068277 0.000000
# 6 0.000000 0.000000 0.000000 0.000000 0.000000 -0.480043
#
#
# Mechanical properties :
#
#
# Convention : Reuss Voigt Hill
#
# Bulk Modulus (GPa) = 22.21273 49.67222 35.94247
# Shear Modulus (GPa) = -14.17841 12.26784 -0.95528
#
# Velocity S-wave (km/s) = -2.75412 2.56185 -0.71488
# Velocity P-wave (km/s) = 1.33034 5.94344 4.30664
#
# Compressibility (1/GPa) = 0.04501923
#
# Stress axis : x y z
#
# Youngs Moduli (GPa) = 42.13122 31.34554 105.63663
#
# Poissons Ratio (x) = 0.03383 1.04943
# Poissons Ratio (y) = 0.04547 -0.10258
# Poissons Ratio (z) = 0.41854 -0.03044
#
# Static dielectric constant tensor:
#      x y z
#    x 1.677990 0.000000 0.000000 
#    y 0.000000 1.682310 0.000000 
#    z 0.000000 0.000000 1.677230 
# 
# From -- ./inp_files/34149.got.cif
#   From: 2010.05.17/outbox.cif.g08.bks.cpg/sg51_18_cif.got.tgz:34149.got - 2010.06.03 11:52:47.
