data_PCOD9398911
_publ_section_title
;
Structure prediction by ZEFSAII (Michael W. Deem and Ramdas Pophale) SiO2 
 PCOD9398911
Probable space group: P M M A
;
_chemical_formula_sum "Si O2"
_cell_formula_units_Z 40
_cell_length_a 11.121647
_cell_length_b 7.283295
_cell_length_c 19.855269
_cell_angle_alpha 90.000000
_cell_angle_beta 90.000000
_cell_angle_gamma 90.000000
_cell_volume 1608.321185
_symmetry_space_group_name_H-M "P M M A"
_symmetry_group_IT_number 51
_symmetry_cell_setting 'orthorhombic'
loop_
_space_group_symop_operation_xyz
x,y,z
1/2-x,-y,z
1/2+x,-y,-z
-x,y,-z
-x,-y,-z
1/2+x,y,-z
1/2-x,y,z
x,-y,z
loop_
_atom_site_type_symbol
_atom_site_label
_atom_site_fract_x
_atom_site_fract_y
_atom_site_fract_z
Si Si1 0.250000 0.781965 0.312986
Si Si2 0.511044 0.275533 0.170708
Si Si3 0.121033 0.723122 0.964083
Si Si4 0.618502 0.275711 0.460373
Si Si5 0.750000 0.705900 0.843862
Si Si6 0.481323 0.285979 0.677159
O O1 0.250000 0.696692 0.238136
O O2 0.122250 0.727631 0.344267
O O3 0.250000 0.000000 0.305724
O O4 0.503329 0.500000 0.173345
O O5 0.607789 0.228633 0.114714
O O6 0.380496 0.212295 0.143377
O O7 0.530041 0.210249 0.247091
O O8 0.250000 0.784564 0.991425
O O9 0.119920 0.500000 0.968101
O O10 0.000000 0.786473 0.000000
O O11 0.500000 0.215260 0.500000
O O12 0.750000 0.218722 0.486016
O O13 0.617090 0.500000 0.461435
O O14 0.599372 0.214295 0.383174
O O15 0.750000 0.500000 0.873112
O O16 0.451322 0.500000 0.683145
#
# Coordination Sequence:
#
# PCOD9398911 Si02
#       6
#     4   8   8   8   4   8
#     4  10  18  28  46  74 104 130 163 202 244 292
#     4   8  14  24  39  58  82 117 157 192 228 279
#     4   9  17  25  34  53  85 126 162 192 232 283
#     4   9  18  30  47  75 104 128 160 206 252 292
#     4   8  14  26  44  66  92 124 159 196 244 290
#     4   9  17  30  49  72  99 131 164 201 248 292
#
# _framework density 24.870652
#
# number of rings (size 3 to 8) (size 9 to 14) (size 15 to 20)
#    0.000    3.200    0.000    2.100    2.800    0.800 
#    0.000    4.000    0.000    1.200    0.000    0.000 
#    0.000   12.800    0.000    0.000    0.000    3.200 
#
# Total GULP energy -223341.082482 kJ/mol
# GULP energy per Si atom -5583.527062 kJ/mol
# Density = 2.481405 g / cm^3
# Si number density = 24.870652 Si / 1000 Ang^3
#
#
#
# Elastic Constant Matrix: (Units=GPa)
#
#
# Indices 1 2 3 4 5 6 
#
# 1 194.9508 -6.4627 77.1303 0.0000 0.0000 0.0000
# 2 -6.4627 110.5393 4.7077 0.0000 0.0000 0.0000
# 3 77.1303 4.7077 107.8788 0.0000 0.0000 0.0000
# 4 0.0000 0.0000 0.0000 -44.7801 0.0000 0.0000
# 5 0.0000 0.0000 0.0000 0.0000 43.9205 0.0000
# 6 0.0000 0.0000 0.0000 0.0000 0.0000 -50.5187
#
#
#
# Elastic Compliance Matrix: (Units=1/GPa)
#
#
# Indices 1 2 3 4 5 6 
#
# 1 0.007198 0.000641 -0.005174 0.000000 0.000000 0.000000
# 2 0.000641 0.009121 -0.000856 0.000000 0.000000 0.000000
# 3 -0.005174 -0.000856 0.013007 0.000000 0.000000 0.000000
# 4 0.000000 0.000000 0.000000 -0.022331 0.000000 0.000000
# 5 0.000000 0.000000 0.000000 0.000000 0.022768 0.000000
# 6 0.000000 0.000000 0.000000 0.000000 0.000000 -0.019795
#
#
# Mechanical properties :
#
#
# Convention : Reuss Voigt Hill
#
# Bulk Modulus (GPa) = 53.92038 62.67995 58.30016
# Shear Modulus (GPa) = 185.67740 12.25722 98.96731
#
# Velocity S-wave (km/s) = 8.64982 2.22241 6.31500
# Velocity P-wave (km/s) = 11.02209 5.64292 8.75583
#
# Compressibility (1/GPa) = 0.01854586
#
# Stress axis : x y z
#
# Youngs Moduli (GPa) = 138.92921 109.64286 76.88458
#
# Poissons Ratio (x) = -0.07030 0.39782
# Poissons Ratio (y) = -0.08908 0.06585
# Poissons Ratio (z) = 0.71886 0.09390
#
# Static dielectric constant tensor:
#      x y z
#    x 1.960030 0.000000 0.000000 
#    y 0.000000 2.239100 0.000000 
#    z 0.000000 0.000000 1.958680 
# 
# From -- ./inp_files/32852.got.cif
#   From: 2010.05.17/outbox.cif.g08.bks.cpg/sg51_17_cif.got.tgz:32852.got - 2010.06.03 11:52:47.
