data_PCOD9398901
_publ_section_title
;
Structure prediction by ZEFSAII (Michael W. Deem and Ramdas Pophale) SiO2 
 PCOD9398901
Probable space group: P M M A
;
_chemical_formula_sum "Si O2"
_cell_formula_units_Z 40
_cell_length_a 20.350942
_cell_length_b 9.233329
_cell_length_c 13.067641
_cell_angle_alpha 90.000000
_cell_angle_beta 90.000000
_cell_angle_gamma 90.000000
_cell_volume 2455.500472
_symmetry_space_group_name_H-M "P M M A"
_symmetry_group_IT_number 51
_symmetry_cell_setting 'orthorhombic'
loop_
_space_group_symop_operation_xyz
x,y,z
1/2-x,-y,z
1/2+x,-y,-z
-x,y,-z
-x,-y,-z
1/2+x,y,-z
1/2-x,y,z
x,-y,z
loop_
_atom_site_type_symbol
_atom_site_label
_atom_site_fract_x
_atom_site_fract_y
_atom_site_fract_z
Si Si1 0.174474 0.173958 0.113344
Si Si2 0.092418 0.827346 0.312114
Si Si3 0.420450 0.666704 0.514034
Si Si4 0.045809 0.325684 0.732725
Si Si5 0.426428 0.326711 0.962664
O O1 0.250000 0.219658 0.102834
O O2 0.146301 0.207501 0.226239
O O3 0.171194 0.000000 0.101513
O O4 0.127359 0.247348 0.030562
O O5 0.108149 0.764565 0.424246
O O6 0.023991 0.754314 0.276574
O O7 0.084169 0.000000 0.317606
O O8 0.500000 0.670496 0.500000
O O9 0.399709 0.500000 0.500670
O O10 0.411598 0.711744 0.632123
O O11 0.034002 0.500000 0.728077
O O12 0.077573 0.292901 0.842002
O O13 0.419762 0.500000 0.975649
O O14 0.500000 0.287378 0.000000
#
# Coordination Sequence:
#
# PCOD9398901 Si02
#       5
#     8   8   8   8   8
#     4  10  22  37  50  69 101 137 169 205 253 303
#     4  10  18  28  46  70  96 126 164 204 241 287
#     4   8  15  27  44  66  96 128 152 185 241 295
#     4   9  17  30  47  71 101 128 154 197 253 297
#     4  10  19  32  53  77 100 128 168 212 251 298
#
# _framework density 16.289960000000001
#
# number of rings (size 3 to 8) (size 9 to 14) (size 15 to 20)
#    0.000    2.600    2.000    1.800    0.000    6.000 
#    0.000    0.000    0.000    1.200    0.000    5.600 
#    0.000    0.000    0.000    0.000    0.000    0.000 
#
# Total GULP energy -222879.010457 kJ/mol
# GULP energy per Si atom -5571.975261 kJ/mol
# Density = 1.625288 g / cm^3
# Si number density = 16.289960 Si / 1000 Ang^3
#
#
#
# Elastic Constant Matrix: (Units=GPa)
#
#
# Indices 1 2 3 4 5 6 
#
# 1 87.9408 39.4101 70.5512 0.0000 0.0000 0.0000
# 2 39.4101 35.5088 57.0461 0.0000 0.0000 0.0000
# 3 70.5512 57.0461 180.1240 0.0000 0.0000 0.0000
# 4 0.0000 0.0000 0.0000 28.5363 0.0000 0.0000
# 5 0.0000 0.0000 0.0000 0.0000 15.9506 0.0000
# 6 0.0000 0.0000 0.0000 0.0000 0.0000 12.1968
#
#
#
# Elastic Compliance Matrix: (Units=1/GPa)
#
#
# Indices 1 2 3 4 5 6 
#
# 1 0.022931 -0.022437 -0.001876 0.000000 0.000000 0.000000
# 2 -0.022437 0.079286 -0.016322 0.000000 0.000000 0.000000
# 3 -0.001876 -0.016322 0.011456 0.000000 0.000000 0.000000
# 4 0.000000 0.000000 0.000000 0.035043 0.000000 0.000000
# 5 0.000000 0.000000 0.000000 0.000000 0.062694 0.000000
# 6 0.000000 0.000000 0.000000 0.000000 0.000000 0.081989
#
#
# Mechanical properties :
#
#
# Convention : Reuss Voigt Hill
#
# Bulk Modulus (GPa) = 30.86111 70.84316 50.85213
# Shear Modulus (GPa) = 12.97119 20.44116 16.70617
#
# Velocity S-wave (km/s) = 2.82489 3.54620 3.20590
# Velocity P-wave (km/s) = 5.44297 7.76857 6.70733
#
# Compressibility (1/GPa) = 0.03240325
#
# Stress axis : x y z
#
# Youngs Moduli (GPa) = 43.60886 12.61252 87.29225
#
# Poissons Ratio (x) = 0.28299 0.16374
# Poissons Ratio (y) = 0.97845 1.42480
# Poissons Ratio (z) = 0.08180 0.20586
#
# Static dielectric constant tensor:
#      x y z
#    x 1.510670 0.000000 0.000000 
#    y 0.000000 1.543070 0.000000 
#    z 0.000000 0.000000 1.584430 
# 
# From -- ./inp_files/24549.got.cif
#   From: 2010.05.17/outbox.cif.g08.bks.cpg/sg51_13_cif.got.tgz:24549.got - 2010.06.03 11:52:47.
