data_PCOD9398285
_publ_section_title
;
Structure prediction by ZEFSAII (Michael W. Deem and Ramdas Pophale) SiO2 
 PCOD9398285
Probable space group: P B A N
;
_chemical_formula_sum "Si O2"
_cell_formula_units_Z 26
_cell_length_a 23.419116
_cell_length_b 8.715391
_cell_length_c 5.264340
_cell_angle_alpha 90.000000
_cell_angle_beta 90.000000
_cell_angle_gamma 90.000000
_cell_volume 1074.487343
_symmetry_space_group_name_H-M "P B A N"
_symmetry_group_IT_number 50
_space_group.IT_coordinate_system_code '2'
_symmetry_cell_setting 'orthorhombic'
loop_
_space_group_symop_operation_xyz
x,y,z
1/2-x,1/2-y,z
x,1/2-y,-z
1/2-x,y,-z
-x,-y,-z
1/2+x,1/2+y,-z
-x,1/2+y,z
1/2+x,-y,z
loop_
_atom_site_type_symbol
_atom_site_label
_atom_site_fract_x
_atom_site_fract_y
_atom_site_fract_z
Si Si1 0.149226 0.148344 0.745096
Si Si2 0.250000 0.750000 0.000000
Si Si3 0.835084 0.412443 0.382165
Si Si4 0.563585 0.064855 0.020058
O O1 0.135378 0.250000 0.500000
O O2 0.189628 0.024652 0.600084
O O3 0.164979 0.250000 0.000000
O O4 0.097493 0.036671 0.815834
O O5 0.209163 0.638102 0.836262
O O6 0.849450 0.250000 0.500000
O O7 0.894627 0.467446 0.258397
O O8 0.562602 0.250000 0.000000
O O9 0.500000 0.000000 0.000000
#
# Coordination Sequence:
#
# PCOD9398285 Si02
#       4
#     8   2   8   8
#     4  12  26  48  79 121 171 212 271 350 428 513
#     4  12  26  52  92 132 148 234 306 368 420 522
#     4  12  25  50  86 125 166 219 299 356 425 521
#     4  12  26  47  78 128 167 229 281 351 429 517
#
# _framework density 24.197588
#
# number of rings (size 3 to 8) (size 9 to 14) (size 15 to 20)
#    0.000    0.000    7.692    1.385    0.000    2.462 
#    0.000    0.000    0.000   25.846    0.000    0.000 
#    0.000    0.000    0.000    0.000    0.000    0.000 
#
# Total GULP energy -144842.248266 kJ/mol
# GULP energy per Si atom -5570.855703 kJ/mol
# Density = 2.414251 g / cm^3
# Si number density = 24.197588 Si / 1000 Ang^3
#
#
#
# Elastic Constant Matrix: (Units=GPa)
#
#
# Indices 1 2 3 4 5 6 
#
# 1 134.7886 20.8449 71.8882 0.0000 0.0000 0.0000
# 2 20.8449 154.3554 88.6727 0.0000 0.0000 0.0000
# 3 71.8882 88.6727 217.6863 0.0000 0.0000 0.0000
# 4 0.0000 0.0000 0.0000 87.0842 0.0000 0.0000
# 5 0.0000 0.0000 0.0000 0.0000 97.3333 0.0000
# 6 0.0000 0.0000 0.0000 0.0000 0.0000 2.5601
#
#
#
# Elastic Compliance Matrix: (Units=1/GPa)
#
#
# Indices 1 2 3 4 5 6 
#
# 1 0.009054 0.000646 -0.003253 0.000000 0.000000 0.000000
# 2 0.000646 0.008504 -0.003677 0.000000 0.000000 0.000000
# 3 -0.003253 -0.003677 0.007166 0.000000 0.000000 0.000000
# 4 0.000000 0.000000 0.000000 0.011483 0.000000 0.000000
# 5 0.000000 0.000000 0.000000 0.000000 0.010274 0.000000
# 6 0.000000 0.000000 0.000000 0.000000 0.000000 0.390605
#
#
# Mechanical properties :
#
#
# Convention : Reuss Voigt Hill
#
# Bulk Modulus (GPa) = 82.26928 96.62688 89.44808
# Shear Modulus (GPa) = 11.02033 59.09050 35.05541
#
# Velocity S-wave (km/s) = 2.13640 4.94702 3.81033
# Velocity P-wave (km/s) = 6.33706 8.52349 7.51027
#
# Compressibility (1/GPa) = 0.01215521
#
# Stress axis : x y z
#
# Youngs Moduli (GPa) = 110.44621 117.59413 139.54687
#
# Poissons Ratio (x) = -0.07599 0.45398
# Poissons Ratio (y) = -0.07137 0.51316
# Poissons Ratio (z) = 0.35931 0.43244
#
# Static dielectric constant tensor:
#      x y z
#    x 1.908170 0.000000 0.000000 
#    y 0.000000 2.104310 0.000000 
#    z 0.000000 0.000000 2.225070 
# 
# From -- ./inp_files/5667.got.cif
#   From: 2010.05.17/outbox.cif.g08.bks.cpg/sg50_3_cif.got.tgz:5667.got - 2010.06.03 11:33:33.
