data_PCOD9398249
_publ_section_title
;
Structure prediction by ZEFSAII (Michael W. Deem and Ramdas Pophale) SiO2 
 PCOD9398249
Probable space group: P B A N
;
_chemical_formula_sum "Si O2"
_cell_formula_units_Z 20
_cell_length_a 9.687169
_cell_length_b 13.025222
_cell_length_c 7.138241
_cell_angle_alpha 90.000000
_cell_angle_beta 90.000000
_cell_angle_gamma 90.000000
_cell_volume 900.685595
_symmetry_space_group_name_H-M "P B A N"
_symmetry_group_IT_number 50
_space_group.IT_coordinate_system_code '2'
_symmetry_cell_setting 'orthorhombic'
loop_
_space_group_symop_operation_xyz
x,y,z
1/2-x,1/2-y,z
x,1/2-y,-z
1/2-x,y,-z
-x,-y,-z
1/2+x,1/2+y,-z
-x,1/2+y,z
1/2+x,-y,z
loop_
_atom_site_type_symbol
_atom_site_label
_atom_site_fract_x
_atom_site_fract_y
_atom_site_fract_z
Si Si1 0.089681 0.941772 0.836181
Si Si2 0.750000 0.250000 0.000000
Si Si3 0.750000 0.750000 0.000000
Si Si4 0.821441 0.903148 0.690930
O O1 0.979324 0.934977 0.669323
O O2 0.220077 0.009772 0.773488
O O3 0.151555 0.830613 0.890290
O O4 0.000000 0.000000 0.000000
O O5 0.832914 0.680223 0.143706
O O6 0.750000 0.867763 0.500000
#
# Coordination Sequence:
#
# PCOD9398249 Si02
#       4
#     8   2   2   8
#     4  12  23  47  74 105 152 197 251 319 381 453
#     4  12  24  44  84 106 150 214 256 308 404 454
#     4  12  22  44  68  98 146 192 244 310 374 444
#     4  12  26  45  73 107 148 200 253 312 384 458
#
# _framework density 22.205307000000001
#
# number of rings (size 3 to 8) (size 9 to 14) (size 15 to 20)
#    0.000    0.000    8.000    3.000    0.000    0.000 
#    0.000    1.000    0.000    0.000    0.000    0.000 
#    0.000    0.000    0.000    0.000    0.000    0.000 
#
# Total GULP energy -111604.092528 kJ/mol
# GULP energy per Si atom -5580.204626 kJ/mol
# Density = 2.215477 g / cm^3
# Si number density = 22.205307 Si / 1000 Ang^3
#
#
#
# Elastic Constant Matrix: (Units=GPa)
#
#
# Indices 1 2 3 4 5 6 
#
# 1 198.1056 72.1774 45.2962 0.0000 0.0000 0.0000
# 2 72.1774 156.4813 62.6360 0.0000 0.0000 0.0000
# 3 45.2962 62.6360 126.3736 0.0000 0.0000 0.0000
# 4 0.0000 0.0000 0.0000 29.4005 0.0000 0.0000
# 5 0.0000 0.0000 0.0000 0.0000 19.2269 0.0000
# 6 0.0000 0.0000 0.0000 0.0000 0.0000 30.1409
#
#
#
# Elastic Compliance Matrix: (Units=1/GPa)
#
#
# Indices 1 2 3 4 5 6 
#
# 1 0.006167 -0.002445 -0.000999 0.000000 0.000000 0.000000
# 2 -0.002445 0.008941 -0.003555 0.000000 0.000000 0.000000
# 3 -0.000999 -0.003555 0.010033 0.000000 0.000000 0.000000
# 4 0.000000 0.000000 0.000000 0.034013 0.000000 0.000000
# 5 0.000000 0.000000 0.000000 0.000000 0.052010 0.000000
# 6 0.000000 0.000000 0.000000 0.000000 0.000000 0.033178
#
#
# Mechanical properties :
#
#
# Convention : Reuss Voigt Hill
#
# Bulk Modulus (GPa) = 89.73653 93.46441 91.60047
# Shear Modulus (GPa) = 30.85378 35.81039 33.33208
#
# Velocity S-wave (km/s) = 3.73161 4.02019 3.87859
# Velocity P-wave (km/s) = 7.68547 7.98321 7.83576
#
# Compressibility (1/GPa) = 0.01114373
#
# Stress axis : x y z
#
# Youngs Moduli (GPa) = 162.15691 111.84005 99.66891
#
# Poissons Ratio (x) = 0.27342 0.09954
# Poissons Ratio (y) = 0.39643 0.35437
# Poissons Ratio (z) = 0.16194 0.39764
#
# Static dielectric constant tensor:
#      x y z
#    x 1.959400 0.000000 0.000000 
#    y 0.000000 1.899840 0.000000 
#    z 0.000000 0.000000 1.848110 
# 
# From -- ./inp_files/8272.got.cif
#   From: 2010.05.17/outbox.cif.g08.bks.cpg/sg50_5_cif.got.tgz:8272.got - 2010.06.03 11:33:33.
