data_PCOD9398548
_publ_section_title
;
Structure prediction by ZEFSAII (Michael W. Deem and Ramdas Pophale) SiO2 
 PCOD9398548
Probable space group: P M M A
;
_chemical_formula_sum "Si O2"
_cell_formula_units_Z 36
_cell_length_a 10.474405
_cell_length_b 12.705325
_cell_length_c 18.400627
_cell_angle_alpha 90.000000
_cell_angle_beta 90.000000
_cell_angle_gamma 90.000000
_cell_volume 2448.768684
_symmetry_space_group_name_H-M "P M M A"
_symmetry_group_IT_number 51
_symmetry_cell_setting 'orthorhombic'
loop_
_space_group_symop_operation_xyz
x,y,z
1/2-x,-y,z
1/2+x,-y,-z
-x,y,-z
-x,-y,-z
1/2+x,y,-z
1/2-x,y,z
x,-y,z
loop_
_atom_site_type_symbol
_atom_site_label
_atom_site_fract_x
_atom_site_fract_y
_atom_site_fract_z
Si Si1 0.495623 0.127634 0.673420
Si Si2 0.099704 0.000000 0.934121
Si Si3 0.750000 0.127874 0.587961
Si Si4 0.099940 0.195251 0.825368
Si Si5 0.101775 0.624620 0.937302
Si Si6 0.750000 0.872255 0.421271
O O1 0.624058 0.158461 0.631906
O O2 0.480403 0.176242 0.753056
O O3 0.375652 0.158212 0.623232
O O4 0.493297 0.000000 0.681411
O O5 0.079029 0.897964 0.883539
O O6 0.250000 0.000000 0.957219
O O7 0.000000 0.000000 0.000000
O O8 0.750000 0.164992 0.504544
O O9 0.750000 0.000000 0.585026
O O10 0.250000 0.189560 0.804635
O O11 0.076383 0.304182 0.867028
O O12 0.250000 0.645601 0.959471
O O13 0.091077 0.500000 0.922434
O O14 0.000000 0.651100 0.000000
O O15 0.750000 0.000000 0.423882
#
# Coordination Sequence:
#
# PCOD9398548 Si02
#       6
#     8   4   4   8   8   4
#     4  10  17  28  43  62  91 122 152 180 223 258
#     4  10  20  32  44  62  87 119 152 178 209 265
#     4   9  18  28  38  64  93 118 151 191 214 254
#     4  10  18  30  47  64  89 120 151 179 216 270
#     4   9  18  33  51  68  87 112 148 192 230 263
#     4   9  16  26  46  60  83 124 159 179 212 266
#
# _framework density 14.701266
#
# number of rings (size 3 to 8) (size 9 to 14) (size 15 to 20)
#    0.000    2.444    2.222    1.333    0.000    2.667 
#    4.000    0.000    0.000    0.000    0.000    0.000 
#    0.000    5.333    0.000    0.000    0.000    0.000 
#
# Total GULP energy -200600.404436 kJ/mol
# GULP energy per Si atom -5572.233457 kJ/mol
# Density = 1.466781 g / cm^3
# Si number density = 14.701266 Si / 1000 Ang^3
#
#
#
# Elastic Constant Matrix: (Units=GPa)
#
#
# Indices 1 2 3 4 5 6 
#
# 1 120.9063 27.3703 86.9561 0.0000 0.0000 0.0000
# 2 27.3703 29.8857 34.3850 0.0000 0.0000 0.0000
# 3 86.9561 34.3850 136.9556 0.0000 0.0000 0.0000
# 4 0.0000 0.0000 0.0000 15.3231 0.0000 0.0000
# 5 0.0000 0.0000 0.0000 0.0000 25.8942 0.0000
# 6 0.0000 0.0000 0.0000 0.0000 0.0000 11.7130
#
#
#
# Elastic Compliance Matrix: (Units=1/GPa)
#
#
# Indices 1 2 3 4 5 6 
#
# 1 0.015564 -0.004056 -0.008863 0.000000 0.000000 0.000000
# 2 -0.004056 0.048110 -0.009504 0.000000 0.000000 0.000000
# 3 -0.008863 -0.009504 0.015315 0.000000 0.000000 0.000000
# 4 0.000000 0.000000 0.000000 0.065261 0.000000 0.000000
# 5 0.000000 0.000000 0.000000 0.000000 0.038619 0.000000
# 6 0.000000 0.000000 0.000000 0.000000 0.000000 0.085375
#
#
# Mechanical properties :
#
#
# Convention : Reuss Voigt Hill
#
# Bulk Modulus (GPa) = 29.28869 65.01892 47.15381
# Shear Modulus (GPa) = 15.40975 19.85514 17.63244
#
# Velocity S-wave (km/s) = 3.24109 3.67900 3.46697
# Velocity P-wave (km/s) = 5.82855 7.89744 6.94052
#
# Compressibility (1/GPa) = 0.03414287
#
# Stress axis : x y z
#
# Youngs Moduli (GPa) = 64.25270 20.78581 65.29454
#
# Poissons Ratio (x) = 0.08430 0.57873
# Poissons Ratio (y) = 0.26060 0.62053
# Poissons Ratio (z) = 0.56949 0.19754
#
# Static dielectric constant tensor:
#      x y z
#    x 1.494520 0.000000 0.000000 
#    y 0.000000 1.469600 0.000000 
#    z 0.000000 0.000000 1.466340 
# 
# From -- ./inp_files/31335.got.cif
#   From: 2010.05.17/outbox.cif.g08.bks.cpg/sg51_16_cif.got.tgz:31335.got - 2010.06.03 11:52:47.
