data_PCOD9398801
_publ_section_title
;
Structure prediction by ZEFSAII (Michael W. Deem and Ramdas Pophale) SiO2 
 PCOD9398801
Probable space group: P M M A
;
_chemical_formula_sum "Si O2"
_cell_formula_units_Z 56
_cell_length_a 7.708221
_cell_length_b 19.966410
_cell_length_c 18.971731
_cell_angle_alpha 90.000000
_cell_angle_beta 90.000000
_cell_angle_gamma 90.000000
_cell_volume 2919.853762
_symmetry_space_group_name_H-M "P M M A"
_symmetry_group_IT_number 51
_symmetry_cell_setting 'orthorhombic'
loop_
_space_group_symop_operation_xyz
x,y,z
1/2-x,-y,z
1/2+x,-y,-z
-x,y,-z
-x,-y,-z
1/2+x,y,-z
1/2-x,y,z
x,-y,z
loop_
_atom_site_type_symbol
_atom_site_label
_atom_site_fract_x
_atom_site_fract_y
_atom_site_fract_z
Si Si1 0.548210 0.925643 0.780976
Si Si2 0.537861 0.793751 0.710468
Si Si3 0.459471 0.282368 0.146872
Si Si4 0.961462 0.573923 0.654482
Si Si5 0.949493 0.146186 0.079381
Si Si6 0.461514 0.425856 0.180439
Si Si7 0.958422 0.708072 0.580810
O O1 0.750000 0.931260 0.761169
O O2 0.472493 0.867388 0.731376
O O3 0.544999 0.895234 0.859844
O O4 0.471106 0.000000 0.778137
O O5 0.750000 0.795573 0.710107
O O6 0.491582 0.744522 0.775154
O O7 0.478789 0.763343 0.636675
O O8 0.250000 0.281931 0.143175
O O9 0.522642 0.225348 0.093730
O O10 0.519743 0.359059 0.139918
O O11 0.750000 0.574415 0.653242
O O12 0.018422 0.500000 0.630932
O O13 0.009022 0.581884 0.736877
O O14 0.023222 0.635539 0.607494
O O15 0.750000 0.130441 0.089997
O O16 0.000000 0.129648 0.000000
O O17 0.250000 0.426057 0.178315
O O18 0.519455 0.500000 0.156890
O O19 0.750000 0.706506 0.587068
O O20 0.000000 0.720969 0.500000
#
# Coordination Sequence:
#
# PCOD9398801 Si02
#       7
#     8   8   8   8   8   8   8
#     4   9  18  34  57  81 100 121 152 191 234 280
#     4   8  14  27  47  68  91 120 156 195 234 280
#     4   9  15  28  50  72  94 123 162 206 244 283
#     4   8  13  22  38  61  88 120 158 198 240 286
#     4  11  22  35  51  74 104 135 161 187 223 273
#     4   8  12  20  41  71  94 116 155 206 252 290
#     4  10  18  28  42  62  90 126 163 202 241 281
#
# _framework density 19.179041999999999
#
# number of rings (size 3 to 8) (size 9 to 14) (size 15 to 20)
#    0.000    3.000    1.429    3.000    0.000    0.857 
#    0.000    2.857    0.000    1.286    0.000    2.000 
#    0.000    0.000    0.000    0.000    0.000    0.000 
#
# Total GULP energy -312082.613683 kJ/mol
# GULP energy per Si atom -5572.903816 kJ/mol
# Density = 1.913539 g / cm^3
# Si number density = 19.179042 Si / 1000 Ang^3
#
#
#
# Elastic Constant Matrix: (Units=GPa)
#
#
# Indices 1 2 3 4 5 6 
#
# 1 31.9941 3.0661 -4.7408 0.0000 0.0000 0.0000
# 2 3.0661 152.3407 35.8479 0.0000 0.0000 0.0000
# 3 -4.7408 35.8479 48.7679 0.0000 0.0000 0.0000
# 4 0.0000 0.0000 0.0000 39.0402 0.0000 0.0000
# 5 0.0000 0.0000 0.0000 0.0000 14.9643 0.0000
# 6 0.0000 0.0000 0.0000 0.0000 0.0000 1.5072
#
#
#
# Elastic Compliance Matrix: (Units=1/GPa)
#
#
# Indices 1 2 3 4 5 6 
#
# 1 0.032059 -0.001667 0.004342 0.000000 0.000000 0.000000
# 2 -0.001667 0.008024 -0.006060 0.000000 0.000000 0.000000
# 3 0.004342 -0.006060 0.025382 0.000000 0.000000 0.000000
# 4 0.000000 0.000000 0.000000 0.025615 0.000000 0.000000
# 5 0.000000 0.000000 0.000000 0.000000 0.066826 0.000000
# 6 0.000000 0.000000 0.000000 0.000000 0.000000 0.663494
#
#
# Mechanical properties :
#
#
# Convention : Reuss Voigt Hill
#
# Bulk Modulus (GPa) = 17.03747 33.49434 25.26590
# Shear Modulus (GPa) = 5.89808 24.36431 15.13119
#
# Velocity S-wave (km/s) = 1.75555 3.56808 2.81186
# Velocity P-wave (km/s) = 3.60721 5.87170 4.87282
#
# Compressibility (1/GPa) = 0.05869417
#
# Stress axis : x y z
#
# Youngs Moduli (GPa) = 31.19263 124.62896 39.39802
#
# Poissons Ratio (x) = 0.20775 -0.17106
# Poissons Ratio (y) = 0.05200 0.23876
# Poissons Ratio (z) = -0.13543 0.75527
#
# Static dielectric constant tensor:
#      x y z
#    x 1.711070 0.000000 0.000000 
#    y 0.000000 1.713370 0.000000 
#    z 0.000000 0.000000 1.687920 
# 
# From -- ./inp_files/28164.got.cif
#   From: 2010.05.17/outbox.cif.g08.bks.cpg/sg51_15_cif.got.tgz:28164.got - 2010.06.03 11:52:47.
