data_PCOD9398107
_publ_section_title
;
Structure prediction by ZEFSAII (Michael W. Deem and Ramdas Pophale) SiO2 
 PCOD9398107
Probable space group: P B A N
;
_chemical_formula_sum "Si O2"
_cell_formula_units_Z 32
_cell_length_a 17.210500
_cell_length_b 7.500473
_cell_length_c 10.711691
_cell_angle_alpha 90.000000
_cell_angle_beta 90.000000
_cell_angle_gamma 90.000000
_cell_volume 1382.738884
_symmetry_space_group_name_H-M "P B A N"
_symmetry_group_IT_number 50
_space_group.IT_coordinate_system_code '2'
_symmetry_cell_setting 'orthorhombic'
loop_
_space_group_symop_operation_xyz
x,y,z
1/2-x,1/2-y,z
x,1/2-y,-z
1/2-x,y,-z
-x,-y,-z
1/2+x,1/2+y,-z
-x,1/2+y,z
1/2+x,-y,z
loop_
_atom_site_type_symbol
_atom_site_label
_atom_site_fract_x
_atom_site_fract_y
_atom_site_fract_z
Si Si1 0.282200 0.549431 0.873455
Si Si2 0.908403 0.165029 0.280272
Si Si3 0.304217 0.504409 0.375719
Si Si4 0.440594 0.285917 0.629837
O O1 0.250000 0.750000 0.875867
O O2 0.372659 0.585774 0.848048
O O3 0.248929 0.468531 0.746000
O O4 0.250000 0.463481 0.000000
O O5 0.850995 0.311609 0.343167
O O6 0.994183 0.246081 0.267312
O O7 0.915110 0.988727 0.363786
O O8 0.250000 0.509853 0.500000
O O9 0.368789 0.349312 0.374660
O O10 0.484320 0.250000 0.500000
#
# Coordination Sequence:
#
# PCOD9398107 Si02
#       4
#     8   8   8   8
#     4   9  21  42  69  94 133 176 228 280 344 413
#     4  11  24  42  68  96 139 183 227 283 352 409
#     4  11  25  43  70 103 135 179 231 285 348 412
#     4  12  25  39  65 103 143 175 228 289 349 412
#
# _framework density 23.142474
#
# number of rings (size 3 to 8) (size 9 to 14) (size 15 to 20)
#    0.000    1.250    2.500    2.250    3.500   12.000 
#    0.000    3.750    5.500    0.000    0.000    0.000 
#    0.000    0.000    0.000    0.000    0.000    0.000 
#
# Total GULP energy -178683.601675 kJ/mol
# GULP energy per Si atom -5583.862552 kJ/mol
# Density = 2.308980 g / cm^3
# Si number density = 23.142474 Si / 1000 Ang^3
#
#
#
# Elastic Constant Matrix: (Units=GPa)
#
#
# Indices 1 2 3 4 5 6 
#
# 1 152.4004 58.0973 58.3243 0.0000 0.0000 0.0000
# 2 58.0973 154.4344 27.9959 0.0000 0.0000 0.0000
# 3 58.3243 27.9959 136.3729 0.0000 0.0000 0.0000
# 4 0.0000 0.0000 0.0000 4.0919 0.0000 0.0000
# 5 0.0000 0.0000 0.0000 0.0000 9.1190 0.0000
# 6 0.0000 0.0000 0.0000 0.0000 0.0000 36.6431
#
#
#
# Elastic Compliance Matrix: (Units=1/GPa)
#
#
# Indices 1 2 3 4 5 6 
#
# 1 0.008838 -0.002742 -0.003217 0.000000 0.000000 0.000000
# 2 -0.002742 0.007576 -0.000383 0.000000 0.000000 0.000000
# 3 -0.003217 -0.000383 0.008787 0.000000 0.000000 0.000000
# 4 0.000000 0.000000 0.000000 0.244383 0.000000 0.000000
# 5 0.000000 0.000000 0.000000 0.000000 0.109661 0.000000
# 6 0.000000 0.000000 0.000000 0.000000 0.000000 0.027290
#
#
# Mechanical properties :
#
#
# Convention : Reuss Voigt Hill
#
# Bulk Modulus (GPa) = 79.88171 81.33808 80.60989
# Shear Modulus (GPa) = 11.80941 29.89016 20.84979
#
# Velocity S-wave (km/s) = 2.26141 3.59774 3.00481
# Velocity P-wave (km/s) = 6.43513 7.24440 6.85172
#
# Compressibility (1/GPa) = 0.01251851
#
# Stress axis : x y z
#
# Youngs Moduli (GPa) = 113.14810 131.99582 113.80100
#
# Poissons Ratio (x) = 0.36188 0.36610
# Poissons Ratio (y) = 0.31021 0.04356
# Poissons Ratio (z) = 0.36400 0.05052
#
# Static dielectric constant tensor:
#      x y z
#    x 1.986360 0.000000 0.000000 
#    y 0.000000 1.891220 0.000000 
#    z 0.000000 0.000000 1.986200 
# 
# From -- ./inp_files/18349.got.cif
#   From: 2010.05.17/outbox.cif.g08.bks.cpg/sg50_10_cif.got.tgz:18349.got - 2010.06.03 11:33:33.
