data_PCOD9398840
_publ_section_title
;
Structure prediction by ZEFSAII (Michael W. Deem and Ramdas Pophale) SiO2 
 PCOD9398840
Probable space group: P M M A
;
_chemical_formula_sum "Si O2"
_cell_formula_units_Z 56
_cell_length_a 8.836435
_cell_length_b 21.977703
_cell_length_c 18.867854
_cell_angle_alpha 90.000000
_cell_angle_beta 90.000000
_cell_angle_gamma 90.000000
_cell_volume 3664.222982
_symmetry_space_group_name_H-M "P M M A"
_symmetry_group_IT_number 51
_symmetry_cell_setting 'orthorhombic'
loop_
_space_group_symop_operation_xyz
x,y,z
1/2-x,-y,z
1/2+x,-y,-z
-x,y,-z
-x,-y,-z
1/2+x,y,-z
1/2-x,y,z
x,-y,z
loop_
_atom_site_type_symbol
_atom_site_label
_atom_site_fract_x
_atom_site_fract_y
_atom_site_fract_z
Si Si1 0.431838 0.311617 0.922530
Si Si2 0.567812 0.931060 0.422717
Si Si3 0.576749 0.625976 0.710202
Si Si4 0.568502 0.567079 0.159578
Si Si5 0.575793 0.754628 0.794843
Si Si6 0.931894 0.187006 0.336607
Si Si7 0.066984 0.300890 0.422090
O O1 0.250000 0.310724 0.924724
O O2 0.482693 0.377385 0.890533
O O3 0.491089 0.261085 0.867446
O O4 0.500000 0.303408 0.000000
O O5 0.500000 0.917563 0.500000
O O6 0.750000 0.930092 0.428398
O O7 0.524482 0.878635 0.367777
O O8 0.521695 0.000000 0.403020
O O9 0.750000 0.604269 0.707454
O O10 0.480828 0.582227 0.760133
O O11 0.575856 0.690938 0.751070
O O12 0.524622 0.643954 0.631435
O O13 0.750000 0.566945 0.156691
O O14 0.512626 0.500000 0.138712
O O15 0.750000 0.771635 0.807211
O O16 0.493538 0.801149 0.742253
O O17 0.750000 0.192952 0.337280
O O18 0.001943 0.239077 0.387340
O O19 0.250000 0.297319 0.423350
O O20 0.000000 0.308627 0.500000
#
# Coordination Sequence:
#
# PCOD9398840 Si02
#       7
#     8   8   8   8   8   8   8
#     4  10  19  31  47  67  93 120 144 172 211 256
#     4   9  18  30  42  59  87 123 159 192 224 258
#     4   8  16  29  43  60  81 106 136 173 216 259
#     4   9  18  31  46  64  85 111 143 175 207 249
#     4   9  17  30  46  64  87 113 144 180 218 259
#     4  10  18  28  44  64  87 116 150 185 221 260
#     4  10  19  29  42  62  86 109 139 180 225 268
#
# _framework density 15.282913000000001
#
# number of rings (size 3 to 8) (size 9 to 14) (size 15 to 20)
#    0.000    2.714    0.000    3.000    0.000    7.429 
#    0.000    0.000    0.000    0.429    0.000    0.000 
#    0.000    0.571    0.000    1.571    0.000    2.286 
#
# Total GULP energy -311950.351624 kJ/mol
# GULP energy per Si atom -5570.541993 kJ/mol
# Density = 1.524813 g / cm^3
# Si number density = 15.282913 Si / 1000 Ang^3
#
#
#
# Elastic Constant Matrix: (Units=GPa)
#
#
# Indices 1 2 3 4 5 6 
#
# 1 41.7555 17.2807 35.6287 0.0000 0.0000 0.0000
# 2 17.2807 50.4546 42.5274 0.0000 0.0000 0.0000
# 3 35.6287 42.5274 133.6408 0.0000 0.0000 0.0000
# 4 0.0000 0.0000 0.0000 17.0487 0.0000 0.0000
# 5 0.0000 0.0000 0.0000 0.0000 28.5237 0.0000
# 6 0.0000 0.0000 0.0000 0.0000 0.0000 14.8145
#
#
#
# Elastic Compliance Matrix: (Units=1/GPa)
#
#
# Indices 1 2 3 4 5 6 
#
# 1 0.031949 -0.005142 -0.006881 0.000000 0.000000 0.000000
# 2 -0.005142 0.027912 -0.007511 0.000000 0.000000 0.000000
# 3 -0.006881 -0.007511 0.011707 0.000000 0.000000 0.000000
# 4 0.000000 0.000000 0.000000 0.058655 0.000000 0.000000
# 5 0.000000 0.000000 0.000000 0.000000 0.035059 0.000000
# 6 0.000000 0.000000 0.000000 0.000000 0.000000 0.067501
#
#
# Mechanical properties :
#
#
# Convention : Reuss Voigt Hill
#
# Bulk Modulus (GPa) = 30.77048 46.30272 38.53660
# Shear Modulus (GPa) = 17.68746 20.77167 19.22957
#
# Velocity S-wave (km/s) = 3.40565 3.69066 3.55102
# Velocity P-wave (km/s) = 5.97011 6.96592 6.48715
#
# Compressibility (1/GPa) = 0.03249868
#
# Stress axis : x y z
#
# Youngs Moduli (GPa) = 31.30027 35.82659 85.41542
#
# Poissons Ratio (x) = 0.18424 0.58775
# Poissons Ratio (y) = 0.16096 0.64158
# Poissons Ratio (z) = 0.21538 0.26910
#
# Static dielectric constant tensor:
#      x y z
#    x 1.516690 0.000000 0.000000 
#    y 0.000000 1.509780 0.000000 
#    z 0.000000 0.000000 1.500720 
# 
# From -- ./inp_files/28194.got.cif
#   From: 2010.05.17/outbox.cif.g08.bks.cpg/sg51_15_cif.got.tgz:28194.got - 2010.06.03 11:52:47.
