data_PCOD9398682
_publ_section_title
;
Structure prediction by ZEFSAII (Michael W. Deem and Ramdas Pophale) SiO2 
 PCOD9398682
Probable space group: P M M A
;
_chemical_formula_sum "Si O2"
_cell_formula_units_Z 56
_cell_length_a 8.737646
_cell_length_b 30.650883
_cell_length_c 13.831831
_cell_angle_alpha 90.000000
_cell_angle_beta 90.000000
_cell_angle_gamma 90.000000
_cell_volume 3704.393469
_symmetry_space_group_name_H-M "P M M A"
_symmetry_group_IT_number 51
_symmetry_cell_setting 'orthorhombic'
loop_
_space_group_symop_operation_xyz
x,y,z
1/2-x,-y,z
1/2+x,-y,-z
-x,y,-z
-x,-y,-z
1/2+x,y,-z
1/2-x,y,z
x,-y,z
loop_
_atom_site_type_symbol
_atom_site_label
_atom_site_fract_x
_atom_site_fract_y
_atom_site_fract_z
Si Si1 0.066395 0.231085 0.608424
Si Si2 0.432514 0.591931 0.397981
Si Si3 0.434597 0.549407 0.195154
Si Si4 0.933987 0.141571 0.609380
Si Si5 0.434390 0.676766 0.697164
Si Si6 0.434633 0.046987 0.390982
Si Si7 0.567428 0.634310 0.101841
O O1 0.250000 0.228393 0.602788
O O2 0.022798 0.274467 0.666803
O O3 0.000000 0.235393 0.500000
O O4 0.002301 0.185941 0.652277
O O5 0.500000 0.577260 0.500000
O O6 0.250000 0.592717 0.404466
O O7 0.475678 0.562164 0.305822
O O8 0.492710 0.640325 0.372156
O O9 0.250000 0.552303 0.187460
O O10 0.481443 0.500000 0.173346
O O11 0.508022 0.585858 0.127302
O O12 0.750000 0.144906 0.606052
O O13 0.977715 0.094141 0.652993
O O14 0.000000 0.140721 0.500000
O O15 0.250000 0.672943 0.689561
O O16 0.478890 0.664013 0.806499
O O17 0.500000 0.046876 0.500000
O O18 0.250000 0.047178 0.396677
O O19 0.481205 0.000000 0.346731
O O20 0.750000 0.633839 0.096547
O O21 0.500000 0.648867 0.000000
#
# Coordination Sequence:
#
# PCOD9398682 Si02
#       7
#     8   8   8   8   8   8   8
#     4  10  18  27  39  56  79 106 134 165 200 235
#     4  10  19  30  46  66  88 114 141 169 199 232
#     4   9  19  35  51  68  90 114 140 167 195 231
#     4   9  15  22  32  47  68  95 128 165 202 237
#     4   9  19  33  47  63  83 107 136 168 200 239
#     4   8  13  20  29  41  59  86 122 163 202 235
#     4  10  20  35  53  71  88 106 131 163 201 242
#
# _framework density 15.117184999999999
#
# number of rings (size 3 to 8) (size 9 to 14) (size 15 to 20)
#    0.000    2.714    0.000    3.000    0.000    4.857 
#    0.000    0.000    0.000    0.000    0.000    0.000 
#    0.000    0.000    0.000    0.000    0.000    0.714 
#
# Total GULP energy -311833.846974 kJ/mol
# GULP energy per Si atom -5568.461553 kJ/mol
# Density = 1.508278 g / cm^3
# Si number density = 15.117185 Si / 1000 Ang^3
#
#
#
# Elastic Constant Matrix: (Units=GPa)
#
#
# Indices 1 2 3 4 5 6 
#
# 1 23.0576 22.3415 11.9347 0.0000 0.0000 0.0000
# 2 22.3415 120.4520 12.2233 0.0000 0.0000 0.0000
# 3 11.9347 12.2233 45.1594 0.0000 0.0000 0.0000
# 4 0.0000 0.0000 0.0000 7.2612 0.0000 0.0000
# 5 0.0000 0.0000 0.0000 0.0000 18.8103 0.0000
# 6 0.0000 0.0000 0.0000 0.0000 0.0000 10.6266
#
#
#
# Elastic Compliance Matrix: (Units=1/GPa)
#
#
# Indices 1 2 3 4 5 6 
#
# 1 0.059575 -0.009719 -0.013114 0.000000 0.000000 0.000000
# 2 -0.009719 0.010122 -0.000171 0.000000 0.000000 0.000000
# 3 -0.013114 -0.000171 0.025656 0.000000 0.000000 0.000000
# 4 0.000000 0.000000 0.000000 0.137718 0.000000 0.000000
# 5 0.000000 0.000000 0.000000 0.000000 0.053162 0.000000
# 6 0.000000 0.000000 0.000000 0.000000 0.000000 0.094103
#
#
# Mechanical properties :
#
#
# Convention : Reuss Voigt Hill
#
# Bulk Modulus (GPa) = 20.26562 31.29644 25.78103
# Shear Modulus (GPa) = 11.29197 16.81759 14.05478
#
# Velocity S-wave (km/s) = 2.73603 3.33901 3.05244
# Velocity P-wave (km/s) = 4.83900 5.96765 5.43271
#
# Compressibility (1/GPa) = 0.04934465
#
# Stress axis : x y z
#
# Youngs Moduli (GPa) = 16.78564 98.79316 38.97757
#
# Poissons Ratio (x) = 0.96019 0.51114
# Poissons Ratio (y) = 0.16314 0.00667
# Poissons Ratio (z) = 0.22012 0.01691
#
# Static dielectric constant tensor:
#      x y z
#    x 1.509790 0.000000 0.000000 
#    y 0.000000 1.552840 0.000000 
#    z 0.000000 0.000000 1.475600 
# 
# From -- ./inp_files/22532.got.cif
#   From: 2010.05.17/outbox.cif.g08.bks.cpg/sg51_12_cif.got.tgz:22532.got - 2010.06.03 11:52:47.
