data_PCOD9398151
_publ_section_title
;
Structure prediction by ZEFSAII (Michael W. Deem and Ramdas Pophale) SiO2 
 PCOD9398151
Probable space group: P B A N
;
_chemical_formula_sum "Si O2"
_cell_formula_units_Z 32
_cell_length_a 13.199003
_cell_length_b 18.593101
_cell_length_c 4.910119
_cell_angle_alpha 90.000000
_cell_angle_beta 90.000000
_cell_angle_gamma 90.000000
_cell_volume 1204.994248
_symmetry_space_group_name_H-M "P B A N"
_symmetry_group_IT_number 50
_space_group.IT_coordinate_system_code '2'
_symmetry_cell_setting 'orthorhombic'
loop_
_space_group_symop_operation_xyz
x,y,z
1/2-x,1/2-y,z
x,1/2-y,-z
1/2-x,y,-z
-x,-y,-z
1/2+x,1/2+y,-z
-x,1/2+y,z
1/2+x,-y,z
loop_
_atom_site_type_symbol
_atom_site_label
_atom_site_fract_x
_atom_site_fract_y
_atom_site_fract_z
Si Si1 0.095652 0.750000 0.500000
Si Si2 0.932372 0.451909 0.250639
Si Si3 0.868826 0.905861 0.928155
Si Si4 0.955635 0.750000 0.000000
Si Si5 0.165917 0.891457 0.715488
O O1 0.161894 0.806476 0.671199
O O2 0.022462 0.722949 0.743760
O O3 0.931467 0.415808 0.544494
O O4 0.045034 0.438765 0.132590
O O5 0.884768 0.531132 0.291429
O O6 0.856463 0.414464 0.023456
O O7 0.750000 0.908961 0.000000
O O8 0.895950 0.821269 0.897605
O O9 0.250000 0.918496 0.500000
#
# Coordination Sequence:
#
# PCOD9398151 Si02
#       5
#     4   8   8   4   8
#     4  12  23  44  65 102 138 186 227 280 345 400
#     4  11  26  45  71 104 138 173 235 289 337 408
#     4  11  24  47  73 102 139 186 227 282 347 406
#     4  12  25  46  67 100 142 182 229 280 335 412
#     4  12  23  44  71 102 140 182 228 286 347 407
#
# _framework density 26.556139999999999
#
# number of rings (size 3 to 8) (size 9 to 14) (size 15 to 20)
#    0.000    0.500    5.000    3.000    0.000    6.000 
#    0.000   15.000    0.000    0.000    0.000    0.000 
#    0.000    0.000    0.000    0.000    0.000    0.000 
#
# Total GULP energy -178378.783992 kJ/mol
# GULP energy per Si atom -5574.337000 kJ/mol
# Density = 2.649570 g / cm^3
# Si number density = 26.556140 Si / 1000 Ang^3
#
#
#
# Elastic Constant Matrix: (Units=GPa)
#
#
# Indices 1 2 3 4 5 6 
#
# 1 110.7101 33.3188 9.6216 0.0000 0.0000 0.0000
# 2 33.3188 196.5728 22.4421 0.0000 0.0000 0.0000
# 3 9.6216 22.4421 166.9119 0.0000 0.0000 0.0000
# 4 0.0000 0.0000 0.0000 -7.3103 0.0000 0.0000
# 5 0.0000 0.0000 0.0000 0.0000 19.7614 0.0000
# 6 0.0000 0.0000 0.0000 0.0000 0.0000 18.0337
#
#
#
# Elastic Compliance Matrix: (Units=1/GPa)
#
#
# Indices 1 2 3 4 5 6 
#
# 1 0.009537 -0.001578 -0.000338 0.000000 0.000000 0.000000
# 2 -0.001578 0.005428 -0.000639 0.000000 0.000000 0.000000
# 3 -0.000338 -0.000639 0.006097 0.000000 0.000000 0.000000
# 4 0.000000 0.000000 0.000000 -0.136794 0.000000 0.000000
# 5 0.000000 0.000000 0.000000 0.000000 0.050604 0.000000
# 6 0.000000 0.000000 0.000000 0.000000 0.000000 0.055452
#
#
# Mechanical properties :
#
#
# Convention : Reuss Voigt Hill
#
# Bulk Modulus (GPa) = 62.68699 67.21775 64.95237
# Shear Modulus (GPa) = 6676.07404 33.35112 3354.71258
#
# Velocity S-wave (km/s) = 50.19367 3.54767 35.58083
# Velocity P-wave (km/s) = 58.16239 6.49214 41.38243
#
# Compressibility (1/GPa) = 0.01595227
#
# Stress axis : x y z
#
# Youngs Moduli (GPa) = 104.85672 184.24486 164.02765
#
# Poissons Ratio (x) = 0.29073 0.05537
# Poissons Ratio (y) = 0.16546 0.10478
# Poissons Ratio (z) = 0.03540 0.11770
#
# Static dielectric constant tensor:
#      x y z
#    x 2.338470 0.000000 0.000000 
#    y 0.000000 2.277750 0.000000 
#    z 0.000000 0.000000 2.064530 
# 
# From -- ./inp_files/2949.got.cif
#   From: 2010.05.17/outbox.cif.g08.bks.cpg/sg50_2_cif.got.tgz:2949.got - 2010.06.03 11:33:33.
