data_PCOD9398176
_publ_section_title
;
Structure prediction by ZEFSAII (Michael W. Deem and Ramdas Pophale) SiO2 
 PCOD9398176
Probable space group: P B A N
;
_chemical_formula_sum "Si O2"
_cell_formula_units_Z 32
_cell_length_a 10.936172
_cell_length_b 9.068281
_cell_length_c 14.659657
_cell_angle_alpha 90.000000
_cell_angle_beta 90.000000
_cell_angle_gamma 90.000000
_cell_volume 1453.831620
_symmetry_space_group_name_H-M "P B A N"
_symmetry_group_IT_number 50
_space_group.IT_coordinate_system_code '2'
_symmetry_cell_setting 'orthorhombic'
loop_
_space_group_symop_operation_xyz
x,y,z
1/2-x,1/2-y,z
x,1/2-y,-z
1/2-x,y,-z
-x,-y,-z
1/2+x,1/2+y,-z
-x,1/2+y,z
1/2+x,-y,z
loop_
_atom_site_type_symbol
_atom_site_label
_atom_site_fract_x
_atom_site_fract_y
_atom_site_fract_z
Si Si1 0.926184 0.041904 0.748210
Si Si2 0.619934 0.418772 0.536041
Si Si3 0.053164 0.750000 0.000000
Si Si4 0.109028 0.275801 0.165916
Si Si5 0.250000 0.750000 0.133145
O O1 0.884731 0.062077 0.644806
O O2 0.829555 0.137656 0.807729
O O3 0.063108 0.105524 0.761158
O O4 0.930687 0.879126 0.789291
O O5 0.613607 0.250000 0.500000
O O6 0.750000 0.478851 0.500000
O O7 0.500000 0.500000 0.500000
O O8 0.150225 0.830373 0.932756
O O9 0.961964 0.679916 0.926740
O O10 0.250000 0.250000 0.147636
#
# Coordination Sequence:
#
# PCOD9398176 Si02
#       5
#     8   8   4   8   4
#     4  11  25  45  70 101 141 185 238 294 374 422
#     4  11  25  45  73 105 142 187 241 301 365 448
#     4   9  21  44  60 102 129 187 230 290 348 413
#     4  11  26  42  70 101 142 186 239 294 354 443
#     4   9  20  40  71  90 136 182 229 290 348 427
#
# _framework density 22.010802999999999
#
# number of rings (size 3 to 8) (size 9 to 14) (size 15 to 20)
#    0.000    1.500    0.000    3.375   10.500    4.500 
#    9.000    0.000    0.000    0.000    0.000    0.000 
#    0.000    0.000    0.000    0.000    0.000    0.000 
#
# Total GULP energy -178457.885022 kJ/mol
# GULP energy per Si atom -5576.808907 kJ/mol
# Density = 2.196071 g / cm^3
# Si number density = 22.010803 Si / 1000 Ang^3
#
#
#
# Elastic Constant Matrix: (Units=GPa)
#
#
# Indices 1 2 3 4 5 6 
#
# 1 182.8145 14.4792 69.7695 0.0000 0.0000 0.0000
# 2 14.4792 68.2616 16.3057 0.0000 0.0000 0.0000
# 3 69.7695 16.3057 171.0703 0.0000 0.0000 0.0000
# 4 0.0000 0.0000 0.0000 149.0818 0.0000 0.0000
# 5 0.0000 0.0000 0.0000 0.0000 29.1441 0.0000
# 6 0.0000 0.0000 0.0000 0.0000 0.0000 26.4787
#
#
#
# Elastic Compliance Matrix: (Units=1/GPa)
#
#
# Indices 1 2 3 4 5 6 
#
# 1 0.006517 -0.000765 -0.002585 0.000000 0.000000 0.000000
# 2 -0.000765 0.015081 -0.001125 0.000000 0.000000 0.000000
# 3 -0.002585 -0.001125 0.007007 0.000000 0.000000 0.000000
# 4 0.000000 0.000000 0.000000 0.006708 0.000000 0.000000
# 5 0.000000 0.000000 0.000000 0.000000 0.034312 0.000000
# 6 0.000000 0.000000 0.000000 0.000000 0.000000 0.037766
#
#
# Mechanical properties :
#
#
# Convention : Reuss Voigt Hill
#
# Bulk Modulus (GPa) = 50.88006 69.25056 60.06531
# Shear Modulus (GPa) = 40.68572 62.38040 51.53306
#
# Velocity S-wave (km/s) = 4.30402 5.32938 4.84391
# Velocity P-wave (km/s) = 6.91849 8.33068 7.65721
#
# Compressibility (1/GPa) = 0.01965406
#
# Stress axis : x y z
#
# Youngs Moduli (GPa) = 153.44082 66.31037 142.71199
#
# Poissons Ratio (x) = 0.05072 0.36892
# Poissons Ratio (y) = 0.11736 0.16062
# Poissons Ratio (z) = 0.39665 0.07463
#
# Static dielectric constant tensor:
#      x y z
#    x 1.861080 0.000000 0.000000 
#    y 0.000000 1.807650 0.000000 
#    z 0.000000 0.000000 1.809160 
# 
# From -- ./inp_files/25630.got.cif
#   From: 2010.05.17/outbox.cif.g08.bks.cpg/sg50_13_cif.got.tgz:25630.got - 2010.06.03 11:33:33.
