data_PCOD9398852
_publ_section_title
;
Structure prediction by ZEFSAII (Michael W. Deem and Ramdas Pophale) SiO2 
 PCOD9398852
Probable space group: P M M A
;
_chemical_formula_sum "Si O2"
_cell_formula_units_Z 56
_cell_length_a 9.026250
_cell_length_b 18.858993
_cell_length_c 21.246932
_cell_angle_alpha 90.000000
_cell_angle_beta 90.000000
_cell_angle_gamma 90.000000
_cell_volume 3616.779940
_symmetry_space_group_name_H-M "P M M A"
_symmetry_group_IT_number 51
_symmetry_cell_setting 'orthorhombic'
loop_
_space_group_symop_operation_xyz
x,y,z
1/2-x,-y,z
1/2+x,-y,-z
-x,y,-z
-x,-y,-z
1/2+x,y,-z
1/2-x,y,z
x,-y,z
loop_
_atom_site_type_symbol
_atom_site_label
_atom_site_fract_x
_atom_site_fract_y
_atom_site_fract_z
Si Si1 0.427704 0.917518 0.319077
Si Si2 0.573298 0.655614 0.564899
Si Si3 0.926173 0.915989 0.065889
Si Si4 0.927815 0.582241 0.315195
Si Si5 0.919812 0.789083 0.380304
Si Si6 0.925819 0.155696 0.814422
Si Si7 0.419166 0.284768 0.757750
O O1 0.250000 0.909934 0.326499
O O2 0.509511 0.865743 0.367830
O O3 0.463446 0.890302 0.248262
O O4 0.466830 0.000000 0.325837
O O5 0.500000 0.630777 0.500000
O O6 0.750000 0.653393 0.561876
O O7 0.512978 0.608929 0.622937
O O8 0.516383 0.735850 0.577883
O O9 0.750000 0.906516 0.062606
O O10 0.992687 0.875073 0.125092
O O11 0.957130 0.000000 0.074200
O O12 0.000000 0.893985 0.000000
O O13 0.750000 0.591289 0.325821
O O14 0.957037 0.500000 0.302798
O O15 0.966509 0.635068 0.257825
O O16 0.750000 0.792743 0.402662
O O17 0.918132 0.752084 0.311290
O O18 0.750000 0.151905 0.823021
O O19 0.977434 0.235741 0.799858
O O20 0.250000 0.283657 0.781520
#
# Coordination Sequence:
#
# PCOD9398852 Si02
#       7
#     8   8   8   8   8   8   8
#     4   9  17  28  43  65  91 117 146 183 227 271
#     4  11  21  33  49  67  88 116 150 183 217 262
#     4  10  20  32  45  62  88 123 160 196 233 271
#     4   9  18  33  51  71  96 122 147 179 220 264
#     4   9  17  30  46  64  86 112 145 184 225 267
#     4  10  18  28  44  65  90 120 154 190 223 259
#     4   8  15  28  45  65  89 117 147 180 219 262
#
# _framework density 15.483385
#
# number of rings (size 3 to 8) (size 9 to 14) (size 15 to 20)
#    0.000    2.571    0.000    3.857    0.000    6.286 
#    0.000    0.000    0.000    0.429    0.000    0.000 
#    0.000    0.571    0.000    1.571    0.000    2.286 
#
# Total GULP energy -312174.126356 kJ/mol
# GULP energy per Si atom -5574.537971 kJ/mol
# Density = 1.544814 g / cm^3
# Si number density = 15.483385 Si / 1000 Ang^3
#
#
#
# Elastic Constant Matrix: (Units=GPa)
#
#
# Indices 1 2 3 4 5 6 
#
# 1 57.6337 35.3461 21.4808 0.0000 0.0000 0.0000
# 2 35.3461 106.5210 15.0382 0.0000 0.0000 0.0000
# 3 21.4808 15.0382 27.7857 0.0000 0.0000 0.0000
# 4 0.0000 0.0000 0.0000 15.2816 0.0000 0.0000
# 5 0.0000 0.0000 0.0000 0.0000 22.0945 0.0000
# 6 0.0000 0.0000 0.0000 0.0000 0.0000 22.1660
#
#
#
# Elastic Compliance Matrix: (Units=1/GPa)
#
#
# Indices 1 2 3 4 5 6 
#
# 1 0.028322 -0.006829 -0.018200 0.000000 0.000000 0.000000
# 2 -0.006829 0.011811 -0.001113 0.000000 0.000000 0.000000
# 3 -0.018200 -0.001113 0.050662 0.000000 0.000000 0.000000
# 4 0.000000 0.000000 0.000000 0.065438 0.000000 0.000000
# 5 0.000000 0.000000 0.000000 0.000000 0.045260 0.000000
# 6 0.000000 0.000000 0.000000 0.000000 0.000000 0.045114
#
#
# Mechanical properties :
#
#
# Convention : Reuss Voigt Hill
#
# Bulk Modulus (GPa) = 25.96581 37.29672 31.63127
# Shear Modulus (GPa) = 16.03963 19.91343 17.97653
#
# Velocity S-wave (km/s) = 3.22207 3.59014 3.41107
# Velocity P-wave (km/s) = 5.53614 6.42853 5.99895
#
# Compressibility (1/GPa) = 0.03851218
#
# Stress axis : x y z
#
# Youngs Moduli (GPa) = 35.30817 84.66792 19.73862
#
# Poissons Ratio (x) = 0.57816 0.35924
# Poissons Ratio (y) = 0.24110 0.02197
# Poissons Ratio (z) = 0.64260 0.09425
#
# Static dielectric constant tensor:
#      x y z
#    x 1.518040 0.000000 0.000000 
#    y 0.000000 1.527220 0.000000 
#    z 0.000000 0.000000 1.492980 
# 
# From -- ./inp_files/32214.got.cif
#   From: 2010.05.17/outbox.cif.g08.bks.cpg/sg51_17_cif.got.tgz:32214.got - 2010.06.03 11:52:47.
