data_PCOD9398149
_publ_section_title
;
Structure prediction by ZEFSAII (Michael W. Deem and Ramdas Pophale) SiO2 
 PCOD9398149
Probable space group: P B A N
;
_chemical_formula_sum "Si O2"
_cell_formula_units_Z 40
_cell_length_a 9.205453
_cell_length_b 23.991795
_cell_length_c 7.650100
_cell_angle_alpha 90.000000
_cell_angle_beta 90.000000
_cell_angle_gamma 90.000000
_cell_volume 1689.565446
_symmetry_space_group_name_H-M "P B A N"
_symmetry_group_IT_number 50
_space_group.IT_coordinate_system_code '2'
_symmetry_cell_setting 'orthorhombic'
loop_
_space_group_symop_operation_xyz
x,y,z
1/2-x,1/2-y,z
x,1/2-y,-z
1/2-x,y,-z
-x,-y,-z
1/2+x,1/2+y,-z
-x,1/2+y,z
1/2+x,-y,z
loop_
_atom_site_type_symbol
_atom_site_label
_atom_site_fract_x
_atom_site_fract_y
_atom_site_fract_z
Si Si1 0.380772 0.683301 0.869067
Si Si2 0.462749 0.987662 0.699992
Si Si3 0.681224 0.070223 0.806229
Si Si4 0.105929 0.118649 0.883919
Si Si5 0.596104 0.730737 0.299586
O O1 0.325002 0.634072 0.738738
O O2 0.461716 0.736416 0.788485
O O3 0.250000 0.695014 0.000000
O O4 0.497575 0.649149 0.982057
O O5 0.294653 0.970311 0.710416
O O6 0.548048 0.936891 0.792350
O O7 0.500000 0.000000 0.500000
O O8 0.523067 0.042048 0.799991
O O9 0.750000 0.072170 0.000000
O O10 0.106306 0.164824 0.728764
O O11 0.250000 0.109923 0.000000
O O12 0.750000 0.750000 0.218944
O O13 0.592947 0.750000 0.500000
#
# Coordination Sequence:
#
# PCOD9398149 Si02
#       5
#     8   8   8   8   8
#     4  11  24  48  78 110 154 203 265 317 383 471
#     4  12  27  46  72 109 150 195 255 325 393 451
#     4  11  24  47  72 103 143 196 256 307 378 462
#     4  12  25  47  77 111 150 208 259 313 389 482
#     4  11  26  47  76 118 162 203 258 326 398 468
#
# _framework density 23.674724999999999
#
# number of rings (size 3 to 8) (size 9 to 14) (size 15 to 20)
#    0.000    0.600    6.000    2.400    5.600    1.600 
#    3.600    2.000    0.000    0.000    0.000    0.000 
#    0.000    0.000    0.000    0.000    0.000    0.000 
#
# Total GULP energy -223539.155020 kJ/mol
# GULP energy per Si atom -5588.478876 kJ/mol
# Density = 2.362084 g / cm^3
# Si number density = 23.674725 Si / 1000 Ang^3
#
#
#
# Elastic Constant Matrix: (Units=GPa)
#
#
# Indices 1 2 3 4 5 6 
#
# 1 141.0520 27.0128 23.9570 0.0000 0.0000 0.0000
# 2 27.0128 139.1288 18.6590 0.0000 0.0000 0.0000
# 3 23.9570 18.6590 94.0621 0.0000 0.0000 0.0000
# 4 0.0000 0.0000 0.0000 22.6431 0.0000 0.0000
# 5 0.0000 0.0000 0.0000 0.0000 37.1377 0.0000
# 6 0.0000 0.0000 0.0000 0.0000 0.0000 36.0308
#
#
#
# Elastic Compliance Matrix: (Units=1/GPa)
#
#
# Indices 1 2 3 4 5 6 
#
# 1 0.007617 -0.001252 -0.001692 0.000000 0.000000 0.000000
# 2 -0.001252 0.007590 -0.001187 0.000000 0.000000 0.000000
# 3 -0.001692 -0.001187 0.011298 0.000000 0.000000 0.000000
# 4 0.000000 0.000000 0.000000 0.044164 0.000000 0.000000
# 5 0.000000 0.000000 0.000000 0.000000 0.026927 0.000000
# 6 0.000000 0.000000 0.000000 0.000000 0.000000 0.027754
#
#
# Mechanical properties :
#
#
# Convention : Reuss Voigt Hill
#
# Bulk Modulus (GPa) = 54.81406 57.05562 55.93484
# Shear Modulus (GPa) = 35.79352 39.46991 37.63172
#
# Velocity S-wave (km/s) = 3.89252 4.08754 3.99122
# Velocity P-wave (km/s) = 6.58829 6.81391 6.70205
#
# Compressibility (1/GPa) = 0.01824349
#
# Stress axis : x y z
#
# Youngs Moduli (GPa) = 131.29126 131.75547 88.51504
#
# Poissons Ratio (x) = 0.16495 0.14973
# Poissons Ratio (y) = 0.16437 0.10504
# Poissons Ratio (z) = 0.22209 0.15636
#
# Static dielectric constant tensor:
#      x y z
#    x 1.998990 0.000000 0.000000 
#    y 0.000000 2.043280 0.000000 
#    z 0.000000 0.000000 1.949610 
# 
# From -- ./inp_files/9537.got.cif
#   From: 2010.05.17/outbox.cif.g08.bks.cpg/sg50_5_cif.got.tgz:9537.got - 2010.06.03 11:33:33.
