data_PCOD9398610
_publ_section_title
;
Structure prediction by ZEFSAII (Michael W. Deem and Ramdas Pophale) SiO2 
 PCOD9398610
Probable space group: P M M A
;
_chemical_formula_sum "Si O2"
_cell_formula_units_Z 48
_cell_length_a 21.009883
_cell_length_b 7.499252
_cell_length_c 15.102110
_cell_angle_alpha 90.000000
_cell_angle_beta 90.000000
_cell_angle_gamma 90.000000
_cell_volume 2379.464396
_symmetry_space_group_name_H-M "P M M A"
_symmetry_group_IT_number 51
_symmetry_cell_setting 'orthorhombic'
loop_
_space_group_symop_operation_xyz
x,y,z
1/2-x,-y,z
1/2+x,-y,-z
-x,y,-z
-x,-y,-z
1/2+x,y,-z
1/2-x,y,z
x,-y,z
loop_
_atom_site_type_symbol
_atom_site_label
_atom_site_fract_x
_atom_site_fract_y
_atom_site_fract_z
Si Si1 0.179015 0.791119 0.553688
Si Si2 0.821649 0.282020 0.065865
Si Si3 0.437662 0.282181 0.055682
Si Si4 0.876408 0.284843 0.254327
Si Si5 0.975690 0.282184 0.751100
Si Si6 0.557006 0.291612 0.560042
O O1 0.250000 0.715547 0.540750
O O2 0.158182 0.769970 0.655757
O O3 0.123160 0.718132 0.491709
O O4 0.181614 0.000000 0.534268
O O5 0.750000 0.225202 0.045740
O O6 0.822376 0.500000 0.066274
O O7 0.842139 0.225151 0.164546
O O8 0.874445 0.223903 0.995411
O O9 0.437235 0.500000 0.055577
O O10 0.444799 0.222164 0.156888
O O11 0.500000 0.228891 0.000000
O O12 0.876429 0.500000 0.253756
O O13 0.950145 0.228625 0.253323
O O14 0.974475 0.500000 0.754837
O O15 0.943002 0.220610 0.660107
O O16 0.500000 0.213133 0.500000
O O17 0.540804 0.500000 0.570943
#
# Coordination Sequence:
#
# PCOD9398610 Si02
#       6
#     8   8   8   8   8   8
#     4  11  24  38  51  73 105 137 170 210 259 311
#     4   9  16  24  39  68 101 131 163 199 243 296
#     4   9  14  23  40  64 100 135 158 191 244 298
#     4  10  17  30  52  76 102 129 164 210 255 303
#     4   9  16  27  46  74 101 129 166 206 250 297
#     4  10  19  34  55  77 103 133 170 214 255 302
#
# _framework density 20.172606999999999
#
# number of rings (size 3 to 8) (size 9 to 14) (size 15 to 20)
#    0.000    2.333    3.333    1.000    0.000    2.333 
#    0.000    0.833    0.000    3.000    0.000    3.500 
#    0.000    2.667    0.000    0.000    0.000    0.000 
#
# Total GULP energy -267994.566137 kJ/mol
# GULP energy per Si atom -5583.220128 kJ/mol
# Density = 2.012669 g / cm^3
# Si number density = 20.172607 Si / 1000 Ang^3
#
#
#
# Elastic Constant Matrix: (Units=GPa)
#
#
# Indices 1 2 3 4 5 6 
#
# 1 165.1799 -9.5755 106.0180 0.0000 0.0000 0.0000
# 2 -9.5755 48.6456 -0.2518 0.0000 0.0000 0.0000
# 3 106.0180 -0.2518 198.4681 0.0000 0.0000 0.0000
# 4 0.0000 0.0000 0.0000 -47.6822 0.0000 0.0000
# 5 0.0000 0.0000 0.0000 0.0000 25.1430 0.0000
# 6 0.0000 0.0000 0.0000 0.0000 0.0000 -0.5947
#
#
#
# Elastic Compliance Matrix: (Units=1/GPa)
#
#
# Indices 1 2 3 4 5 6 
#
# 1 0.009371 0.001819 -0.005003 0.000000 0.000000 0.000000
# 2 0.001819 0.020910 -0.000945 0.000000 0.000000 0.000000
# 3 -0.005003 -0.000945 0.007710 0.000000 0.000000 0.000000
# 4 0.000000 0.000000 0.000000 -0.020972 0.000000 0.000000
# 5 0.000000 0.000000 0.000000 0.000000 0.039773 0.000000
# 6 0.000000 0.000000 0.000000 0.000000 0.000000 -1.681513
#
#
# Mechanical properties :
#
#
# Convention : Reuss Voigt Hill
#
# Bulk Modulus (GPa) = 33.63441 67.18611 50.41026
# Shear Modulus (GPa) = -3.11226 16.44675 6.66725
#
# Velocity S-wave (km/s) = -1.24345 2.85845 1.81997
# Velocity P-wave (km/s) = 3.82726 6.65374 5.42771
#
# Compressibility (1/GPa) = 0.02973146
#
# Stress axis : x y z
#
# Youngs Moduli (GPa) = 106.71481 47.82410 129.69988
#
# Poissons Ratio (x) = -0.08698 0.64894
# Poissons Ratio (y) = -0.19408 0.12256
# Poissons Ratio (z) = 0.53394 0.04519
#
# Static dielectric constant tensor:
#      x y z
#    x 1.687400 0.000000 0.000000 
#    y 0.000000 1.756730 0.000000 
#    z 0.000000 0.000000 1.694550 
# 
# From -- ./inp_files/25471.got.cif
#   From: 2010.05.17/outbox.cif.g08.bks.cpg/sg51_13_cif.got.tgz:25471.got - 2010.06.03 11:52:47.
