data_PCOD9398538
_publ_section_title
;
Structure prediction by ZEFSAII (Michael W. Deem and Ramdas Pophale) SiO2 
 PCOD9398538
Probable space group: P M M A
;
_chemical_formula_sum "Si O2"
_cell_formula_units_Z 64
_cell_length_a 20.572517
_cell_length_b 8.634987
_cell_length_c 20.418681
_cell_angle_alpha 90.000000
_cell_angle_beta 90.000000
_cell_angle_gamma 90.000000
_cell_volume 3627.244260
_symmetry_space_group_name_H-M "P M M A"
_symmetry_group_IT_number 51
_symmetry_cell_setting 'orthorhombic'
loop_
_space_group_symop_operation_xyz
x,y,z
1/2-x,-y,z
1/2+x,-y,-z
-x,y,-z
-x,-y,-z
1/2+x,y,-z
1/2-x,y,z
x,-y,z
loop_
_atom_site_type_symbol
_atom_site_label
_atom_site_fract_x
_atom_site_fract_y
_atom_site_fract_z
Si Si1 0.175548 0.187152 0.466078
Si Si2 0.559460 0.814107 0.302199
Si Si3 0.964433 0.313845 0.158204
Si Si4 0.178402 0.811589 0.237205
Si Si5 0.603244 0.815779 0.887292
Si Si6 0.080912 0.811138 0.350143
Si Si7 0.175789 0.685466 0.611770
Si Si8 0.076389 0.680966 0.979824
O O1 0.250000 0.227725 0.445747
O O2 0.120976 0.238399 0.414268
O O3 0.164025 0.255038 0.537951
O O4 0.173065 0.000000 0.469737
O O5 0.555761 0.754366 0.227740
O O6 0.493461 0.762014 0.339976
O O7 0.622561 0.753816 0.339630
O O8 0.559573 0.000000 0.301352
O O9 0.962722 0.500000 0.160444
O O10 0.921073 0.263640 0.095257
O O11 0.037429 0.260897 0.140483
O O12 0.250000 0.756332 0.255549
O O13 0.159586 0.770499 0.163193
O O14 0.123022 0.760302 0.287378
O O15 0.179134 0.000000 0.240772
O O16 0.594442 0.000000 0.883951
O O17 0.613386 0.767805 0.962346
O O18 0.080595 0.000000 0.350918
O O19 0.250000 0.731290 0.629111
O O20 0.172129 0.500000 0.612593
O O21 0.093626 0.500000 0.981937
O O22 0.000000 0.692844 0.000000
#
# Coordination Sequence:
#
# PCOD9398538 Si02
#       8
#     8   8   8   8   8   8   8   8
#     4   9  17  32  56  80 102 136 180 218 250 293
#     4  11  21  34  55  82 109 133 169 219 264 309
#     4  10  19  32  49  71 102 137 170 208 263 319
#     4   9  16  27  45  71 105 142 177 213 256 306
#     4  10  17  27  46  73 100 130 175 223 262 301
#     4   9  17  30  49  78 109 135 170 216 260 301
#     4  10  22  40  58  76 102 136 171 208 260 324
#     4   8  16  29  45  66  94 131 169 206 254 311
#
# _framework density 17.644248000000001
#
# number of rings (size 3 to 8) (size 9 to 14) (size 15 to 20)
#    0.000    2.500    1.250    2.625    0.000    5.500 
#    0.000    3.750    0.000    2.250    0.000    3.500 
#    0.000    0.000    0.000    0.000    0.000    0.000 
#
# Total GULP energy -356720.003207 kJ/mol
# GULP energy per Si atom -5573.750050 kJ/mol
# Density = 1.760409 g / cm^3
# Si number density = 17.644248 Si / 1000 Ang^3
#
#
#
# Elastic Constant Matrix: (Units=GPa)
#
#
# Indices 1 2 3 4 5 6 
#
# 1 104.1557 25.6810 81.5637 0.0000 0.0000 0.0000
# 2 25.6810 26.2173 32.7249 0.0000 0.0000 0.0000
# 3 81.5637 32.7249 138.1805 0.0000 0.0000 0.0000
# 4 0.0000 0.0000 0.0000 -2.4251 0.0000 0.0000
# 5 0.0000 0.0000 0.0000 0.0000 18.1746 0.0000
# 6 0.0000 0.0000 0.0000 0.0000 0.0000 2.1659
#
#
#
# Elastic Compliance Matrix: (Units=1/GPa)
#
#
# Indices 1 2 3 4 5 6 
#
# 1 0.018581 -0.006404 -0.009451 0.000000 0.000000 0.000000
# 2 -0.006404 0.056357 -0.009567 0.000000 0.000000 0.000000
# 3 -0.009451 -0.009567 0.015081 0.000000 0.000000 0.000000
# 4 0.000000 0.000000 0.000000 -0.412347 0.000000 0.000000
# 5 0.000000 0.000000 0.000000 0.000000 0.055022 0.000000
# 6 0.000000 0.000000 0.000000 0.000000 0.000000 0.461710
#
#
# Mechanical properties :
#
#
# Convention : Reuss Voigt Hill
#
# Bulk Modulus (GPa) = 25.52601 60.94363 43.23482
# Shear Modulus (GPa) = 19.35675 12.15533 15.75604
#
# Velocity S-wave (km/s) = 3.31578 2.62756 2.99153
# Velocity P-wave (km/s) = 5.39978 6.61972 6.04062
#
# Compressibility (1/GPa) = 0.03917572
#
# Stress axis : x y z
#
# Youngs Moduli (GPa) = 53.81771 17.74395 66.30668
#
# Poissons Ratio (x) = 0.11363 0.62669
# Poissons Ratio (y) = 0.34464 0.63435
# Poissons Ratio (z) = 0.50865 0.16976
#
# Static dielectric constant tensor:
#      x y z
#    x 1.592010 0.000000 0.000000 
#    y 0.000000 1.600750 0.000000 
#    z 0.000000 0.000000 1.611860 
# 
# From -- ./inp_files/33858.got.cif
#   From: 2010.05.17/outbox.cif.g08.bks.cpg/sg51_17_cif.got.tgz:33858.got - 2010.06.03 11:52:47.
