data_PCOD9398573
_publ_section_title
;
Structure prediction by ZEFSAII (Michael W. Deem and Ramdas Pophale) SiO2 
 PCOD9398573
Probable space group: P M M A
;
_chemical_formula_sum "Si O2"
_cell_formula_units_Z 52
_cell_length_a 8.653205
_cell_length_b 23.566111
_cell_length_c 15.583077
_cell_angle_alpha 90.000000
_cell_angle_beta 90.000000
_cell_angle_gamma 90.000000
_cell_volume 3177.738298
_symmetry_space_group_name_H-M "P M M A"
_symmetry_group_IT_number 51
_symmetry_cell_setting 'orthorhombic'
loop_
_space_group_symop_operation_xyz
x,y,z
1/2-x,-y,z
1/2+x,-y,-z
-x,y,-z
-x,-y,-z
1/2+x,y,-z
1/2-x,y,z
x,-y,z
loop_
_atom_site_type_symbol
_atom_site_label
_atom_site_fract_x
_atom_site_fract_y
_atom_site_fract_z
Si Si1 0.065443 0.185065 0.403904
Si Si2 0.564847 0.715867 0.085330
Si Si3 0.563299 0.939031 0.597208
Si Si4 0.934436 0.723328 0.275652
Si Si5 0.434612 0.500000 0.403733
Si Si6 0.933373 0.411843 0.910212
Si Si7 0.435703 0.590291 0.727431
O O1 0.250000 0.185495 0.409241
O O2 0.015308 0.122743 0.368057
O O3 0.000000 0.191148 0.500000
O O4 0.011306 0.235913 0.344004
O O5 0.750000 0.706907 0.078612
O O6 0.532492 0.742738 0.177832
O O7 0.481053 0.654730 0.088415
O O8 0.500000 0.745305 0.000000
O O9 0.500000 0.939269 0.500000
O O10 0.750000 0.939162 0.595065
O O11 0.514244 0.000000 0.636455
O O12 0.750000 0.725251 0.287565
O O13 0.979413 0.656849 0.282210
O O14 0.250000 0.500000 0.406216
O O15 0.500000 0.500000 0.500000
O O16 0.494995 0.553831 0.349532
O O17 0.750000 0.418774 0.909387
O O18 0.003988 0.431731 0.819839
O O19 0.000000 0.435200 0.000000
O O20 0.250000 0.586512 0.727341
#
# Coordination Sequence:
#
# PCOD9398573 Si02
#       7
#     8   8   8   8   4   8   8
#     4  10  19  29  44  65  92 126 160 195 234 275
#     4   9  16  27  44  67  94 125 157 191 232 278
#     4   8  14  25  40  59  84 116 154 192 229 271
#     4   9  19  33  49  70  98 127 155 190 233 278
#     4  12  26  44  63  80  95 120 158 202 246 286
#     4  10  17  28  49  77 105 131 156 186 228 282
#     4  10  21  39  58  76  98 126 159 198 241 285
#
# _framework density 16.36384
#
# number of rings (size 3 to 8) (size 9 to 14) (size 15 to 20)
#    0.000    2.462    0.000    5.308    0.000    4.923 
#    0.000    0.385    0.000    0.000    0.000    0.000 
#    0.000    0.615    0.000    1.385    0.000    2.615 
#
# Total GULP energy -289663.434024 kJ/mol
# GULP energy per Si atom -5570.450654 kJ/mol
# Density = 1.632660 g / cm^3
# Si number density = 16.363840 Si / 1000 Ang^3
#
#
#
# Elastic Constant Matrix: (Units=GPa)
#
#
# Indices 1 2 3 4 5 6 
#
# 1 70.9545 37.8361 52.1058 0.0000 0.0000 0.0000
# 2 37.8361 103.2113 66.2123 0.0000 0.0000 0.0000
# 3 52.1058 66.2123 135.5986 0.0000 0.0000 0.0000
# 4 0.0000 0.0000 0.0000 -16.8632 0.0000 0.0000
# 5 0.0000 0.0000 0.0000 0.0000 31.2718 0.0000
# 6 0.0000 0.0000 0.0000 0.0000 0.0000 10.0224
#
#
#
# Elastic Compliance Matrix: (Units=1/GPa)
#
#
# Indices 1 2 3 4 5 6 
#
# 1 0.020506 -0.003585 -0.006129 0.000000 0.000000 0.000000
# 2 -0.003585 0.014735 -0.005817 0.000000 0.000000 0.000000
# 3 -0.006129 -0.005817 0.012571 0.000000 0.000000 0.000000
# 4 0.000000 0.000000 0.000000 -0.059301 0.000000 0.000000
# 5 0.000000 0.000000 0.000000 0.000000 0.031978 0.000000
# 6 0.000000 0.000000 0.000000 0.000000 0.000000 0.099777
#
#
# Mechanical properties :
#
#
# Convention : Reuss Voigt Hill
#
# Bulk Modulus (GPa) = 59.70784 69.11920 64.41352
# Shear Modulus (GPa) = 31.86488 15.12687 23.49587
#
# Velocity S-wave (km/s) = 4.41758 3.04371 3.79336
# Velocity P-wave (km/s) = 7.91119 7.39479 7.65734
#
# Compressibility (1/GPa) = 0.01674822
#
# Stress axis : x y z
#
# Youngs Moduli (GPa) = 48.76523 67.86455 79.55111
#
# Poissons Ratio (x) = 0.24332 0.48758
# Poissons Ratio (y) = 0.17485 0.46278
# Poissons Ratio (z) = 0.29889 0.39479
#
# Static dielectric constant tensor:
#      x y z
#    x 1.524750 0.000000 0.000000 
#    y 0.000000 1.587270 0.000000 
#    z 0.000000 0.000000 1.560500 
# 
# From -- ./inp_files/22082.got.cif
#   From: 2010.05.17/outbox.cif.g08.bks.cpg/sg51_12_cif.got.tgz:22082.got - 2010.06.03 11:52:47.
