data_PCOD9398312
_publ_section_title
;
Structure prediction by ZEFSAII (Michael W. Deem and Ramdas Pophale) SiO2 
 PCOD9398312
Probable space group: P B A N
;
_chemical_formula_sum "Si O2"
_cell_formula_units_Z 60
_cell_length_a 9.000000
_cell_length_b 12.000000
_cell_length_c 27.000000
_cell_angle_alpha 90.000000
_cell_angle_beta 90.000000
_cell_angle_gamma 90.000000
_cell_volume 2916.000000
_symmetry_space_group_name_H-M "P B A N"
_symmetry_group_IT_number 50
_space_group.IT_coordinate_system_code '2'
_symmetry_cell_setting 'orthorhombic'
loop_
_space_group_symop_operation_xyz
x,y,z
1/2-x,1/2-y,z
x,1/2-y,-z
1/2-x,y,-z
-x,-y,-z
1/2+x,1/2+y,-z
-x,1/2+y,z
1/2+x,-y,z
loop_
_atom_site_type_symbol
_atom_site_label
_atom_site_fract_x
_atom_site_fract_y
_atom_site_fract_z
Si Si1 0.729694 0.868913 0.162248
Si Si2 0.974968 0.988871 0.113678
Si Si3 0.750000 0.250000 0.337517
Si Si4 0.223233 0.880786 0.055440
Si Si5 0.238619 0.128698 0.274500
Si Si6 0.538263 0.065021 0.311688
Si Si7 0.099744 0.945708 0.598970
Si Si8 0.804045 0.868763 0.555892
O O1 0.750000 0.750000 0.137661
O O2 0.603147 0.935464 0.135228
O O3 0.683729 0.856054 0.218920
O O4 0.889290 0.925628 0.157080
O O5 0.848252 0.060576 0.088025
O O6 0.059850 0.908864 0.075497
O O7 0.631750 0.177641 0.307353
O O8 0.833401 0.155645 0.369231
O O9 0.250000 0.750000 0.057144
O O10 0.250000 0.921720 0.000000
O O11 0.250000 0.250000 0.298653
O O12 0.400103 0.074555 0.275529
O O13 0.134160 0.043347 0.301536
O O14 0.476278 0.039262 0.366036
O O15 0.978588 0.889883 0.563269
O O16 0.228387 0.018407 0.575183
O O17 0.750000 0.750000 0.579003
O O18 0.750000 0.862670 0.500000
#
# Coordination Sequence:
#
# PCOD9398312 Si02
#       8
#     8   8   4   8   8   8   8   8
#     4  10  21  38  58  82 114 153 196 238 290 351
#     4  10  20  36  57  80 114 152 192 238 293 349
#     4  12  24  40  67  96 124 162 204 242 303 360
#     4  10  20  34  55  83 113 147 192 241 293 348
#     4  11  24  40  62  89 121 158 200 252 300 352
#     4  12  23  42  64  91 123 159 200 249 301 356
#     4  12  23  44  67  93 126 161 201 244 300 356
#     4  11  25  44  67  93 126 159 201 245 295 353
#
# _framework density 20.576132000000001
#
# number of rings (size 3 to 8) (size 9 to 14) (size 15 to 20)
#    0.000    1.067    2.667    4.000    0.000    1.067 
#    0.000    0.000    2.933    6.400    0.000    0.000 
#    0.000    0.000    0.000    0.000    0.000    0.000 
#
# Total GULP energy -334510.838262 kJ/mol
# GULP energy per Si atom -5575.180638 kJ/mol
# Density = 2.052930 g / cm^3
# Si number density = 20.576132 Si / 1000 Ang^3
#
#
#
# Elastic Constant Matrix: (Units=GPa)
#
#
# Indices 1 2 3 4 5 6 
#
# 1 85.2955 19.6768 1.3759 0.0000 0.0000 0.0000
# 2 19.6768 83.6705 -6.3799 0.0000 0.0000 0.0000
# 3 1.3759 -6.3799 39.5038 0.0000 0.0000 0.0000
# 4 0.0000 0.0000 0.0000 41.5057 0.0000 0.0000
# 5 0.0000 0.0000 0.0000 0.0000 -21.3378 0.0000
# 6 0.0000 0.0000 0.0000 0.0000 0.0000 28.0395
#
#
#
# Elastic Compliance Matrix: (Units=1/GPa)
#
#
# Indices 1 2 3 4 5 6 
#
# 1 0.012429 -0.002993 -0.000916 0.000000 0.000000 0.000000
# 2 -0.002993 0.012821 0.002175 0.000000 0.000000 0.000000
# 3 -0.000916 0.002175 0.025697 0.000000 0.000000 0.000000
# 4 0.000000 0.000000 0.000000 0.024093 0.000000 0.000000
# 5 0.000000 0.000000 0.000000 0.000000 -0.046865 0.000000
# 6 0.000000 0.000000 0.000000 0.000000 0.000000 0.035664
#
#
# Mechanical properties :
#
#
# Convention : Reuss Voigt Hill
#
# Bulk Modulus (GPa) = 21.06182 26.42393 23.74288
# Shear Modulus (GPa) = 60.14360 22.56127 41.35243
#
# Velocity S-wave (km/s) = 5.41232 3.31490 4.48786
# Velocity P-wave (km/s) = 7.02253 5.24608 6.19828
#
# Compressibility (1/GPa) = 0.04747927
#
# Stress axis : x y z
#
# Youngs Moduli (GPa) = 80.45608 77.99521 38.91479
#
# Poissons Ratio (x) = 0.23343 0.03566
# Poissons Ratio (y) = 0.24079 -0.08464
# Poissons Ratio (z) = 0.07372 -0.16963
#
# Static dielectric constant tensor:
#      x y z
#    x 1.719200 0.000000 0.000000 
#    y 0.000000 1.771390 0.000000 
#    z 0.000000 0.000000 1.277370 
# 
# From -- ./inp_files/32151.got.cif
#   From: 2010.05.17/outbox.ucp.g08.bks.cvg/sg50_17_cif.got.tgz:32151.got - 2010.06.11 16:26:39.
