data_PCOD9398947
_publ_section_title
;
Structure prediction by ZEFSAII (Michael W. Deem and Ramdas Pophale) SiO2 
 PCOD9398947
Probable space group: P M M A
;
_chemical_formula_sum "Si O2"
_cell_formula_units_Z 64
_cell_length_a 8.764497
_cell_length_b 21.983751
_cell_length_c 19.101306
_cell_angle_alpha 90.000000
_cell_angle_beta 90.000000
_cell_angle_gamma 90.000000
_cell_volume 3680.373162
_symmetry_space_group_name_H-M "P M M A"
_symmetry_group_IT_number 51
_symmetry_cell_setting 'orthorhombic'
loop_
_space_group_symop_operation_xyz
x,y,z
1/2-x,-y,z
1/2+x,-y,-z
-x,y,-z
-x,-y,-z
1/2+x,y,-z
1/2-x,y,z
x,-y,z
loop_
_atom_site_type_symbol
_atom_site_label
_atom_site_fract_x
_atom_site_fract_y
_atom_site_fract_z
Si Si1 0.569534 0.927526 0.924018
Si Si2 0.566812 0.595511 0.073901
Si Si3 0.567380 0.165292 0.183285
Si Si4 0.432795 0.258436 0.277800
Si Si5 0.567737 0.567798 0.366843
Si Si6 0.068264 0.262774 0.929807
Si Si7 0.067954 0.312016 0.428027
Si Si8 0.066352 0.391641 0.220519
O O1 0.750000 0.915453 0.926013
O O2 0.498170 0.892936 0.857310
O O3 0.544746 0.000000 0.916771
O O4 0.500000 0.909829 0.000000
O O5 0.750000 0.588530 0.073087
O O6 0.522051 0.667165 0.074544
O O7 0.500655 0.578071 0.149807
O O8 0.500000 0.571156 0.000000
O O9 0.750000 0.160369 0.186090
O O10 0.504918 0.194162 0.254870
O O11 0.518606 0.220641 0.132524
O O12 0.250000 0.254437 0.270264
O O13 0.470520 0.273993 0.358280
O O14 0.480190 0.320142 0.234426
O O15 0.750000 0.575511 0.361336
O O16 0.535239 0.500000 0.393293
O O17 0.498918 0.620908 0.413998
O O18 0.494873 0.575320 0.289716
O O19 0.250000 0.262048 0.932949
O O20 0.000000 0.236389 0.000000
O O21 0.250000 0.315794 0.432531
O O22 0.000000 0.287385 0.500000
O O23 0.250000 0.393413 0.217590
#
# Coordination Sequence:
#
# PCOD9398947 Si02
#       8
#     8   8   8   8   8   8   8   8
#     4  10  21  36  51  68  96 137 183 228 270 309
#     4  10  18  29  43  63  92 123 158 199 245 299
#     4  11  20  30  47  71  97 129 169 212 257 300
#     4   9  19  33  49  72 101 131 165 201 245 300
#     4  10  21  36  55  78 102 132 169 207 247 294
#     4   9  18  27  37  59  88 120 155 194 241 288
#     4  10  21  37  57  81 108 140 169 200 244 296
#     4  10  19  32  50  71  97 129 163 205 255 304
#
# _framework density 17.38954
#
# number of rings (size 3 to 8) (size 9 to 14) (size 15 to 20)
#    0.000    2.125    1.250    3.375    0.000    7.000 
#    0.000    0.000    0.000    0.375    0.000    0.000 
#    0.000    0.500    0.000    1.625    0.000    2.000 
#
# Total GULP energy -356779.057523 kJ/mol
# GULP energy per Si atom -5574.672774 kJ/mol
# Density = 1.734996 g / cm^3
# Si number density = 17.389540 Si / 1000 Ang^3
#
#
#
# Elastic Constant Matrix: (Units=GPa)
#
#
# Indices 1 2 3 4 5 6 
#
# 1 38.6026 35.3427 38.8675 0.0000 0.0000 0.0000
# 2 35.3427 67.5135 27.2416 0.0000 0.0000 0.0000
# 3 38.8675 27.2416 106.6004 0.0000 0.0000 0.0000
# 4 0.0000 0.0000 0.0000 9.9686 0.0000 0.0000
# 5 0.0000 0.0000 0.0000 0.0000 31.0732 0.0000
# 6 0.0000 0.0000 0.0000 0.0000 0.0000 17.6901
#
#
#
# Elastic Compliance Matrix: (Units=1/GPa)
#
#
# Indices 1 2 3 4 5 6 
#
# 1 0.072632 -0.030479 -0.018693 0.000000 0.000000 0.000000
# 2 -0.030479 0.029305 0.003624 0.000000 0.000000 0.000000
# 3 -0.018693 0.003624 0.015270 0.000000 0.000000 0.000000
# 4 0.000000 0.000000 0.000000 0.100315 0.000000 0.000000
# 5 0.000000 0.000000 0.000000 0.000000 0.032182 0.000000
# 6 0.000000 0.000000 0.000000 0.000000 0.000000 0.056529
#
#
# Mechanical properties :
#
#
# Convention : Reuss Voigt Hill
#
# Bulk Modulus (GPa) = 38.29880 46.18002 42.23941
# Shear Modulus (GPa) = 12.31423 19.16403 15.73913
#
# Velocity S-wave (km/s) = 2.66398 3.32331 3.01174
# Velocity P-wave (km/s) = 5.61553 6.42959 6.03630
#
# Compressibility (1/GPa) = 0.02611048
#
# Stress axis : x y z
#
# Youngs Moduli (GPa) = 13.76801 34.12363 65.48602
#
# Poissons Ratio (x) = 1.04007 1.22415
# Poissons Ratio (y) = 0.41964 -0.23733
# Poissons Ratio (z) = 0.25737 -0.12367
#
# Static dielectric constant tensor:
#      x y z
#    x 1.582870 0.000000 0.000000 
#    y 0.000000 1.616960 0.000000 
#    z 0.000000 0.000000 1.642600 
# 
# From -- ./inp_files/28466.got.cif
#   From: 2010.05.17/outbox.cif.g08.bks.cpg/sg51_15_cif.got.tgz:28466.got - 2010.06.03 11:52:47.
