data_PCOD9398418
_publ_section_title
;
Structure prediction by ZEFSAII (Michael W. Deem and Ramdas Pophale) SiO2 
 PCOD9398418
Probable space group: P M M A
;
_chemical_formula_sum "Si O2"
_cell_formula_units_Z 56
_cell_length_a 15.016621
_cell_length_b 20.374864
_cell_length_c 8.808292
_cell_angle_alpha 90.000000
_cell_angle_beta 90.000000
_cell_angle_gamma 90.000000
_cell_volume 2694.999207
_symmetry_space_group_name_H-M "P M M A"
_symmetry_group_IT_number 51
_symmetry_cell_setting 'orthorhombic'
loop_
_space_group_symop_operation_xyz
x,y,z
1/2-x,-y,z
1/2+x,-y,-z
-x,y,-z
-x,-y,-z
1/2+x,y,-z
1/2-x,y,z
x,-y,z
loop_
_atom_site_type_symbol
_atom_site_label
_atom_site_fract_x
_atom_site_fract_y
_atom_site_fract_z
Si Si1 0.101630 0.931500 0.945169
Si Si2 0.155662 0.328657 0.176838
Si Si3 0.648414 0.778822 0.377134
Si Si4 0.598554 0.425691 0.074826
Si Si5 0.392155 0.792839 0.980154
Si Si6 0.029239 0.654412 0.648362
Si Si7 0.596976 0.926179 0.422052
O O1 0.139348 0.866090 0.017457
O O2 0.097585 0.927229 0.762181
O O3 0.145344 0.000000 0.987464
O O4 0.000000 0.933312 0.000000
O O5 0.250000 0.332777 0.261964
O O6 0.063859 0.330274 0.268411
O O7 0.152431 0.385886 0.050951
O O8 0.150753 0.261465 0.083340
O O9 0.750000 0.759947 0.407524
O O10 0.633004 0.784433 0.195442
O O11 0.580889 0.719338 0.411425
O O12 0.633905 0.851767 0.450737
O O13 0.629192 0.500000 0.100593
O O14 0.588958 0.384298 0.229749
O O15 0.500000 0.428568 0.000000
O O16 0.500000 0.788242 0.000000
O O17 0.000000 0.614065 0.500000
O O18 0.500000 0.925845 0.500000
O O19 0.635429 0.000000 0.463922
#
# Coordination Sequence:
#
# PCOD9398418 Si02
#       7
#     8   8   8   8   8   8   8
#     4   8  15  26  46  75 103 137 181 227 283 348
#     4  11  21  37  61  88 116 154 201 244 292 350
#     4  11  21  34  55  83 115 152 198 250 300 351
#     4   9  19  38  63  90 117 149 191 236 284 343
#     4  10  16  31  55  79 111 146 193 246 293 347
#     4  11  23  39  59  86 124 161 196 244 298 355
#     4   9  18  33  52  77 106 143 189 239 296 355
#
# _framework density 20.779226999999999
#
# number of rings (size 3 to 8) (size 9 to 14) (size 15 to 20)
#    0.000    2.143    2.857    1.286    0.000    1.429 
#    0.000    0.000    0.000    1.286    0.000    2.000 
#    0.000    0.000    0.000    0.000    0.000    0.000 
#
# Total GULP energy -311778.826219 kJ/mol
# GULP energy per Si atom -5567.479040 kJ/mol
# Density = 2.073193 g / cm^3
# Si number density = 20.779227 Si / 1000 Ang^3
#
#
#
# Elastic Constant Matrix: (Units=GPa)
#
#
# Indices 1 2 3 4 5 6 
#
# 1 118.9837 43.7427 11.0436 0.0000 0.0000 0.0000
# 2 43.7427 147.0767 31.3248 0.0000 0.0000 0.0000
# 3 11.0436 31.3248 42.1769 0.0000 0.0000 0.0000
# 4 0.0000 0.0000 0.0000 6.6974 0.0000 0.0000
# 5 0.0000 0.0000 0.0000 0.0000 1.7191 0.0000
# 6 0.0000 0.0000 0.0000 0.0000 0.0000 -25.5357
#
#
#
# Elastic Compliance Matrix: (Units=1/GPa)
#
#
# Indices 1 2 3 4 5 6 
#
# 1 0.009444 -0.002711 -0.000459 0.000000 0.000000 0.000000
# 2 -0.002711 0.008855 -0.005867 0.000000 0.000000 0.000000
# 3 -0.000459 -0.005867 0.028187 0.000000 0.000000 0.000000
# 4 0.000000 0.000000 0.000000 0.149312 0.000000 0.000000
# 5 0.000000 0.000000 0.000000 0.000000 0.581692 0.000000
# 6 0.000000 0.000000 0.000000 0.000000 0.000000 -0.039161
#
#
# Mechanical properties :
#
#
# Convention : Reuss Voigt Hill
#
# Bulk Modulus (GPa) = 35.19653 53.38439 44.29046
# Shear Modulus (GPa) = 6.52849 11.38458 8.95653
#
# Velocity S-wave (km/s) = 1.77445 2.34323 2.07839
# Velocity P-wave (km/s) = 4.60145 5.75048 5.20775
#
# Compressibility (1/GPa) = 0.02841189
#
# Stress axis : x y z
#
# Youngs Moduli (GPa) = 105.89003 112.93122 35.47705
#
# Poissons Ratio (x) = 0.30614 0.01630
# Poissons Ratio (y) = 0.28705 0.20814
# Poissons Ratio (z) = 0.04864 0.66254
#
# Static dielectric constant tensor:
#      x y z
#    x 1.735730 0.000000 0.000000 
#    y 0.000000 1.814950 0.000000 
#    z 0.000000 0.000000 1.721960 
# 
# From -- ./inp_files/8553.got.cif
#   From: 2010.05.17/outbox.cif.g08.bks.cpg/sg51_5_cif.got.tgz:8553.got - 2010.06.03 11:52:47.
