data_PCOD9398234
_publ_section_title
;
Structure prediction by ZEFSAII (Michael W. Deem and Ramdas Pophale) SiO2 
 PCOD9398234
Probable space group: P B A N
;
_chemical_formula_sum "Si O2"
_cell_formula_units_Z 34
_cell_length_a 27.577364
_cell_length_b 14.064717
_cell_length_c 5.369386
_cell_angle_alpha 90.000000
_cell_angle_beta 90.000000
_cell_angle_gamma 90.000000
_cell_volume 2082.612044
_symmetry_space_group_name_H-M "P B A N"
_symmetry_group_IT_number 50
_space_group.IT_coordinate_system_code '2'
_symmetry_cell_setting 'orthorhombic'
loop_
_space_group_symop_operation_xyz
x,y,z
1/2-x,1/2-y,z
x,1/2-y,-z
1/2-x,y,-z
-x,-y,-z
1/2+x,1/2+y,-z
-x,1/2+y,z
1/2+x,-y,z
loop_
_atom_site_type_symbol
_atom_site_label
_atom_site_fract_x
_atom_site_fract_y
_atom_site_fract_z
Si Si1 0.539200 0.750000 0.500000
Si Si2 0.444296 0.538069 0.999687
Si Si3 0.525227 0.250000 0.000000
Si Si4 0.597838 0.946542 0.497711
Si Si5 0.801869 0.643839 0.393501
Si Si6 0.250000 0.250000 0.000000
O O1 0.507285 0.754259 0.750393
O O2 0.571375 0.844438 0.490630
O O3 0.445425 0.652005 0.985449
O O4 0.416763 0.494929 0.759393
O O5 0.500000 0.500000 0.000000
O O6 0.421443 0.505141 0.260694
O O7 0.654524 0.924827 0.456165
O O8 0.811887 0.750000 0.500000
O O9 0.750000 0.611382 0.500000
O O10 0.788085 0.674340 0.116059
#
# Coordination Sequence:
#
# PCOD9398234 Si02
#       6
#     4   8   4   8   8   2
#     4  12  20  34  59  82 116 152 187 232 272 340
#     4  12  24  39  56  84 112 155 198 236 278 341
#     4  12  24  39  56  76 120 150 192 247 274 316
#     4  12  23  36  59  87 115 157 193 221 289 349
#     4   9  20  34  54  85 118 151 186 233 285 347
#     4   8  18  34  56  78 124 154 182 230 290 340
#
# _framework density 16.325654
#
# number of rings (size 3 to 8) (size 9 to 14) (size 15 to 20)
#    0.000    1.176    5.882    2.118    6.588    0.941 
#    0.000    0.000    0.000    0.000    0.000    4.941 
#    0.000    0.000    0.000    0.000    0.000    0.000 
#
# Total GULP energy -189433.747807 kJ/mol
# GULP energy per Si atom -5571.580818 kJ/mol
# Density = 1.628850 g / cm^3
# Si number density = 16.325654 Si / 1000 Ang^3
#
#
#
# Elastic Constant Matrix: (Units=GPa)
#
#
# Indices 1 2 3 4 5 6 
#
# 1 106.7981 42.5999 43.3102 0.0000 0.0000 0.0000
# 2 42.5999 122.0144 33.6197 0.0000 0.0000 0.0000
# 3 43.3102 33.6197 107.9851 0.0000 0.0000 0.0000
# 4 0.0000 0.0000 0.0000 40.3291 0.0000 0.0000
# 5 0.0000 0.0000 0.0000 0.0000 52.0866 0.0000
# 6 0.0000 0.0000 0.0000 0.0000 0.0000 21.9560
#
#
#
# Elastic Compliance Matrix: (Units=1/GPa)
#
#
# Indices 1 2 3 4 5 6 
#
# 1 0.012221 -0.003190 -0.003908 0.000000 0.000000 0.000000
# 2 -0.003190 0.009797 -0.001771 0.000000 0.000000 0.000000
# 3 -0.003908 -0.001771 0.011379 0.000000 0.000000 0.000000
# 4 0.000000 0.000000 0.000000 0.024796 0.000000 0.000000
# 5 0.000000 0.000000 0.000000 0.000000 0.019199 0.000000
# 6 0.000000 0.000000 0.000000 0.000000 0.000000 0.045546
#
#
# Mechanical properties :
#
#
# Convention : Reuss Voigt Hill
#
# Bulk Modulus (GPa) = 63.85938 63.98414 63.92176
# Shear Modulus (GPa) = 34.27097 37.35886 35.81492
#
# Velocity S-wave (km/s) = 4.58668 4.78886 4.68886
# Velocity P-wave (km/s) = 8.20068 8.35794 8.27968
#
# Compressibility (1/GPa) = 0.01565941
#
# Stress axis : x y z
#
# Youngs Moduli (GPa) = 81.82767 102.06781 87.87782
#
# Poissons Ratio (x) = 0.32558 0.34346
# Poissons Ratio (y) = 0.26102 0.15562
# Poissons Ratio (z) = 0.31981 0.18075
#
# Static dielectric constant tensor:
#      x y z
#    x 1.537700 0.000000 0.000000 
#    y 0.000000 1.523850 0.000000 
#    z 0.000000 0.000000 2.003180 
# 
# From -- ./inp_files/2215.got.cif
#   From: 2010.05.17/outbox.cif.g08.bks.cpg/sg50_2_cif.got.tgz:2215.got - 2010.06.03 11:33:33.
