data_PCOD9398403
_publ_section_title
;
Structure prediction by ZEFSAII (Michael W. Deem and Ramdas Pophale) SiO2 
 PCOD9398403
Probable space group: P M M A
;
_chemical_formula_sum "Si O2"
_cell_formula_units_Z 40
_cell_length_a 7.692263
_cell_length_b 12.298669
_cell_length_c 21.167908
_cell_angle_alpha 90.000000
_cell_angle_beta 90.000000
_cell_angle_gamma 90.000000
_cell_volume 2002.581395
_symmetry_space_group_name_H-M "P M M A"
_symmetry_group_IT_number 51
_symmetry_cell_setting 'orthorhombic'
loop_
_space_group_symop_operation_xyz
x,y,z
1/2-x,-y,z
1/2+x,-y,-z
-x,y,-z
-x,-y,-z
1/2+x,y,-z
1/2-x,y,z
x,-y,z
loop_
_atom_site_type_symbol
_atom_site_label
_atom_site_fract_x
_atom_site_fract_y
_atom_site_fract_z
Si Si1 0.051634 0.500000 0.586566
Si Si2 0.041035 0.624979 0.071456
Si Si3 0.461088 0.721768 0.198545
Si Si4 0.542013 0.122454 0.692208
Si Si5 0.958546 0.500000 0.728698
Si Si6 0.543446 0.738926 0.431743
O O1 0.250000 0.500000 0.562130
O O2 0.968237 0.384346 0.568887
O O3 0.051981 0.500000 0.662158
O O4 0.250000 0.619749 0.077340
O O5 0.976725 0.500000 0.080240
O O6 0.977361 0.705119 0.126640
O O7 0.000000 0.658265 0.000000
O O8 0.250000 0.731969 0.196485
O O9 0.526129 0.815879 0.245240
O O10 0.500447 0.607758 0.232664
O O11 0.750000 0.115736 0.699527
O O12 0.513487 0.193149 0.629114
O O13 0.473286 0.000000 0.685518
O O14 0.750000 0.500000 0.717226
O O15 0.500000 0.788886 0.500000
O O16 0.750000 0.729519 0.426433
#
# Coordination Sequence:
#
# PCOD9398403 Si02
#       6
#     4   8   8   8   4   8
#     4  10  21  35  51  79 111 133 161 205 255 308
#     4   9  16  27  44  70 103 135 166 200 244 300
#     4   9  16  29  51  76 101 132 169 209 253 304
#     4  10  21  37  57  79 100 129 175 222 260 302
#     4  10  16  27  52  77  98 133 172 205 254 312
#     4  11  23  38  56  78 106 137 168 207 256 309
#
# _framework density 19.974219999999999
#
# number of rings (size 3 to 8) (size 9 to 14) (size 15 to 20)
#    0.000    2.200    3.000    0.900    0.000    1.600 
#    0.000    2.000    0.000    0.600    0.000    0.000 
#    0.000    0.000    0.000    0.000    0.000    0.000 
#
# Total GULP energy -223141.465156 kJ/mol
# GULP energy per Si atom -5578.536629 kJ/mol
# Density = 1.992876 g / cm^3
# Si number density = 19.974220 Si / 1000 Ang^3
#
#
#
# Elastic Constant Matrix: (Units=GPa)
#
#
# Indices 1 2 3 4 5 6 
#
# 1 35.7051 11.2469 2.8410 0.0000 0.0000 0.0000
# 2 11.2469 129.5958 80.3742 0.0000 0.0000 0.0000
# 3 2.8410 80.3742 194.0239 0.0000 0.0000 0.0000
# 4 0.0000 0.0000 0.0000 8.6086 0.0000 0.0000
# 5 0.0000 0.0000 0.0000 0.0000 22.0106 0.0000
# 6 0.0000 0.0000 0.0000 0.0000 0.0000 11.4880
#
#
#
# Elastic Compliance Matrix: (Units=1/GPa)
#
#
# Indices 1 2 3 4 5 6 
#
# 1 0.028893 -0.003021 0.000828 0.000000 0.000000 0.000000
# 2 -0.003021 0.010700 -0.004388 0.000000 0.000000 0.000000
# 3 0.000828 -0.004388 0.006960 0.000000 0.000000 0.000000
# 4 0.000000 0.000000 0.000000 0.116162 0.000000 0.000000
# 5 0.000000 0.000000 0.000000 0.000000 0.045433 0.000000
# 6 0.000000 0.000000 0.000000 0.000000 0.000000 0.087048
#
#
# Mechanical properties :
#
#
# Convention : Reuss Voigt Hill
#
# Bulk Modulus (GPa) = 29.94853 60.91655 45.43254
# Shear Modulus (GPa) = 15.65005 26.07895 20.86450
#
# Velocity S-wave (km/s) = 2.80217 3.61727 3.23549
# Velocity P-wave (km/s) = 5.04932 6.92892 6.06241
#
# Compressibility (1/GPa) = 0.03339062
#
# Stress axis : x y z
#
# Youngs Moduli (GPa) = 34.61055 93.45748 143.68434
#
# Poissons Ratio (x) = 0.28236 -0.11904
# Poissons Ratio (y) = 0.10457 0.63052
# Poissons Ratio (z) = -0.02867 0.41011
#
# Static dielectric constant tensor:
#      x y z
#    x 1.751050 0.000000 0.000000 
#    y 0.000000 1.712060 0.000000 
#    z 0.000000 0.000000 1.713180 
# 
# From -- ./inp_files/31410.got.cif
#   From: 2010.05.17/outbox.cif.g08.bks.cpg/sg51_16_cif.got.tgz:31410.got - 2010.06.03 11:52:47.
