data_PCOD9398515
_publ_section_title
;
Structure prediction by ZEFSAII (Michael W. Deem and Ramdas Pophale) SiO2 
 PCOD9398515
Probable space group: P M M A
;
_chemical_formula_sum "Si O2"
_cell_formula_units_Z 56
_cell_length_a 27.360518
_cell_length_b 7.911901
_cell_length_c 15.096194
_cell_angle_alpha 90.000000
_cell_angle_beta 90.000000
_cell_angle_gamma 90.000000
_cell_volume 3267.929118
_symmetry_space_group_name_H-M "P M M A"
_symmetry_group_IT_number 51
_symmetry_cell_setting 'orthorhombic'
loop_
_space_group_symop_operation_xyz
x,y,z
1/2-x,-y,z
1/2+x,-y,-z
-x,y,-z
-x,-y,-z
1/2+x,y,-z
1/2-x,y,z
x,-y,z
loop_
_atom_site_type_symbol
_atom_site_label
_atom_site_fract_x
_atom_site_fract_y
_atom_site_fract_z
Si Si1 0.034652 0.703453 0.125392
Si Si2 0.536527 0.801609 0.376663
Si Si3 0.611834 0.299407 0.014382
Si Si4 0.805772 0.707371 0.880211
Si Si5 0.619995 0.295820 0.733552
Si Si6 0.429794 0.805276 0.809314
Si Si7 0.930061 0.697959 0.562640
O O1 0.026054 0.500000 0.119515
O O2 0.072988 0.736463 0.204411
O O3 0.983617 0.786944 0.148070
O O4 0.063350 0.762722 0.037702
O O5 0.563690 0.732344 0.289628
O O6 0.484309 0.715080 0.394652
O O7 0.566955 0.783516 0.467042
O O8 0.526088 0.000000 0.361742
O O9 0.611244 0.500000 0.999757
O O10 0.606956 0.269066 0.118270
O O11 0.659658 0.236932 0.961978
O O12 0.750000 0.764105 0.886278
O O13 0.805402 0.500000 0.880139
O O14 0.833239 0.761698 0.789832
O O15 0.623549 0.500000 0.726938
O O16 0.607879 0.232477 0.635302
O O17 0.416371 0.000000 0.799502
O O18 0.920644 0.500000 0.548171
#
# Coordination Sequence:
#
# PCOD9398515 Si02
#       7
#     8   8   8   8   8   8   8
#     4   9  16  28  42  58  85 117 146 177 210 250
#     4  10  20  30  39  56  86 119 151 182 213 248
#     4   9  18  29  44  64  85 113 145 177 216 259
#     4   8  14  27  47  70  92 111 135 173 222 271
#     4   8  14  24  41  65  89 112 141 175 213 261
#     4  11  21  29  39  58  86 120 152 182 213 250
#     4  10  17  27  44  63  83 113 149 181 214 251
#
# _framework density 17.136236
#
# number of rings (size 3 to 8) (size 9 to 14) (size 15 to 20)
#    0.000    2.714    1.429    4.286    0.000    4.000 
#    0.000    0.000    0.000    0.429    0.000    1.000 
#    0.000    5.714    0.000    0.000    0.000    0.000 
#
# Total GULP energy -311985.611437 kJ/mol
# GULP energy per Si atom -5571.171633 kJ/mol
# Density = 1.709723 g / cm^3
# Si number density = 17.136236 Si / 1000 Ang^3
#
#
#
# Elastic Constant Matrix: (Units=GPa)
#
#
# Indices 1 2 3 4 5 6 
#
# 1 71.9112 -2.0169 53.8026 0.0000 0.0000 0.0000
# 2 -2.0169 12.4498 -4.0316 0.0000 0.0000 0.0000
# 3 53.8026 -4.0316 145.1142 0.0000 0.0000 0.0000
# 4 0.0000 0.0000 0.0000 -9.3716 0.0000 0.0000
# 5 0.0000 0.0000 0.0000 0.0000 11.1084 0.0000
# 6 0.0000 0.0000 0.0000 0.0000 0.0000 54.7392
#
#
#
# Elastic Compliance Matrix: (Units=1/GPa)
#
#
# Indices 1 2 3 4 5 6 
#
# 1 0.019253 0.000815 -0.007115 0.000000 0.000000 0.000000
# 2 0.000815 0.081086 0.001951 0.000000 0.000000 0.000000
# 3 -0.007115 0.001951 0.009583 0.000000 0.000000 0.000000
# 4 0.000000 0.000000 0.000000 -0.106705 0.000000 0.000000
# 5 0.000000 0.000000 0.000000 0.000000 0.090022 0.000000
# 6 0.000000 0.000000 0.000000 0.000000 0.000000 0.018268
#
#
# Mechanical properties :
#
#
# Convention : Reuss Voigt Hill
#
# Bulk Modulus (GPa) = 9.87924 36.10926 22.99425
# Shear Modulus (GPa) = 32.47837 23.40992 27.94415
#
# Velocity S-wave (km/s) = 4.35823 3.70010 4.04258
# Velocity P-wave (km/s) = 5.57703 6.27470 5.93612
#
# Compressibility (1/GPa) = 0.10122237
#
# Stress axis : x y z
#
# Youngs Moduli (GPa) = 51.94124 12.33252 104.34664
#
# Poissons Ratio (x) = -0.01005 0.74247
# Poissons Ratio (y) = -0.04232 -0.20355
# Poissons Ratio (z) = 0.36958 -0.02406
#
# Static dielectric constant tensor:
#      x y z
#    x 1.556500 0.000000 0.000000 
#    y 0.000000 1.609570 0.000000 
#    z 0.000000 0.000000 1.638890 
# 
# From -- ./inp_files/26520.got.cif
#   From: 2010.05.17/outbox.cif.g08.bks.cpg/sg51_14_cif.got.tgz:26520.got - 2010.06.03 11:52:47.
