data_PCOD9398546
_publ_section_title
;
Structure prediction by ZEFSAII (Michael W. Deem and Ramdas Pophale) SiO2 
 PCOD9398546
Probable space group: P M M A
;
_chemical_formula_sum "Si O2"
_cell_formula_units_Z 64
_cell_length_a 27.683873
_cell_length_b 8.766439
_cell_length_c 17.709221
_cell_angle_alpha 90.000000
_cell_angle_beta 90.000000
_cell_angle_gamma 90.000000
_cell_volume 4297.832851
_symmetry_space_group_name_H-M "P M M A"
_symmetry_group_IT_number 51
_symmetry_cell_setting 'orthorhombic'
loop_
_space_group_symop_operation_xyz
x,y,z
1/2-x,-y,z
1/2+x,-y,-z
-x,y,-z
-x,-y,-z
1/2+x,y,-z
1/2-x,y,z
x,-y,z
loop_
_atom_site_type_symbol
_atom_site_label
_atom_site_fract_x
_atom_site_fract_y
_atom_site_fract_z
Si Si1 0.194247 0.315288 0.401490
Si Si2 0.061846 0.685505 0.661950
Si Si3 0.884395 0.316492 0.478566
Si Si4 0.575644 0.318048 0.859817
Si Si5 0.036155 0.684147 0.828142
Si Si6 0.557671 0.175732 0.016284
Si Si7 0.125490 0.180465 0.278937
Si Si8 0.954521 0.317722 0.613245
O O1 0.250000 0.271044 0.408785
O O2 0.191414 0.500000 0.399437
O O3 0.161273 0.261577 0.472415
O O4 0.169817 0.253127 0.325228
O O5 0.064797 0.500000 0.664022
O O6 0.103550 0.741514 0.605235
O O7 0.058842 0.736446 0.748755
O O8 0.010088 0.721998 0.624436
O O9 0.878830 0.500000 0.472904
O O10 0.931317 0.290205 0.531430
O O11 0.578262 0.500000 0.855166
O O12 0.520928 0.273079 0.833249
O O13 0.614547 0.245392 0.803836
O O14 0.580929 0.263757 0.946022
O O15 0.037555 0.500000 0.831076
O O16 0.062660 0.749783 0.901566
O O17 0.572921 0.000000 0.016701
O O18 0.500000 0.180460 0.000000
O O19 0.078665 0.228994 0.327828
O O20 0.130609 0.000000 0.276675
O O21 0.949469 0.500000 0.628539
#
# Coordination Sequence:
#
# PCOD9398546 Si02
#       8
#     8   8   8   8   8   8   8   8
#     4   9  18  33  50  65  83 109 142 180 221 261
#     4   9  14  22  38  61  84 109 144 181 213 248
#     4   8  14  23  41  64  82 103 139 182 217 251
#     4  10  17  28  43  59  81 110 146 180 209 249
#     4   9  16  25  38  56  80 113 148 179 211 247
#     4   9  17  27  38  55  80 111 145 178 213 247
#     4  11  20  28  42  64  87 112 142 176 216 259
#     4   9  15  26  40  57  81 112 145 176 209 247
#
# _framework density 14.891225
#
# number of rings (size 3 to 8) (size 9 to 14) (size 15 to 20)
#    0.000    2.750    1.250    3.000    0.000    3.750 
#    0.000    0.000    0.000    9.000    0.000    0.000 
#    0.000    1.000    0.000    7.500    0.000    1.750 
#
# Total GULP energy -356362.643056 kJ/mol
# GULP energy per Si atom -5568.166298 kJ/mol
# Density = 1.485733 g / cm^3
# Si number density = 14.891225 Si / 1000 Ang^3
#
#
#
# Elastic Constant Matrix: (Units=GPa)
#
#
# Indices 1 2 3 4 5 6 
#
# 1 61.1289 16.6312 59.2833 0.0000 0.0000 0.0000
# 2 16.6312 22.4616 31.3713 0.0000 0.0000 0.0000
# 3 59.2833 31.3713 137.0817 0.0000 0.0000 0.0000
# 4 0.0000 0.0000 0.0000 -0.1902 0.0000 0.0000
# 5 0.0000 0.0000 0.0000 0.0000 12.1642 0.0000
# 6 0.0000 0.0000 0.0000 0.0000 0.0000 6.5677
#
#
#
# Elastic Compliance Matrix: (Units=1/GPa)
#
#
# Indices 1 2 3 4 5 6 
#
# 1 0.028673 -0.005749 -0.011084 0.000000 0.000000 0.000000
# 2 -0.005749 0.066588 -0.012753 0.000000 0.000000 0.000000
# 3 -0.011084 -0.012753 0.015007 0.000000 0.000000 0.000000
# 4 0.000000 0.000000 0.000000 -5.258006 0.000000 0.000000
# 5 0.000000 0.000000 0.000000 0.000000 0.082208 0.000000
# 6 0.000000 0.000000 0.000000 0.000000 0.000000 0.152261
#
#
# Mechanical properties :
#
#
# Convention : Reuss Voigt Hill
#
# Bulk Modulus (GPa) = 19.57098 48.36044 33.96571
# Shear Modulus (GPa) = -1.03368 11.26744 5.11688
#
# Velocity S-wave (km/s) = -0.83406 2.75371 1.85570
# Velocity P-wave (km/s) = 3.49909 6.53122 5.23930
#
# Compressibility (1/GPa) = 0.05109606
#
# Stress axis : x y z
#
# Youngs Moduli (GPa) = 34.87648 15.01774 66.63570
#
# Poissons Ratio (x) = 0.08633 0.73861
# Poissons Ratio (y) = 0.20050 0.84978
# Poissons Ratio (z) = 0.38658 0.19151
#
# Static dielectric constant tensor:
#      x y z
#    x 1.472780 0.000000 0.000000 
#    y 0.000000 1.495560 0.000000 
#    z 0.000000 0.000000 1.520620 
# 
# From -- ./inp_files/31011.got.cif
#   From: 2010.05.17/outbox.cif.g08.bks.cpg/sg51_16_cif.got.tgz:31011.got - 2010.06.03 11:52:47.
