data_PCOD9398046
_publ_section_title
;
Structure prediction by ZEFSAII (Michael W. Deem and Ramdas Pophale) SiO2 
 PCOD9398046
Probable space group: P B A N
;
_chemical_formula_sum "Si O2"
_cell_formula_units_Z 40
_cell_length_a 19.468549
_cell_length_b 8.797895
_cell_length_c 10.851882
_cell_angle_alpha 90.000000
_cell_angle_beta 90.000000
_cell_angle_gamma 90.000000
_cell_volume 1858.734765
_symmetry_space_group_name_H-M "P B A N"
_symmetry_group_IT_number 50
_space_group.IT_coordinate_system_code '2'
_symmetry_cell_setting 'orthorhombic'
loop_
_space_group_symop_operation_xyz
x,y,z
1/2-x,1/2-y,z
x,1/2-y,-z
1/2-x,y,-z
-x,-y,-z
1/2+x,1/2+y,-z
-x,1/2+y,z
1/2+x,-y,z
loop_
_atom_site_type_symbol
_atom_site_label
_atom_site_fract_x
_atom_site_fract_y
_atom_site_fract_z
Si Si1 0.593259 0.376559 0.757356
Si Si2 0.271873 0.571800 0.128234
Si Si3 0.853217 0.039757 0.280356
Si Si4 0.458814 0.113279 0.089908
Si Si5 0.574639 0.928313 0.480531
O O1 0.646775 0.435296 0.859212
O O2 0.626258 0.217813 0.714027
O O3 0.518269 0.340526 0.811376
O O4 0.593993 0.504311 0.652230
O O5 0.250000 0.750000 0.123024
O O6 0.225587 0.513738 0.240849
O O7 0.250000 0.499023 0.000000
O O8 0.899746 0.964495 0.171951
O O9 0.873098 0.978190 0.413221
O O10 0.436349 0.250000 0.000000
O O11 0.500000 0.000000 0.000000
O O12 0.567507 0.750000 0.500000
O O13 0.500000 0.000000 0.500000
#
# Coordination Sequence:
#
# PCOD9398046 Si02
#       5
#     8   8   8   8   8
#     4  11  23  42  69  97 130 176 221 274 327 394
#     4   9  20  40  68  98 133 172 219 266 323 398
#     4  11  23  43  67  98 132 172 223 273 328 395
#     4  12  24  37  64  99 134 168 217 271 333 392
#     4  12  26  43  66  94 132 170 225 281 336 395
#
# _framework density 21.520015999999998
#
# number of rings (size 3 to 8) (size 9 to 14) (size 15 to 20)
#    0.000    1.000    4.000    3.000    5.600    0.800 
#    0.000    5.000    0.000    0.000    0.000    0.000 
#    0.000    0.000    0.000    0.000    0.000    0.000 
#
# Total GULP energy -223451.106169 kJ/mol
# GULP energy per Si atom -5586.277654 kJ/mol
# Density = 2.147104 g / cm^3
# Si number density = 21.520016 Si / 1000 Ang^3
#
#
#
# Elastic Constant Matrix: (Units=GPa)
#
#
# Indices 1 2 3 4 5 6 
#
# 1 69.5755 -3.5966 0.0429 0.0000 0.0000 0.0000
# 2 -3.5966 97.1913 22.4808 0.0000 0.0000 0.0000
# 3 0.0429 22.4808 81.1916 0.0000 0.0000 0.0000
# 4 0.0000 0.0000 0.0000 41.5995 0.0000 0.0000
# 5 0.0000 0.0000 0.0000 0.0000 30.1154 0.0000
# 6 0.0000 0.0000 0.0000 0.0000 0.0000 19.4738
#
#
#
# Elastic Compliance Matrix: (Units=1/GPa)
#
#
# Indices 1 2 3 4 5 6 
#
# 1 0.014403 0.000571 -0.000166 0.000000 0.000000 0.000000
# 2 0.000571 0.011016 -0.003050 0.000000 0.000000 0.000000
# 3 -0.000166 -0.003050 0.013161 0.000000 0.000000 0.000000
# 4 0.000000 0.000000 0.000000 0.024039 0.000000 0.000000
# 5 0.000000 0.000000 0.000000 0.000000 0.033206 0.000000
# 6 0.000000 0.000000 0.000000 0.000000 0.000000 0.051351
#
#
# Mechanical properties :
#
#
# Convention : Reuss Voigt Hill
#
# Bulk Modulus (GPa) = 30.03930 31.75695 30.89812
# Shear Modulus (GPa) = 30.56962 33.50651 32.03806
#
# Velocity S-wave (km/s) = 3.77307 3.95016 3.86263
# Velocity P-wave (km/s) = 5.74199 5.96607 5.85510
#
# Compressibility (1/GPa) = 0.03328972
#
# Stress axis : x y z
#
# Youngs Moduli (GPa) = 69.43231 90.77950 75.98068
#
# Poissons Ratio (x) = -0.05186 0.01260
# Poissons Ratio (y) = -0.03967 0.23177
# Poissons Ratio (z) = 0.01151 0.27691
#
# Static dielectric constant tensor:
#      x y z
#    x 1.768550 0.000000 0.000000 
#    y 0.000000 1.815580 0.000000 
#    z 0.000000 0.000000 1.881390 
# 
# From -- ./inp_files/21634.got.cif
#   From: 2010.05.17/outbox.cif.g08.bks.cpg/sg50_11_cif.got.tgz:21634.got - 2010.06.03 11:33:33.
