data_PCOD9398935
_publ_section_title
;
Structure prediction by ZEFSAII (Michael W. Deem and Ramdas Pophale) SiO2 
 PCOD9398935
Probable space group: P M M A
;
_chemical_formula_sum "Si O2"
_cell_formula_units_Z 48
_cell_length_a 31.826440
_cell_length_b 9.088628
_cell_length_c 9.172796
_cell_angle_alpha 90.000000
_cell_angle_beta 90.000000
_cell_angle_gamma 90.000000
_cell_volume 2653.310805
_symmetry_space_group_name_H-M "P M M A"
_symmetry_group_IT_number 51
_symmetry_cell_setting 'orthorhombic'
loop_
_space_group_symop_operation_xyz
x,y,z
1/2-x,-y,z
1/2+x,-y,-z
-x,y,-z
-x,-y,-z
1/2+x,y,-z
1/2-x,y,z
x,-y,z
loop_
_atom_site_type_symbol
_atom_site_label
_atom_site_fract_x
_atom_site_fract_y
_atom_site_fract_z
Si Si1 0.250000 0.674661 0.651605
Si Si2 0.657339 0.673983 0.324065
Si Si3 0.920345 0.676291 0.840120
Si Si4 0.496705 0.176003 0.329765
Si Si5 0.250000 0.825524 0.337397
Si Si6 0.917857 0.824673 0.155090
Si Si7 0.164887 0.675276 0.329929
O O1 0.250000 0.500000 0.608996
O O2 0.294591 0.700940 0.728117
O O3 0.250000 0.771494 0.505871
O O4 0.648408 0.500000 0.305871
O O5 0.622943 0.767045 0.240163
O O6 0.657081 0.706139 0.497925
O O7 0.923252 0.500000 0.848695
O O8 0.958829 0.739723 0.747076
O O9 0.876451 0.713880 0.760708
O O10 0.921164 0.745897 0.999931
O O11 0.500000 0.214131 0.500000
O O12 0.540524 0.208714 0.249389
O O13 0.489265 0.000000 0.318649
O O14 0.206664 0.758292 0.277507
O O15 0.250000 0.000000 0.327077
O O16 0.915728 0.000000 0.135303
O O17 0.172190 0.500000 0.318823
#
# Coordination Sequence:
#
# PCOD9398935 Si02
#       7
#     4   8   8   8   4   8   8
#     4   8  16  32  53  78 111 146 180 226 278 320
#     4   9  17  33  57  81 106 140 184 228 268 316
#     4  11  23  38  58  82 108 143 185 225 267 320
#     4  10  22  40  60  82 110 143 177 218 272 327
#     4  10  18  28  51  84 111 140 180 224 268 318
#     4  11  23  37  54  79 113 148 178 217 273 328
#     4   9  19  36  56  79 109 144 181 225 275 320
#
# _framework density 18.090606000000001
#
# number of rings (size 3 to 8) (size 9 to 14) (size 15 to 20)
#    0.000    2.167    0.000    4.250    0.000    7.667 
#    0.000    0.833    0.000    2.000    0.000    0.000 
#    0.000    0.000    0.000    0.000    0.000    0.000 
#
# Total GULP energy -267946.770418 kJ/mol
# GULP energy per Si atom -5582.224384 kJ/mol
# Density = 1.804943 g / cm^3
# Si number density = 18.090606 Si / 1000 Ang^3
#
#
#
# Elastic Constant Matrix: (Units=GPa)
#
#
# Indices 1 2 3 4 5 6 
#
# 1 201.1581 91.9065 94.6026 0.0000 0.0000 0.0000
# 2 91.9065 62.9256 59.1062 0.0000 0.0000 0.0000
# 3 94.6026 59.1062 109.1762 0.0000 0.0000 0.0000
# 4 0.0000 0.0000 0.0000 26.9946 0.0000 0.0000
# 5 0.0000 0.0000 0.0000 0.0000 -18.1993 0.0000
# 6 0.0000 0.0000 0.0000 0.0000 0.0000 162.4286
#
#
#
# Elastic Compliance Matrix: (Units=1/GPa)
#
#
# Indices 1 2 3 4 5 6 
#
# 1 0.015233 -0.020042 -0.002349 0.000000 0.000000 0.000000
# 2 -0.020042 0.058704 -0.014415 0.000000 0.000000 0.000000
# 3 -0.002349 -0.014415 0.018999 0.000000 0.000000 0.000000
# 4 0.000000 0.000000 0.000000 0.037044 0.000000 0.000000
# 5 0.000000 0.000000 0.000000 0.000000 -0.054947 0.000000
# 6 0.000000 0.000000 0.000000 0.000000 0.000000 0.006157
#
#
# Mechanical properties :
#
#
# Convention : Reuss Voigt Hill
#
# Bulk Modulus (GPa) = 51.74843 96.05449 73.90146
# Shear Modulus (GPa) = 31.00896 42.75441 36.88168
#
# Velocity S-wave (km/s) = 4.14465 4.86670 4.52012
# Velocity P-wave (km/s) = 7.18132 9.20822 8.25720
#
# Compressibility (1/GPa) = 0.01932426
#
# Stress axis : x y z
#
# Youngs Moduli (GPa) = 65.64711 17.03449 52.63452
#
# Poissons Ratio (x) = 0.34141 0.12364
# Poissons Ratio (y) = 1.31571 0.75872
# Poissons Ratio (z) = 0.15421 0.24555
#
# Static dielectric constant tensor:
#      x y z
#    x 1.622410 0.000000 0.000000 
#    y 0.000000 1.600360 0.000000 
#    z 0.000000 0.000000 1.594800 
# 
# From -- ./inp_files/12917.got.cif
#   From: 2010.05.17/outbox.cif.g08.bks.cpg/sg51_7_cif.got.tgz:12917.got - 2010.06.03 11:52:47.
