data_PCOD9398340
_publ_section_title
;
Structure prediction by ZEFSAII (Michael W. Deem and Ramdas Pophale) SiO2 
 PCOD9398340
Probable space group: P M M A
;
_chemical_formula_sum "Si O2"
_cell_formula_units_Z 28
_cell_length_a 5.570013
_cell_length_b 20.411327
_cell_length_c 11.684569
_cell_angle_alpha 90.000000
_cell_angle_beta 90.000000
_cell_angle_gamma 90.000000
_cell_volume 1328.434503
_symmetry_space_group_name_H-M "P M M A"
_symmetry_group_IT_number 51
_symmetry_cell_setting 'orthorhombic'
loop_
_space_group_symop_operation_xyz
x,y,z
1/2-x,-y,z
1/2+x,-y,-z
-x,y,-z
-x,-y,-z
1/2+x,y,-z
1/2-x,y,z
x,-y,z
loop_
_atom_site_type_symbol
_atom_site_label
_atom_site_fract_x
_atom_site_fract_y
_atom_site_fract_z
Si Si1 0.750000 0.760482 0.433233
Si Si2 0.250000 0.926443 0.872333
Si Si3 0.250000 0.117276 0.232813
Si Si4 0.250000 0.101204 0.493078
Si Si5 0.750000 0.794378 0.969083
Si Si6 0.750000 0.422475 0.618751
Si Si7 0.250000 0.372044 0.644497
O O1 0.500000 0.748477 0.500000
O O2 0.750000 0.838718 0.416714
O O3 0.750000 0.706042 0.335496
O O4 0.500664 0.918954 0.802367
O O5 0.250000 0.000000 0.923707
O O6 0.250000 0.865081 0.960866
O O7 0.250000 0.130963 0.366176
O O8 0.250000 0.184466 0.162295
O O9 0.500000 0.065672 0.500000
O O10 0.500000 0.761254 0.000000
O O11 0.750000 0.500000 0.596480
O O12 0.503285 0.402570 0.681266
O O13 0.750000 0.386778 0.494100
#
# Coordination Sequence:
#
# PCOD9398340 Si02
#       7
#     4   4   4   4   4   4   4
#     4  10  16  27  39  53  65  88 129 173 208 225
#     4  10  19  31  51  74  91 106 125 151 198 257
#     4  10  19  32  47  67  91 109 131 166 203 236
#     4  10  21  33  49  61  77 109 147 181 209 236
#     4   8  16  27  44  69  93 109 122 149 193 245
#     4  10  16  20  29  45  67  92 112 142 201 255
#     4  10  14  22  31  43  64  85 114 156 193 238
#
# _framework density 21.077442999999999
#
# number of rings (size 3 to 8) (size 9 to 14) (size 15 to 20)
#    0.000    2.286    2.857    3.429    0.000    5.143 
#    0.000    0.000    0.000    8.571    0.000    0.000 
#    0.000    0.000    0.000    0.000    0.000    0.000 
#
# Total GULP energy -155944.419167 kJ/mol
# GULP energy per Si atom -5569.443542 kJ/mol
# Density = 2.102947 g / cm^3
# Si number density = 21.077443 Si / 1000 Ang^3
#
#
#
# Elastic Constant Matrix: (Units=GPa)
#
#
# Indices 1 2 3 4 5 6 
#
# 1 263.0233 25.2751 8.9198 0.0000 0.0000 0.0000
# 2 25.2751 92.9560 -7.3711 0.0000 0.0000 0.0000
# 3 8.9198 -7.3711 31.3384 0.0000 0.0000 0.0000
# 4 0.0000 0.0000 0.0000 -4.0668 0.0000 0.0000
# 5 0.0000 0.0000 0.0000 0.0000 16.7837 0.0000
# 6 0.0000 0.0000 0.0000 0.0000 0.0000 256.9497
#
#
#
# Elastic Compliance Matrix: (Units=1/GPa)
#
#
# Indices 1 2 3 4 5 6 
#
# 1 0.003964 -0.001189 -0.001408 0.000000 0.000000 0.000000
# 2 -0.001189 0.011319 0.003001 0.000000 0.000000 0.000000
# 3 -0.001408 0.003001 0.033016 0.000000 0.000000 0.000000
# 4 0.000000 0.000000 0.000000 -0.245896 0.000000 0.000000
# 5 0.000000 0.000000 0.000000 0.000000 0.059582 0.000000
# 6 0.000000 0.000000 0.000000 0.000000 0.000000 0.003892
#
#
# Mechanical properties :
#
#
# Convention : Reuss Voigt Hill
#
# Bulk Modulus (GPa) = 20.36395 48.99614 34.68004
# Shear Modulus (GPa) = -42.17234 77.96625 17.89695
#
# Velocity S-wave (km/s) = -4.47791 6.08857 2.91710
# Velocity P-wave (km/s) = 4.12955 8.52783 5.27592
#
# Compressibility (1/GPa) = 0.04910639
#
# Stress axis : x y z
#
# Youngs Moduli (GPa) = 252.27059 88.34569 30.28798
#
# Poissons Ratio (x) = 0.10509 0.04265
# Poissons Ratio (y) = 0.30007 -0.09089
# Poissons Ratio (z) = 0.35521 -0.26512
#
# Static dielectric constant tensor:
#      x y z
#    x 1.881380 0.000000 0.000000 
#    y 0.000000 1.753230 0.000000 
#    z 0.000000 0.000000 1.773520 
# 
# From -- ./inp_files/13387.got.cif
#   From: 2010.05.17/outbox.cif.g08.bks.cpg/sg51_7_cif.got.tgz:13387.got - 2010.06.03 11:52:47.
