data_PCOD9398135
_publ_section_title
;
Structure prediction by ZEFSAII (Michael W. Deem and Ramdas Pophale) SiO2 
 PCOD9398135
Probable space group: P B A N
;
_chemical_formula_sum "Si O2"
_cell_formula_units_Z 56
_cell_length_a 15.237546
_cell_length_b 12.668964
_cell_length_c 14.471496
_cell_angle_alpha 90.000000
_cell_angle_beta 90.000000
_cell_angle_gamma 90.000000
_cell_volume 2793.634341
_symmetry_space_group_name_H-M "P B A N"
_symmetry_group_IT_number 50
_space_group.IT_coordinate_system_code '2'
_symmetry_cell_setting 'orthorhombic'
loop_
_space_group_symop_operation_xyz
x,y,z
1/2-x,1/2-y,z
x,1/2-y,-z
1/2-x,y,-z
-x,-y,-z
1/2+x,1/2+y,-z
-x,1/2+y,z
1/2+x,-y,z
loop_
_atom_site_type_symbol
_atom_site_label
_atom_site_fract_x
_atom_site_fract_y
_atom_site_fract_z
Si Si1 0.644485 0.750000 0.394440
Si Si2 0.102178 0.980033 0.896902
Si Si3 0.896325 0.529724 0.298866
Si Si4 0.651825 0.250000 0.111542
Si Si5 0.396325 0.029724 0.298866
Si Si6 0.602178 0.480033 0.896902
Si Si7 0.250000 0.877397 0.611747
O O1 0.750000 0.750000 0.393251
O O2 0.613766 0.750000 0.500000
O O3 0.614086 0.858031 0.347627
O O4 0.614086 0.641969 0.347626
O O5 0.108726 0.859062 0.863953
O O6 0.000000 0.000000 0.907472
O O7 0.134686 0.043074 0.808278
O O8 0.142584 0.993003 0.000000
O O9 0.865314 0.543074 0.191722
O O10 0.834578 0.440476 0.346634
O O11 0.000000 0.500000 0.299758
O O12 0.750000 0.250000 0.147669
O O13 0.608726 0.140938 0.136047
O O14 0.654457 0.250000 0.000000
O O15 0.334577 0.940477 0.346634
O O16 0.250000 0.750000 0.631369
O O17 0.250000 0.888994 0.500000
#
# Coordination Sequence:
#
# PCOD9398135 Si02
#       7
#     8   8   8   8   8   8   8
#     4  11  24  45  67  88 126 177 220 262 319 396
#     4   9  20  37  58  89 129 166 205 252 309 374
#     4  11  25  42  68  98 129 170 219 262 321 385
#     4   9  18  31  54  86 117 160 208 247 295 365
#     4  11  25  42  68  98 129 170 219 262 321 385
#     4   9  20  37  58  89 129 166 205 252 309 374
#     4  11  26  45  66  98 133 163 207 279 339 374
#
# _framework density 20.045573000000001
#
# number of rings (size 3 to 8) (size 9 to 14) (size 15 to 20)
#    0.000    1.857    1.429    0.857    6.000    5.714 
#    0.000    2.143    0.000    0.857    0.000    0.000 
#    0.000    0.000    0.000    0.000    0.000    0.000 
#
# Total GULP energy -312143.358283 kJ/mol
# GULP energy per Si atom -5573.988541 kJ/mol
# Density = 1.999995 g / cm^3
# Si number density = 20.045573 Si / 1000 Ang^3
#
#
#
# Elastic Constant Matrix: (Units=GPa)
#
#
# Indices 1 2 3 4 5 6 
#
# 1 105.2069 53.5498 21.9368 0.0000 0.0000 0.0000
# 2 53.5498 156.3797 77.7638 0.0000 0.0000 0.0000
# 3 21.9368 77.7638 191.5001 0.0000 0.0000 0.0000
# 4 0.0000 0.0000 0.0000 37.6894 0.0000 0.0000
# 5 0.0000 0.0000 0.0000 0.0000 26.9224 0.0000
# 6 0.0000 0.0000 0.0000 0.0000 0.0000 47.5848
#
#
#
# Elastic Compliance Matrix: (Units=1/GPa)
#
#
# Indices 1 2 3 4 5 6 
#
# 1 0.011531 -0.004125 0.000354 0.000000 0.000000 0.000000
# 2 -0.004125 0.009488 -0.003380 0.000000 0.000000 0.000000
# 3 0.000354 -0.003380 0.006554 0.000000 0.000000 0.000000
# 4 0.000000 0.000000 0.000000 0.026533 0.000000 0.000000
# 5 0.000000 0.000000 0.000000 0.000000 0.037144 0.000000
# 6 0.000000 0.000000 0.000000 0.000000 0.000000 0.021015
#
#
# Mechanical properties :
#
#
# Convention : Reuss Voigt Hill
#
# Bulk Modulus (GPa) = 75.35267 84.39861 79.87564
# Shear Modulus (GPa) = 38.17093 42.42843 40.29968
#
# Velocity S-wave (km/s) = 4.36846 4.60564 4.48862
# Velocity P-wave (km/s) = 7.94461 8.39508 8.17295
#
# Compressibility (1/GPa) = 0.01327093
#
# Stress axis : x y z
#
# Youngs Moduli (GPa) = 86.72561 105.39553 152.57660
#
# Poissons Ratio (x) = 0.43471 -0.05401
# Poissons Ratio (y) = 0.35770 0.51577
# Poissons Ratio (z) = -0.03070 0.35628
#
# Static dielectric constant tensor:
#      x y z
#    x 1.705920 0.000000 0.000000 
#    y 0.000000 1.686050 0.000000 
#    z 0.000000 0.000000 1.785480 
# 
# From -- ./inp_files/26475.got.cif
#   From: 2010.05.17/outbox.cif.g08.bks.cpg/sg50_14_cif.got.tgz:26475.got - 2010.06.03 11:33:33.
