data_PCOD9398612
_publ_section_title
;
Structure prediction by ZEFSAII (Michael W. Deem and Ramdas Pophale) SiO2 
 PCOD9398612
Probable space group: P M M A
;
_chemical_formula_sum "Si O2"
_cell_formula_units_Z 56
_cell_length_a 17.223584
_cell_length_b 18.307277
_cell_length_c 9.689456
_cell_angle_alpha 90.000000
_cell_angle_beta 90.000000
_cell_angle_gamma 90.000000
_cell_volume 3055.249454
_symmetry_space_group_name_H-M "P M M A"
_symmetry_group_IT_number 51
_symmetry_cell_setting 'orthorhombic'
loop_
_space_group_symop_operation_xyz
x,y,z
1/2-x,-y,z
1/2+x,-y,-z
-x,y,-z
-x,-y,-z
1/2+x,y,-z
1/2-x,y,z
x,-y,z
loop_
_atom_site_type_symbol
_atom_site_label
_atom_site_fract_x
_atom_site_fract_y
_atom_site_fract_z
Si Si1 0.656636 0.583386 0.295715
Si Si2 0.907585 0.691807 0.507084
Si Si3 0.838816 0.693518 0.052308
Si Si4 0.341655 0.916075 0.260837
Si Si5 0.082357 0.084654 0.552850
Si Si6 0.599467 0.203617 0.255142
Si Si7 0.919215 0.236382 0.798353
O O1 0.750000 0.584559 0.293604
O O2 0.629702 0.500000 0.283810
O O3 0.630110 0.620060 0.439380
O O4 0.632454 0.632395 0.162677
O O5 0.884578 0.753786 0.397534
O O6 0.890881 0.722848 0.658554
O O7 0.000000 0.681497 0.500000
O O8 0.750000 0.676903 0.011690
O O9 0.842396 0.767762 0.141493
O O10 0.892343 0.711557 0.922514
O O11 0.250000 0.911882 0.235591
O O12 0.359429 0.908106 0.424850
O O13 0.383068 0.845524 0.193487
O O14 0.367822 0.000000 0.224825
O O15 0.104597 0.121234 0.695988
O O16 0.000000 0.118085 0.500000
O O17 0.069176 0.000000 0.577830
O O18 0.512065 0.224840 0.209017
#
# Coordination Sequence:
#
# PCOD9398612 Si02
#       7
#     8   8   8   8   8   8   8
#     4   9  19  37  57  77 105 140 174 211 264 327
#     4   9  18  32  55  82 107 131 171 217 266 311
#     4  10  22  36  53  77 106 143 180 218 265 317
#     4  10  20  31  48  77 111 143 174 219 274 315
#     4  10  17  30  52  77 104 135 178 225 269 315
#     4  10  18  34  53  78 103 141 180 220 262 316
#     4  11  19  34  55  79 108 140 180 223 264 315
#
# _framework density 18.329108999999999
#
# number of rings (size 3 to 8) (size 9 to 14) (size 15 to 20)
#    0.000    2.143    2.857    1.286    0.000    2.000 
#    0.000    1.429    0.000   15.429    0.000    0.000 
#    0.000    0.000    0.000    0.000    0.000    0.000 
#
# Total GULP energy -311912.841112 kJ/mol
# GULP energy per Si atom -5569.872163 kJ/mol
# Density = 1.828739 g / cm^3
# Si number density = 18.329109 Si / 1000 Ang^3
#
#
#
# Elastic Constant Matrix: (Units=GPa)
#
#
# Indices 1 2 3 4 5 6 
#
# 1 15.3814 11.6477 5.3044 0.0000 0.0000 0.0000
# 2 11.6477 100.9491 26.0151 0.0000 0.0000 0.0000
# 3 5.3044 26.0151 64.9891 0.0000 0.0000 0.0000
# 4 0.0000 0.0000 0.0000 19.5857 0.0000 0.0000
# 5 0.0000 0.0000 0.0000 0.0000 23.3722 0.0000
# 6 0.0000 0.0000 0.0000 0.0000 0.0000 21.5682
#
#
#
# Elastic Compliance Matrix: (Units=1/GPa)
#
#
# Indices 1 2 3 4 5 6 
#
# 1 0.071703 -0.007543 -0.002833 0.000000 0.000000 0.000000
# 2 -0.007543 0.011839 -0.004123 0.000000 0.000000 0.000000
# 3 -0.002833 -0.004123 0.017269 0.000000 0.000000 0.000000
# 4 0.000000 0.000000 0.000000 0.051058 0.000000 0.000000
# 5 0.000000 0.000000 0.000000 0.000000 0.042786 0.000000
# 6 0.000000 0.000000 0.000000 0.000000 0.000000 0.046365
#
#
# Mechanical properties :
#
#
# Convention : Reuss Voigt Hill
#
# Bulk Modulus (GPa) = 13.92532 29.69490 21.81011
# Shear Modulus (GPa) = 17.00941 22.12870 19.56906
#
# Velocity S-wave (km/s) = 3.04961 3.47839 3.27103
# Velocity P-wave (km/s) = 4.47371 5.68932 5.11774
#
# Compressibility (1/GPa) = 0.07181163
#
# Stress axis : x y z
#
# Youngs Moduli (GPa) = 13.94650 84.46688 57.90709
#
# Poissons Ratio (x) = 0.63714 0.16404
# Poissons Ratio (y) = 0.10520 0.23878
# Poissons Ratio (z) = 0.03951 0.34830
#
# Static dielectric constant tensor:
#      x y z
#    x 1.656830 0.000000 0.000000 
#    y 0.000000 1.681480 0.000000 
#    z 0.000000 0.000000 1.648200 
# 
# From -- ./inp_files/9969.got.cif
#   From: 2010.05.17/outbox.cif.g08.bks.cpg/sg51_5_cif.got.tgz:9969.got - 2010.06.03 11:52:47.
