data_PCOD9398752
_publ_section_title
;
Structure prediction by ZEFSAII (Michael W. Deem and Ramdas Pophale) SiO2 
 PCOD9398752
Probable space group: P M M A
;
_chemical_formula_sum "Si O2"
_cell_formula_units_Z 64
_cell_length_a 22.402602
_cell_length_b 9.498212
_cell_length_c 19.260283
_cell_angle_alpha 90.000000
_cell_angle_beta 90.000000
_cell_angle_gamma 90.000000
_cell_volume 4098.292830
_symmetry_space_group_name_H-M "P M M A"
_symmetry_group_IT_number 51
_symmetry_cell_setting 'orthorhombic'
loop_
_space_group_symop_operation_xyz
x,y,z
1/2-x,-y,z
1/2+x,-y,-z
-x,y,-z
-x,-y,-z
1/2+x,y,-z
1/2-x,y,z
x,-y,z
loop_
_atom_site_type_symbol
_atom_site_label
_atom_site_fract_x
_atom_site_fract_y
_atom_site_fract_z
Si Si1 0.319612 0.160959 0.205731
Si Si2 0.132833 0.663622 0.330758
Si Si3 0.937509 0.337621 0.043312
Si Si4 0.386954 0.164334 0.076345
Si Si5 0.004923 0.334487 0.690181
Si Si6 0.557714 0.328666 0.453963
Si Si7 0.682580 0.328249 0.522919
Si Si8 0.991019 0.166588 0.165659
O O1 0.250000 0.165648 0.220388
O O2 0.352347 0.255242 0.261210
O O3 0.332655 0.201931 0.126641
O O4 0.341260 0.000000 0.212468
O O5 0.147793 0.500000 0.321236
O O6 0.061923 0.673878 0.341520
O O7 0.169169 0.715087 0.397551
O O8 0.922971 0.500000 0.057787
O O9 0.947032 0.247934 0.112978
O O10 0.892954 0.261414 0.990416
O O11 0.000000 0.335853 0.000000
O O12 0.444699 0.180415 0.127036
O O13 0.384733 0.000000 0.055628
O O14 0.014949 0.500000 0.707705
O O15 0.047436 0.291321 0.626638
O O16 0.008618 0.241255 0.759423
O O17 0.500000 0.281851 0.500000
O O18 0.556972 0.500000 0.457759
O O19 0.623166 0.282852 0.480881
O O20 0.750000 0.284006 0.502016
O O21 0.682263 0.500000 0.521398
O O22 0.978210 0.000000 0.170989
#
# Coordination Sequence:
#
# PCOD9398752 Si02
#       8
#     8   8   8   8   8   8   8   8
#     4  10  20  32  44  61  90 128 163 190 220 267
#     4  10  18  28  44  65  90 119 154 195 232 270
#     4   9  17  28  44  66  89 113 143 181 222 266
#     4   9  17  29  43  61  86 119 153 183 219 264
#     4  10  18  27  44  67  91 121 154 189 233 282
#     4   9  15  26  42  62  89 121 154 189 235 286
#     4   9  16  26  42  65  90 117 154 198 238 278
#     4  10  18  29  45  64  90 120 148 183 226 274
#
# _framework density 15.616258
#
# number of rings (size 3 to 8) (size 9 to 14) (size 15 to 20)
#    0.000    2.500    2.500    1.125    0.000    3.250 
#    0.000    0.000    0.000    1.125    0.000    0.875 
#    0.000    3.000    0.000    0.000    0.000    0.000 
#
# Total GULP energy -356325.344428 kJ/mol
# GULP energy per Si atom -5567.583507 kJ/mol
# Density = 1.558071 g / cm^3
# Si number density = 15.616258 Si / 1000 Ang^3
#
#
#
# Elastic Constant Matrix: (Units=GPa)
#
#
# Indices 1 2 3 4 5 6 
#
# 1 58.5729 21.8253 31.2786 0.0000 0.0000 0.0000
# 2 21.8253 50.4977 39.5536 0.0000 0.0000 0.0000
# 3 31.2786 39.5536 76.9593 0.0000 0.0000 0.0000
# 4 0.0000 0.0000 0.0000 -30.4322 0.0000 0.0000
# 5 0.0000 0.0000 0.0000 0.0000 22.1425 0.0000
# 6 0.0000 0.0000 0.0000 0.0000 0.0000 8.9452
#
#
#
# Elastic Compliance Matrix: (Units=1/GPa)
#
#
# Indices 1 2 3 4 5 6 
#
# 1 0.022339 -0.004257 -0.006891 0.000000 0.000000 0.000000
# 2 -0.004257 0.033958 -0.015723 0.000000 0.000000 0.000000
# 3 -0.006891 -0.015723 0.023875 0.000000 0.000000 0.000000
# 4 0.000000 0.000000 0.000000 -0.032860 0.000000 0.000000
# 5 0.000000 0.000000 0.000000 0.000000 0.045162 0.000000
# 6 0.000000 0.000000 0.000000 0.000000 0.000000 0.111792
#
#
# Mechanical properties :
#
#
# Convention : Reuss Voigt Hill
#
# Bulk Modulus (GPa) = 37.83542 41.26054 39.54798
# Shear Modulus (GPa) = 18.73930 6.35593 12.54762
#
# Velocity S-wave (km/s) = 3.46784 2.01963 2.83768
# Velocity P-wave (km/s) = 6.34944 5.64955 6.00969
#
# Compressibility (1/GPa) = 0.02643026
#
# Stress axis : x y z
#
# Youngs Moduli (GPa) = 44.76463 29.44807 41.88414
#
# Poissons Ratio (x) = 0.12537 0.28863
# Poissons Ratio (y) = 0.19058 0.65853
# Poissons Ratio (z) = 0.30848 0.46300
#
# Static dielectric constant tensor:
#      x y z
#    x 1.542090 0.000000 0.000000 
#    y 0.000000 1.518850 0.000000 
#    z 0.000000 0.000000 1.523650 
# 
# From -- ./inp_files/30926.got.cif
#   From: 2010.05.17/outbox.cif.g08.bks.cpg/sg51_16_cif.got.tgz:30926.got - 2010.06.03 11:52:47.
