data_PCOD9398448
_publ_section_title
;
Structure prediction by ZEFSAII (Michael W. Deem and Ramdas Pophale) SiO2 
 PCOD9398448
Probable space group: P M M A
;
_chemical_formula_sum "Si O2"
_cell_formula_units_Z 44
_cell_length_a 8.626090
_cell_length_b 30.281562
_cell_length_c 9.029984
_cell_angle_alpha 90.000000
_cell_angle_beta 90.000000
_cell_angle_gamma 90.000000
_cell_volume 2358.735477
_symmetry_space_group_name_H-M "P M M A"
_symmetry_group_IT_number 51
_symmetry_cell_setting 'orthorhombic'
loop_
_space_group_symop_operation_xyz
x,y,z
1/2-x,-y,z
1/2+x,-y,-z
-x,y,-z
-x,-y,-z
1/2+x,y,-z
1/2-x,y,z
x,-y,z
loop_
_atom_site_type_symbol
_atom_site_label
_atom_site_fract_x
_atom_site_fract_y
_atom_site_fract_z
Si Si1 0.935978 0.415003 0.334823
Si Si2 0.934637 0.766365 0.831221
Si Si3 0.562813 0.047471 0.168514
Si Si4 0.935730 0.674932 0.166720
Si Si5 0.065130 0.500000 0.165149
Si Si6 0.436383 0.856921 0.830835
O O1 0.750000 0.418550 0.335349
O O2 0.978129 0.368705 0.257328
O O3 0.000000 0.415695 0.500000
O O4 0.004894 0.456360 0.247151
O O5 0.250000 0.766563 0.163996
O O6 0.996030 0.720300 0.766504
O O7 0.995346 0.812164 0.762111
O O8 0.000000 0.766092 0.000000
O O9 0.750000 0.047672 0.162548
O O10 0.517633 0.095135 0.235273
O O11 0.513844 0.000000 0.235696
O O12 0.500000 0.047306 0.000000
O O13 0.750000 0.678826 0.160045
O O14 0.000000 0.670152 0.000000
O O15 0.250000 0.500000 0.163260
O O16 0.000000 0.500000 0.000000
O O17 0.250000 0.853487 0.834701
O O18 0.500000 0.858061 0.000000
#
# Coordination Sequence:
#
# PCOD9398448 Si02
#       6
#     8   8   8   8   4   8
#     4  11  24  41  61  85 114 146 179 215 258 306
#     4  10  17  25  39  58  82 111 146 191 240 290
#     4   8  13  19  26  37  55  84 124 170 220 273
#     4  10  20  34  53  76 101 131 168 210 254 300
#     4  12  25  42  65  90 118 148 182 220 257 300
#     4   9  14  20  30  44  66  95 131 178 229 281
#
# _framework density 18.654063000000001
#
# number of rings (size 3 to 8) (size 9 to 14) (size 15 to 20)
#    0.000    2.182    0.000    7.091    0.000    5.091 
#    0.000    0.000    0.000    0.000    0.000    0.000 
#    0.000    0.000    0.000    0.000    0.000    0.909 
#
# Total GULP energy -245241.559799 kJ/mol
# GULP energy per Si atom -5573.671814 kJ/mol
# Density = 1.861161 g / cm^3
# Si number density = 18.654063 Si / 1000 Ang^3
#
#
#
# Elastic Constant Matrix: (Units=GPa)
#
#
# Indices 1 2 3 4 5 6 
#
# 1 82.7911 76.8178 20.3801 0.0000 0.0000 0.0000
# 2 76.8178 258.0960 58.2711 0.0000 0.0000 0.0000
# 3 20.3801 58.2711 48.9004 0.0000 0.0000 0.0000
# 4 0.0000 0.0000 0.0000 -7.2266 0.0000 0.0000
# 5 0.0000 0.0000 0.0000 0.0000 15.1015 0.0000
# 6 0.0000 0.0000 0.0000 0.0000 0.0000 27.6958
#
#
#
# Elastic Compliance Matrix: (Units=1/GPa)
#
#
# Indices 1 2 3 4 5 6 
#
# 1 0.016759 -0.004667 -0.001424 0.000000 0.000000 0.000000
# 2 -0.004667 0.006600 -0.005920 0.000000 0.000000 0.000000
# 3 -0.001424 -0.005920 0.028097 0.000000 0.000000 0.000000
# 4 0.000000 0.000000 0.000000 -0.138377 0.000000 0.000000
# 5 0.000000 0.000000 0.000000 0.000000 0.066218 0.000000
# 6 0.000000 0.000000 0.000000 0.000000 0.000000 0.036107
#
#
# Mechanical properties :
#
#
# Convention : Reuss Voigt Hill
#
# Bulk Modulus (GPa) = 36.44859 77.85839 57.15349
# Shear Modulus (GPa) = 102.94401 22.73537 62.83969
#
# Velocity S-wave (km/s) = 7.43678 3.49490 5.81034
# Velocity P-wave (km/s) = 9.66036 7.62328 8.70164
#
# Compressibility (1/GPa) = 0.02743590
#
# Stress axis : x y z
#
# Youngs Moduli (GPa) = 59.66959 151.51542 35.59051
#
# Poissons Ratio (x) = 0.70706 0.05067
# Poissons Ratio (y) = 0.27845 0.21069
# Poissons Ratio (z) = 0.08496 0.89695
#
# Static dielectric constant tensor:
#      x y z
#    x 1.622010 0.000000 0.000000 
#    y 0.000000 1.739410 0.000000 
#    z 0.000000 0.000000 1.593840 
# 
# From -- ./inp_files/5796.got.cif
#   From: 2010.05.17/outbox.cif.g08.bks.cpg/sg51_3_cif.got.tgz:5796.got - 2010.06.03 11:52:47.
