data_PCOD9398587
_publ_section_title
;
Structure prediction by ZEFSAII (Michael W. Deem and Ramdas Pophale) SiO2 
 PCOD9398587
Probable space group: P M M A
;
_chemical_formula_sum "Si O2"
_cell_formula_units_Z 64
_cell_length_a 15.147396
_cell_length_b 24.555461
_cell_length_c 8.218717
_cell_angle_alpha 90.000000
_cell_angle_beta 90.000000
_cell_angle_gamma 90.000000
_cell_volume 3056.962405
_symmetry_space_group_name_H-M "P M M A"
_symmetry_group_IT_number 51
_symmetry_cell_setting 'orthorhombic'
loop_
_space_group_symop_operation_xyz
x,y,z
1/2-x,-y,z
1/2+x,-y,-z
-x,y,-z
-x,-y,-z
1/2+x,y,-z
1/2-x,y,z
x,-y,z
loop_
_atom_site_type_symbol
_atom_site_label
_atom_site_fract_x
_atom_site_fract_y
_atom_site_fract_z
Si Si1 0.586700 0.155498 0.887239
Si Si2 0.004421 0.938089 0.305828
Si Si3 0.142386 0.619255 0.148895
Si Si4 0.642084 0.437681 0.520358
Si Si5 0.357266 0.252349 0.661857
Si Si6 0.347020 0.135433 0.782759
Si Si7 0.356664 0.263974 0.287649
Si Si8 0.858149 0.366269 0.209962
O O1 0.574008 0.104600 0.767521
O O2 0.603754 0.210539 0.792040
O O3 0.500000 0.159626 0.000000
O O4 0.658621 0.145407 0.025049
O O5 0.910480 0.915083 0.246774
O O6 0.000000 0.936176 0.500000
O O7 0.020434 0.000000 0.252774
O O8 0.250000 0.616095 0.147679
O O9 0.112804 0.582451 0.300884
O O10 0.118082 0.680934 0.196223
O O11 0.113424 0.608917 0.963303
O O12 0.750000 0.435320 0.521436
O O13 0.616253 0.500000 0.492255
O O14 0.613588 0.399285 0.370653
O O15 0.250000 0.250635 0.673254
O O16 0.386403 0.191584 0.708072
O O17 0.381281 0.266366 0.477181
O O18 0.386008 0.302960 0.773191
O O19 0.250000 0.126731 0.711803
O O20 0.250000 0.260145 0.280372
O O21 0.750000 0.366517 0.211239
#
# Coordination Sequence:
#
# PCOD9398587 Si02
#       8
#     8   8   8   8   8   8   8   8
#     4  10  21  34  52  78 107 137 171 215 269 329
#     4  10  22  41  60  77 106 149 186 219 271 332
#     4   9  16  25  40  62  89 126 169 215 265 314
#     4   9  16  25  35  53  87 129 171 209 251 313
#     4   9  16  27  46  72 100 128 164 213 265 313
#     4  10  20  34  55  83 109 138 181 229 274 325
#     4  10  17  29  50  73 100 134 173 217 267 319
#     4   9  15  24  37  56  86 124 164 206 259 314
#
# _framework density 20.935814000000001
#
# number of rings (size 3 to 8) (size 9 to 14) (size 15 to 20)
#    0.000    2.500    1.250    1.875    0.000    5.000 
#    0.000    3.125    0.000    2.625    0.000    0.000 
#    0.000    0.500    0.000   11.375    0.000   19.000 
#
# Total GULP energy -357240.551175 kJ/mol
# GULP energy per Si atom -5581.883612 kJ/mol
# Density = 2.088816 g / cm^3
# Si number density = 20.935814 Si / 1000 Ang^3
#
#
#
# Elastic Constant Matrix: (Units=GPa)
#
#
# Indices 1 2 3 4 5 6 
#
# 1 30.8369 -7.4455 -4.3439 0.0000 0.0000 0.0000
# 2 -7.4455 87.2661 21.0937 0.0000 0.0000 0.0000
# 3 -4.3439 21.0937 103.3147 0.0000 0.0000 0.0000
# 4 0.0000 0.0000 0.0000 10.9329 0.0000 0.0000
# 5 0.0000 0.0000 0.0000 0.0000 7.6863 0.0000
# 6 0.0000 0.0000 0.0000 0.0000 0.0000 -32.4292
#
#
#
# Elastic Compliance Matrix: (Units=1/GPa)
#
#
# Indices 1 2 3 4 5 6 
#
# 1 0.033183 0.002623 0.000860 0.000000 0.000000 0.000000
# 2 0.002623 0.012261 -0.002393 0.000000 0.000000 0.000000
# 3 0.000860 -0.002393 0.010204 0.000000 0.000000 0.000000
# 4 0.000000 0.000000 0.000000 0.091467 0.000000 0.000000
# 5 0.000000 0.000000 0.000000 0.000000 0.130101 0.000000
# 6 0.000000 0.000000 0.000000 0.000000 0.000000 -0.030836
#
#
# Mechanical properties :
#
#
# Convention : Reuss Voigt Hill
#
# Bulk Modulus (GPa) = 17.29258 26.66958 21.98108
# Shear Modulus (GPa) = 18.97701 11.37890 15.17795
#
# Velocity S-wave (km/s) = 3.01398 2.33387 2.69546
# Velocity P-wave (km/s) = 4.51551 4.47537 4.49549
#
# Compressibility (1/GPa) = 0.05782826
#
# Stress axis : x y z
#
# Youngs Moduli (GPa) = 30.13579 81.55613 98.00162
#
# Poissons Ratio (x) = -0.21395 -0.08424
# Poissons Ratio (y) = -0.07906 0.23453
# Poissons Ratio (z) = -0.02590 0.19517
#
# Static dielectric constant tensor:
#      x y z
#    x 1.814460 0.000000 0.000000 
#    y 0.000000 1.710020 0.000000 
#    z 0.000000 0.000000 1.759610 
# 
# From -- ./inp_files/10016.got.cif
#   From: 2010.05.17/outbox.cif.g08.bks.cpg/sg51_6_cif.got.tgz:10016.got - 2010.06.03 11:52:47.
