data_PCOD9398498
_publ_section_title
;
Structure prediction by ZEFSAII (Michael W. Deem and Ramdas Pophale) SiO2 
 PCOD9398498
Probable space group: P M M A
;
_chemical_formula_sum "Si O2"
_cell_formula_units_Z 56
_cell_length_a 29.833748
_cell_length_b 7.466172
_cell_length_c 13.155775
_cell_angle_alpha 90.000000
_cell_angle_beta 90.000000
_cell_angle_gamma 90.000000
_cell_volume 2930.368552
_symmetry_space_group_name_H-M "P M M A"
_symmetry_group_IT_number 51
_symmetry_cell_setting 'orthorhombic'
loop_
_space_group_symop_operation_xyz
x,y,z
1/2-x,-y,z
1/2+x,-y,-z
-x,y,-z
-x,-y,-z
1/2+x,y,-z
1/2-x,y,z
x,-y,z
loop_
_atom_site_type_symbol
_atom_site_label
_atom_site_fract_x
_atom_site_fract_y
_atom_site_fract_z
Si Si1 0.607272 0.788978 0.129109
Si Si2 0.556847 0.219134 0.331149
Si Si3 0.199824 0.715515 0.780139
Si Si4 0.455532 0.781194 0.283592
Si Si5 0.547169 0.781443 0.948499
Si Si6 0.300239 0.715237 0.548369
Si Si7 0.894541 0.212165 0.535188
O O1 0.582545 0.717213 0.229955
O O2 0.660011 0.767913 0.145684
O O3 0.597232 0.000000 0.128848
O O4 0.586231 0.719553 0.024701
O O5 0.504834 0.269462 0.323793
O O6 0.581352 0.282946 0.433189
O O7 0.558535 0.000000 0.331548
O O8 0.250000 0.776186 0.807410
O O9 0.200519 0.500000 0.777043
O O10 0.190235 0.778228 0.664293
O O11 0.449537 0.719944 0.167609
O O12 0.417788 0.718941 0.362610
O O13 0.454852 0.000000 0.280932
O O14 0.547542 0.000000 0.944355
O O15 0.500000 0.730751 0.000000
O O16 0.250000 0.777042 0.520365
O O17 0.298783 0.500000 0.552047
O O18 0.341447 0.763462 0.476811
O O19 0.902926 0.000000 0.534939
#
# Coordination Sequence:
#
# PCOD9398498 Si02
#       7
#     8   8   8   8   8   8   8
#     4  10  17  26  46  72  94 116 149 191 224 254
#     4   9  15  24  39  66  97 121 145 178 221 263
#     4   9  18  32  48  66  90 120 149 180 229 286
#     4   9  16  26  41  64  96 129 155 179 215 266
#     4   9  15  25  42  66  94 123 154 184 215 258
#     4   9  18  32  48  65  88 119 150 181 225 280
#     4  10  18  27  44  70  96 119 147 187 228 263
#
# _framework density 19.110226000000001
#
# number of rings (size 3 to 8) (size 9 to 14) (size 15 to 20)
#    0.000    2.714    2.857    1.286    0.000    2.286 
#    0.000    1.429    0.000    4.714    0.000    6.000 
#    0.000    0.000    0.000    0.000    0.000    0.000 
#
# Total GULP energy -312427.241423 kJ/mol
# GULP energy per Si atom -5579.057883 kJ/mol
# Density = 1.906673 g / cm^3
# Si number density = 19.110226 Si / 1000 Ang^3
#
#
#
# Elastic Constant Matrix: (Units=GPa)
#
#
# Indices 1 2 3 4 5 6 
#
# 1 158.1668 -7.1838 99.9321 0.0000 0.0000 0.0000
# 2 -7.1838 51.9121 7.5255 0.0000 0.0000 0.0000
# 3 99.9321 7.5255 148.2793 0.0000 0.0000 0.0000
# 4 0.0000 0.0000 0.0000 -0.6926 0.0000 0.0000
# 5 0.0000 0.0000 0.0000 0.0000 27.9606 0.0000
# 6 0.0000 0.0000 0.0000 0.0000 0.0000 32.2336
#
#
#
# Elastic Compliance Matrix: (Units=1/GPa)
#
#
# Indices 1 2 3 4 5 6 
#
# 1 0.011376 0.002706 -0.007804 0.000000 0.000000 0.000000
# 2 0.002706 0.020050 -0.002841 0.000000 0.000000 0.000000
# 3 -0.007804 -0.002841 0.012148 0.000000 0.000000 0.000000
# 4 0.000000 0.000000 0.000000 -1.443772 0.000000 0.000000
# 5 0.000000 0.000000 0.000000 0.000000 0.035765 0.000000
# 6 0.000000 0.000000 0.000000 0.000000 0.000000 0.031024
#
#
# Mechanical properties :
#
#
# Convention : Reuss Voigt Hill
#
# Bulk Modulus (GPa) = 36.10840 62.10064 49.10452
# Shear Modulus (GPa) = -3.82175 29.10593 12.64209
#
# Velocity S-wave (km/s) = -1.41569 3.90687 2.57482
# Velocity P-wave (km/s) = 4.03281 7.27448 5.88140
#
# Compressibility (1/GPa) = 0.02769439
#
# Stress axis : x y z
#
# Youngs Moduli (GPa) = 87.90323 49.87631 82.31925
#
# Poissons Ratio (x) = -0.13495 0.64244
# Poissons Ratio (y) = -0.23783 0.23387
# Poissons Ratio (z) = 0.68602 0.14170
#
# Static dielectric constant tensor:
#      x y z
#    x 1.658240 0.000000 0.000000 
#    y 0.000000 1.734800 0.000000 
#    z 0.000000 0.000000 1.651200 
# 
# From -- ./inp_files/19197.got.cif
#   From: 2010.05.17/outbox.cif.g08.bks.cpg/sg51_10_cif.got.tgz:19197.got - 2010.06.03 11:52:47.
