data_PCOD9398345
_publ_section_title
;
Structure prediction by ZEFSAII (Michael W. Deem and Ramdas Pophale) SiO2 
 PCOD9398345
Probable space group: P M M A
;
_chemical_formula_sum "Si O2"
_cell_formula_units_Z 40
_cell_length_a 28.616881
_cell_length_b 7.423236
_cell_length_c 7.330074
_cell_angle_alpha 90.000000
_cell_angle_beta 90.000000
_cell_angle_gamma 90.000000
_cell_volume 1557.126603
_symmetry_space_group_name_H-M "P M M A"
_symmetry_group_IT_number 51
_symmetry_cell_setting 'orthorhombic'
loop_
_space_group_symop_operation_xyz
x,y,z
1/2-x,-y,z
1/2+x,-y,-z
-x,y,-z
-x,-y,-z
1/2+x,y,-z
1/2-x,y,z
x,-y,z
loop_
_atom_site_type_symbol
_atom_site_label
_atom_site_fract_x
_atom_site_fract_y
_atom_site_fract_z
Si Si1 0.050478 0.206812 0.031868
Si Si2 0.949080 0.793242 0.531756
Si Si3 0.250000 0.796010 0.989515
Si Si4 0.650166 0.215943 0.546647
Si Si5 0.750000 0.706597 0.589669
Si Si6 0.150377 0.778510 0.027867
O O1 0.055775 0.199071 0.249799
O O2 0.099548 0.281465 0.958780
O O3 0.047379 0.000000 0.963259
O O4 0.000000 0.292830 0.000000
O O5 0.899175 0.715702 0.467367
O O6 0.000000 0.708838 0.500000
O O7 0.952267 0.000000 0.461427
O O8 0.250000 0.807797 0.214250
O O9 0.199339 0.715496 0.944282
O O10 0.250000 0.000000 0.917776
O O11 0.702300 0.256967 0.480539
O O12 0.652116 0.273838 0.758833
O O13 0.645755 0.000000 0.541922
O O14 0.750000 0.500000 0.642827
O O15 0.150288 0.000000 0.020174
#
# Coordination Sequence:
#
# PCOD9398345 Si02
#       6
#     8   8   4   8   4   8
#     4   8  12  17  26  44  70  92 109 137 178 212
#     4   8  13  21  34  51  68  91 125 153 170 205
#     4   8  12  20  32  44  63  90 116 140 172 214
#     4   8  13  22  34  47  67  94 120 145 177 216
#     4  10  16  20  30  50  73  92 114 146 184 220
#     4   7  10  16  27  42  59  83 112 135 158 199
#
# _framework density 25.688341999999999
#
# number of rings (size 3 to 8) (size 9 to 14) (size 15 to 20)
#    0.000    4.000    0.000    4.500    0.000    0.000 
#    0.000    0.000    0.000    0.600    0.000    1.400 
#    0.000   74.400    0.000   16.200    0.000   18.000 
#
# Total GULP energy -222761.381656 kJ/mol
# GULP energy per Si atom -5569.034541 kJ/mol
# Density = 2.562987 g / cm^3
# Si number density = 25.688342 Si / 1000 Ang^3
#
#
#
# Elastic Constant Matrix: (Units=GPa)
#
#
# Indices 1 2 3 4 5 6 
#
# 1 399.7295 14.6882 11.5637 0.0000 0.0000 0.0000
# 2 14.6882 90.7361 -5.0515 0.0000 0.0000 0.0000
# 3 11.5637 -5.0515 91.5744 0.0000 0.0000 0.0000
# 4 0.0000 0.0000 0.0000 -9.6663 0.0000 0.0000
# 5 0.0000 0.0000 0.0000 0.0000 11.1885 0.0000
# 6 0.0000 0.0000 0.0000 0.0000 0.0000 18.3656
#
#
#
# Elastic Compliance Matrix: (Units=1/GPa)
#
#
# Indices 1 2 3 4 5 6 
#
# 1 0.002527 -0.000428 -0.000343 0.000000 0.000000 0.000000
# 2 -0.000428 0.011127 0.000668 0.000000 0.000000 0.000000
# 3 -0.000343 0.000668 0.011000 0.000000 0.000000 0.000000
# 4 0.000000 0.000000 0.000000 -0.103452 0.000000 0.000000
# 5 0.000000 0.000000 0.000000 0.000000 0.089377 0.000000
# 6 0.000000 0.000000 0.000000 0.000000 0.000000 0.054450
#
#
# Mechanical properties :
#
#
# Convention : Reuss Voigt Hill
#
# Bulk Modulus (GPa) = 40.90170 69.38233 55.14201
# Shear Modulus (GPa) = 68.13330 41.36687 54.75009
#
# Velocity S-wave (km/s) = 5.15564 4.01725 4.62163
# Velocity P-wave (km/s) = 7.16922 6.97034 7.07048
#
# Compressibility (1/GPa) = 0.02444886
#
# Stress axis : x y z
#
# Youngs Moduli (GPa) = 395.67261 89.86771 90.90735
#
# Poissons Ratio (x) = 0.03848 0.03116
# Poissons Ratio (y) = 0.16943 -0.06072
# Poissons Ratio (z) = 0.13562 -0.06002
#
# Static dielectric constant tensor:
#      x y z
#    x 2.165590 0.000000 0.000000 
#    y 0.000000 1.950000 0.000000 
#    z 0.000000 0.000000 2.092260 
# 
# From -- ./inp_files/18953.got.cif
#   From: 2010.05.17/outbox.cif.g08.bks.cpg/sg51_10_cif.got.tgz:18953.got - 2010.06.03 11:52:47.
