data_PCOD9398989
_publ_section_title
;
Structure prediction by ZEFSAII (Michael W. Deem and Ramdas Pophale) SiO2 
 PCOD9398989
Probable space group: P M M A
;
_chemical_formula_sum "Si O2"
_cell_formula_units_Z 56
_cell_length_a 8.505412
_cell_length_b 19.236933
_cell_length_c 19.701223
_cell_angle_alpha 90.000000
_cell_angle_beta 90.000000
_cell_angle_gamma 90.000000
_cell_volume 3223.475508
_symmetry_space_group_name_H-M "P M M A"
_symmetry_group_IT_number 51
_symmetry_cell_setting 'orthorhombic'
loop_
_space_group_symop_operation_xyz
x,y,z
1/2-x,-y,z
1/2+x,-y,-z
-x,y,-z
-x,-y,-z
1/2+x,y,-z
1/2-x,y,z
x,-y,z
loop_
_atom_site_type_symbol
_atom_site_label
_atom_site_fract_x
_atom_site_fract_y
_atom_site_fract_z
Si Si1 0.561756 0.341848 0.214745
Si Si2 0.939437 0.847654 0.927501
Si Si3 0.438293 0.285162 0.574990
Si Si4 0.561399 0.209449 0.704344
Si Si5 0.058730 0.422618 0.652468
Si Si6 0.437955 0.685675 0.072719
Si Si7 0.557945 0.078711 0.789344
O O1 0.750000 0.337689 0.214129
O O2 0.494957 0.269165 0.243614
O O3 0.515581 0.398891 0.271215
O O4 0.500607 0.353237 0.139022
O O5 0.750000 0.847998 0.928316
O O6 0.990043 0.766876 0.920490
O O7 0.991976 0.892160 0.862938
O O8 0.000000 0.873643 0.000000
O O9 0.500000 0.271724 0.500000
O O10 0.250000 0.285254 0.574949
O O11 0.496212 0.230384 0.631030
O O12 0.493295 0.361153 0.602165
O O13 0.750000 0.210904 0.702605
O O14 0.509366 0.134924 0.733094
O O15 0.250000 0.423542 0.649986
O O16 0.001876 0.500000 0.636425
O O17 0.250000 0.684383 0.072677
O O18 0.500000 0.660385 0.000000
O O19 0.750000 0.078325 0.789666
O O20 0.504700 0.000000 0.778032
#
# Coordination Sequence:
#
# PCOD9398989 Si02
#       7
#     8   8   8   8   8   8   8
#     4  10  18  29  49  73  97 129 166 205 246 290
#     4   9  17  29  43  64  92 126 162 201 246 292
#     4  10  20  34  54  80 105 132 161 194 236 283
#     4  10  18  32  52  73  98 129 165 205 244 287
#     4   8  16  31  50  74 104 134 162 192 232 283
#     4  10  18  29  45  68  95 126 165 212 259 297
#     4   9  17  30  48  69  95 129 167 205 249 296
#
# _framework density 17.372554000000001
#
# number of rings (size 3 to 8) (size 9 to 14) (size 15 to 20)
#    0.000    2.571    1.429    2.571    0.000    1.143 
#    0.000    0.000    0.000   19.286    0.000    0.000 
#    0.000    0.000    0.000    0.000    0.000    0.000 
#
# Total GULP energy -312235.150605 kJ/mol
# GULP energy per Si atom -5575.627689 kJ/mol
# Density = 1.733301 g / cm^3
# Si number density = 17.372554 Si / 1000 Ang^3
#
#
#
# Elastic Constant Matrix: (Units=GPa)
#
#
# Indices 1 2 3 4 5 6 
#
# 1 30.5701 6.9315 23.8737 0.0000 0.0000 0.0000
# 2 6.9315 59.2687 38.3166 0.0000 0.0000 0.0000
# 3 23.8737 38.3166 148.1426 0.0000 0.0000 0.0000
# 4 0.0000 0.0000 0.0000 60.4085 0.0000 0.0000
# 5 0.0000 0.0000 0.0000 0.0000 29.3245 0.0000
# 6 0.0000 0.0000 0.0000 0.0000 0.0000 13.1608
#
#
#
# Elastic Compliance Matrix: (Units=1/GPa)
#
#
# Indices 1 2 3 4 5 6 
#
# 1 0.037438 -0.000574 -0.005885 0.000000 0.000000 0.000000
# 2 -0.000574 0.020269 -0.005150 0.000000 0.000000 0.000000
# 3 -0.005885 -0.005150 0.009031 0.000000 0.000000 0.000000
# 4 0.000000 0.000000 0.000000 0.016554 0.000000 0.000000
# 5 0.000000 0.000000 0.000000 0.000000 0.034101 0.000000
# 6 0.000000 0.000000 0.000000 0.000000 0.000000 0.075983
#
#
# Mechanical properties :
#
#
# Convention : Reuss Voigt Hill
#
# Bulk Modulus (GPa) = 22.97808 41.80280 32.39044
# Shear Modulus (GPa) = 21.63573 31.83607 26.73590
#
# Velocity S-wave (km/s) = 3.53285 4.28547 3.92723
# Velocity P-wave (km/s) = 5.46779 6.97150 6.26492
#
# Compressibility (1/GPa) = 0.04351974
#
# Stress axis : x y z
#
# Youngs Moduli (GPa) = 26.71113 49.33683 110.73414
#
# Poissons Ratio (x) = 0.02831 0.65165
# Poissons Ratio (y) = 0.01533 0.57028
# Poissons Ratio (z) = 0.15719 0.25408
#
# Static dielectric constant tensor:
#      x y z
#    x 1.593140 0.000000 0.000000 
#    y 0.000000 1.590740 0.000000 
#    z 0.000000 0.000000 1.591870 
# 
# From -- ./inp_files/28211.got.cif
#   From: 2010.05.17/outbox.cif.g08.bks.cpg/sg51_15_cif.got.tgz:28211.got - 2010.06.03 11:52:47.
