data_PCOD9398273
_publ_section_title
;
Structure prediction by ZEFSAII (Michael W. Deem and Ramdas Pophale) SiO2 
 PCOD9398273
Probable space group: P B A N
;
_chemical_formula_sum "Si O2"
_cell_formula_units_Z 40
_cell_length_a 17.962071
_cell_length_b 15.909744
_cell_length_c 5.910520
_cell_angle_alpha 90.000000
_cell_angle_beta 90.000000
_cell_angle_gamma 90.000000
_cell_volume 1689.060834
_symmetry_space_group_name_H-M "P B A N"
_symmetry_group_IT_number 50
_space_group.IT_coordinate_system_code '2'
_symmetry_cell_setting 'orthorhombic'
loop_
_space_group_symop_operation_xyz
x,y,z
1/2-x,1/2-y,z
x,1/2-y,-z
1/2-x,y,-z
-x,-y,-z
1/2+x,1/2+y,-z
-x,1/2+y,z
1/2+x,-y,z
loop_
_atom_site_type_symbol
_atom_site_label
_atom_site_fract_x
_atom_site_fract_y
_atom_site_fract_z
Si Si1 0.750000 0.250000 0.000000
Si Si2 0.360289 0.115980 0.294828
Si Si3 0.250000 0.250000 0.500000
Si Si4 0.512916 0.098557 0.062030
Si Si5 0.250000 0.493757 0.000000
Si Si6 0.139992 0.535625 0.620857
Si Si7 0.118099 0.819694 0.696409
O O1 0.810066 0.207682 0.163593
O O2 0.306049 0.191985 0.357330
O O3 0.438602 0.135480 0.175550
O O4 0.372250 0.058374 0.521696
O O5 0.313947 0.061780 0.115019
O O6 0.548949 0.154902 0.861911
O O7 0.573507 0.083215 0.254098
O O8 0.500000 0.000000 0.000000
O O9 0.207318 0.538707 0.796213
O O10 0.146072 0.592930 0.404579
O O11 0.102081 0.750000 0.500000
#
# Coordination Sequence:
#
# PCOD9398273 Si02
#       7
#     2   8   2   8   4   8   8
#     4  12  30  58  72 124 164 212 266 350 428 498
#     4  12  27  51  81 117 162 217 281 339 414 501
#     4  12  28  58  80 120 168 222 272 354 424 492
#     4  12  26  51  85 119 159 223 281 339 418 513
#     4  12  24  46  82 116 156 212 274 331 403 501
#     4  12  25  49  82 120 157 221 280 340 414 506
#     4  12  29  51  80 123 169 215 276 353 429 499
#
# _framework density 23.681798000000001
#
# number of rings (size 3 to 8) (size 9 to 14) (size 15 to 20)
#    0.000    0.000    6.000    2.100    0.000   12.400 
#    5.400    4.000    0.000    0.000    0.000    0.000 
#    0.000    0.000    0.000    0.000    0.000    0.000 
#
# Total GULP energy -223725.060877 kJ/mol
# GULP energy per Si atom -5593.126522 kJ/mol
# Density = 2.362790 g / cm^3
# Si number density = 23.681798 Si / 1000 Ang^3
#
#
#
# Elastic Constant Matrix: (Units=GPa)
#
#
# Indices 1 2 3 4 5 6 
#
# 1 228.4763 72.0384 104.6269 0.0000 0.0000 0.0000
# 2 72.0384 119.7673 62.0887 0.0000 0.0000 0.0000
# 3 104.6269 62.0887 131.7982 0.0000 0.0000 0.0000
# 4 0.0000 0.0000 0.0000 15.2841 0.0000 0.0000
# 5 0.0000 0.0000 0.0000 0.0000 121.8733 0.0000
# 6 0.0000 0.0000 0.0000 0.0000 0.0000 42.2512
#
#
#
# Elastic Compliance Matrix: (Units=1/GPa)
#
#
# Indices 1 2 3 4 5 6 
#
# 1 0.007158 -0.001799 -0.004835 0.000000 0.000000 0.000000
# 2 -0.001799 0.011500 -0.003989 0.000000 0.000000 0.000000
# 3 -0.004835 -0.003989 0.013305 0.000000 0.000000 0.000000
# 4 0.000000 0.000000 0.000000 0.065428 0.000000 0.000000
# 5 0.000000 0.000000 0.000000 0.000000 0.008205 0.000000
# 6 0.000000 0.000000 0.000000 0.000000 0.000000 0.023668
#
#
# Mechanical properties :
#
#
# Convention : Reuss Voigt Hill
#
# Bulk Modulus (GPa) = 93.31621 106.39441 99.85531
# Shear Modulus (GPa) = 32.45028 51.96756 42.20892
#
# Velocity S-wave (km/s) = 3.70572 4.68953 4.22635
# Velocity P-wave (km/s) = 7.60260 8.62244 8.12853
#
# Compressibility (1/GPa) = 0.01071625
#
# Stress axis : x y z
#
# Youngs Moduli (GPa) = 139.70149 86.95896 75.16097
#
# Poissons Ratio (x) = 0.15644 0.36340
# Poissons Ratio (y) = 0.25133 0.29983
# Poissons Ratio (z) = 0.67544 0.34690
#
# Static dielectric constant tensor:
#      x y z
#    x 1.867850 0.000000 0.000000 
#    y 0.000000 1.848210 0.000000 
#    z 0.000000 0.000000 1.818830 
# 
# From -- ./inp_files/5184.got.cif
#   From: 2010.05.17/outbox.cif.g08.bks.cpg/sg50_3_cif.got.tgz:5184.got - 2010.06.03 11:33:33.
