data_PCOD9398102
_publ_section_title
;
Structure prediction by ZEFSAII (Michael W. Deem and Ramdas Pophale) SiO2 
 PCOD9398102
Probable space group: P B A N
;
_chemical_formula_sum "Si O2"
_cell_formula_units_Z 38
_cell_length_a 12.152661
_cell_length_b 25.197146
_cell_length_c 5.388783
_cell_angle_alpha 90.000000
_cell_angle_beta 90.000000
_cell_angle_gamma 90.000000
_cell_volume 1650.112033
_symmetry_space_group_name_H-M "P B A N"
_symmetry_group_IT_number 50
_space_group.IT_coordinate_system_code '2'
_symmetry_cell_setting 'orthorhombic'
loop_
_space_group_symop_operation_xyz
x,y,z
1/2-x,1/2-y,z
x,1/2-y,-z
1/2-x,y,-z
-x,-y,-z
1/2+x,1/2+y,-z
-x,1/2+y,z
1/2+x,-y,z
loop_
_atom_site_type_symbol
_atom_site_label
_atom_site_fract_x
_atom_site_fract_y
_atom_site_fract_z
Si Si1 0.444823 0.250000 0.000000
Si Si2 0.633557 0.828328 0.630902
Si Si3 0.571415 0.054566 0.792576
Si Si4 0.920154 0.170926 0.271091
Si Si5 0.250000 0.750000 0.500000
Si Si6 0.429291 0.442850 0.711722
O O1 0.372000 0.273887 0.783820
O O2 0.521952 0.198717 0.961116
O O3 0.750000 0.828940 0.500000
O O4 0.522412 0.828810 0.464130
O O5 0.629625 0.886863 0.758713
O O6 0.626026 0.112063 0.763829
O O7 0.479698 0.055723 0.568514
O O8 0.633761 0.998977 0.748210
O O9 0.521216 0.054343 0.070252
O O10 0.827130 0.211424 0.346468
#
# Coordination Sequence:
#
# PCOD9398102 Si02
#       6
#     4   8   8   8   2   8
#     4  12  22  44  66  96 132 187 231 284 362 426
#     4  11  24  42  66  99 138 179 232 292 361 436
#     4   9  18  37  66  94 132 175 226 287 347 412
#     4  11  24  42  64  97 134 177 233 291 349 419
#     4  12  24  46  62  96 138 180 244 292 354 426
#     4   9  18  37  65  96 130 176 225 284 349 420
#
# _framework density 23.028741
#
# number of rings (size 3 to 8) (size 9 to 14) (size 15 to 20)
#    0.000    1.684    4.211    0.000    0.000    3.789 
#    1.895    0.000    0.000    0.000    0.000    0.000 
#    0.000    0.000    0.000    0.000    0.000    0.211 
#
# Total GULP energy -211777.765201 kJ/mol
# GULP energy per Si atom -5573.099084 kJ/mol
# Density = 2.297633 g / cm^3
# Si number density = 23.028741 Si / 1000 Ang^3
#
#
#
# Elastic Constant Matrix: (Units=GPa)
#
#
# Indices 1 2 3 4 5 6 
#
# 1 68.9726 26.3416 8.2833 0.0000 0.0000 0.0000
# 2 26.3416 183.4348 -6.6366 0.0000 0.0000 0.0000
# 3 8.2833 -6.6366 66.2816 0.0000 0.0000 0.0000
# 4 0.0000 0.0000 0.0000 75.9964 0.0000 0.0000
# 5 0.0000 0.0000 0.0000 0.0000 7.6619 0.0000
# 6 0.0000 0.0000 0.0000 0.0000 0.0000 105.9916
#
#
#
# Elastic Compliance Matrix: (Units=1/GPa)
#
#
# Indices 1 2 3 4 5 6 
#
# 1 0.015650 -0.002327 -0.002189 0.000000 0.000000 0.000000
# 2 -0.002327 0.005817 0.000873 0.000000 0.000000 0.000000
# 3 -0.002189 0.000873 0.015448 0.000000 0.000000 0.000000
# 4 0.000000 0.000000 0.000000 0.013159 0.000000 0.000000
# 5 0.000000 0.000000 0.000000 0.000000 0.130515 0.000000
# 6 0.000000 0.000000 0.000000 0.000000 0.000000 0.009435
#
#
# Mechanical properties :
#
#
# Convention : Reuss Voigt Hill
#
# Bulk Modulus (GPa) = 33.74832 41.62951 37.68891
# Shear Modulus (GPa) = 24.13301 57.31003 40.72152
#
# Velocity S-wave (km/s) = 3.24072 4.99403 4.20967
# Velocity P-wave (km/s) = 5.35628 7.16730 6.32692
#
# Compressibility (1/GPa) = 0.02963111
#
# Stress axis : x y z
#
# Youngs Moduli (GPa) = 63.89813 171.90352 64.73283
#
# Poissons Ratio (x) = 0.39994 0.14168
# Poissons Ratio (y) = 0.14866 -0.05653
# Poissons Ratio (z) = 0.13986 -0.15011
#
# Static dielectric constant tensor:
#      x y z
#    x 1.641070 0.000000 0.000000 
#    y 0.000000 1.928860 0.000000 
#    z 0.000000 0.000000 2.218440 
# 
# From -- ./inp_files/2420.got.cif
#   From: 2010.05.17/outbox.cif.g08.bks.cpg/sg50_2_cif.got.tgz:2420.got - 2010.06.03 11:33:33.
