data_PCOD9398201
_publ_section_title
;
Structure prediction by ZEFSAII (Michael W. Deem and Ramdas Pophale) SiO2 
 PCOD9398201
Probable space group: P B A N
;
_chemical_formula_sum "Si O2"
_cell_formula_units_Z 40
_cell_length_a 8.563705
_cell_length_b 16.432327
_cell_length_c 12.678313
_cell_angle_alpha 90.000000
_cell_angle_beta 90.000000
_cell_angle_gamma 90.000000
_cell_volume 1784.112502
_symmetry_space_group_name_H-M "P B A N"
_symmetry_group_IT_number 50
_space_group.IT_coordinate_system_code '2'
_symmetry_cell_setting 'orthorhombic'
loop_
_space_group_symop_operation_xyz
x,y,z
1/2-x,1/2-y,z
x,1/2-y,-z
1/2-x,y,-z
-x,-y,-z
1/2+x,1/2+y,-z
-x,1/2+y,z
1/2+x,-y,z
loop_
_atom_site_type_symbol
_atom_site_label
_atom_site_fract_x
_atom_site_fract_y
_atom_site_fract_z
Si Si1 0.868578 0.181682 0.194524
Si Si2 0.434995 0.269572 0.618833
Si Si3 0.569323 0.961917 0.605104
Si Si4 0.310476 0.977897 0.740763
Si Si5 0.898359 0.928507 0.939325
O O1 0.750000 0.250000 0.150406
O O2 0.755977 0.111639 0.241916
O O3 0.969269 0.223033 0.289882
O O4 0.983056 0.137860 0.110464
O O5 0.250000 0.250000 0.629612
O O6 0.488504 0.250000 0.500000
O O7 0.449869 0.366294 0.615650
O O8 0.492680 0.989719 0.715184
O O9 0.500000 0.000000 0.500000
O O10 0.743474 0.987941 0.630679
O O11 0.299793 0.027759 0.846623
O O12 0.750000 0.889574 0.000000
O O13 0.000000 0.000000 0.000000
#
# Coordination Sequence:
#
# PCOD9398201 Si02
#       5
#     8   8   8   8   8
#     4  12  25  48  75 110 157 194 250 330 397 458
#     4  11  26  42  68 108 158 200 250 315 390 462
#     4  12  25  42  71 108 148 202 254 303 377 470
#     4  12  24  45  76 104 144 196 260 308 378 467
#     4  12  25  49  83 111 145 203 268 325 388 467
#
# _framework density 22.420110000000001
#
# number of rings (size 3 to 8) (size 9 to 14) (size 15 to 20)
#    0.000    0.200    6.000    3.000    5.600    0.400 
#    0.000    2.000    4.400    0.000    0.000    0.000 
#    0.000    0.000    0.000    0.000    0.000    0.000 
#
# Total GULP energy -222965.237989 kJ/mol
# GULP energy per Si atom -5574.130950 kJ/mol
# Density = 2.236908 g / cm^3
# Si number density = 22.420110 Si / 1000 Ang^3
#
#
#
# Elastic Constant Matrix: (Units=GPa)
#
#
# Indices 1 2 3 4 5 6 
#
# 1 110.3218 46.5949 64.4058 0.0000 0.0000 0.0000
# 2 46.5949 118.9165 57.6768 0.0000 0.0000 0.0000
# 3 64.4058 57.6768 109.1445 0.0000 0.0000 0.0000
# 4 0.0000 0.0000 0.0000 50.8797 0.0000 0.0000
# 5 0.0000 0.0000 0.0000 0.0000 49.7879 0.0000
# 6 0.0000 0.0000 0.0000 0.0000 0.0000 40.7902
#
#
#
# Elastic Compliance Matrix: (Units=1/GPa)
#
#
# Indices 1 2 3 4 5 6 
#
# 1 0.014178 -0.002014 -0.007302 0.000000 0.000000 0.000000
# 2 -0.002014 0.011593 -0.004938 0.000000 0.000000 0.000000
# 3 -0.007302 -0.004938 0.016081 0.000000 0.000000 0.000000
# 4 0.000000 0.000000 0.000000 0.019654 0.000000 0.000000
# 5 0.000000 0.000000 0.000000 0.000000 0.020085 0.000000
# 6 0.000000 0.000000 0.000000 0.000000 0.000000 0.024516
#
#
# Mechanical properties :
#
#
# Convention : Reuss Voigt Hill
#
# Bulk Modulus (GPa) = 74.94064 75.08198 75.01131
# Shear Modulus (GPa) = 35.95483 39.60524 37.78003
#
# Velocity S-wave (km/s) = 4.00895 4.20754 4.10945
# Velocity P-wave (km/s) = 7.41128 7.56081 7.48642
#
# Compressibility (1/GPa) = 0.01334389
#
# Stress axis : x y z
#
# Youngs Moduli (GPa) = 70.53236 86.25603 62.18588
#
# Poissons Ratio (x) = 0.17368 0.45410
# Poissons Ratio (y) = 0.14202 0.30709
# Poissons Ratio (z) = 0.51505 0.42596
#
# Static dielectric constant tensor:
#      x y z
#    x 1.945800 0.000000 0.000000 
#    y 0.000000 1.874120 0.000000 
#    z 0.000000 0.000000 3.539390 
# 
# From -- ./inp_files/18704.got.cif
#   From: 2010.05.17/outbox.cif.g08.bks.cpg/sg50_10_cif.got.tgz:18704.got - 2010.06.03 11:33:33.
