data_PCOD9398807
_publ_section_title
;
Structure prediction by ZEFSAII (Michael W. Deem and Ramdas Pophale) SiO2 
 PCOD9398807
Probable space group: P M M A
;
_chemical_formula_sum "Si O2"
_cell_formula_units_Z 64
_cell_length_a 7.701770
_cell_length_b 14.990178
_cell_length_c 32.226058
_cell_angle_alpha 90.000000
_cell_angle_beta 90.000000
_cell_angle_gamma 90.000000
_cell_volume 3720.527503
_symmetry_space_group_name_H-M "P M M A"
_symmetry_group_IT_number 51
_symmetry_cell_setting 'orthorhombic'
loop_
_space_group_symop_operation_xyz
x,y,z
1/2-x,-y,z
1/2+x,-y,-z
-x,y,-z
-x,-y,-z
1/2+x,y,-z
1/2-x,y,z
x,-y,z
loop_
_atom_site_type_symbol
_atom_site_label
_atom_site_fract_x
_atom_site_fract_y
_atom_site_fract_z
Si Si1 0.539985 0.101992 0.205128
Si Si2 0.542244 0.783397 0.713448
Si Si3 0.456311 0.100911 0.046913
Si Si4 0.042727 0.598228 0.846191
Si Si5 0.956591 0.214331 0.126321
Si Si6 0.460261 0.400497 0.250883
Si Si7 0.037695 0.104184 0.364615
Si Si8 0.457921 0.897659 0.455653
O O1 0.750000 0.099295 0.203404
O O2 0.490693 0.156802 0.245964
O O3 0.475501 0.152840 0.163943
O O4 0.477396 0.000000 0.206789
O O5 0.750000 0.776165 0.708391
O O6 0.475700 0.683576 0.722590
O O7 0.474286 0.834350 0.672858
O O8 0.250000 0.096036 0.050138
O O9 0.517143 0.167158 0.082504
O O10 0.527628 0.000000 0.053085
O O11 0.500000 0.128634 0.000000
O O12 0.250000 0.594177 0.853048
O O13 0.970739 0.500000 0.856737
O O14 0.972875 0.685125 0.869687
O O15 0.013406 0.612666 0.797063
O O16 0.750000 0.220828 0.133122
O O17 0.250000 0.400068 0.251931
O O18 0.518658 0.500000 0.263548
O O19 0.250000 0.104372 0.363517
O O20 0.983707 0.136872 0.410652
O O21 0.986606 0.000000 0.359526
O O22 0.500000 0.854159 0.500000
O O23 0.250000 0.901562 0.453777
O O24 0.525090 0.000000 0.457374
#
# Coordination Sequence:
#
# PCOD9398807 Si02
#       8
#     8   8   8   8   8   8   8   8
#     4  10  20  31  42  61  91 122 148 178 216 252
#     4  10  18  28  43  60  82 115 151 180 209 255
#     4  10  21  36  54  75  97 121 150 183 219 260
#     4   9  17  30  49  70  90 116 150 183 216 258
#     4  10  19  32  50  70  94 121 149 182 220 259
#     4   9  17  28  42  62  87 112 141 183 227 256
#     4   8  14  24  37  54  77 107 141 174 209 251
#     4   8  13  22  36  52  71  96 129 170 212 252
#
# _framework density 17.201861999999998
#
# number of rings (size 3 to 8) (size 9 to 14) (size 15 to 20)
#    0.000    2.750    1.250    1.875    0.000    3.000 
#    0.000    0.625    0.000    2.625    0.000    0.000 
#    0.000    0.500    0.000    0.375    0.000    0.750 
#
# Total GULP energy -356615.222377 kJ/mol
# GULP energy per Si atom -5572.112850 kJ/mol
# Density = 1.716271 g / cm^3
# Si number density = 17.201862 Si / 1000 Ang^3
#
#
#
# Elastic Constant Matrix: (Units=GPa)
#
#
# Indices 1 2 3 4 5 6 
#
# 1 24.0575 4.9371 -6.1982 0.0000 0.0000 0.0000
# 2 4.9371 142.1946 92.6295 0.0000 0.0000 0.0000
# 3 -6.1982 92.6295 142.8460 0.0000 0.0000 0.0000
# 4 0.0000 0.0000 0.0000 7.8363 0.0000 0.0000
# 5 0.0000 0.0000 0.0000 0.0000 17.5482 0.0000
# 6 0.0000 0.0000 0.0000 0.0000 0.0000 9.6009
#
#
#
# Elastic Compliance Matrix: (Units=1/GPa)
#
#
# Indices 1 2 3 4 5 6 
#
# 1 0.043837 -0.004781 0.005002 0.000000 0.000000 0.000000
# 2 -0.004781 0.012697 -0.008441 0.000000 0.000000 0.000000
# 3 0.005002 -0.008441 0.012691 0.000000 0.000000 0.000000
# 4 0.000000 0.000000 0.000000 0.127611 0.000000 0.000000
# 5 0.000000 0.000000 0.000000 0.000000 0.056986 0.000000
# 6 0.000000 0.000000 0.000000 0.000000 0.000000 0.104156
#
#
# Mechanical properties :
#
#
# Convention : Reuss Voigt Hill
#
# Bulk Modulus (GPa) = 18.94432 54.64833 36.79633
# Shear Modulus (GPa) = 12.75465 21.51240 17.13353
#
# Velocity S-wave (km/s) = 2.72595 3.54020 3.15941
# Velocity P-wave (km/s) = 4.57652 6.96767 5.89462
#
# Compressibility (1/GPa) = 0.05278627
#
# Stress axis : x y z
#
# Youngs Moduli (GPa) = 22.81190 78.75631 78.79408
#
# Poissons Ratio (x) = 0.37650 -0.39413
# Poissons Ratio (y) = 0.10905 0.66511
# Poissons Ratio (z) = -0.11411 0.66479
#
# Static dielectric constant tensor:
#      x y z
#    x 1.637740 0.000000 0.000000 
#    y 0.000000 1.606400 0.000000 
#    z 0.000000 0.000000 1.592840 
# 
# From -- ./inp_files/37627.got.cif
#   From: 2010.05.17/outbox.cif.g08.bks.cpg/sg51_19_cif.got.tgz:37627.got - 2010.06.03 11:52:47.
