data_PCOD9398879
_publ_section_title
;
Structure prediction by ZEFSAII (Michael W. Deem and Ramdas Pophale) SiO2 
 PCOD9398879
Probable space group: P M M A
;
_chemical_formula_sum "Si O2"
_cell_formula_units_Z 64
_cell_length_a 19.337226
_cell_length_b 7.465549
_cell_length_c 22.652494
_cell_angle_alpha 90.000000
_cell_angle_beta 90.000000
_cell_angle_gamma 90.000000
_cell_volume 3270.182178
_symmetry_space_group_name_H-M "P M M A"
_symmetry_group_IT_number 51
_symmetry_cell_setting 'orthorhombic'
loop_
_space_group_symop_operation_xyz
x,y,z
1/2-x,-y,z
1/2+x,-y,-z
-x,y,-z
-x,-y,-z
1/2+x,y,-z
1/2-x,y,z
x,-y,z
loop_
_atom_site_type_symbol
_atom_site_label
_atom_site_fract_x
_atom_site_fract_y
_atom_site_fract_z
Si Si1 0.671681 0.284683 0.592457
Si Si2 0.534561 0.202997 0.817168
Si Si3 0.882619 0.715666 0.227512
Si Si4 0.578147 0.719609 0.483623
Si Si5 0.438094 0.787209 0.307485
Si Si6 0.590137 0.706237 0.352862
Si Si7 0.525290 0.780092 0.064578
Si Si8 0.675846 0.787507 0.105371
O O1 0.750000 0.217359 0.595758
O O2 0.674492 0.500000 0.588091
O O3 0.630412 0.221492 0.534555
O O4 0.625981 0.243127 0.649746
O O5 0.454979 0.202614 0.794662
O O6 0.571881 0.283121 0.759570
O O7 0.525494 0.282305 0.882497
O O8 0.560579 0.000000 0.824639
O O9 0.890900 0.500000 0.229352
O O10 0.871889 0.779887 0.294579
O O11 0.829732 0.760018 0.175936
O O12 0.500000 0.773351 0.500000
O O13 0.577976 0.500000 0.482493
O O14 0.597411 0.784415 0.418052
O O15 0.508252 0.710143 0.336314
O O16 0.450018 0.000000 0.302737
O O17 0.612401 0.500000 0.357712
O O18 0.603828 0.718622 0.078097
O O19 0.525457 0.000000 0.067491
O O20 0.500000 0.728229 0.000000
O O21 0.750000 0.715035 0.084589
O O22 0.675862 0.000000 0.094137
#
# Coordination Sequence:
#
# PCOD9398879 Si02
#       8
#     8   8   8   8   8   8   8   8
#     4  10  20  33  48  65  85 114 152 191 233 278
#     4   8  15  27  43  65  91 117 143 173 216 267
#     4   9  16  25  41  66  91 113 141 181 221 256
#     4   9  15  27  48  67  85 111 147 190 227 266
#     4  10  18  28  45  67  91 116 143 179 223 267
#     4   9  16  28  46  67  89 112 144 184 223 262
#     4   8  13  24  45  69  90 113 147 188 219 250
#     4   9  17  29  44  62  88 122 154 182 220 272
#
# _framework density 19.570775000000001
#
# number of rings (size 3 to 8) (size 9 to 14) (size 15 to 20)
#    0.000    3.000    1.250    1.500    0.000    1.500 
#    0.000    1.875    0.000    9.000    0.000    3.500 
#    0.000    0.000    0.000    0.000    0.000    0.000 
#
# Total GULP energy -356442.960598 kJ/mol
# GULP energy per Si atom -5569.421259 kJ/mol
# Density = 1.952623 g / cm^3
# Si number density = 19.570775 Si / 1000 Ang^3
#
#
#
# Elastic Constant Matrix: (Units=GPa)
#
#
# Indices 1 2 3 4 5 6 
#
# 1 86.5669 -4.4460 62.5106 0.0000 0.0000 0.0000
# 2 -4.4460 62.6035 -3.4117 0.0000 0.0000 0.0000
# 3 62.5106 -3.4117 198.7160 0.0000 0.0000 0.0000
# 4 0.0000 0.0000 0.0000 -85.8939 0.0000 0.0000
# 5 0.0000 0.0000 0.0000 0.0000 12.2453 0.0000
# 6 0.0000 0.0000 0.0000 0.0000 0.0000 21.0751
#
#
#
# Elastic Compliance Matrix: (Units=1/GPa)
#
#
# Indices 1 2 3 4 5 6 
#
# 1 0.014988 0.000808 -0.004701 0.000000 0.000000 0.000000
# 2 0.000808 0.016032 0.000021 0.000000 0.000000 0.000000
# 3 -0.004701 0.000021 0.006511 0.000000 0.000000 0.000000
# 4 0.000000 0.000000 0.000000 -0.011642 0.000000 0.000000
# 5 0.000000 0.000000 0.000000 0.000000 0.081664 0.000000
# 6 0.000000 0.000000 0.000000 0.000000 0.000000 0.047449
#
#
# Mechanical properties :
#
#
# Convention : Reuss Voigt Hill
#
# Bulk Modulus (GPa) = 33.57051 50.79912 42.18482
# Shear Modulus (GPa) = 28.95616 9.03420 18.99518
#
# Velocity S-wave (km/s) = 3.85068 2.15086 3.11881
# Velocity P-wave (km/s) = 6.07955 5.67285 5.87972
#
# Compressibility (1/GPa) = 0.02978805
#
# Stress axis : x y z
#
# Youngs Moduli (GPa) = 66.72088 62.37490 153.57599
#
# Poissons Ratio (x) = -0.05041 0.72194
# Poissons Ratio (y) = -0.05393 -0.00323
# Poissons Ratio (z) = 0.31365 -0.00131
#
# Static dielectric constant tensor:
#      x y z
#    x 1.659540 0.000000 0.000000 
#    y 0.000000 1.802210 0.000000 
#    z 0.000000 0.000000 1.729940 
# 
# From -- ./inp_files/35943.got.cif
#   From: 2010.05.17/outbox.cif.g08.bks.cpg/sg51_18_cif.got.tgz:35943.got - 2010.06.03 11:52:47.
