data_PCOD9398042
_publ_section_title
;
Structure prediction by ZEFSAII (Michael W. Deem and Ramdas Pophale) SiO2 
 PCOD9398042
Probable space group: P B A N
;
_chemical_formula_sum "Si O2"
_cell_formula_units_Z 24
_cell_length_a 11.872202
_cell_length_b 17.431088
_cell_length_c 4.903157
_cell_angle_alpha 90.000000
_cell_angle_beta 90.000000
_cell_angle_gamma 90.000000
_cell_volume 1014.685776
_symmetry_space_group_name_H-M "P B A N"
_symmetry_group_IT_number 50
_space_group.IT_coordinate_system_code '2'
_symmetry_cell_setting 'orthorhombic'
loop_
_space_group_symop_operation_xyz
x,y,z
1/2-x,1/2-y,z
x,1/2-y,-z
1/2-x,y,-z
-x,-y,-z
1/2+x,1/2+y,-z
-x,1/2+y,z
1/2+x,-y,z
loop_
_atom_site_type_symbol
_atom_site_label
_atom_site_fract_x
_atom_site_fract_y
_atom_site_fract_z
Si Si1 0.126516 0.131102 0.382676
Si Si2 0.325462 0.964061 0.749712
Si Si3 0.488141 0.828311 0.884878
O O1 0.250000 0.147912 0.500000
O O2 0.036219 0.169317 0.581396
O O3 0.114095 0.038662 0.375694
O O4 0.095341 0.158042 0.081547
O O5 0.250000 0.932100 0.500000
O O6 0.403563 0.899872 0.884316
O O7 0.250000 0.994595 0.000000
O O8 0.435304 0.750000 0.000000
#
# Coordination Sequence:
#
# PCOD9398042 Si02
#       3
#     8   8   8
#     4  11  23  42  66  94 128 172 223 270 322 392
#     4  11  23  43  69  95 126 173 228 276 322 387
#     4  12  25  41  64  97 135 173 212 270 340 399
#
# _framework density 23.652643999999999
#
# number of rings (size 3 to 8) (size 9 to 14) (size 15 to 20)
#    0.000    0.667    0.000   10.000    0.000    4.667 
#    0.000    1.667    0.000    0.000    0.000    0.000 
#    0.000    0.000    0.000    0.000    0.000    0.000 
#
# Total GULP energy -134271.682988 kJ/mol
# GULP energy per Si atom -5594.653458 kJ/mol
# Density = 2.359881 g / cm^3
# Si number density = 23.652644 Si / 1000 Ang^3
#
#
#
# Elastic Constant Matrix: (Units=GPa)
#
#
# Indices 1 2 3 4 5 6 
#
# 1 28.5218 34.6257 26.3754 0.0000 0.0000 0.0000
# 2 34.6257 147.3035 32.3833 0.0000 0.0000 0.0000
# 3 26.3754 32.3833 114.1486 0.0000 0.0000 0.0000
# 4 0.0000 0.0000 0.0000 45.0579 0.0000 0.0000
# 5 0.0000 0.0000 0.0000 0.0000 28.4609 0.0000
# 6 0.0000 0.0000 0.0000 0.0000 0.0000 30.0937
#
#
#
# Elastic Compliance Matrix: (Units=1/GPa)
#
#
# Indices 1 2 3 4 5 6 
#
# 1 0.058503 -0.011497 -0.010256 0.000000 0.000000 0.000000
# 2 -0.011497 0.009500 -0.000038 0.000000 0.000000 0.000000
# 3 -0.010256 -0.000038 0.011141 0.000000 0.000000 0.000000
# 4 0.000000 0.000000 0.000000 0.022194 0.000000 0.000000
# 5 0.000000 0.000000 0.000000 0.000000 0.035136 0.000000
# 6 0.000000 0.000000 0.000000 0.000000 0.000000 0.033230
#
#
# Mechanical properties :
#
#
# Convention : Reuss Voigt Hill
#
# Bulk Modulus (GPa) = 28.12121 52.97140 40.54631
# Shear Modulus (GPa) = 22.20841 33.82846 28.01843
#
# Velocity S-wave (km/s) = 3.06754 3.78593 3.44551
# Velocity P-wave (km/s) = 4.94585 6.44633 5.74528
#
# Compressibility (1/GPa) = 0.03556034
#
# Stress axis : x y z
#
# Youngs Moduli (GPa) = 17.09317 105.26607 89.75688
#
# Poissons Ratio (x) = 1.21027 0.92055
# Poissons Ratio (y) = 0.19652 0.00345
# Poissons Ratio (z) = 0.17531 0.00405
#
# Static dielectric constant tensor:
#      x y z
#    x 1.896540 0.000000 0.000000 
#    y 0.000000 1.963010 0.000000 
#    z 0.000000 0.000000 1.837930 
# 
# From -- ./inp_files/1650.got.cif
#   From: 2010.05.17/outbox.cif.g08.bks.cpg/sg50_1_cif.got.tgz:1650.got - 2010.06.03 11:33:33.
