data_PCOD9398545
_publ_section_title
;
Structure prediction by ZEFSAII (Michael W. Deem and Ramdas Pophale) SiO2 
 PCOD9398545
Probable space group: P M M A
;
_chemical_formula_sum "Si O2"
_cell_formula_units_Z 56
_cell_length_a 9.806578
_cell_length_b 22.403807
_cell_length_c 14.384506
_cell_angle_alpha 90.000000
_cell_angle_beta 90.000000
_cell_angle_gamma 90.000000
_cell_volume 3160.343300
_symmetry_space_group_name_H-M "P M M A"
_symmetry_group_IT_number 51
_symmetry_cell_setting 'orthorhombic'
loop_
_space_group_symop_operation_xyz
x,y,z
1/2-x,-y,z
1/2+x,-y,-z
-x,y,-z
-x,-y,-z
1/2+x,y,-z
1/2-x,y,z
x,-y,z
loop_
_atom_site_type_symbol
_atom_site_label
_atom_site_fract_x
_atom_site_fract_y
_atom_site_fract_z
Si Si1 0.090423 0.000000 0.907881
Si Si2 0.410824 0.217541 0.911454
Si Si3 0.500000 0.361180 0.500000
Si Si4 0.104062 0.736847 0.374580
Si Si5 0.089610 0.110326 0.769345
Si Si6 0.086668 0.432964 0.682019
Si Si7 0.413547 0.316726 0.777081
Si Si8 0.590103 0.123862 0.587712
O O1 0.066552 0.057317 0.842763
O O2 0.250000 0.000000 0.934782
O O3 0.000000 0.000000 0.000000
O O4 0.250000 0.215762 0.934297
O O5 0.432268 0.171173 0.827133
O O6 0.448023 0.282966 0.871984
O O7 0.500000 0.201399 0.000000
O O8 0.396911 0.313955 0.453493
O O9 0.552728 0.402922 0.417120
O O10 0.250000 0.733916 0.323981
O O11 0.090128 0.803513 0.412647
O O12 0.982363 0.720141 0.306169
O O13 0.250000 0.108570 0.739908
O O14 0.988382 0.106107 0.682242
O O15 0.250000 0.436742 0.688165
O O16 0.030523 0.500000 0.689764
O O17 0.042064 0.384995 0.759943
O O18 0.250000 0.313595 0.767436
O O19 0.500000 0.103116 0.500000
O O20 0.750000 0.105373 0.584939
#
# Coordination Sequence:
#
# PCOD9398545 Si02
#       8
#     4   8   4   8   8   8   8   8
#     4  10  22  40  65  92 119 152 187 224 278 332
#     4  10  20  33  53  80 108 138 171 218 276 327
#     4  10  17  28  42  66 102 137 172 216 268 319
#     4  10  19  29  45  71 101 135 175 216 261 312
#     4  10  21  39  59  84 117 149 182 226 271 323
#     4   9  17  28  44  66  93 131 177 219 261 317
#     4   9  18  32  49  69  98 133 168 211 266 318
#     4  11  22  35  54  82 113 151 190 230 274 320
#
# _framework density 17.719595000000002
#
# number of rings (size 3 to 8) (size 9 to 14) (size 15 to 20)
#    0.000    2.143    2.143    1.500    0.000    2.857 
#    0.000    0.357    0.000    4.286    0.000    0.000 
#    0.000    0.000    0.000    0.000    0.000    0.000 
#
# Total GULP energy -311999.218931 kJ/mol
# GULP energy per Si atom -5571.414624 kJ/mol
# Density = 1.767926 g / cm^3
# Si number density = 17.719595 Si / 1000 Ang^3
#
#
#
# Elastic Constant Matrix: (Units=GPa)
#
#
# Indices 1 2 3 4 5 6 
#
# 1 79.1302 25.4258 67.9489 0.0000 0.0000 0.0000
# 2 25.4258 78.9120 31.2731 0.0000 0.0000 0.0000
# 3 67.9489 31.2731 98.0449 0.0000 0.0000 0.0000
# 4 0.0000 0.0000 0.0000 18.6683 0.0000 0.0000
# 5 0.0000 0.0000 0.0000 0.0000 28.6379 0.0000
# 6 0.0000 0.0000 0.0000 0.0000 0.0000 10.9846
#
#
#
# Elastic Compliance Matrix: (Units=1/GPa)
#
#
# Indices 1 2 3 4 5 6 
#
# 1 0.031412 -0.001710 -0.021225 0.000000 0.000000 0.000000
# 2 -0.001710 0.014599 -0.003472 0.000000 0.000000 0.000000
# 3 -0.021225 -0.003472 0.026016 0.000000 0.000000 0.000000
# 4 0.000000 0.000000 0.000000 0.053567 0.000000 0.000000
# 5 0.000000 0.000000 0.000000 0.000000 0.034919 0.000000
# 6 0.000000 0.000000 0.000000 0.000000 0.000000 0.091037
#
#
# Mechanical properties :
#
#
# Convention : Reuss Voigt Hill
#
# Bulk Modulus (GPa) = 52.04132 56.15364 54.09748
# Shear Modulus (GPa) = 16.08921 20.42076 18.25498
#
# Velocity S-wave (km/s) = 3.01656 3.39844 3.21318
# Velocity P-wave (km/s) = 6.44716 6.86718 6.66048
#
# Compressibility (1/GPa) = 0.01921550
#
# Stress axis : x y z
#
# Youngs Moduli (GPa) = 31.83465 68.49746 38.43755
#
# Poissons Ratio (x) = 0.11712 0.81582
# Poissons Ratio (y) = 0.05443 0.13344
# Poissons Ratio (z) = 0.67568 0.23780
#
# Static dielectric constant tensor:
#      x y z
#    x 1.619240 0.000000 0.000000 
#    y 0.000000 1.645800 0.000000 
#    z 0.000000 0.000000 1.585010 
# 
# From -- ./inp_files/21900.got.cif
#   From: 2010.05.17/outbox.cif.g08.bks.cpg/sg51_11_cif.got.tgz:21900.got - 2010.06.03 11:52:47.
