data_PCOD9398339
_publ_section_title
;
Structure prediction by ZEFSAII (Michael W. Deem and Ramdas Pophale) SiO2 
 PCOD9398339
Probable space group: P M M A
;
_chemical_formula_sum "Si O2"
_cell_formula_units_Z 32
_cell_length_a 24.831917
_cell_length_b 8.000969
_cell_length_c 7.268414
_cell_angle_alpha 90.000000
_cell_angle_beta 90.000000
_cell_angle_gamma 90.000000
_cell_volume 1444.084119
_symmetry_space_group_name_H-M "P M M A"
_symmetry_group_IT_number 51
_symmetry_cell_setting 'orthorhombic'
loop_
_space_group_symop_operation_xyz
x,y,z
1/2-x,-y,z
1/2+x,-y,-z
-x,y,-z
-x,-y,-z
1/2+x,y,-z
1/2-x,y,z
x,-y,z
loop_
_atom_site_type_symbol
_atom_site_label
_atom_site_fract_x
_atom_site_fract_y
_atom_site_fract_z
Si Si1 0.250000 0.700055 0.074955
Si Si2 0.936347 0.000000 0.531107
Si Si3 0.750000 0.192277 0.510737
Si Si4 0.367414 0.689375 0.025727
Si Si5 0.367218 0.314698 0.475397
Si Si6 0.563278 0.000000 0.968810
O O1 0.250000 0.500000 0.120853
O O2 0.250000 0.800885 0.265167
O O3 0.305909 0.732776 0.973397
O O4 0.906404 0.833435 0.462928
O O5 0.928129 0.000000 0.750090
O O6 0.000000 0.000000 0.500000
O O7 0.693973 0.280639 0.461467
O O8 0.750000 0.000000 0.450912
O O9 0.380388 0.500000 0.968024
O O10 0.366640 0.687483 0.250642
O O11 0.408086 0.831642 0.962527
O O12 0.384558 0.500000 0.531136
O O13 0.500000 0.000000 0.000000
#
# Coordination Sequence:
#
# PCOD9398339 Si02
#       6
#     4   4   4   8   8   4
#     4   8  14  22  36  62  90 114 139 174 226 278
#     4  10  20  33  47  65  89 120 157 192 218 258
#     4  10  14  20  38  65  93 117 139 175 229 278
#     4   8  15  26  41  63  90 115 142 180 224 266
#     4   9  16  27  42  64  92 118 145 182 228 273
#     4  10  20  31  45  65  89 120 153 184 218 260
#
# _framework density 22.159374
#
# number of rings (size 3 to 8) (size 9 to 14) (size 15 to 20)
#    0.000    3.000    1.250    2.625    5.250    1.000 
#    0.000    0.000    0.000    0.000    0.000    3.500 
#    0.000    4.000    0.000    0.000    0.000    0.000 
#
# Total GULP energy -178706.487935 kJ/mol
# GULP energy per Si atom -5584.577748 kJ/mol
# Density = 2.210894 g / cm^3
# Si number density = 22.159374 Si / 1000 Ang^3
#
#
#
# Elastic Constant Matrix: (Units=GPa)
#
#
# Indices 1 2 3 4 5 6 
#
# 1 197.5035 134.2930 -2.8268 0.0000 0.0000 0.0000
# 2 134.2930 203.3478 4.2811 0.0000 0.0000 0.0000
# 3 -2.8268 4.2811 88.6571 0.0000 0.0000 0.0000
# 4 0.0000 0.0000 0.0000 -14.9046 0.0000 0.0000
# 5 0.0000 0.0000 0.0000 0.0000 7.2073 0.0000
# 6 0.0000 0.0000 0.0000 0.0000 0.0000 17.6543
#
#
#
# Elastic Compliance Matrix: (Units=1/GPa)
#
#
# Indices 1 2 3 4 5 6 
#
# 1 0.009220 -0.006102 0.000589 0.000000 0.000000 0.000000
# 2 -0.006102 0.008961 -0.000627 0.000000 0.000000 0.000000
# 3 0.000589 -0.000627 0.011328 0.000000 0.000000 0.000000
# 4 0.000000 0.000000 0.000000 -0.067093 0.000000 0.000000
# 5 0.000000 0.000000 0.000000 0.000000 0.138748 0.000000
# 6 0.000000 0.000000 0.000000 0.000000 0.000000 0.056643
#
#
# Mechanical properties :
#
#
# Convention : Reuss Voigt Hill
#
# Bulk Modulus (GPa) = 58.04211 84.55588 71.29900
# Shear Modulus (GPa) = 28.43634 25.57546 27.00590
#
# Velocity S-wave (km/s) = 3.58615 3.40098 3.49479
# Velocity P-wave (km/s) = 6.58766 7.32551 6.96636
#
# Compressibility (1/GPa) = 0.01722887
#
# Stress axis : x y z
#
# Youngs Moduli (GPa) = 108.45401 111.60065 88.27314
#
# Poissons Ratio (x) = 0.68095 -0.05196
# Poissons Ratio (y) = 0.66175 0.05537
# Poissons Ratio (z) = -0.06384 0.07000
#
# Static dielectric constant tensor:
#      x y z
#    x 1.779690 0.000000 0.000000 
#    y 0.000000 1.783230 0.000000 
#    z 0.000000 0.000000 1.911860 
# 
# From -- ./inp_files/11392.got.cif
#   From: 2010.05.17/outbox.cif.g08.bks.cpg/sg51_6_cif.got.tgz:11392.got - 2010.06.03 11:52:47.
