data_PCOD9398893
_publ_section_title
;
Structure prediction by ZEFSAII (Michael W. Deem and Ramdas Pophale) SiO2 
 PCOD9398893
Probable space group: P M M A
;
_chemical_formula_sum "Si O2"
_cell_formula_units_Z 56
_cell_length_a 19.155319
_cell_length_b 12.373355
_cell_length_c 13.987190
_cell_angle_alpha 90.000000
_cell_angle_beta 90.000000
_cell_angle_gamma 90.000000
_cell_volume 3315.181700
_symmetry_space_group_name_H-M "P M M A"
_symmetry_group_IT_number 51
_symmetry_cell_setting 'orthorhombic'
loop_
_space_group_symop_operation_xyz
x,y,z
1/2-x,-y,z
1/2+x,-y,-z
-x,y,-z
-x,-y,-z
1/2+x,y,-z
1/2-x,y,z
x,-y,z
loop_
_atom_site_type_symbol
_atom_site_label
_atom_site_fract_x
_atom_site_fract_y
_atom_site_fract_z
Si Si1 0.084159 0.500000 0.512699
Si Si2 0.832242 0.286490 0.500181
Si Si3 0.167878 0.500000 0.708060
Si Si4 0.670372 0.262876 0.271130
Si Si5 0.329542 0.868113 0.063554
Si Si6 0.558845 0.130269 0.577341
Si Si7 0.914507 0.870071 0.124226
Si Si8 0.442458 0.869195 0.205633
O O1 0.121457 0.391626 0.473270
O O2 0.111391 0.500000 0.622942
O O3 0.000000 0.500000 0.500000
O O4 0.750000 0.300866 0.521024
O O5 0.838505 0.267729 0.385594
O O6 0.868052 0.184184 0.549459
O O7 0.250000 0.500000 0.670449
O O8 0.160049 0.612905 0.762126
O O9 0.750000 0.231117 0.251279
O O10 0.621178 0.181366 0.216806
O O11 0.250000 0.831061 0.058432
O O12 0.369900 0.833057 0.159227
O O13 0.328819 0.000000 0.063359
O O14 0.373897 0.834931 0.970643
O O15 0.500000 0.164087 0.500000
O O16 0.542329 0.165426 0.685987
O O17 0.562814 0.000000 0.574175
O O18 0.995558 0.840136 0.133014
O O19 0.910063 0.000000 0.128361
O O20 0.440787 0.000000 0.209042
#
# Coordination Sequence:
#
# PCOD9398893 Si02
#       8
#     4   8   4   8   8   8   8   8
#     4  10  18  30  50  70  89 118 159 206 250 289
#     4  10  20  33  48  68  96 128 163 202 244 291
#     4   8  16  32  48  64  90 122 156 192 230 277
#     4   9  17  29  46  67  93 124 154 189 233 279
#     4   9  17  29  45  66  92 121 156 195 230 272
#     4  10  20  33  48  69  98 131 167 203 238 283
#     4  10  18  28  45  71  99 121 145 186 240 288
#     4   9  18  31  46  63  90 129 162 188 226 279
#
# _framework density 16.891984999999998
#
# number of rings (size 3 to 8) (size 9 to 14) (size 15 to 20)
#    0.000    2.571    0.000    3.643    0.000    6.286 
#    0.000    2.857    0.000    0.000    0.000    3.000 
#    0.000    2.286    0.000    0.000    0.000    0.000 
#
# Total GULP energy -311801.908824 kJ/mol
# GULP energy per Si atom -5567.891229 kJ/mol
# Density = 1.685354 g / cm^3
# Si number density = 16.891985 Si / 1000 Ang^3
#
#
#
# Elastic Constant Matrix: (Units=GPa)
#
#
# Indices 1 2 3 4 5 6 
#
# 1 128.0025 20.4022 56.0575 0.0000 0.0000 0.0000
# 2 20.4022 15.2277 11.5031 0.0000 0.0000 0.0000
# 3 56.0575 11.5031 73.8801 0.0000 0.0000 0.0000
# 4 0.0000 0.0000 0.0000 5.8517 0.0000 0.0000
# 5 0.0000 0.0000 0.0000 0.0000 23.6849 0.0000
# 6 0.0000 0.0000 0.0000 0.0000 0.0000 22.4108
#
#
#
# Elastic Compliance Matrix: (Units=1/GPa)
#
#
# Indices 1 2 3 4 5 6 
#
# 1 0.013276 -0.011534 -0.008277 0.000000 0.000000 0.000000
# 2 -0.011534 0.084445 -0.004396 0.000000 0.000000 0.000000
# 3 -0.008277 -0.004396 0.020500 0.000000 0.000000 0.000000
# 4 0.000000 0.000000 0.000000 0.170890 0.000000 0.000000
# 5 0.000000 0.000000 0.000000 0.000000 0.042221 0.000000
# 6 0.000000 0.000000 0.000000 0.000000 0.000000 0.044621
#
#
# Mechanical properties :
#
#
# Convention : Reuss Voigt Hill
#
# Bulk Modulus (GPa) = 14.32555 43.67067 28.99811
# Shear Modulus (GPa) = 11.16975 18.99931 15.08453
#
# Velocity S-wave (km/s) = 2.57426 3.35737 2.99155
# Velocity P-wave (km/s) = 4.16351 6.39830 5.39783
#
# Compressibility (1/GPa) = 0.06980535
#
# Stress axis : x y z
#
# Youngs Moduli (GPa) = 75.32541 11.84205 48.77953
#
# Poissons Ratio (x) = 0.13659 0.40376
# Poissons Ratio (y) = 0.86883 0.21445
# Poissons Ratio (z) = 0.62349 0.05206
#
# Static dielectric constant tensor:
#      x y z
#    x 1.590400 0.000000 0.000000 
#    y 0.000000 1.566180 0.000000 
#    z 0.000000 0.000000 1.582370 
# 
# From -- ./inp_files/25305.got.cif
#   From: 2010.05.17/outbox.cif.g08.bks.cpg/sg51_13_cif.got.tgz:25305.got - 2010.06.03 11:52:47.
