data_PCOD9398128
_publ_section_title
;
Structure prediction by ZEFSAII (Michael W. Deem and Ramdas Pophale) SiO2 
 PCOD9398128
Probable space group: P B A N
;
_chemical_formula_sum "Si O2"
_cell_formula_units_Z 34
_cell_length_a 11.315906
_cell_length_b 8.993351
_cell_length_c 16.966490
_cell_angle_alpha 90.000000
_cell_angle_beta 90.000000
_cell_angle_gamma 90.000000
_cell_volume 1726.644304
_symmetry_space_group_name_H-M "P B A N"
_symmetry_group_IT_number 50
_space_group.IT_coordinate_system_code '2'
_symmetry_cell_setting 'orthorhombic'
loop_
_space_group_symop_operation_xyz
x,y,z
1/2-x,1/2-y,z
x,1/2-y,-z
1/2-x,y,-z
-x,-y,-z
1/2+x,1/2+y,-z
-x,1/2+y,z
1/2+x,-y,z
loop_
_atom_site_type_symbol
_atom_site_label
_atom_site_fract_x
_atom_site_fract_y
_atom_site_fract_z
Si Si1 0.549395 0.429844 0.918810
Si Si2 0.373519 0.683739 0.411404
Si Si3 0.750000 0.250000 0.000000
Si Si4 0.619346 0.710387 0.823800
Si Si5 0.874248 0.669540 0.364844
O O1 0.665444 0.344011 0.944808
O O2 0.582430 0.556836 0.859727
O O3 0.463075 0.327306 0.868324
O O4 0.500000 0.500000 0.000000
O O5 0.250000 0.750000 0.373659
O O6 0.367247 0.750000 0.500000
O O7 0.502581 0.748222 0.387249
O O8 0.373618 0.503592 0.395858
O O9 0.750000 0.750000 0.849201
O O10 0.621089 0.688745 0.729873
O O11 0.750000 0.750000 0.390920
#
# Coordination Sequence:
#
# PCOD9398128 Si02
#       5
#     8   8   2   8   8
#     4  12  23  43  65  93 127 173 223 273 330 388
#     4  11  24  44  70 102 136 177 223 276 337 406
#     4  12  24  40  64  92 120 168 224 270 328 384
#     4  11  25  43  65  95 132 172 218 274 330 391
#     4  11  24  45  69 102 137 178 225 277 338 408
#
# _framework density 19.691375000000001
#
# number of rings (size 3 to 8) (size 9 to 14) (size 15 to 20)
#    0.000    0.706    2.353    4.941    0.000    5.176 
#    4.235    0.000    0.000    0.000    0.000    0.000 
#    0.000    0.000    0.000    0.000    0.000    0.000 
#
# Total GULP energy -189417.620064 kJ/mol
# GULP energy per Si atom -5571.106472 kJ/mol
# Density = 1.964656 g / cm^3
# Si number density = 19.691375 Si / 1000 Ang^3
#
#
#
# Elastic Constant Matrix: (Units=GPa)
#
#
# Indices 1 2 3 4 5 6 
#
# 1 218.1526 128.4734 60.0092 0.0000 0.0000 0.0000
# 2 128.4734 193.1607 53.1057 0.0000 0.0000 0.0000
# 3 60.0092 53.1057 82.4686 0.0000 0.0000 0.0000
# 4 0.0000 0.0000 0.0000 37.5802 0.0000 0.0000
# 5 0.0000 0.0000 0.0000 0.0000 39.2465 0.0000
# 6 0.0000 0.0000 0.0000 0.0000 0.0000 58.2810
#
#
#
# Elastic Compliance Matrix: (Units=1/GPa)
#
#
# Indices 1 2 3 4 5 6 
#
# 1 0.008083 -0.004567 -0.002940 0.000000 0.000000 0.000000
# 2 -0.004567 0.008872 -0.002389 0.000000 0.000000 0.000000
# 3 -0.002940 -0.002389 0.015804 0.000000 0.000000 0.000000
# 4 0.000000 0.000000 0.000000 0.026610 0.000000 0.000000
# 5 0.000000 0.000000 0.000000 0.000000 0.025480 0.000000
# 6 0.000000 0.000000 0.000000 0.000000 0.000000 0.017158
#
#
# Mechanical properties :
#
#
# Convention : Reuss Voigt Hill
#
# Bulk Modulus (GPa) = 77.13540 108.55094 92.84317
# Shear Modulus (GPa) = 39.64418 43.83445 41.73931
#
# Velocity S-wave (km/s) = 4.49182 4.72325 4.60899
# Velocity P-wave (km/s) = 8.13383 9.21907 8.69340
#
# Compressibility (1/GPa) = 0.01296422
#
# Stress axis : x y z
#
# Youngs Moduli (GPa) = 123.72298 112.71608 63.27528
#
# Poissons Ratio (x) = 0.51483 0.18604
# Poissons Ratio (y) = 0.56510 0.15119
# Poissons Ratio (z) = 0.36376 0.26933
#
# Static dielectric constant tensor:
#      x y z
#    x 1.756630 0.000000 0.000000 
#    y 0.000000 1.672450 0.000000 
#    z 0.000000 0.000000 1.621730 
# 
# From -- ./inp_files/24440.got.cif
#   From: 2010.05.17/outbox.cif.g08.bks.cpg/sg50_13_cif.got.tgz:24440.got - 2010.06.03 11:33:33.
