data_PCOD9398811
_publ_section_title
;
Structure prediction by ZEFSAII (Michael W. Deem and Ramdas Pophale) SiO2 
 PCOD9398811
Probable space group: P M M A
;
_chemical_formula_sum "Si O2"
_cell_formula_units_Z 56
_cell_length_a 8.773225
_cell_length_b 19.093016
_cell_length_c 22.004004
_cell_angle_alpha 90.000000
_cell_angle_beta 90.000000
_cell_angle_gamma 90.000000
_cell_volume 3685.831856
_symmetry_space_group_name_H-M "P M M A"
_symmetry_group_IT_number 51
_symmetry_cell_setting 'orthorhombic'
loop_
_space_group_symop_operation_xyz
x,y,z
1/2-x,-y,z
1/2+x,-y,-z
-x,y,-z
-x,-y,-z
1/2+x,y,-z
1/2-x,y,z
x,-y,z
loop_
_atom_site_type_symbol
_atom_site_label
_atom_site_fract_x
_atom_site_fract_y
_atom_site_fract_z
Si Si1 0.434725 0.578855 0.316024
Si Si2 0.067443 0.334499 0.436176
Si Si3 0.566497 0.918732 0.692730
Si Si4 0.069622 0.207621 0.628865
Si Si5 0.066459 0.285163 0.254455
Si Si6 0.932158 0.156742 0.819962
Si Si7 0.931898 0.081140 0.064739
O O1 0.250000 0.575220 0.317477
O O2 0.493635 0.500000 0.309920
O O3 0.480086 0.615650 0.379701
O O4 0.472724 0.633206 0.261819
O O5 0.250000 0.333793 0.438170
O O6 0.000000 0.358965 0.500000
O O7 0.007707 0.256131 0.422006
O O8 0.750000 0.912932 0.688255
O O9 0.493336 0.870140 0.640871
O O10 0.524916 0.887730 0.759414
O O11 0.523529 0.000000 0.688636
O O12 0.250000 0.207140 0.620830
O O13 0.021011 0.247414 0.690784
O O14 0.250000 0.278149 0.265708
O O15 0.033818 0.238146 0.195665
O O16 0.750000 0.149532 0.827314
O O17 0.012079 0.127230 0.879201
O O18 0.750000 0.082726 0.061200
O O19 0.980566 0.000000 0.074836
O O20 0.000000 0.103657 0.000000
#
# Coordination Sequence:
#
# PCOD9398811 Si02
#       7
#     8   8   8   8   8   8   8
#     4   8  14  26  45  67  90 115 141 171 207 248
#     4  10  19  31  46  63  84 111 144 176 208 251
#     4   9  17  29  45  64  86 112 140 173 216 260
#     4  10  18  28  43  62  84 109 139 176 215 253
#     4   8  15  28  44  62  86 115 144 174 211 254
#     4   9  16  27  43  62  85 114 146 177 209 248
#     4  10  20  31  42  58  83 116 151 185 219 253
#
# _framework density 15.193314000000001
#
# number of rings (size 3 to 8) (size 9 to 14) (size 15 to 20)
#    0.000    2.857    0.000    4.286    0.000    4.286 
#    0.000    0.000    0.000   10.714    0.000    0.000 
#    0.000    0.571    0.000    1.000    0.000    1.429 
#
# Total GULP energy -311738.379812 kJ/mol
# GULP energy per Si atom -5566.756782 kJ/mol
# Density = 1.515873 g / cm^3
# Si number density = 15.193314 Si / 1000 Ang^3
#
#
#
# Elastic Constant Matrix: (Units=GPa)
#
#
# Indices 1 2 3 4 5 6 
#
# 1 29.7966 25.4037 16.4583 0.0000 0.0000 0.0000
# 2 25.4037 127.0785 38.6340 0.0000 0.0000 0.0000
# 3 16.4583 38.6340 45.3706 0.0000 0.0000 0.0000
# 4 0.0000 0.0000 0.0000 14.3839 0.0000 0.0000
# 5 0.0000 0.0000 0.0000 0.0000 23.1490 0.0000
# 6 0.0000 0.0000 0.0000 0.0000 0.0000 9.2666
#
#
#
# Elastic Compliance Matrix: (Units=1/GPa)
#
#
# Indices 1 2 3 4 5 6 
#
# 1 0.044545 -0.005387 -0.011572 0.000000 0.000000 0.000000
# 2 -0.005387 0.011269 -0.007642 0.000000 0.000000 0.000000
# 3 -0.011572 -0.007642 0.032746 0.000000 0.000000 0.000000
# 4 0.000000 0.000000 0.000000 0.069522 0.000000 0.000000
# 5 0.000000 0.000000 0.000000 0.000000 0.043198 0.000000
# 6 0.000000 0.000000 0.000000 0.000000 0.000000 0.107915
#
#
# Mechanical properties :
#
#
# Convention : Reuss Voigt Hill
#
# Bulk Modulus (GPa) = 25.40719 40.35973 32.88346
# Shear Modulus (GPa) = 13.45833 17.47654 15.46743
#
# Velocity S-wave (km/s) = 2.97948 3.39525 3.19414
# Velocity P-wave (km/s) = 5.34746 6.48013 5.94085
#
# Compressibility (1/GPa) = 0.03935894
#
# Stress axis : x y z
#
# Youngs Moduli (GPa) = 22.44901 88.73680 30.53829
#
# Poissons Ratio (x) = 0.47800 0.35339
# Poissons Ratio (y) = 0.12093 0.23337
# Poissons Ratio (z) = 0.25978 0.67812
#
# Static dielectric constant tensor:
#      x y z
#    x 1.509580 0.000000 0.000000 
#    y 0.000000 1.540410 0.000000 
#    z 0.000000 0.000000 1.488820 
# 
# From -- ./inp_files/32270.got.cif
#   From: 2010.05.17/outbox.cif.g08.bks.cpg/sg51_17_cif.got.tgz:32270.got - 2010.06.03 11:52:47.
