data_PCOD9398409
_publ_section_title
;
Structure prediction by ZEFSAII (Michael W. Deem and Ramdas Pophale) SiO2 
 PCOD9398409
Probable space group: P M M A
;
_chemical_formula_sum "Si O2"
_cell_formula_units_Z 40
_cell_length_a 8.170235
_cell_length_b 12.152577
_cell_length_c 21.298703
_cell_angle_alpha 90.000000
_cell_angle_beta 90.000000
_cell_angle_gamma 90.000000
_cell_volume 2114.735653
_symmetry_space_group_name_H-M "P M M A"
_symmetry_group_IT_number 51
_symmetry_cell_setting 'orthorhombic'
loop_
_space_group_symop_operation_xyz
x,y,z
1/2-x,-y,z
1/2+x,-y,-z
-x,y,-z
-x,-y,-z
1/2+x,y,-z
1/2-x,y,z
x,-y,z
loop_
_atom_site_type_symbol
_atom_site_label
_atom_site_fract_x
_atom_site_fract_y
_atom_site_fract_z
Si Si1 0.940412 0.000000 0.227634
Si Si2 0.450861 0.372642 0.809465
Si Si3 0.054711 0.225237 0.696240
Si Si4 0.556952 0.243066 0.067399
Si Si5 0.447955 0.127442 0.569742
Si Si6 0.564456 0.000000 0.908232
O O1 0.963634 0.891601 0.268712
O O2 0.750000 0.000000 0.205358
O O3 0.052806 0.000000 0.167130
O O4 0.250000 0.366882 0.809010
O O5 0.496614 0.500000 0.813648
O O6 0.509282 0.316260 0.744716
O O7 0.509060 0.304750 0.870608
O O8 0.250000 0.245877 0.690114
O O9 0.990176 0.205203 0.625978
O O10 0.750000 0.255288 0.069628
O O11 0.516148 0.113832 0.071084
O O12 0.500000 0.286923 0.000000
O O13 0.500000 0.160909 0.500000
O O14 0.250000 0.125991 0.572604
O O15 0.502368 0.000000 0.579403
O O16 0.750000 0.000000 0.930838
#
# Coordination Sequence:
#
# PCOD9398409 Si02
#       6
#     4   8   8   8   8   4
#     4  10  16  29  52  77  99 133 171 207 258 306
#     4   9  18  32  53  79 100 126 172 220 255 295
#     4   9  15  27  50  74  99 131 169 208 250 302
#     4  11  22  37  56  77 105 136 167 207 257 306
#     4   9  16  26  43  69 101 133 165 200 245 300
#     4  12  23  35  52  79 110 135 167 205 251 312
#
# _framework density 18.914894
#
# number of rings (size 3 to 8) (size 9 to 14) (size 15 to 20)
#    0.000    2.200    3.000    1.800    0.000    0.400 
#    0.000    1.000    0.000    2.400    0.000    0.000 
#    0.000    0.000    0.000    0.000    0.000    0.000 
#
# Total GULP energy -223088.322424 kJ/mol
# GULP energy per Si atom -5577.208061 kJ/mol
# Density = 1.887184 g / cm^3
# Si number density = 18.914894 Si / 1000 Ang^3
#
#
#
# Elastic Constant Matrix: (Units=GPa)
#
#
# Indices 1 2 3 4 5 6 
#
# 1 12.4990 6.0910 15.2521 0.0000 0.0000 0.0000
# 2 6.0910 104.3536 71.6629 0.0000 0.0000 0.0000
# 3 15.2521 71.6629 188.8028 0.0000 0.0000 0.0000
# 4 0.0000 0.0000 0.0000 712.2975 0.0000 0.0000
# 5 0.0000 0.0000 0.0000 0.0000 25.7013 0.0000
# 6 0.0000 0.0000 0.0000 0.0000 0.0000 -5.4779
#
#
#
# Elastic Compliance Matrix: (Units=1/GPa)
#
#
# Indices 1 2 3 4 5 6 
#
# 1 0.088765 -0.000347 -0.007039 0.000000 0.000000 0.000000
# 2 -0.000347 0.012963 -0.004892 0.000000 0.000000 0.000000
# 3 -0.007039 -0.004892 0.007722 0.000000 0.000000 0.000000
# 4 0.000000 0.000000 0.000000 0.001404 0.000000 0.000000
# 5 0.000000 0.000000 0.000000 0.000000 0.038909 0.000000
# 6 0.000000 0.000000 0.000000 0.000000 0.000000 -0.182553
#
#
# Mechanical properties :
#
#
# Convention : Reuss Voigt Hill
#
# Bulk Modulus (GPa) = 11.77953 54.62973 33.20463
# Shear Modulus (GPa) = 249.21136 160.68082 204.94609
#
# Velocity S-wave (km/s) = 11.49087 9.22680 10.42050
# Velocity P-wave (km/s) = 13.50165 11.93550 12.74266
#
# Compressibility (1/GPa) = 0.08489300
#
# Stress axis : x y z
#
# Youngs Moduli (GPa) = 11.26572 77.14482 129.49956
#
# Poissons Ratio (x) = 0.02679 0.91154
# Poissons Ratio (y) = 0.00391 0.63353
# Poissons Ratio (z) = 0.07930 0.37740
#
# Static dielectric constant tensor:
#      x y z
#    x 1.668710 0.000000 0.000000 
#    y 0.000000 1.443580 0.000000 
#    z 0.000000 0.000000 1.690850 
# 
# From -- ./inp_files/31443.got.cif
#   From: 2010.05.17/outbox.cif.g08.bks.cpg/sg51_16_cif.got.tgz:31443.got - 2010.06.03 11:52:47.
