data_PCOD9398486
_publ_section_title
;
Structure prediction by ZEFSAII (Michael W. Deem and Ramdas Pophale) SiO2 
 PCOD9398486
Probable space group: P M M A
;
_chemical_formula_sum "Si O2"
_cell_formula_units_Z 64
_cell_length_a 7.614678
_cell_length_b 14.659301
_cell_length_c 32.823888
_cell_angle_alpha 90.000000
_cell_angle_beta 90.000000
_cell_angle_gamma 90.000000
_cell_volume 3663.994622
_symmetry_space_group_name_H-M "P M M A"
_symmetry_group_IT_number 51
_symmetry_cell_setting 'orthorhombic'
loop_
_space_group_symop_operation_xyz
x,y,z
1/2-x,-y,z
1/2+x,-y,-z
-x,y,-z
-x,-y,-z
1/2+x,y,-z
1/2-x,y,z
x,-y,z
loop_
_atom_site_type_symbol
_atom_site_label
_atom_site_fract_x
_atom_site_fract_y
_atom_site_fract_z
Si Si1 0.464393 0.606994 0.367381
Si Si2 0.039801 0.604722 0.456286
Si Si3 0.461432 0.102030 0.840348
Si Si4 0.541214 0.708297 0.875386
Si Si5 0.541702 0.292787 0.712891
Si Si6 0.539090 0.395602 0.954474
Si Si7 0.965060 0.394011 0.794246
Si Si8 0.461675 0.102384 0.747193
O O1 0.250000 0.609664 0.367040
O O2 0.512042 0.500000 0.363083
O O3 0.521329 0.640905 0.412346
O O4 0.528734 0.665030 0.329015
O O5 0.250000 0.600477 0.454085
O O6 0.972086 0.500000 0.458069
O O7 0.000000 0.649042 0.500000
O O8 0.250000 0.100279 0.839144
O O9 0.513675 0.184396 0.869262
O O10 0.522442 0.120632 0.793804
O O11 0.521375 0.000000 0.851678
O O12 0.750000 0.692470 0.875471
O O13 0.471737 0.665829 0.917335
O O14 0.472555 0.656902 0.835046
O O15 0.750000 0.310526 0.712594
O O16 0.472494 0.343008 0.753463
O O17 0.516386 0.185127 0.718670
O O18 0.750000 0.399543 0.951284
O O19 0.472787 0.500000 0.951029
O O20 0.500000 0.361834 0.000000
O O21 0.750000 0.390834 0.794278
O O22 0.015031 0.500000 0.794217
O O23 0.250000 0.101352 0.748026
O O24 0.520351 0.000000 0.735942
#
# Coordination Sequence:
#
# PCOD9398486 Si02
#       8
#     8   8   8   8   8   8   8   8
#     4   8  14  24  38  58  85 116 146 175 211 254
#     4   8  13  22  36  53  75 105 142 181 214 245
#     4   9  18  32  48  65  87 116 146 176 216 263
#     4  10  18  29  47  71  92 112 143 183 218 246
#     4  10  17  26  43  65  85 111 147 180 207 245
#     4   9  18  32  49  69  94 121 147 176 212 254
#     4   9  16  25  39  62  90 116 141 170 205 245
#     4   9  18  32  46  59  82 116 146 175 217 261
#
# _framework density 17.467275000000001
#
# number of rings (size 3 to 8) (size 9 to 14) (size 15 to 20)
#    0.000    3.000    1.250    2.250    0.000    4.000 
#    0.000    1.875    0.000    4.500    0.000    0.000 
#    0.000    0.500    0.000    1.125    0.000    2.000 
#
# Total GULP energy -356594.344925 kJ/mol
# GULP energy per Si atom -5571.786639 kJ/mol
# Density = 1.742752 g / cm^3
# Si number density = 17.467275 Si / 1000 Ang^3
#
#
#
# Elastic Constant Matrix: (Units=GPa)
#
#
# Indices 1 2 3 4 5 6 
#
# 1 32.9585 -3.3145 9.4782 0.0000 0.0000 0.0000
# 2 -3.3145 100.9014 89.7888 0.0000 0.0000 0.0000
# 3 9.4782 89.7888 184.5921 0.0000 0.0000 0.0000
# 4 0.0000 0.0000 0.0000 11.2364 0.0000 0.0000
# 5 0.0000 0.0000 0.0000 0.0000 12.7255 0.0000
# 6 0.0000 0.0000 0.0000 0.0000 0.0000 38.7995
#
#
#
# Elastic Compliance Matrix: (Units=1/GPa)
#
#
# Indices 1 2 3 4 5 6 
#
# 1 0.031873 0.004414 -0.003784 0.000000 0.000000 0.000000
# 2 0.004414 0.018086 -0.009024 0.000000 0.000000 0.000000
# 3 -0.003784 -0.009024 0.010001 0.000000 0.000000 0.000000
# 4 0.000000 0.000000 0.000000 0.088997 0.000000 0.000000
# 5 0.000000 0.000000 0.000000 0.000000 0.078583 0.000000
# 6 0.000000 0.000000 0.000000 0.000000 0.000000 0.025774
#
#
# Mechanical properties :
#
#
# Convention : Reuss Voigt Hill
#
# Bulk Modulus (GPa) = 23.16275 56.70631 39.93453
# Shear Modulus (GPa) = 17.57529 27.38558 22.48043
#
# Velocity S-wave (km/s) = 3.17548 3.96387 3.59137
# Velocity P-wave (km/s) = 5.17053 7.31331 6.33320
#
# Compressibility (1/GPa) = 0.04317276
#
# Stress axis : x y z
#
# Youngs Moduli (GPa) = 31.37437 55.29248 99.99042
#
# Poissons Ratio (x) = -0.24405 0.37832
# Poissons Ratio (y) = -0.13848 0.90229
# Poissons Ratio (z) = 0.11871 0.49895
#
# Static dielectric constant tensor:
#      x y z
#    x 1.665390 0.000000 0.000000 
#    y 0.000000 1.577600 0.000000 
#    z 0.000000 0.000000 1.621660 
# 
# From -- ./inp_files/37613.got.cif
#   From: 2010.05.17/outbox.cif.g08.bks.cpg/sg51_19_cif.got.tgz:37613.got - 2010.06.03 11:52:47.
