data_PCOD9398087
_publ_section_title
;
Structure prediction by ZEFSAII (Michael W. Deem and Ramdas Pophale) SiO2 
 PCOD9398087
Probable space group: P B A N
;
_chemical_formula_sum "Si O2"
_cell_formula_units_Z 32
_cell_length_a 7.819439
_cell_length_b 14.221182
_cell_length_c 12.935671
_cell_angle_alpha 90.000000
_cell_angle_beta 90.000000
_cell_angle_gamma 90.000000
_cell_volume 1438.468155
_symmetry_space_group_name_H-M "P B A N"
_symmetry_group_IT_number 50
_space_group.IT_coordinate_system_code '2'
_symmetry_cell_setting 'orthorhombic'
loop_
_space_group_symop_operation_xyz
x,y,z
1/2-x,1/2-y,z
x,1/2-y,-z
1/2-x,y,-z
-x,-y,-z
1/2+x,1/2+y,-z
-x,1/2+y,z
1/2+x,-y,z
loop_
_atom_site_type_symbol
_atom_site_label
_atom_site_fract_x
_atom_site_fract_y
_atom_site_fract_z
Si Si1 0.117935 0.676568 0.076829
Si Si2 0.055022 0.713238 0.608548
Si Si3 0.049718 0.121174 0.273680
Si Si4 0.850295 0.967817 0.390041
O O1 0.250000 0.750000 0.134111
O O2 0.012593 0.616405 0.156170
O O3 0.020947 0.750000 0.000000
O O4 0.250000 0.623235 0.000000
O O5 0.250000 0.750000 0.612717
O O6 0.981580 0.750000 0.500000
O O7 0.956162 0.769375 0.697003
O O8 0.012919 0.603208 0.607855
O O9 0.227281 0.074652 0.302697
O O10 0.917816 0.067471 0.350401
O O11 0.750000 0.966633 0.500000
#
# Coordination Sequence:
#
# PCOD9398087 Si02
#       4
#     8   8   8   8
#     4   6  17  40  68  94 131 172 248 295 336 413
#     4  11  24  40  65  93 135 194 228 276 350 413
#     4  12  22  40  68  93 141 191 217 292 360 400
#     4  12  26  41  60 108 150 175 241 282 336 454
#
# _framework density 22.245887
#
# number of rings (size 3 to 8) (size 9 to 14) (size 15 to 20)
#    1.500    0.250    2.500    3.750    3.500    0.000 
#    0.000    1.250    0.000    1.500    0.000    0.000 
#    0.000    0.250    0.000    0.000    0.000    0.000 
#
# Total GULP energy -178275.894086 kJ/mol
# GULP energy per Si atom -5571.121690 kJ/mol
# Density = 2.219525 g / cm^3
# Si number density = 22.245887 Si / 1000 Ang^3
#
#
#
# Elastic Constant Matrix: (Units=GPa)
#
#
# Indices 1 2 3 4 5 6 
#
# 1 94.6964 24.4119 38.1404 0.0000 0.0000 0.0000
# 2 24.4119 100.6219 25.6326 0.0000 0.0000 0.0000
# 3 38.1404 25.6326 113.5369 0.0000 0.0000 0.0000
# 4 0.0000 0.0000 0.0000 5.3834 0.0000 0.0000
# 5 0.0000 0.0000 0.0000 0.0000 15.8860 0.0000
# 6 0.0000 0.0000 0.0000 0.0000 0.0000 30.6514
#
#
#
# Elastic Compliance Matrix: (Units=1/GPa)
#
#
# Indices 1 2 3 4 5 6 
#
# 1 0.012618 -0.002102 -0.003764 0.000000 0.000000 0.000000
# 2 -0.002102 0.010895 -0.001753 0.000000 0.000000 0.000000
# 3 -0.003764 -0.001753 0.010468 0.000000 0.000000 0.000000
# 4 0.000000 0.000000 0.000000 0.185758 0.000000 0.000000
# 5 0.000000 0.000000 0.000000 0.000000 0.062949 0.000000
# 6 0.000000 0.000000 0.000000 0.000000 0.000000 0.032625
#
#
# Mechanical properties :
#
#
# Convention : Reuss Voigt Hill
#
# Bulk Modulus (GPa) = 53.35853 53.91389 53.63621
# Shear Modulus (GPa) = 14.84564 25.09550 19.97057
#
# Velocity S-wave (km/s) = 2.58610 3.36236 2.99945
# Velocity P-wave (km/s) = 5.74065 6.27391 6.01320
#
# Compressibility (1/GPa) = 0.01874115
#
# Stress axis : x y z
#
# Youngs Moduli (GPa) = 79.25119 91.78582 95.52869
#
# Poissons Ratio (x) = 0.19297 0.35958
# Poissons Ratio (y) = 0.16662 0.16750
# Poissons Ratio (z) = 0.29831 0.16094
#
# Static dielectric constant tensor:
#      x y z
#    x 1.905440 0.000000 0.000000 
#    y 0.000000 1.817530 0.000000 
#    z 0.000000 0.000000 1.841800 
# 
# From -- ./inp_files/24415.got.cif
#   From: 2010.05.17/outbox.cif.g08.bks.cpg/sg50_13_cif.got.tgz:24415.got - 2010.06.03 11:33:33.
