data_PCOD9398458
_publ_section_title
;
Structure prediction by ZEFSAII (Michael W. Deem and Ramdas Pophale) SiO2 
 PCOD9398458
Probable space group: P M M A
;
_chemical_formula_sum "Si O2"
_cell_formula_units_Z 40
_cell_length_a 18.806229
_cell_length_b 7.884112
_cell_length_c 13.744808
_cell_angle_alpha 90.000000
_cell_angle_beta 90.000000
_cell_angle_gamma 90.000000
_cell_volume 2037.948396
_symmetry_space_group_name_H-M "P M M A"
_symmetry_group_IT_number 51
_symmetry_cell_setting 'orthorhombic'
loop_
_space_group_symop_operation_xyz
x,y,z
1/2-x,-y,z
1/2+x,-y,-z
-x,y,-z
-x,-y,-z
1/2+x,y,-z
1/2-x,y,z
x,-y,z
loop_
_atom_site_type_symbol
_atom_site_label
_atom_site_fract_x
_atom_site_fract_y
_atom_site_fract_z
Si Si1 0.907954 0.193088 0.096653
Si Si2 0.432998 0.693679 0.107401
Si Si3 0.587323 0.792173 0.307776
Si Si4 0.077527 0.795323 0.313964
Si Si5 0.668488 0.207684 0.501296
O O1 0.885540 0.265747 0.201475
O O2 0.994524 0.196928 0.104572
O O3 0.883362 0.000000 0.089896
O O4 0.891945 0.279106 0.993611
O O5 0.457264 0.500000 0.110319
O O6 0.395062 0.736657 0.208362
O O7 0.505007 0.740482 0.321679
O O8 0.633116 0.738091 0.399905
O O9 0.587799 0.000000 0.304594
O O10 0.122962 0.735887 0.405652
O O11 0.078019 0.000000 0.314683
O O12 0.750000 0.261025 0.508301
O O13 0.667077 0.000000 0.501355
#
# Coordination Sequence:
#
# PCOD9398458 Si02
#       5
#     8   8   8   8   8
#     4   9  15  25  42  64  91 119 144 175 220 269
#     4  10  17  25  40  64  92 117 145 183 219 253
#     4   8  14  24  41  65  90 115 141 172 215 264
#     4   9  16  27  44  65  90 118 145 175 216 265
#     4   9  16  26  43  67  90 111 142 185 224 257
#
# _framework density 19.627583000000001
#
# number of rings (size 3 to 8) (size 9 to 14) (size 15 to 20)
#    0.000    3.000    0.000    5.400    0.000    2.400 
#    0.000    0.000    0.000   12.600    0.000    5.600 
#    0.000    0.000    0.000    0.000    0.000    0.000 
#
# Total GULP energy -222817.591030 kJ/mol
# GULP energy per Si atom -5570.439776 kJ/mol
# Density = 1.958291 g / cm^3
# Si number density = 19.627583 Si / 1000 Ang^3
#
#
#
# Elastic Constant Matrix: (Units=GPa)
#
#
# Indices 1 2 3 4 5 6 
#
# 1 28.8885 -2.7076 21.0758 0.0000 0.0000 0.0000
# 2 -2.7076 29.5531 -3.3361 0.0000 0.0000 0.0000
# 3 21.0758 -3.3361 150.7692 0.0000 0.0000 0.0000
# 4 0.0000 0.0000 0.0000 -19.0942 0.0000 0.0000
# 5 0.0000 0.0000 0.0000 0.0000 -3.3003 0.0000
# 6 0.0000 0.0000 0.0000 0.0000 0.0000 -8.9214
#
#
#
# Elastic Compliance Matrix: (Units=1/GPa)
#
#
# Indices 1 2 3 4 5 6 
#
# 1 0.038802 0.002950 -0.005359 0.000000 0.000000 0.000000
# 2 0.002950 0.034146 0.000343 0.000000 0.000000 0.000000
# 3 -0.005359 0.000343 0.007389 0.000000 0.000000 0.000000
# 4 0.000000 0.000000 0.000000 -0.052372 0.000000 0.000000
# 5 0.000000 0.000000 0.000000 0.000000 -0.302999 0.000000
# 6 0.000000 0.000000 0.000000 0.000000 0.000000 -0.112090
#
#
# Mechanical properties :
#
#
# Convention : Reuss Voigt Hill
#
# Bulk Modulus (GPa) = 13.12225 26.58613 19.85419
# Shear Modulus (GPa) = -13.98249 6.68205 -3.65022
#
# Velocity S-wave (km/s) = -2.67196 1.84711 -1.36520
# Velocity P-wave (km/s) = 1.67899 4.25720 2.76629
#
# Compressibility (1/GPa) = 0.07620647
#
# Stress axis : x y z
#
# Youngs Moduli (GPa) = 25.77190 29.28567 135.32999
#
# Poissons Ratio (x) = -0.08639 0.72521
# Poissons Ratio (y) = -0.07603 -0.04644
# Poissons Ratio (z) = 0.13811 -0.01005
#
# Static dielectric constant tensor:
#      x y z
#    x 1.638600 0.000000 0.000000 
#    y 0.000000 1.681240 0.000000 
#    z 0.000000 0.000000 1.747270 
# 
# From -- ./inp_files/17895.got.cif
#   From: 2010.05.17/outbox.cif.g08.bks.cpg/sg51_9_cif.got.tgz:17895.got - 2010.06.03 11:52:47.
