data_PCOD9398685
_publ_section_title
;
Structure prediction by ZEFSAII (Michael W. Deem and Ramdas Pophale) SiO2 
 PCOD9398685
Probable space group: P M M A
;
_chemical_formula_sum "Si O2"
_cell_formula_units_Z 56
_cell_length_a 27.767660
_cell_length_b 7.581705
_cell_length_c 15.132482
_cell_angle_alpha 90.000000
_cell_angle_beta 90.000000
_cell_angle_gamma 90.000000
_cell_volume 3185.784033
_symmetry_space_group_name_H-M "P M M A"
_symmetry_group_IT_number 51
_symmetry_cell_setting 'orthorhombic'
loop_
_space_group_symop_operation_xyz
x,y,z
1/2-x,-y,z
1/2+x,-y,-z
-x,y,-z
-x,-y,-z
1/2+x,y,-z
1/2-x,y,z
x,-y,z
loop_
_atom_site_type_symbol
_atom_site_label
_atom_site_fract_x
_atom_site_fract_y
_atom_site_fract_z
Si Si1 0.456587 0.214401 0.364915
Si Si2 0.872388 0.295296 0.768940
Si Si3 0.695855 0.289151 0.617442
Si Si4 0.566842 0.716477 0.924435
Si Si5 0.541062 0.289501 0.116880
Si Si6 0.062888 0.788538 0.687192
Si Si7 0.386927 0.787989 0.519013
O O1 0.420564 0.285459 0.290604
O O2 0.510567 0.275123 0.346517
O O3 0.432360 0.265947 0.457728
O O4 0.456022 0.000000 0.360916
O O5 0.859650 0.500000 0.783821
O O6 0.831380 0.217148 0.705018
O O7 0.889656 0.219698 0.862658
O O8 0.750000 0.220913 0.606686
O O9 0.698561 0.500000 0.628646
O O10 0.661218 0.262130 0.533305
O O11 0.567728 0.500000 0.921421
O O12 0.514630 0.773682 0.885838
O O13 0.566692 0.772010 0.026831
O O14 0.538031 0.500000 0.109378
O O15 0.566330 0.250436 0.209275
O O16 0.103232 0.723926 0.618385
O O17 0.061983 0.000000 0.679951
O O18 0.386759 0.000000 0.520178
#
# Coordination Sequence:
#
# PCOD9398685 Si02
#       7
#     8   8   8   8   8   8   8
#     4   9  16  26  39  57  83 113 141 171 204 238
#     4   9  15  26  44  61  81 110 140 169 206 252
#     4   9  18  31  46  66  87 103 128 173 220 254
#     4   8  14  25  40  58  80 110 145 175 202 241
#     4   9  16  26  40  57  81 113 148 177 200 236
#     4  10  18  27  39  59  86 114 143 176 206 237
#     4   9  18  30  43  59  82 113 144 169 203 253
#
# _framework density 17.578091000000001
#
# number of rings (size 3 to 8) (size 9 to 14) (size 15 to 20)
#    0.000    3.000    1.429    1.286    0.000    2.571 
#    0.000    2.143    0.000    4.286    0.000    1.000 
#    0.000    3.429    0.000    0.000    0.000    0.000 
#
# Total GULP energy -311889.695344 kJ/mol
# GULP energy per Si atom -5569.458845 kJ/mol
# Density = 1.753808 g / cm^3
# Si number density = 17.578091 Si / 1000 Ang^3
#
#
#
# Elastic Constant Matrix: (Units=GPa)
#
#
# Indices 1 2 3 4 5 6 
#
# 1 90.3701 2.0273 72.2914 0.0000 0.0000 0.0000
# 2 2.0273 36.5780 3.3982 0.0000 0.0000 0.0000
# 3 72.2914 3.3982 157.7573 0.0000 0.0000 0.0000
# 4 0.0000 0.0000 0.0000 13.3382 0.0000 0.0000
# 5 0.0000 0.0000 0.0000 0.0000 12.3751 0.0000
# 6 0.0000 0.0000 0.0000 0.0000 0.0000 9.8542
#
#
#
# Elastic Compliance Matrix: (Units=1/GPa)
#
#
# Indices 1 2 3 4 5 6 
#
# 1 0.017471 -0.000225 -0.008001 0.000000 0.000000 0.000000
# 2 -0.000225 0.027397 -0.000487 0.000000 0.000000 0.000000
# 3 -0.008001 -0.000487 0.010016 0.000000 0.000000 0.000000
# 4 0.000000 0.000000 0.000000 0.074973 0.000000 0.000000
# 5 0.000000 0.000000 0.000000 0.000000 0.080807 0.000000
# 6 0.000000 0.000000 0.000000 0.000000 0.000000 0.101480
#
#
# Mechanical properties :
#
#
# Convention : Reuss Voigt Hill
#
# Bulk Modulus (GPa) = 26.69722 48.90436 37.80079
# Shear Modulus (GPa) = 14.61751 20.91274 17.76513
#
# Velocity S-wave (km/s) = 2.88683 3.45295 3.18251
# Velocity P-wave (km/s) = 5.13152 6.61655 5.92078
#
# Compressibility (1/GPa) = 0.03745709
#
# Stress axis : x y z
#
# Youngs Moduli (GPa) = 57.23686 36.50098 99.84150
#
# Poissons Ratio (x) = 0.00821 0.79886
# Poissons Ratio (y) = 0.01288 0.04863
# Poissons Ratio (z) = 0.45797 0.01778
#
# Static dielectric constant tensor:
#      x y z
#    x 1.585310 0.000000 0.000000 
#    y 0.000000 1.672670 0.000000 
#    z 0.000000 0.000000 1.653050 
# 
# From -- ./inp_files/18788.got.cif
#   From: 2010.05.17/outbox.cif.g08.bks.cpg/sg51_10_cif.got.tgz:18788.got - 2010.06.03 11:52:47.
