data_PCOD9398631
_publ_section_title
;
Structure prediction by ZEFSAII (Michael W. Deem and Ramdas Pophale) SiO2 
 PCOD9398631
Probable space group: P M M A
;
_chemical_formula_sum "Si O2"
_cell_formula_units_Z 56
_cell_length_a 13.433441
_cell_length_b 18.089920
_cell_length_c 11.357931
_cell_angle_alpha 90.000000
_cell_angle_beta 90.000000
_cell_angle_gamma 90.000000
_cell_volume 2760.089370
_symmetry_space_group_name_H-M "P M M A"
_symmetry_group_IT_number 51
_symmetry_cell_setting 'orthorhombic'
loop_
_space_group_symop_operation_xyz
x,y,z
1/2-x,-y,z
1/2+x,-y,-z
-x,y,-z
-x,-y,-z
1/2+x,y,-z
1/2-x,y,z
x,-y,z
loop_
_atom_site_type_symbol
_atom_site_label
_atom_site_fract_x
_atom_site_fract_y
_atom_site_fract_z
Si Si1 0.361094 0.155326 0.562507
Si Si2 0.137702 0.667047 0.565225
Si Si3 0.863217 0.272401 0.070594
Si Si4 0.935996 0.645667 0.687580
Si Si5 0.566321 0.786398 0.828544
Si Si6 0.557798 0.912402 0.670486
Si Si7 0.131099 0.416914 0.064980
O O1 0.250000 0.142581 0.608126
O O2 0.376979 0.243803 0.555528
O O3 0.373630 0.119102 0.433991
O O4 0.447166 0.116459 0.637305
O O5 0.250000 0.652853 0.604716
O O6 0.120117 0.631975 0.435697
O O7 0.052059 0.640360 0.653118
O O8 0.750000 0.268968 0.116471
O O9 0.892992 0.356398 0.035261
O O10 0.871239 0.233256 0.943494
O O11 0.950419 0.234391 0.145150
O O12 0.912003 0.600431 0.805368
O O13 0.907224 0.729412 0.724986
O O14 0.582754 0.869469 0.789243
O O15 0.562128 0.000000 0.675465
O O16 0.250000 0.410255 0.079394
O O17 0.107553 0.500000 0.028795
#
# Coordination Sequence:
#
# PCOD9398631 Si02
#       7
#     8   8   8   8   8   8   8
#     4  10  19  33  51  77 110 143 180 221 259 305
#     4  10  18  29  50  78 109 143 181 219 249 296
#     4   9  20  36  56  76 101 133 168 225 272 312
#     4  10  17  32  52  75 109 140 177 216 251 307
#     4  10  19  35  52  77 100 130 183 220 258 326
#     4  11  21  34  51  75 111 144 173 221 272 313
#     4   9  18  34  58  86 108 132 168 212 269 323
#
# _framework density 20.289197000000001
#
# number of rings (size 3 to 8) (size 9 to 14) (size 15 to 20)
#    0.000    2.143    2.857    2.143    0.000    3.429 
#    0.000    8.571    0.000    2.143    0.000    0.000 
#    0.000    0.000    0.000    0.000    0.000    0.000 
#
# Total GULP energy -312634.644019 kJ/mol
# GULP energy per Si atom -5582.761500 kJ/mol
# Density = 2.024302 g / cm^3
# Si number density = 20.289197 Si / 1000 Ang^3
#
#
#
# Elastic Constant Matrix: (Units=GPa)
#
#
# Indices 1 2 3 4 5 6 
#
# 1 75.5057 0.1174 -10.4025 0.0000 0.0000 0.0000
# 2 0.1174 63.5310 3.7684 0.0000 0.0000 0.0000
# 3 -10.4025 3.7684 46.8770 0.0000 0.0000 0.0000
# 4 0.0000 0.0000 0.0000 17.4131 0.0000 0.0000
# 5 0.0000 0.0000 0.0000 0.0000 -2.1025 0.0000
# 6 0.0000 0.0000 0.0000 0.0000 0.0000 7.5394
#
#
#
# Elastic Compliance Matrix: (Units=1/GPa)
#
#
# Indices 1 2 3 4 5 6 
#
# 1 0.013664 -0.000206 0.003049 0.000000 0.000000 0.000000
# 2 -0.000206 0.015819 -0.001317 0.000000 0.000000 0.000000
# 3 0.003049 -0.001317 0.022115 0.000000 0.000000 0.000000
# 4 0.000000 0.000000 0.000000 0.057428 0.000000 0.000000
# 5 0.000000 0.000000 0.000000 0.000000 -0.475620 0.000000
# 6 0.000000 0.000000 0.000000 0.000000 0.000000 0.132637
#
#
# Mechanical properties :
#
#
# Convention : Reuss Voigt Hill
#
# Bulk Modulus (GPa) = 18.29863 19.20892 18.75377
# Shear Modulus (GPa) = -22.85291 17.39867 -2.72712
#
# Velocity S-wave (km/s) = -3.35977 2.93154 -1.16062
# Velocity P-wave (km/s) = 2.45199 4.57676 2.73263
#
# Compressibility (1/GPa) = 0.05464890
#
# Stress axis : x y z
#
# Youngs Moduli (GPa) = 73.18288 63.21566 45.21834
#
# Poissons Ratio (x) = 0.01303 -0.13786
# Poissons Ratio (y) = 0.01508 0.05957
# Poissons Ratio (z) = -0.22312 0.08328
#
# Static dielectric constant tensor:
#      x y z
#    x 1.748140 0.000000 0.000000 
#    y 0.000000 1.705960 0.000000 
#    z 0.000000 0.000000 1.737060 
# 
# From -- ./inp_files/16660.got.cif
#   From: 2010.05.17/outbox.cif.g08.bks.cpg/sg51_9_cif.got.tgz:16660.got - 2010.06.03 11:52:47.
