data_PCOD9398446
_publ_section_title
;
Structure prediction by ZEFSAII (Michael W. Deem and Ramdas Pophale) SiO2 
 PCOD9398446
Probable space group: P M M A
;
_chemical_formula_sum "Si O2"
_cell_formula_units_Z 36
_cell_length_a 8.678521
_cell_length_b 24.942885
_cell_length_c 8.565701
_cell_angle_alpha 90.000000
_cell_angle_beta 90.000000
_cell_angle_gamma 90.000000
_cell_volume 1854.194607
_symmetry_space_group_name_H-M "P M M A"
_symmetry_group_IT_number 51
_symmetry_cell_setting 'orthorhombic'
loop_
_space_group_symop_operation_xyz
x,y,z
1/2-x,-y,z
1/2+x,-y,-z
-x,y,-z
-x,-y,-z
1/2+x,y,-z
1/2-x,y,z
x,-y,z
loop_
_atom_site_type_symbol
_atom_site_label
_atom_site_fract_x
_atom_site_fract_y
_atom_site_fract_z
Si Si1 0.934425 0.222872 0.325691
Si Si2 0.434422 0.109248 0.825689
Si Si3 0.433707 0.000000 0.178065
Si Si4 0.934683 0.441358 0.322671
Si Si5 0.933649 0.667881 0.678032
O O1 0.750000 0.228479 0.328262
O O2 0.974827 0.166066 0.249961
O O3 0.000000 0.220707 0.500000
O O4 0.005447 0.276572 0.249613
O O5 0.250000 0.103650 0.828245
O O6 0.505446 0.055558 0.749581
O O7 0.500000 0.111373 0.000000
O O8 0.250000 0.000000 0.171932
O O9 0.500000 0.000000 0.000000
O O10 0.750000 0.436018 0.329642
O O11 0.972003 0.500000 0.252398
O O12 0.000000 0.443061 0.500000
O O13 0.005853 0.387711 0.249063
O O14 0.750000 0.667877 0.671636
O O15 0.000000 0.667950 0.500000
#
# Coordination Sequence:
#
# PCOD9398446 Si02
#       5
#     8   8   4   8   8
#     4  10  20  33  49  69  95 127 160 194 233 279
#     4  10  20  34  53  75  98 124 156 194 234 277
#     4  10  18  30  51  74  97 124 154 190 232 278
#     4   9  15  22  33  50  75 108 146 187 228 271
#     4  10  17  25  39  57  82 116 151 188 229 276
#
# _framework density 19.415437000000001
#
# number of rings (size 3 to 8) (size 9 to 14) (size 15 to 20)
#    0.000    2.222    0.000    9.000    0.000    4.889 
#    0.000    0.556    0.000    0.000    0.000    0.000 
#    0.000    0.889    0.000    2.889    0.000   10.889 
#
# Total GULP energy -200643.398806 kJ/mol
# GULP energy per Si atom -5573.427745 kJ/mol
# Density = 1.937125 g / cm^3
# Si number density = 19.415437 Si / 1000 Ang^3
#
#
#
# Elastic Constant Matrix: (Units=GPa)
#
#
# Indices 1 2 3 4 5 6 
#
# 1 108.3599 94.7029 5.6299 0.0000 0.0000 0.0000
# 2 94.7029 266.4614 26.7132 0.0000 0.0000 0.0000
# 3 5.6299 26.7132 3.5032 0.0000 0.0000 0.0000
# 4 0.0000 0.0000 0.0000 69.4508 0.0000 0.0000
# 5 0.0000 0.0000 0.0000 0.0000 10.2647 0.0000
# 6 0.0000 0.0000 0.0000 0.0000 0.0000 40.1245
#
#
#
# Elastic Compliance Matrix: (Units=1/GPa)
#
#
# Indices 1 2 3 4 5 6 
#
# 1 0.017666 -0.014572 0.082725 0.000000 0.000000 0.000000
# 2 -0.014572 0.027952 -0.189726 0.000000 0.000000 0.000000
# 3 0.082725 -0.189726 1.599221 0.000000 0.000000 0.000000
# 4 0.000000 0.000000 0.000000 0.014399 0.000000 0.000000
# 5 0.000000 0.000000 0.000000 0.000000 0.097421 0.000000
# 6 0.000000 0.000000 0.000000 0.000000 0.000000 0.024922
#
#
# Mechanical properties :
#
#
# Convention : Reuss Voigt Hill
#
# Bulk Modulus (GPa) = 0.71342 70.26850 35.49096
# Shear Modulus (GPa) = 2.00645 40.71989 21.36317
#
# Velocity S-wave (km/s) = 1.01768 4.58459 3.32070
# Velocity P-wave (km/s) = 1.32255 8.01843 5.74650
#
# Compressibility (1/GPa) = 1.40169372
#
# Stress axis : x y z
#
# Youngs Moduli (GPa) = 56.60635 35.77532 0.62530
#
# Poissons Ratio (x) = 0.52132 -0.05173
# Poissons Ratio (y) = 0.82487 0.11864
# Poissons Ratio (z) = -4.68278 6.78750
#
# Static dielectric constant tensor:
#      x y z
#    x 1.645890 0.000000 0.000000 
#    y 0.000000 1.806130 0.000000 
#    z 0.000000 0.000000 1.670690 
# 
# From -- ./inp_files/14157.got.cif
#   From: 2010.05.17/outbox.cif.g08.bks.cpg/sg51_8_cif.got.tgz:14157.got - 2010.06.03 11:52:47.
