data_PCOD9398526
_publ_section_title
;
Structure prediction by ZEFSAII (Michael W. Deem and Ramdas Pophale) SiO2 
 PCOD9398526
Probable space group: P M M A
;
_chemical_formula_sum "Si O2"
_cell_formula_units_Z 64
_cell_length_a 29.680735
_cell_length_b 7.664386
_cell_length_c 16.272391
_cell_angle_alpha 90.000000
_cell_angle_beta 90.000000
_cell_angle_gamma 90.000000
_cell_volume 3701.718517
_symmetry_space_group_name_H-M "P M M A"
_symmetry_group_IT_number 51
_symmetry_cell_setting 'orthorhombic'
loop_
_space_group_symop_operation_xyz
x,y,z
1/2-x,-y,z
1/2+x,-y,-z
-x,y,-z
-x,-y,-z
1/2+x,y,-z
1/2-x,y,z
x,-y,z
loop_
_atom_site_type_symbol
_atom_site_label
_atom_site_fract_x
_atom_site_fract_y
_atom_site_fract_z
Si Si1 0.804807 0.201834 0.995276
Si Si2 0.302213 0.214416 0.824916
Si Si3 0.146316 0.295275 0.344422
Si Si4 0.358136 0.792048 0.669322
Si Si5 0.449598 0.209959 0.406359
Si Si6 0.199111 0.792059 0.181818
Si Si7 0.049894 0.213417 0.596319
Si Si8 0.301921 0.288778 0.506021
O O1 0.750000 0.201198 0.994593
O O2 0.817538 0.279441 0.906613
O O3 0.820134 0.000000 0.996692
O O4 0.817179 0.276516 0.084352
O O5 0.250000 0.264370 0.811350
O O6 0.333203 0.275867 0.750297
O O7 0.302565 0.000000 0.826418
O O8 0.154504 0.500000 0.346379
O O9 0.093228 0.264316 0.353922
O O10 0.167305 0.233334 0.259282
O O11 0.171776 0.221841 0.425169
O O12 0.408211 0.723835 0.650024
O O13 0.327788 0.763532 0.588605
O O14 0.362270 0.000000 0.680626
O O15 0.499440 0.268698 0.379268
O O16 0.442956 0.266958 0.501215
O O17 0.450381 0.000000 0.407429
O O18 0.250000 0.725614 0.198964
O O19 0.202916 0.000000 0.169823
O O20 0.050432 0.000000 0.596941
O O21 0.250000 0.229920 0.506221
O O22 0.301799 0.500000 0.504000
#
# Coordination Sequence:
#
# PCOD9398526 Si02
#       8
#     8   8   8   8   8   8   8   8
#     4   7  11  22  39  60  86 111 135 168 211 253
#     4   8  13  21  37  64  93 113 132 168 213 249
#     4  11  21  31  43  62  87 115 145 182 222 253
#     4  10  17  27  45  68  87 109 145 180 208 247
#     4   9  16  30  47  61  82 113 145 180 220 261
#     4   9  17  29  46  65  84 112 148 177 205 253
#     4   8  15  27  45  65  85 109 140 182 224 252
#     4  10  21  33  40  52  84 124 148 165 202 251
#
# _framework density 17.289266999999999
#
# number of rings (size 3 to 8) (size 9 to 14) (size 15 to 20)
#    0.000    3.000    1.250    3.375    0.000    2.000 
#    0.000    1.875    0.000    0.750    0.000    2.625 
#    0.000    7.000    0.000    0.000    0.000    0.000 
#
# Total GULP energy -356550.885288 kJ/mol
# GULP energy per Si atom -5571.107583 kJ/mol
# Density = 1.724992 g / cm^3
# Si number density = 17.289267 Si / 1000 Ang^3
#
#
#
# Elastic Constant Matrix: (Units=GPa)
#
#
# Indices 1 2 3 4 5 6 
#
# 1 111.8627 -1.5518 85.7860 0.0000 0.0000 0.0000
# 2 -1.5518 28.1950 3.5259 0.0000 0.0000 0.0000
# 3 85.7860 3.5259 167.3449 0.0000 0.0000 0.0000
# 4 0.0000 0.0000 0.0000 -68.7941 0.0000 0.0000
# 5 0.0000 0.0000 0.0000 0.0000 8.8359 0.0000
# 6 0.0000 0.0000 0.0000 0.0000 0.0000 -8.5867
#
#
#
# Elastic Compliance Matrix: (Units=1/GPa)
#
#
# Indices 1 2 3 4 5 6 
#
# 1 0.014818 0.001770 -0.007634 0.000000 0.000000 0.000000
# 2 0.001770 0.035772 -0.001661 0.000000 0.000000 0.000000
# 3 -0.007634 -0.001661 0.009924 0.000000 0.000000 0.000000
# 4 0.000000 0.000000 0.000000 -0.014536 0.000000 0.000000
# 5 0.000000 0.000000 0.000000 0.000000 0.113175 0.000000
# 6 0.000000 0.000000 0.000000 0.000000 0.000000 -0.116459
#
#
# Mechanical properties :
#
#
# Convention : Reuss Voigt Hill
#
# Bulk Modulus (GPa) = 21.99472 53.65808 37.82640
# Shear Modulus (GPa) = 68.58830 0.93384 34.76107
#
# Velocity S-wave (km/s) = 6.30533 0.73573 4.48879
# Velocity P-wave (km/s) = 8.10918 5.64133 6.98510
#
# Compressibility (1/GPa) = 0.04546546
#
# Stress axis : x y z
#
# Youngs Moduli (GPa) = 67.48492 27.95443 100.76737
#
# Poissons Ratio (x) = -0.04948 0.76921
# Poissons Ratio (y) = -0.11946 0.16739
# Poissons Ratio (z) = 0.51515 0.04644
#
# Static dielectric constant tensor:
#      x y z
#    x 1.582530 0.000000 0.000000 
#    y 0.000000 1.646740 0.000000 
#    z 0.000000 0.000000 1.614310 
# 
# From -- ./inp_files/30991.got.cif
#   From: 2010.05.17/outbox.cif.g08.bks.cpg/sg51_16_cif.got.tgz:30991.got - 2010.06.03 11:52:47.
