data_PCOD9398516
_publ_section_title
;
Structure prediction by ZEFSAII (Michael W. Deem and Ramdas Pophale) SiO2 
 PCOD9398516
Probable space group: P M M A
;
_chemical_formula_sum "Si O2"
_cell_formula_units_Z 64
_cell_length_a 14.297653
_cell_length_b 19.284525
_cell_length_c 13.490570
_cell_angle_alpha 90.000000
_cell_angle_beta 90.000000
_cell_angle_gamma 90.000000
_cell_volume 3719.666459
_symmetry_space_group_name_H-M "P M M A"
_symmetry_group_IT_number 51
_symmetry_cell_setting 'orthorhombic'
loop_
_space_group_symop_operation_xyz
x,y,z
1/2-x,-y,z
1/2+x,-y,-z
-x,y,-z
-x,-y,-z
1/2+x,y,-z
1/2-x,y,z
x,-y,z
loop_
_atom_site_type_symbol
_atom_site_label
_atom_site_fract_x
_atom_site_fract_y
_atom_site_fract_z
Si Si1 0.355073 0.707447 0.363648
Si Si2 0.139989 0.916278 0.048002
Si Si3 0.040667 0.861789 0.850733
Si Si4 0.887933 0.577866 0.501561
Si Si5 0.961926 0.716636 0.248939
Si Si6 0.361500 0.217329 0.559899
Si Si7 0.639394 0.078055 0.340635
Si Si8 0.142720 0.420609 0.731860
O O1 0.250000 0.725990 0.333098
O O2 0.353408 0.634305 0.421409
O O3 0.429775 0.707253 0.276801
O O4 0.389626 0.758844 0.450859
O O5 0.250000 0.901287 0.064631
O O6 0.104288 0.885940 0.942965
O O7 0.128723 0.000000 0.046870
O O8 0.066000 0.883735 0.125361
O O9 0.049313 0.779723 0.827997
O O10 0.078792 0.901393 0.754392
O O11 0.861590 0.500000 0.530674
O O12 0.857418 0.588543 0.388027
O O13 0.000000 0.582921 0.500000
O O14 0.911069 0.742125 0.350661
O O15 0.917384 0.642170 0.223904
O O16 0.250000 0.231433 0.567782
O O17 0.377646 0.136282 0.577308
O O18 0.750000 0.082886 0.313636
O O19 0.620347 0.000000 0.372797
O O20 0.250000 0.415527 0.765368
O O21 0.109269 0.500000 0.749738
#
# Coordination Sequence:
#
# PCOD9398516 Si02
#       8
#     8   8   8   8   8   8   8   8
#     4  11  20  30  43  60  89 130 173 207 240 280
#     4  10  20  36  59  83 104 124 148 184 237 302
#     4  10  20  32  51  76 105 127 150 186 236 298
#     4  10  17  27  44  63  89 126 170 216 255 289
#     4  11  20  31  46  68  97 130 163 200 244 291
#     4   9  17  28  43  63  88 122 164 206 241 274
#     4   9  16  27  46  70  94 121 155 194 233 274
#     4  10  19  30  45  67  96 129 167 214 260 291
#
# _framework density 17.205843999999999
#
# number of rings (size 3 to 8) (size 9 to 14) (size 15 to 20)
#    0.000    2.000    2.500    3.000    0.000    3.750 
#    0.000    0.000    0.000    7.500    0.000    3.500 
#    0.000    1.000    0.000    0.000    0.000    0.000 
#
# Total GULP energy -356967.076746 kJ/mol
# GULP energy per Si atom -5577.610574 kJ/mol
# Density = 1.716668 g / cm^3
# Si number density = 17.205844 Si / 1000 Ang^3
#
#
#
# Elastic Constant Matrix: (Units=GPa)
#
#
# Indices 1 2 3 4 5 6 
#
# 1 88.6013 43.4903 16.7444 0.0000 0.0000 0.0000
# 2 43.4903 142.9317 28.1658 0.0000 0.0000 0.0000
# 3 16.7444 28.1658 21.2029 0.0000 0.0000 0.0000
# 4 0.0000 0.0000 0.0000 19.3838 0.0000 0.0000
# 5 0.0000 0.0000 0.0000 0.0000 -1.8470 0.0000
# 6 0.0000 0.0000 0.0000 0.0000 0.0000 14.6557
#
#
#
# Elastic Compliance Matrix: (Units=1/GPa)
#
#
# Indices 1 2 3 4 5 6 
#
# 1 0.014065 -0.002832 -0.007345 0.000000 0.000000 0.000000
# 2 -0.002832 0.010047 -0.011110 0.000000 0.000000 0.000000
# 3 -0.007345 -0.011110 0.067723 0.000000 0.000000 0.000000
# 4 0.000000 0.000000 0.000000 0.051590 0.000000 0.000000
# 5 0.000000 0.000000 0.000000 0.000000 -0.541431 0.000000
# 6 0.000000 0.000000 0.000000 0.000000 0.000000 0.068233
#
#
# Mechanical properties :
#
#
# Convention : Reuss Voigt Hill
#
# Bulk Modulus (GPa) = 20.30050 47.72632 34.01341
# Shear Modulus (GPa) = -18.46524 17.39421 -0.53551
#
# Velocity S-wave (km/s) = -3.27952 3.18299 -0.55849
# Velocity P-wave (km/s) = 1.58623 6.42707 4.40404
#
# Compressibility (1/GPa) = 0.04925986
#
# Stress axis : x y z
#
# Youngs Moduli (GPa) = 71.09954 99.52752 14.76609
#
# Poissons Ratio (x) = 0.28188 0.10846
# Poissons Ratio (y) = 0.20136 0.16406
# Poissons Ratio (z) = 0.52223 1.10579
#
# Static dielectric constant tensor:
#      x y z
#    x 1.618280 0.000000 0.000000 
#    y 0.000000 1.608990 0.000000 
#    z 0.000000 0.000000 1.550570 
# 
# From -- ./inp_files/24468.got.cif
#   From: 2010.05.17/outbox.cif.g08.bks.cpg/sg51_13_cif.got.tgz:24468.got - 2010.06.03 11:52:47.
