data_PCOD9398391
_publ_section_title
;
Structure prediction by ZEFSAII (Michael W. Deem and Ramdas Pophale) SiO2 
 PCOD9398391
Probable space group: P M M A
;
_chemical_formula_sum "Si O2"
_cell_formula_units_Z 40
_cell_length_a 8.563706
_cell_length_b 26.813415
_cell_length_c 9.434672
_cell_angle_alpha 90.000000
_cell_angle_beta 90.000000
_cell_angle_gamma 90.000000
_cell_volume 2166.410168
_symmetry_space_group_name_H-M "P M M A"
_symmetry_group_IT_number 51
_symmetry_cell_setting 'orthorhombic'
loop_
_space_group_symop_operation_xyz
x,y,z
1/2-x,-y,z
1/2+x,-y,-z
-x,y,-z
-x,-y,-z
1/2+x,y,-z
1/2-x,y,z
x,-y,z
loop_
_atom_site_type_symbol
_atom_site_label
_atom_site_fract_x
_atom_site_fract_y
_atom_site_fract_z
Si Si1 0.936688 0.896698 0.837868
Si Si2 0.563448 0.000000 0.162453
Si Si3 0.937177 0.407564 0.339852
Si Si4 0.937025 0.500000 0.840433
Si Si5 0.437140 0.700133 0.340316
Si Si6 0.563145 0.207686 0.160630
O O1 0.750000 0.897229 0.839885
O O2 0.000626 0.948265 0.772938
O O3 0.999370 0.844677 0.776582
O O4 0.000000 0.896282 0.000000
O O5 0.750000 0.000000 0.159240
O O6 0.500000 0.000000 0.000000
O O7 0.750000 0.407507 0.342404
O O8 0.000000 0.414950 0.500000
O O9 0.000217 0.451495 0.241680
O O10 0.999172 0.353595 0.290451
O O11 0.750000 0.500000 0.839683
O O12 0.000000 0.500000 0.000000
O O13 0.500000 0.706357 0.500000
O O14 0.250000 0.699543 0.340432
O O15 0.500964 0.745263 0.246942
O O16 0.750000 0.206442 0.158594
O O17 0.500000 0.211561 0.000000
#
# Coordination Sequence:
#
# PCOD9398391 Si02
#       6
#     8   4   8   4   8   8
#     4  10  17  27  42  65  96 133 173 218 268 324
#     4  10  16  24  38  60  91 130 171 216 265 320
#     4  11  22  40  63  88 114 148 187 228 271 321
#     4  12  25  42  61  88 120 152 186 228 275 326
#     4  11  22  39  60  85 112 145 185 229 273 323
#     4  11  21  35  53  78 109 144 181 225 276 331
#
# _framework density 18.463723000000002
#
# number of rings (size 3 to 8) (size 9 to 14) (size 15 to 20)
#    0.000    1.200    0.000   12.900    0.000    0.800 
#    0.000    4.000    0.000    0.000    0.000    0.700 
#    0.000    0.000    0.000    0.000    0.000    0.000 
#
# Total GULP energy -223495.590525 kJ/mol
# GULP energy per Si atom -5587.389763 kJ/mol
# Density = 1.842170 g / cm^3
# Si number density = 18.463723 Si / 1000 Ang^3
#
#
#
# Elastic Constant Matrix: (Units=GPa)
#
#
# Indices 1 2 3 4 5 6 
#
# 1 248.7504 102.8322 40.0146 0.0000 0.0000 0.0000
# 2 102.8322 235.5164 77.6755 0.0000 0.0000 0.0000
# 3 40.0146 77.6755 42.6142 0.0000 0.0000 0.0000
# 4 0.0000 0.0000 0.0000 -18.7849 0.0000 0.0000
# 5 0.0000 0.0000 0.0000 0.0000 25.0886 0.0000
# 6 0.0000 0.0000 0.0000 0.0000 0.0000 39.4701
#
#
#
# Elastic Compliance Matrix: (Units=1/GPa)
#
#
# Indices 1 2 3 4 5 6 
#
# 1 0.004959 -0.001578 -0.001780 0.000000 0.000000 0.000000
# 2 -0.001578 0.011148 -0.018839 0.000000 0.000000 0.000000
# 3 -0.001780 -0.018839 0.059476 0.000000 0.000000 0.000000
# 4 0.000000 0.000000 0.000000 -0.053234 0.000000 0.000000
# 5 0.000000 0.000000 0.000000 0.000000 0.039859 0.000000
# 6 0.000000 0.000000 0.000000 0.000000 0.000000 0.025336
#
#
# Mechanical properties :
#
#
# Convention : Reuss Voigt Hill
#
# Bulk Modulus (GPa) = 32.06172 107.54729 69.80450
# Shear Modulus (GPa) = 35.12909 29.57868 32.35389
#
# Velocity S-wave (km/s) = 4.36661 4.00683 4.19058
# Velocity P-wave (km/s) = 6.54412 8.93200 7.82962
#
# Compressibility (1/GPa) = 0.03118984
#
# Stress axis : x y z
#
# Youngs Moduli (GPa) = 201.66228 89.70050 16.81359
#
# Poissons Ratio (x) = 0.14156 0.02992
# Poissons Ratio (y) = 0.31826 0.31674
# Poissons Ratio (z) = 0.35889 1.68983
#
# Static dielectric constant tensor:
#      x y z
#    x 1.609260 0.000000 0.000000 
#    y 0.000000 1.680610 0.000000 
#    z 0.000000 0.000000 1.428590 
# 
# From -- ./inp_files/5629.got.cif
#   From: 2010.05.17/outbox.cif.g08.bks.cpg/sg51_3_cif.got.tgz:5629.got - 2010.06.03 11:52:47.
