data_PCOD9398290
_publ_section_title
;
Structure prediction by ZEFSAII (Michael W. Deem and Ramdas Pophale) SiO2 
 PCOD9398290
Probable space group: P B A N
;
_chemical_formula_sum "Si O2"
_cell_formula_units_Z 20
_cell_length_a 10.177487
_cell_length_b 15.470715
_cell_length_c 4.981253
_cell_angle_alpha 90.000000
_cell_angle_beta 90.000000
_cell_angle_gamma 90.000000
_cell_volume 784.313233
_symmetry_space_group_name_H-M "P B A N"
_symmetry_group_IT_number 50
_space_group.IT_coordinate_system_code '2'
_symmetry_cell_setting 'orthorhombic'
loop_
_space_group_symop_operation_xyz
x,y,z
1/2-x,1/2-y,z
x,1/2-y,-z
1/2-x,y,-z
-x,-y,-z
1/2+x,1/2+y,-z
-x,1/2+y,z
1/2+x,-y,z
loop_
_atom_site_type_symbol
_atom_site_label
_atom_site_fract_x
_atom_site_fract_y
_atom_site_fract_z
Si Si1 0.620003 0.431089 0.027817
Si Si2 0.750000 0.522937 0.500000
Si Si3 0.493035 0.346808 0.546185
O O1 0.765439 0.470709 0.216020
O O2 0.626685 0.584830 0.454337
O O3 0.500000 0.500000 0.000000
O O4 0.574586 0.354582 0.818669
O O5 0.583841 0.380174 0.307038
O O6 0.445049 0.250000 0.500000
#
# Coordination Sequence:
#
# PCOD9398290 Si02
#       3
#     8   4   8
#     4  12  26  47  76 105 149 198 253 306 376 453
#     4  12  27  48  79 108 150 200 260 306 371 458
#     4  12  28  47  74 110 153 197 252 314 379 438
#
# _framework density 25.500019000000002
#
# number of rings (size 3 to 8) (size 9 to 14) (size 15 to 20)
#    0.000    0.000    4.000    4.200    5.600    4.800 
#    0.000    4.000    0.000    0.000    0.000    0.000 
#    0.000    0.000    0.000    0.000    0.000    0.000 
#
# Total GULP energy -111489.236712 kJ/mol
# GULP energy per Si atom -5574.461836 kJ/mol
# Density = 2.544198 g / cm^3
# Si number density = 25.500019 Si / 1000 Ang^3
#
#
#
# Elastic Constant Matrix: (Units=GPa)
#
#
# Indices 1 2 3 4 5 6 
#
# 1 183.8694 35.7792 67.3768 0.0000 0.0000 0.0000
# 2 35.7792 84.3370 29.1925 0.0000 0.0000 0.0000
# 3 67.3768 29.1925 228.9749 0.0000 0.0000 0.0000
# 4 0.0000 0.0000 0.0000 20.9404 0.0000 0.0000
# 5 0.0000 0.0000 0.0000 0.0000 27.0078 0.0000
# 6 0.0000 0.0000 0.0000 0.0000 0.0000 21.7100
#
#
#
# Elastic Compliance Matrix: (Units=1/GPa)
#
#
# Indices 1 2 3 4 5 6 
#
# 1 0.006457 -0.002178 -0.001622 0.000000 0.000000 0.000000
# 2 -0.002178 0.013139 -0.001034 0.000000 0.000000 0.000000
# 3 -0.001622 -0.001034 0.004977 0.000000 0.000000 0.000000
# 4 0.000000 0.000000 0.000000 0.047755 0.000000 0.000000
# 5 0.000000 0.000000 0.000000 0.000000 0.037026 0.000000
# 6 0.000000 0.000000 0.000000 0.000000 0.000000 0.046062
#
#
# Mechanical properties :
#
#
# Convention : Reuss Voigt Hill
#
# Bulk Modulus (GPa) = 67.09713 84.65315 75.87514
# Shear Modulus (GPa) = 29.40282 38.25383 33.82832
#
# Velocity S-wave (km/s) = 3.39934 3.87738 3.64620
# Velocity P-wave (km/s) = 6.46352 7.30170 6.89536
#
# Compressibility (1/GPa) = 0.01490377
#
# Stress axis : x y z
#
# Youngs Moduli (GPa) = 154.87335 76.10873 200.94300
#
# Poissons Ratio (x) = 0.16574 0.32599
# Poissons Ratio (y) = 0.33727 0.20784
# Poissons Ratio (z) = 0.25125 0.07872
#
# Static dielectric constant tensor:
#      x y z
#    x 2.080610 0.000000 0.000000 
#    y 0.000000 1.940730 0.000000 
#    z 0.000000 0.000000 2.110580 
# 
# From -- ./inp_files/1548.got.cif
#   From: 2010.05.17/outbox.cif.g08.bks.cpg/sg50_1_cif.got.tgz:1548.got - 2010.06.03 11:33:33.
