data_PCOD9398716
_publ_section_title
;
Structure prediction by ZEFSAII (Michael W. Deem and Ramdas Pophale) SiO2 
 PCOD9398716
Probable space group: P M M A
;
_chemical_formula_sum "Si O2"
_cell_formula_units_Z 52
_cell_length_a 8.720072
_cell_length_b 27.520404
_cell_length_c 13.949168
_cell_angle_alpha 90.000000
_cell_angle_beta 90.000000
_cell_angle_gamma 90.000000
_cell_volume 3347.520002
_symmetry_space_group_name_H-M "P M M A"
_symmetry_group_IT_number 51
_symmetry_cell_setting 'orthorhombic'
loop_
_space_group_symop_operation_xyz
x,y,z
1/2-x,-y,z
1/2+x,-y,-z
-x,y,-z
-x,-y,-z
1/2+x,y,-z
1/2-x,y,z
x,-y,z
loop_
_atom_site_type_symbol
_atom_site_label
_atom_site_fract_x
_atom_site_fract_y
_atom_site_fract_z
Si Si1 0.565486 0.841138 0.891976
Si Si2 0.065095 0.052206 0.107947
Si Si3 0.564400 0.500000 0.607275
Si Si4 0.933831 0.252361 0.211465
Si Si5 0.934595 0.598971 0.711748
Si Si6 0.566678 0.351828 0.105030
Si Si7 0.433599 0.301679 0.394975
O O1 0.750000 0.838059 0.895988
O O2 0.520834 0.894865 0.852195
O O3 0.500223 0.797251 0.830077
O O4 0.500000 0.837231 0.000000
O O5 0.250000 0.052170 0.103539
O O6 0.017517 0.000000 0.152331
O O7 0.000000 0.052004 0.000000
O O8 0.750000 0.500000 0.602044
O O9 0.500000 0.500000 0.500000
O O10 0.516475 0.451576 0.664338
O O11 0.750000 0.250343 0.214228
O O12 0.978629 0.297938 0.143095
O O13 0.998618 0.265309 0.315924
O O14 0.750000 0.598523 0.721422
O O15 0.975534 0.644143 0.642484
O O16 0.005872 0.610901 0.814916
O O17 0.750000 0.353831 0.101771
O O18 0.500000 0.360428 0.000000
O O19 0.500000 0.293547 0.500000
O O20 0.250000 0.298085 0.396250
#
# Coordination Sequence:
#
# PCOD9398716 Si02
#       7
#     8   8   4   8   8   8   8
#     4  10  18  27  41  62  89 121 155 190 227 266
#     4   8  14  24  37  54  79 113 151 187 222 261
#     4  10  20  34  53  76  99 122 147 182 226 268
#     4  10  20  32  46  66  91 119 152 189 227 269
#     4   9  19  34  51  72  97 122 150 183 219 263
#     4  10  20  33  50  69  91 121 155 189 225 266
#     4  10  19  32  50  70  93 120 148 181 222 268
#
# _framework density 15.533887
#
# number of rings (size 3 to 8) (size 9 to 14) (size 15 to 20)
#    0.000    2.462    0.000    2.769    0.000    4.923 
#    0.000    0.385    0.000    0.000    0.000    0.000 
#    0.000    0.615    0.000    1.692    0.000    2.769 
#
# Total GULP energy -289837.093883 kJ/mol
# GULP energy per Si atom -5573.790267 kJ/mol
# Density = 1.549853 g / cm^3
# Si number density = 15.533887 Si / 1000 Ang^3
#
#
#
# Elastic Constant Matrix: (Units=GPa)
#
#
# Indices 1 2 3 4 5 6 
#
# 1 32.2564 38.0692 35.2704 0.0000 0.0000 0.0000
# 2 38.0692 157.1882 77.8874 0.0000 0.0000 0.0000
# 3 35.2704 77.8874 123.4944 0.0000 0.0000 0.0000
# 4 0.0000 0.0000 0.0000 14.6906 0.0000 0.0000
# 5 0.0000 0.0000 0.0000 0.0000 26.2495 0.0000
# 6 0.0000 0.0000 0.0000 0.0000 0.0000 18.2919
#
#
#
# Elastic Compliance Matrix: (Units=1/GPa)
#
#
# Indices 1 2 3 4 5 6 
#
# 1 0.050338 -0.007371 -0.009728 0.000000 0.000000 0.000000
# 2 -0.007371 0.010333 -0.004412 0.000000 0.000000 0.000000
# 3 -0.009728 -0.004412 0.013658 0.000000 0.000000 0.000000
# 4 0.000000 0.000000 0.000000 0.068071 0.000000 0.000000
# 5 0.000000 0.000000 0.000000 0.000000 0.038096 0.000000
# 6 0.000000 0.000000 0.000000 0.000000 0.000000 0.054669
#
#
# Mechanical properties :
#
#
# Convention : Reuss Voigt Hill
#
# Bulk Modulus (GPa) = 31.94089 68.37701 50.15895
# Shear Modulus (GPa) = 17.32370 22.62719 19.97545
#
# Velocity S-wave (km/s) = 3.34311 3.82073 3.58987
# Velocity P-wave (km/s) = 5.95891 7.97355 7.03868
#
# Compressibility (1/GPa) = 0.03130783
#
# Stress axis : x y z
#
# Youngs Moduli (GPa) = 19.86586 96.77668 73.21558
#
# Poissons Ratio (x) = 0.71335 0.71222
# Poissons Ratio (y) = 0.14643 0.32301
# Poissons Ratio (z) = 0.19325 0.42696
#
# Static dielectric constant tensor:
#      x y z
#    x 1.557790 0.000000 0.000000 
#    y 0.000000 1.547870 0.000000 
#    z 0.000000 0.000000 1.476750 
# 
# From -- ./inp_files/14589.got.cif
#   From: 2010.05.17/outbox.cif.g08.bks.cpg/sg51_8_cif.got.tgz:14589.got - 2010.06.03 11:52:47.
