data_PCOD9398366
_publ_section_title
;
Structure prediction by ZEFSAII (Michael W. Deem and Ramdas Pophale) SiO2 
 PCOD9398366
Probable space group: P M M A
;
_chemical_formula_sum "Si O2"
_cell_formula_units_Z 36
_cell_length_a 8.895505
_cell_length_b 18.460623
_cell_length_c 15.578121
_cell_angle_alpha 90.000000
_cell_angle_beta 90.000000
_cell_angle_gamma 90.000000
_cell_volume 2558.185507
_symmetry_space_group_name_H-M "P M M A"
_symmetry_group_IT_number 51
_symmetry_cell_setting 'orthorhombic'
loop_
_space_group_symop_operation_xyz
x,y,z
1/2-x,-y,z
1/2+x,-y,-z
-x,y,-z
-x,-y,-z
1/2+x,y,-z
1/2-x,y,z
x,-y,z
loop_
_atom_site_type_symbol
_atom_site_label
_atom_site_fract_x
_atom_site_fract_y
_atom_site_fract_z
Si Si1 0.429596 0.414884 0.268257
Si Si2 0.570636 0.692919 0.404964
Si Si3 0.570300 0.144835 0.404564
Si Si4 0.922903 0.411926 0.088090
Si Si5 0.930172 0.000000 0.596868
O O1 0.250000 0.408563 0.270687
O O2 0.468461 0.500000 0.280129
O O3 0.502745 0.366306 0.341699
O O4 0.489878 0.391899 0.174626
O O5 0.500000 0.686787 0.500000
O O6 0.750000 0.684677 0.412177
O O7 0.541580 0.774549 0.369348
O O8 0.500000 0.148740 0.500000
O O9 0.750000 0.133468 0.409682
O O10 0.492476 0.074617 0.362873
O O11 0.750000 0.388541 0.092444
O O12 0.924061 0.500000 0.085435
O O13 0.000000 0.386837 0.000000
O O14 0.000000 0.000000 0.500000
O O15 0.750000 0.000000 0.592524
#
# Coordination Sequence:
#
# PCOD9398366 Si02
#       5
#     8   8   8   8   4
#     4  10  20  32  45  61  81 107 140 176 212 249
#     4  10  20  32  45  59  78 108 143 178 213 246
#     4   9  16  26  39  55  75  99 129 164 202 242
#     4   9  16  27  44  64  84 104 128 162 205 252
#     4  10  16  22  36  56  76  98 125 158 197 240
#
# _framework density 14.072475000000001
#
# number of rings (size 3 to 8) (size 9 to 14) (size 15 to 20)
#    0.000    2.444    0.000    5.000    0.000    7.111 
#    0.000    0.000    0.000    0.000    0.000    0.000 
#    0.000    0.000    0.000    1.000    0.000   13.222 
#
# Total GULP energy -200467.508415 kJ/mol
# GULP energy per Si atom -5568.541900 kJ/mol
# Density = 1.404045 g / cm^3
# Si number density = 14.072475 Si / 1000 Ang^3
#
#
#
# Elastic Constant Matrix: (Units=GPa)
#
#
# Indices 1 2 3 4 5 6 
#
# 1 95.1966 59.0737 41.4195 0.0000 0.0000 0.0000
# 2 59.0737 91.7300 53.4350 0.0000 0.0000 0.0000
# 3 41.4195 53.4350 74.6736 0.0000 0.0000 0.0000
# 4 0.0000 0.0000 0.0000 -0.7834 0.0000 0.0000
# 5 0.0000 0.0000 0.0000 0.0000 23.1695 0.0000
# 6 0.0000 0.0000 0.0000 0.0000 0.0000 18.3383
#
#
#
# Elastic Compliance Matrix: (Units=1/GPa)
#
#
# Indices 1 2 3 4 5 6 
#
# 1 0.017849 -0.009821 -0.002872 0.000000 0.000000 0.000000
# 2 -0.009821 0.024098 -0.011797 0.000000 0.000000 0.000000
# 3 -0.002872 -0.011797 0.023426 0.000000 0.000000 0.000000
# 4 0.000000 0.000000 0.000000 -1.276418 0.000000 0.000000
# 5 0.000000 0.000000 0.000000 0.000000 0.043160 0.000000
# 6 0.000000 0.000000 0.000000 0.000000 0.000000 0.054531
#
#
# Mechanical properties :
#
#
# Convention : Reuss Voigt Hill
#
# Bulk Modulus (GPa) = 61.00243 63.27297 62.13770
# Shear Modulus (GPa) = -4.72184 15.32301 5.30059
#
# Velocity S-wave (km/s) = -1.83376 3.30337 1.94289
# Velocity P-wave (km/s) = 6.24174 7.72072 7.02029
#
# Compressibility (1/GPa) = 0.01639279
#
# Stress axis : x y z
#
# Youngs Moduli (GPa) = 56.02572 41.49658 42.68721
#
# Poissons Ratio (x) = 0.40756 0.12261
# Poissons Ratio (y) = 0.55025 0.50356
# Poissons Ratio (z) = 0.16092 0.48952
#
# Static dielectric constant tensor:
#      x y z
#    x 1.469700 0.000000 0.000000 
#    y 0.000000 1.504370 0.000000 
#    z 0.000000 0.000000 1.428830 
# 
# From -- ./inp_files/14175.got.cif
#   From: 2010.05.17/outbox.cif.g08.bks.cpg/sg51_8_cif.got.tgz:14175.got - 2010.06.03 11:52:47.
