data_PCOD9398689
_publ_section_title
;
Structure prediction by ZEFSAII (Michael W. Deem and Ramdas Pophale) SiO2 
 PCOD9398689
Probable space group: P M M A
;
_chemical_formula_sum "Si O2"
_cell_formula_units_Z 64
_cell_length_a 9.103880
_cell_length_b 18.808993
_cell_length_c 26.493963
_cell_angle_alpha 90.000000
_cell_angle_beta 90.000000
_cell_angle_gamma 90.000000
_cell_volume 4536.688858
_symmetry_space_group_name_H-M "P M M A"
_symmetry_group_IT_number 51
_symmetry_cell_setting 'orthorhombic'
loop_
_space_group_symop_operation_xyz
x,y,z
1/2-x,-y,z
1/2+x,-y,-z
-x,y,-z
-x,-y,-z
1/2+x,y,-z
1/2-x,y,z
x,-y,z
loop_
_atom_site_type_symbol
_atom_site_label
_atom_site_fract_x
_atom_site_fract_y
_atom_site_fract_z
Si Si1 0.919440 0.413440 0.051078
Si Si2 0.574268 0.917505 0.647528
Si Si3 0.423467 0.414858 0.154632
Si Si4 0.074168 0.582872 0.640920
Si Si5 0.425507 0.154018 0.551559
Si Si6 0.924276 0.654013 0.251032
Si Si7 0.917325 0.216667 0.705285
Si Si8 0.918424 0.288229 0.593765
O O1 0.750000 0.391221 0.051572
O O2 0.921822 0.500000 0.050460
O O3 0.001505 0.391748 0.102225
O O4 0.000000 0.389720 0.000000
O O5 0.750000 0.907685 0.637706
O O6 0.485193 0.892009 0.598528
O O7 0.537681 0.864163 0.693464
O O8 0.548032 0.000000 0.658174
O O9 0.250000 0.401331 0.152733
O O10 0.445230 0.500000 0.159390
O O11 0.495069 0.377932 0.202839
O O12 0.250000 0.591724 0.634302
O O13 0.037492 0.500000 0.635071
O O14 0.040173 0.608740 0.698174
O O15 0.989197 0.634783 0.602803
O O16 0.500000 0.128142 0.500000
O O17 0.250000 0.152199 0.548842
O O18 0.483785 0.234364 0.561288
O O19 0.750000 0.651008 0.243981
O O20 0.977934 0.734141 0.261805
O O21 0.750000 0.218944 0.724686
O O22 0.915971 0.252539 0.649557
O O23 0.750000 0.291269 0.575573
#
# Coordination Sequence:
#
# PCOD9398689 Si02
#       8
#     8   8   8   8   8   8   8   8
#     4   9  16  26  39  53  71  98 134 175 217 259
#     4   9  18  33  51  70  91 112 135 163 193 228
#     4  10  19  28  38  54  77 105 139 180 222 258
#     4   9  17  28  42  61  84 108 134 166 205 247
#     4  11  21  33  49  67  87 110 135 162 195 234
#     4  10  18  27  40  58  81 108 137 170 206 243
#     4   8  15  28  44  61  82 108 134 160 192 233
#     4   9  17  30  46  63  82 105 135 166 197 237
#
# _framework density 14.107205
#
# number of rings (size 3 to 8) (size 9 to 14) (size 15 to 20)
#    0.000    2.625    0.000    3.750    0.000    7.000 
#    0.000    0.000    0.000    0.375    0.000    0.000 
#    0.000    0.000    0.000    0.000    0.000    0.625 
#
# Total GULP energy -356672.113191 kJ/mol
# GULP energy per Si atom -5573.001769 kJ/mol
# Density = 1.407510 g / cm^3
# Si number density = 14.107205 Si / 1000 Ang^3
#
#
#
# Elastic Constant Matrix: (Units=GPa)
#
#
# Indices 1 2 3 4 5 6 
#
# 1 74.7238 31.2725 27.4354 0.0000 0.0000 0.0000
# 2 31.2725 76.5806 5.9238 0.0000 0.0000 0.0000
# 3 27.4354 5.9238 25.0448 0.0000 0.0000 0.0000
# 4 0.0000 0.0000 0.0000 9.4944 0.0000 0.0000
# 5 0.0000 0.0000 0.0000 0.0000 22.4939 0.0000
# 6 0.0000 0.0000 0.0000 0.0000 0.0000 17.8739
#
#
#
# Elastic Compliance Matrix: (Units=1/GPa)
#
#
# Indices 1 2 3 4 5 6 
#
# 1 0.027398 -0.009032 -0.027877 0.000000 0.000000 0.000000
# 2 -0.009032 0.016279 0.006043 0.000000 0.000000 0.000000
# 3 -0.027877 0.006043 0.069037 0.000000 0.000000 0.000000
# 4 0.000000 0.000000 0.000000 0.105325 0.000000 0.000000
# 5 0.000000 0.000000 0.000000 0.000000 0.044457 0.000000
# 6 0.000000 0.000000 0.000000 0.000000 0.000000 0.055947
#
#
# Mechanical properties :
#
#
# Convention : Reuss Voigt Hill
#
# Bulk Modulus (GPa) = 19.61427 33.95696 26.78562
# Shear Modulus (GPa) = 12.58920 17.42028 15.00474
#
# Velocity S-wave (km/s) = 2.99054 3.51785 3.26486
# Velocity P-wave (km/s) = 5.08511 6.37364 5.76549
#
# Compressibility (1/GPa) = 0.05098328
#
# Stress axis : x y z
#
# Youngs Moduli (GPa) = 36.49962 61.42944 14.48509
#
# Poissons Ratio (x) = 0.55481 0.40379
# Poissons Ratio (y) = 0.32965 -0.08754
# Poissons Ratio (z) = 1.01748 -0.37124
#
# Static dielectric constant tensor:
#      x y z
#    x 1.473030 0.000000 0.000000 
#    y 0.000000 1.465410 0.000000 
#    z 0.000000 0.000000 1.446950 
# 
# From -- ./inp_files/35097.got.cif
#   From: 2010.05.17/outbox.cif.g08.bks.cpg/sg51_18_cif.got.tgz:35097.got - 2010.06.03 11:52:47.
