data_PCOD9398914
_publ_section_title
;
Structure prediction by ZEFSAII (Michael W. Deem and Ramdas Pophale) SiO2 
 PCOD9398914
Probable space group: P M M A
;
_chemical_formula_sum "Si O2"
_cell_formula_units_Z 64
_cell_length_a 16.399771
_cell_length_b 7.560134
_cell_length_c 23.770349
_cell_angle_alpha 90.000000
_cell_angle_beta 90.000000
_cell_angle_gamma 90.000000
_cell_volume 2947.154035
_symmetry_space_group_name_H-M "P M M A"
_symmetry_group_IT_number 51
_symmetry_cell_setting 'orthorhombic'
loop_
_space_group_symop_operation_xyz
x,y,z
1/2-x,-y,z
1/2+x,-y,-z
-x,y,-z
-x,-y,-z
1/2+x,y,-z
1/2-x,y,z
x,-y,z
loop_
_atom_site_type_symbol
_atom_site_label
_atom_site_fract_x
_atom_site_fract_y
_atom_site_fract_z
Si Si1 0.339098 0.288021 0.804450
Si Si2 0.510754 0.713498 0.755938
Si Si3 0.659027 0.784430 0.549588
Si Si4 0.595443 0.302159 0.863394
Si Si5 0.488025 0.789259 0.372402
Si Si6 0.340423 0.215449 0.581924
Si Si7 0.070602 0.202298 0.912937
Si Si8 0.839481 0.713985 0.976756
O O1 0.250000 0.219377 0.787424
O O2 0.337727 0.500000 0.797846
O O3 0.419184 0.221970 0.771372
O O4 0.356593 0.248158 0.870021
O O5 0.509604 0.500000 0.761865
O O6 0.574465 0.779999 0.803040
O O7 0.531850 0.758391 0.692538
O O8 0.750000 0.728004 0.568098
O O9 0.583670 0.720379 0.587107
O O10 0.649836 0.737235 0.483923
O O11 0.658525 0.000000 0.551541
O O12 0.628648 0.500000 0.853479
O O13 0.506356 0.313568 0.892728
O O14 0.646902 0.217699 0.913491
O O15 0.579195 0.720608 0.385755
O O16 0.491550 0.000000 0.382275
O O17 0.250000 0.275364 0.600955
O O18 0.339163 0.000000 0.584886
O O19 0.096019 0.228380 0.976948
O O20 0.047336 0.000000 0.903939
O O21 0.750000 0.766546 0.996741
O O22 0.843394 0.500000 0.974163
#
# Coordination Sequence:
#
# PCOD9398914 Si02
#       8
#     8   8   8   8   8   8   8   8
#     4   9  18  34  53  69  90 126 167 199 229 276
#     4   9  19  34  49  67  93 125 160 196 234 276
#     4   8  14  26  45  69  96 125 159 198 236 276
#     4   9  19  37  55  67  87 125 167 199 229 275
#     4  10  18  28  47  73  96 122 159 199 237 280
#     4   8  14  25  43  70 101 127 153 191 236 279
#     4  11  21  31  48  76 104 125 148 185 238 295
#     4  10  20  34  53  74  93 117 154 198 240 284
#
# _framework density 21.715864
#
# number of rings (size 3 to 8) (size 9 to 14) (size 15 to 20)
#    0.000    2.750    0.000    3.750    0.000    8.000 
#    0.000    0.625    0.000    2.625    0.000    1.750 
#    0.000    0.000    0.000    0.000    0.000    0.000 
#
# Total GULP energy -357003.387546 kJ/mol
# GULP energy per Si atom -5578.177930 kJ/mol
# Density = 2.166644 g / cm^3
# Si number density = 21.715864 Si / 1000 Ang^3
#
#
#
# Elastic Constant Matrix: (Units=GPa)
#
#
# Indices 1 2 3 4 5 6 
#
# 1 49.3041 -3.0139 21.2393 0.0000 0.0000 0.0000
# 2 -3.0139 56.9689 -12.5215 0.0000 0.0000 0.0000
# 3 21.2393 -12.5215 73.3262 0.0000 0.0000 0.0000
# 4 0.0000 0.0000 0.0000 16.9942 0.0000 0.0000
# 5 0.0000 0.0000 0.0000 0.0000 15.4745 0.0000
# 6 0.0000 0.0000 0.0000 0.0000 0.0000 -39.9442
#
#
#
# Elastic Compliance Matrix: (Units=1/GPa)
#
#
# Indices 1 2 3 4 5 6 
#
# 1 0.023178 -0.000259 -0.006758 0.000000 0.000000 0.000000
# 2 -0.000259 0.018241 0.003190 0.000000 0.000000 0.000000
# 3 -0.006758 0.003190 0.016140 0.000000 0.000000 0.000000
# 4 0.000000 0.000000 0.000000 0.058844 0.000000 0.000000
# 5 0.000000 0.000000 0.000000 0.000000 0.064622 0.000000
# 6 0.000000 0.000000 0.000000 0.000000 0.000000 -0.025035
#
#
# Mechanical properties :
#
#
# Convention : Reuss Voigt Hill
#
# Bulk Modulus (GPa) = 20.03830 21.22298 20.63064
# Shear Modulus (GPa) = 27.73491 10.09791 18.91641
#
# Velocity S-wave (km/s) = 3.57763 2.15873 2.95462
# Velocity P-wave (km/s) = 5.12967 4.00097 4.60006
#
# Compressibility (1/GPa) = 0.04990443
#
# Stress axis : x y z
#
# Youngs Moduli (GPa) = 43.14523 54.82199 61.95847
#
# Poissons Ratio (x) = 0.01421 0.41870
# Poissons Ratio (y) = 0.01118 -0.19764
# Poissons Ratio (z) = 0.29156 -0.17488
#
# Static dielectric constant tensor:
#      x y z
#    x 1.811870 0.000000 0.000000 
#    y 0.000000 1.852520 0.000000 
#    z 0.000000 0.000000 1.772810 
# 
# From -- ./inp_files/35704.got.cif
#   From: 2010.05.17/outbox.cif.g08.bks.cpg/sg51_18_cif.got.tgz:35704.got - 2010.06.03 11:52:47.
