data_PCOD9398063
_publ_section_title
;
Structure prediction by ZEFSAII (Michael W. Deem and Ramdas Pophale) SiO2 
 PCOD9398063
Probable space group: P B A N
;
_chemical_formula_sum "Si O2"
_cell_formula_units_Z 40
_cell_length_a 13.065284
_cell_length_b 18.073631
_cell_length_c 7.849926
_cell_angle_alpha 90.000000
_cell_angle_beta 90.000000
_cell_angle_gamma 90.000000
_cell_volume 1853.658933
_symmetry_space_group_name_H-M "P B A N"
_symmetry_group_IT_number 50
_space_group.IT_coordinate_system_code '2'
_symmetry_cell_setting 'orthorhombic'
loop_
_space_group_symop_operation_xyz
x,y,z
1/2-x,1/2-y,z
x,1/2-y,-z
1/2-x,y,-z
-x,-y,-z
1/2+x,1/2+y,-z
-x,1/2+y,z
1/2+x,-y,z
loop_
_atom_site_type_symbol
_atom_site_label
_atom_site_fract_x
_atom_site_fract_y
_atom_site_fract_z
Si Si1 0.538244 0.805898 0.264030
Si Si2 0.199728 0.407171 0.822403
Si Si3 0.048590 0.534408 0.828243
Si Si4 0.404784 0.140476 0.360123
Si Si5 0.130164 0.830983 0.964522
O O1 0.618992 0.842077 0.133550
O O2 0.577269 0.841201 0.441998
O O3 0.553475 0.717768 0.278033
O O4 0.426016 0.839897 0.218345
O O5 0.131870 0.476513 0.758448
O O6 0.289051 0.375828 0.701357
O O7 0.250000 0.432328 0.000000
O O8 0.966775 0.567273 0.696865
O O9 0.099128 0.607591 0.903157
O O10 0.000000 0.500000 0.000000
O O11 0.086096 0.750000 0.000000
O O12 0.250000 0.826369 0.000000
#
# Coordination Sequence:
#
# PCOD9398063 Si02
#       5
#     8   8   8   8   8
#     4  11  24  46  71 103 141 181 242 305 364 433
#     4  12  24  40  70 104 139 185 239 294 365 437
#     4  12  23  42  67 100 140 182 238 285 350 437
#     4  11  25  45  70 103 145 187 234 301 369 431
#     4  11  23  43  71  99 131 185 246 291 350 432
#
# _framework density 21.578942000000001
#
# number of rings (size 3 to 8) (size 9 to 14) (size 15 to 20)
#    0.000    0.600    6.000    1.800    0.000    3.200 
#    0.000    3.000    0.000    0.000    0.000    0.000 
#    0.000    0.000    0.000    0.000    0.000    0.000 
#
# Total GULP energy -222924.801680 kJ/mol
# GULP energy per Si atom -5573.120042 kJ/mol
# Density = 2.152983 g / cm^3
# Si number density = 21.578942 Si / 1000 Ang^3
#
#
#
# Elastic Constant Matrix: (Units=GPa)
#
#
# Indices 1 2 3 4 5 6 
#
# 1 137.8834 44.7617 49.8821 0.0000 0.0000 0.0000
# 2 44.7617 103.8697 17.0385 0.0000 0.0000 0.0000
# 3 49.8821 17.0385 55.2335 0.0000 0.0000 0.0000
# 4 0.0000 0.0000 0.0000 38.9361 0.0000 0.0000
# 5 0.0000 0.0000 0.0000 0.0000 33.6653 0.0000
# 6 0.0000 0.0000 0.0000 0.0000 0.0000 44.1338
#
#
#
# Elastic Compliance Matrix: (Units=1/GPa)
#
#
# Indices 1 2 3 4 5 6 
#
# 1 0.011893 -0.003543 -0.009648 0.000000 0.000000 0.000000
# 2 -0.003543 0.011196 -0.000254 0.000000 0.000000 0.000000
# 3 -0.009648 -0.000254 0.026896 0.000000 0.000000 0.000000
# 4 0.000000 0.000000 0.000000 0.025683 0.000000 0.000000
# 5 0.000000 0.000000 0.000000 0.000000 0.029704 0.000000
# 6 0.000000 0.000000 0.000000 0.000000 0.000000 0.022658
#
#
# Mechanical properties :
#
#
# Convention : Reuss Voigt Hill
#
# Bulk Modulus (GPa) = 43.29809 57.81679 50.55744
# Shear Modulus (GPa) = 30.74682 35.70066 33.22374
#
# Velocity S-wave (km/s) = 3.77882 4.07187 3.92808
# Velocity P-wave (km/s) = 6.25682 6.99701 6.63724
#
# Compressibility (1/GPa) = 0.02309570
#
# Stress axis : x y z
#
# Youngs Moduli (GPa) = 84.08463 89.31927 37.17972
#
# Poissons Ratio (x) = 0.31641 0.35870
# Poissons Ratio (y) = 0.29787 0.00946
# Poissons Ratio (z) = 0.81122 0.02272
#
# Static dielectric constant tensor:
#      x y z
#    x 1.718200 0.000000 0.000000 
#    y 0.000000 1.908940 0.000000 
#    z 0.000000 0.000000 1.891190 
# 
# From -- ./inp_files/11034.got.cif
#   From: 2010.05.17/outbox.cif.g08.bks.cpg/sg50_6_cif.got.tgz:11034.got - 2010.06.03 11:33:33.
