data_PCOD9398717
_publ_section_title
;
Structure prediction by ZEFSAII (Michael W. Deem and Ramdas Pophale) SiO2 
 PCOD9398717
Probable space group: P M M A
;
_chemical_formula_sum "Si O2"
_cell_formula_units_Z 52
_cell_length_a 8.753370
_cell_length_b 27.382252
_cell_length_c 13.886466
_cell_angle_alpha 90.000000
_cell_angle_beta 90.000000
_cell_angle_gamma 90.000000
_cell_volume 3328.405143
_symmetry_space_group_name_H-M "P M M A"
_symmetry_group_IT_number 51
_symmetry_cell_setting 'orthorhombic'
loop_
_space_group_symop_operation_xyz
x,y,z
1/2-x,-y,z
1/2+x,-y,-z
-x,y,-z
-x,-y,-z
1/2+x,y,-z
1/2-x,y,z
x,-y,z
loop_
_atom_site_type_symbol
_atom_site_label
_atom_site_fract_x
_atom_site_fract_y
_atom_site_fract_z
Si Si1 0.432715 0.404819 0.209450
Si Si2 0.433635 0.840441 0.391830
Si Si3 0.932628 0.746421 0.289591
Si Si4 0.566712 0.645332 0.394309
Si Si5 0.432519 0.500000 0.892240
Si Si6 0.432153 0.302805 0.105219
Si Si7 0.934199 0.947518 0.608220
O O1 0.250000 0.410939 0.214248
O O2 0.497563 0.390887 0.314351
O O3 0.508959 0.452300 0.164009
O O4 0.466236 0.357849 0.142033
O O5 0.500000 0.836673 0.500000
O O6 0.250000 0.837539 0.396556
O O7 0.497343 0.795959 0.330212
O O8 0.478056 0.894355 0.351380
O O9 0.750000 0.749869 0.287211
O O10 0.973300 0.700292 0.358329
O O11 0.995805 0.732725 0.184733
O O12 0.500000 0.636941 0.500000
O O13 0.750000 0.641126 0.395152
O O14 0.250000 0.500000 0.897481
O O15 0.500000 0.500000 0.000000
O O16 0.250000 0.296974 0.104063
O O17 0.500000 0.295237 0.000000
O O18 0.750000 0.947556 0.603278
O O19 0.000000 0.947692 0.500000
O O20 0.981186 0.000000 0.652914
#
# Coordination Sequence:
#
# PCOD9398717 Si02
#       7
#     8   8   8   8   4   8   8
#     4  10  21  37  56  78 102 128 159 194 232 277
#     4  10  18  27  41  62  90 123 159 197 236 277
#     4  10  20  32  47  68  95 125 159 196 233 277
#     4  10  20  34  52  73  98 130 164 197 234 277
#     4  12  24  38  57  80 105 130 158 194 236 280
#     4  10  20  34  53  74  97 124 154 189 232 280
#     4   8  14  24  37  54  79 114 154 193 232 274
#
# _framework density 15.623098000000001
#
# number of rings (size 3 to 8) (size 9 to 14) (size 15 to 20)
#    0.000    2.154    0.000    3.923    0.000    6.769 
#    0.000    0.385    0.000    0.000    0.000    0.000 
#    0.000    0.615    0.000    1.692    0.000    2.769 
#
# Total GULP energy -290010.049189 kJ/mol
# GULP energy per Si atom -5577.116331 kJ/mol
# Density = 1.558754 g / cm^3
# Si number density = 15.623098 Si / 1000 Ang^3
#
#
#
# Elastic Constant Matrix: (Units=GPa)
#
#
# Indices 1 2 3 4 5 6 
#
# 1 58.5984 60.0694 46.9263 0.0000 0.0000 0.0000
# 2 60.0694 157.8620 76.9476 0.0000 0.0000 0.0000
# 3 46.9263 76.9476 120.6438 0.0000 0.0000 0.0000
# 4 0.0000 0.0000 0.0000 14.6092 0.0000 0.0000
# 5 0.0000 0.0000 0.0000 0.0000 27.2813 0.0000
# 6 0.0000 0.0000 0.0000 0.0000 0.0000 19.0572
#
#
#
# Elastic Compliance Matrix: (Units=1/GPa)
#
#
# Indices 1 2 3 4 5 6 
#
# 1 0.031255 -0.008659 -0.006634 0.000000 0.000000 0.000000
# 2 -0.008659 0.011592 -0.004025 0.000000 0.000000 0.000000
# 3 -0.006634 -0.004025 0.013436 0.000000 0.000000 0.000000
# 4 0.000000 0.000000 0.000000 0.068450 0.000000 0.000000
# 5 0.000000 0.000000 0.000000 0.000000 0.036655 0.000000
# 6 0.000000 0.000000 0.000000 0.000000 0.000000 0.052474
#
#
# Mechanical properties :
#
#
# Convention : Reuss Voigt Hill
#
# Bulk Modulus (GPa) = 56.67014 78.33231 67.50122
# Shear Modulus (GPa) = 19.35132 22.40026 20.87579
#
# Velocity S-wave (km/s) = 3.52324 3.79065 3.65939
# Velocity P-wave (km/s) = 7.27345 8.33105 7.82015
#
# Compressibility (1/GPa) = 0.01764598
#
# Stress axis : x y z
#
# Youngs Moduli (GPa) = 31.99530 86.26915 74.42422
#
# Poissons Ratio (x) = 0.74703 0.49373
# Poissons Ratio (y) = 0.27706 0.29956
# Poissons Ratio (z) = 0.21226 0.34724
#
# Static dielectric constant tensor:
#      x y z
#    x 1.554770 0.000000 0.000000 
#    y 0.000000 1.544550 0.000000 
#    z 0.000000 0.000000 1.489270 
# 
# From -- ./inp_files/14590.got.cif
#   From: 2010.05.17/outbox.cif.g08.bks.cpg/sg51_8_cif.got.tgz:14590.got - 2010.06.03 11:52:47.
