data_PCOD9398150
_publ_section_title
;
Structure prediction by ZEFSAII (Michael W. Deem and Ramdas Pophale) SiO2 
 PCOD9398150
Probable space group: P B A N
;
_chemical_formula_sum "Si O2"
_cell_formula_units_Z 54
_cell_length_a 13.191524
_cell_length_b 32.498888
_cell_length_c 5.076903
_cell_angle_alpha 90.000000
_cell_angle_beta 90.000000
_cell_angle_gamma 90.000000
_cell_volume 2176.518380
_symmetry_space_group_name_H-M "P B A N"
_symmetry_group_IT_number 50
_space_group.IT_coordinate_system_code '2'
_symmetry_cell_setting 'orthorhombic'
loop_
_space_group_symop_operation_xyz
x,y,z
1/2-x,1/2-y,z
x,1/2-y,-z
1/2-x,y,-z
-x,-y,-z
1/2+x,1/2+y,-z
-x,1/2+y,z
1/2+x,-y,z
loop_
_atom_site_type_symbol
_atom_site_label
_atom_site_fract_x
_atom_site_fract_y
_atom_site_fract_z
Si Si1 0.434223 0.299337 0.995411
Si Si2 0.404129 0.608896 0.568211
Si Si3 0.616171 0.651296 0.509205
Si Si4 0.750000 0.920304 0.500000
Si Si5 0.750000 0.250000 0.500000
Si Si6 0.153945 0.679839 0.823482
Si Si7 0.914984 0.442115 0.061218
Si Si8 0.139801 0.035761 0.099886
O O1 0.368917 0.322246 0.222121
O O2 0.430216 0.250000 0.000000
O O3 0.401301 0.314756 0.710065
O O4 0.552422 0.314908 0.997924
O O5 0.518826 0.624464 0.586816
O O6 0.355739 0.646809 0.410110
O O7 0.371616 0.590197 0.847991
O O8 0.397308 0.572249 0.356989
O O9 0.684699 0.616536 0.362735
O O10 0.838687 0.950925 0.599951
O O11 0.821450 0.277374 0.317729
O O12 0.250000 0.669813 0.000000
O O13 0.035765 0.444856 0.002015
O O14 0.870545 0.487796 0.036587
O O15 0.250000 0.051227 0.000000
#
# Coordination Sequence:
#
# PCOD9398150 Si02
#       8
#     8   8   8   4   2   8   8   8
#     4  11  25  46  72 102 149 193 250 302 378 440
#     4  11  24  47  73 101 150 190 246 305 363 440
#     4  11  25  44  73 108 138 196 242 310 371 441
#     4  12  26  46  78 108 144 184 260 304 372 462
#     4  12  26  44  66 114 148 206 270 302 366 456
#     4  11  27  42  73 107 150 208 252 312 367 455
#     4  11  26  49  73 110 149 195 249 303 384 453
#     4  11  27  45  78 106 149 197 243 313 377 457
#
# _framework density 24.810265999999999
#
# number of rings (size 3 to 8) (size 9 to 14) (size 15 to 20)
#    0.000    0.889    1.481    4.222   14.519    1.778 
#    0.000    2.222    0.000    0.000    0.000    0.000 
#    0.000    0.000    0.000    0.000    0.000    0.000 
#
# Total GULP energy -301467.689948 kJ/mol
# GULP energy per Si atom -5582.734999 kJ/mol
# Density = 2.475380 g / cm^3
# Si number density = 24.810266 Si / 1000 Ang^3
#
#
#
# Elastic Constant Matrix: (Units=GPa)
#
#
# Indices 1 2 3 4 5 6 
#
# 1 79.4042 34.1645 6.7365 0.0000 0.0000 0.0000
# 2 34.1645 143.6713 46.3829 0.0000 0.0000 0.0000
# 3 6.7365 46.3829 98.1170 0.0000 0.0000 0.0000
# 4 0.0000 0.0000 0.0000 36.0966 0.0000 0.0000
# 5 0.0000 0.0000 0.0000 0.0000 7.7924 0.0000
# 6 0.0000 0.0000 0.0000 0.0000 0.0000 1.0088
#
#
#
# Elastic Compliance Matrix: (Units=1/GPa)
#
#
# Indices 1 2 3 4 5 6 
#
# 1 0.014073 -0.003581 0.000727 0.000000 0.000000 0.000000
# 2 -0.003581 0.009125 -0.004068 0.000000 0.000000 0.000000
# 3 0.000727 -0.004068 0.012065 0.000000 0.000000 0.000000
# 4 0.000000 0.000000 0.000000 0.027703 0.000000 0.000000
# 5 0.000000 0.000000 0.000000 0.000000 0.128331 0.000000
# 6 0.000000 0.000000 0.000000 0.000000 0.000000 0.991316
#
#
# Mechanical properties :
#
#
# Convention : Reuss Voigt Hill
#
# Bulk Modulus (GPa) = 46.68847 55.08447 50.88647
# Shear Modulus (GPa) = 4.15421 24.57344 14.36383
#
# Velocity S-wave (km/s) = 1.29539 3.15056 2.40874
# Velocity P-wave (km/s) = 4.59309 5.95695 5.31891
#
# Compressibility (1/GPa) = 0.02141856
#
# Stress axis : x y z
#
# Youngs Moduli (GPa) = 71.05835 109.58691 82.88409
#
# Poissons Ratio (x) = 0.39244 -0.06023
# Poissons Ratio (y) = 0.25447 0.33716
# Poissons Ratio (z) = -0.05164 0.44579
#
# Static dielectric constant tensor:
#      x y z
#    x 2.425150 0.000000 0.000000 
#    y 0.000000 1.930670 0.000000 
#    z 0.000000 0.000000 -0.038880 
# 
# From -- ./inp_files/3774.got.cif
#   From: 2010.05.17/outbox.cif.g08.bks.cpg/sg50_2_cif.got.tgz:3774.got - 2010.06.03 11:33:33.
