data_PCOD9398132
_publ_section_title
;
Structure prediction by ZEFSAII (Michael W. Deem and Ramdas Pophale) SiO2 
 PCOD9398132
Probable space group: P B A N
;
_chemical_formula_sum "Si O2"
_cell_formula_units_Z 48
_cell_length_a 8.497067
_cell_length_b 14.342153
_cell_length_c 17.980726
_cell_angle_alpha 90.000000
_cell_angle_beta 90.000000
_cell_angle_gamma 90.000000
_cell_volume 2191.243380
_symmetry_space_group_name_H-M "P B A N"
_symmetry_group_IT_number 50
_space_group.IT_coordinate_system_code '2'
_symmetry_cell_setting 'orthorhombic'
loop_
_space_group_symop_operation_xyz
x,y,z
1/2-x,1/2-y,z
x,1/2-y,-z
1/2-x,y,-z
-x,-y,-z
1/2+x,1/2+y,-z
-x,1/2+y,z
1/2+x,-y,z
loop_
_atom_site_type_symbol
_atom_site_label
_atom_site_fract_x
_atom_site_fract_y
_atom_site_fract_z
Si Si1 0.075365 0.222369 0.914006
Si Si2 0.614163 0.446501 0.444839
Si Si3 0.962501 0.445519 0.169381
Si Si4 0.980424 0.695254 0.333260
Si Si5 0.112133 0.635998 0.180679
Si Si6 0.858239 0.606336 0.678260
O O1 0.250000 0.250000 0.885620
O O2 0.045140 0.114472 0.895347
O O3 0.938921 0.278715 0.871321
O O4 0.068575 0.250000 0.000000
O O5 0.750000 0.415714 0.500000
O O6 0.500000 0.500000 0.500000
O O7 0.536977 0.359419 0.404864
O O8 0.656153 0.521121 0.379575
O O9 0.782551 0.411321 0.172680
O O10 0.985807 0.555338 0.161220
O O11 0.054071 0.423650 0.246539
O O12 0.955932 0.803949 0.349843
O O13 0.815050 0.648034 0.308749
O O14 0.094255 0.674443 0.264292
#
# Coordination Sequence:
#
# PCOD9398132 Si02
#       6
#     8   8   8   8   8   8
#     4  11  25  47  73 105 144 184 233 294 354 419
#     4  12  26  46  68  98 139 179 228 291 351 410
#     4  12  25  42  71 104 140 186 236 286 347 422
#     4  11  24  44  71  99 134 184 231 286 347 421
#     4  12  25  42  71 104 140 186 236 286 347 418
#     4  11  24  44  71  97 137 182 233 283 350 420
#
# _framework density 21.905372
#
# number of rings (size 3 to 8) (size 9 to 14) (size 15 to 20)
#    0.000    0.500    5.000    3.500    2.333    2.667 
#    0.000    0.833    0.000    0.000    0.000    0.000 
#    0.000    0.000    0.000    0.000    0.000    0.000 
#
# Total GULP energy -268612.768976 kJ/mol
# GULP energy per Si atom -5596.099354 kJ/mol
# Density = 2.185551 g / cm^3
# Si number density = 21.905372 Si / 1000 Ang^3
#
#
#
# Elastic Constant Matrix: (Units=GPa)
#
#
# Indices 1 2 3 4 5 6 
#
# 1 84.1313 -7.7669 7.3244 0.0000 0.0000 0.0000
# 2 -7.7669 105.4293 12.7436 0.0000 0.0000 0.0000
# 3 7.3244 12.7436 82.9923 0.0000 0.0000 0.0000
# 4 0.0000 0.0000 0.0000 15.6314 0.0000 0.0000
# 5 0.0000 0.0000 0.0000 0.0000 29.4498 0.0000
# 6 0.0000 0.0000 0.0000 0.0000 0.0000 34.7877
#
#
#
# Elastic Compliance Matrix: (Units=1/GPa)
#
#
# Indices 1 2 3 4 5 6 
#
# 1 0.012089 0.001039 -0.001226 0.000000 0.000000 0.000000
# 2 0.001039 0.009754 -0.001589 0.000000 0.000000 0.000000
# 3 -0.001226 -0.001589 0.012402 0.000000 0.000000 0.000000
# 4 0.000000 0.000000 0.000000 0.063974 0.000000 0.000000
# 5 0.000000 0.000000 0.000000 0.000000 0.033956 0.000000
# 6 0.000000 0.000000 0.000000 0.000000 0.000000 0.028746
#
#
# Mechanical properties :
#
#
# Convention : Reuss Voigt Hill
#
# Bulk Modulus (GPa) = 32.58370 33.01724 32.80047
# Shear Modulus (GPa) = 28.61986 33.32389 30.97188
#
# Velocity S-wave (km/s) = 3.61851 3.90457 3.76426
# Velocity P-wave (km/s) = 5.68904 5.95256 5.82229
#
# Compressibility (1/GPa) = 0.03069020
#
# Stress axis : x y z
#
# Youngs Moduli (GPa) = 82.72087 102.52551 80.63482
#
# Poissons Ratio (x) = -0.10650 0.09889
# Poissons Ratio (y) = -0.08593 0.12816
# Poissons Ratio (z) = 0.10145 0.16295
#
# Static dielectric constant tensor:
#      x y z
#    x 1.519820 0.000000 0.000000 
#    y 0.000000 2.643650 0.000000 
#    z 0.000000 0.000000 1.765700 
# 
# From -- ./inp_files/28699.got.cif
#   From: 2010.05.17/outbox.cif.g08.bks.cpg/sg50_15_cif.got.tgz:28699.got - 2010.06.03 11:33:33.
