data_PCOD9398673
_publ_section_title
;
Structure prediction by ZEFSAII (Michael W. Deem and Ramdas Pophale) SiO2 
 PCOD9398673
Probable space group: P M M A
;
_chemical_formula_sum "Si O2"
_cell_formula_units_Z 48
_cell_length_a 8.773567
_cell_length_b 24.995427
_cell_length_c 13.911125
_cell_angle_alpha 90.000000
_cell_angle_beta 90.000000
_cell_angle_gamma 90.000000
_cell_volume 3050.696545
_symmetry_space_group_name_H-M "P M M A"
_symmetry_group_IT_number 51
_symmetry_cell_setting 'orthorhombic'
loop_
_space_group_symop_operation_xyz
x,y,z
1/2-x,-y,z
1/2+x,-y,-z
-x,y,-z
-x,-y,-z
1/2+x,y,-z
1/2-x,y,z
x,-y,z
loop_
_atom_site_type_symbol
_atom_site_label
_atom_site_fract_x
_atom_site_fract_y
_atom_site_fract_z
Si Si1 0.432590 0.778098 0.704005
Si Si2 0.567438 0.938982 0.794414
Si Si3 0.932634 0.162324 0.102450
Si Si4 0.567089 0.110679 0.395856
Si Si5 0.433887 0.557500 0.392065
Si Si6 0.432573 0.674657 0.392410
O O1 0.250000 0.771661 0.700990
O O2 0.475740 0.797596 0.810879
O O3 0.470909 0.827926 0.633834
O O4 0.509282 0.723806 0.670282
O O5 0.750000 0.932961 0.793849
O O6 0.495435 0.895592 0.865766
O O7 0.503088 0.925363 0.688559
O O8 0.529715 0.000000 0.820113
O O9 0.750000 0.160008 0.098411
O O10 0.000000 0.177788 0.000000
O O11 0.500000 0.098257 0.500000
O O12 0.750000 0.105403 0.395447
O O13 0.500000 0.557309 0.500000
O O14 0.250000 0.557421 0.396886
O O15 0.480636 0.500000 0.347408
O O16 0.478419 0.615757 0.352006
O O17 0.500000 0.679605 0.500000
O O18 0.250000 0.676660 0.399081
#
# Coordination Sequence:
#
# PCOD9398673 Si02
#       6
#     8   8   8   8   8   8
#     4   9  19  33  47  66  91 117 147 184 223 265
#     4  10  21  36  53  73  95 119 149 184 221 264
#     4  10  21  37  56  74  92 116 144 179 226 274
#     4  10  20  33  49  68  92 124 157 188 225 266
#     4   8  14  24  36  53  81 117 156 192 222 254
#     4  10  18  26  41  64  90 124 159 190 224 260
#
# _framework density 15.734111
#
# number of rings (size 3 to 8) (size 9 to 14) (size 15 to 20)
#    0.000    2.500    0.000    3.500    0.000    8.000 
#    0.000    0.000    0.000    0.000    0.000    0.000 
#    0.000    0.667    0.000    1.500    0.000    2.667 
#
# Total GULP energy -267516.304625 kJ/mol
# GULP energy per Si atom -5573.256346 kJ/mol
# Density = 1.569830 g / cm^3
# Si number density = 15.734111 Si / 1000 Ang^3
#
#
#
# Elastic Constant Matrix: (Units=GPa)
#
#
# Indices 1 2 3 4 5 6 
#
# 1 31.9772 34.0643 17.4488 0.0000 0.0000 0.0000
# 2 34.0643 123.7803 24.4074 0.0000 0.0000 0.0000
# 3 17.4488 24.4074 59.4087 0.0000 0.0000 0.0000
# 4 0.0000 0.0000 0.0000 8.7562 0.0000 0.0000
# 5 0.0000 0.0000 0.0000 0.0000 25.1365 0.0000
# 6 0.0000 0.0000 0.0000 0.0000 0.0000 19.0537
#
#
#
# Elastic Compliance Matrix: (Units=1/GPa)
#
#
# Indices 1 2 3 4 5 6 
#
# 1 0.048797 -0.011537 -0.009592 0.000000 0.000000 0.000000
# 2 -0.011537 0.011519 -0.001344 0.000000 0.000000 0.000000
# 3 -0.009592 -0.001344 0.020202 0.000000 0.000000 0.000000
# 4 0.000000 0.000000 0.000000 0.114205 0.000000 0.000000
# 5 0.000000 0.000000 0.000000 0.000000 0.039783 0.000000
# 6 0.000000 0.000000 0.000000 0.000000 0.000000 0.052483
#
#
# Mechanical properties :
#
#
# Convention : Reuss Voigt Hill
#
# Bulk Modulus (GPa) = 28.11269 40.77857 34.44563
# Shear Modulus (GPa) = 14.54368 19.87234 17.20801
#
# Velocity S-wave (km/s) = 3.04360 3.55774 3.31066
# Velocity P-wave (km/s) = 5.50068 6.54601 6.04598
#
# Compressibility (1/GPa) = 0.03557112
#
# Stress axis : x y z
#
# Youngs Moduli (GPa) = 20.49320 86.81382 49.50040
#
# Poissons Ratio (x) = 1.00161 0.47480
# Poissons Ratio (y) = 0.23644 0.06652
# Poissons Ratio (z) = 0.19657 0.11666
#
# Static dielectric constant tensor:
#      x y z
#    x 1.530250 0.000000 0.000000 
#    y 0.000000 1.559650 0.000000 
#    z 0.000000 0.000000 1.497230 
# 
# From -- ./inp_files/14456.got.cif
#   From: 2010.05.17/outbox.cif.g08.bks.cpg/sg51_8_cif.got.tgz:14456.got - 2010.06.03 11:52:47.
