data_PCOD9398490
_publ_section_title
;
Structure prediction by ZEFSAII (Michael W. Deem and Ramdas Pophale) SiO2 
 PCOD9398490
Probable space group: P M M A
;
_chemical_formula_sum "Si O2"
_cell_formula_units_Z 64
_cell_length_a 18.709365
_cell_length_b 14.594947
_cell_length_c 14.081022
_cell_angle_alpha 90.000000
_cell_angle_beta 90.000000
_cell_angle_gamma 90.000000
_cell_volume 3844.994713
_symmetry_space_group_name_H-M "P M M A"
_symmetry_group_IT_number 51
_symmetry_cell_setting 'orthorhombic'
loop_
_space_group_symop_operation_xyz
x,y,z
1/2-x,-y,z
1/2+x,-y,-z
-x,y,-z
-x,-y,-z
1/2+x,y,-z
1/2-x,y,z
x,-y,z
loop_
_atom_site_type_symbol
_atom_site_label
_atom_site_fract_x
_atom_site_fract_y
_atom_site_fract_z
Si Si1 0.663322 0.601433 0.492199
Si Si2 0.466057 0.891469 0.902269
Si Si3 0.832268 0.892779 0.984901
Si Si4 0.164786 0.795214 0.581124
Si Si5 0.041177 0.889555 0.691051
Si Si6 0.891808 0.890866 0.607994
Si Si7 0.662981 0.602364 0.712713
Si Si8 0.836220 0.792759 0.794543
O O1 0.750000 0.600293 0.493089
O O2 0.638948 0.500000 0.461934
O O3 0.643454 0.688372 0.429524
O O4 0.641785 0.615593 0.602340
O O5 0.481231 0.856782 0.796755
O O6 0.485043 0.000000 0.900208
O O7 0.500000 0.854254 0.000000
O O8 0.381852 0.882052 0.923782
O O9 0.750000 0.870270 0.004278
O O10 0.858999 0.834786 0.894935
O O11 0.836211 0.000000 0.956983
O O12 0.250000 0.802733 0.598556
O O13 0.114361 0.844477 0.656948
O O14 0.145969 0.841348 0.479683
O O15 0.976366 0.870197 0.618538
O O16 0.049700 0.000000 0.694408
O O17 0.858348 0.856050 0.706537
O O18 0.883652 0.000000 0.598319
O O19 0.750000 0.602893 0.714214
O O20 0.640392 0.500000 0.742765
O O21 0.638546 0.689239 0.773486
O O22 0.750000 0.791621 0.796922
#
# Coordination Sequence:
#
# PCOD9398490 Si02
#       8
#     8   8   8   8   8   8   8   8
#     4   8  14  27  47  69  93 122 157 195 232 271
#     4   9  17  32  51  66  83 117 164 202 234 277
#     4   9  17  27  41  65  95 119 144 190 245 284
#     4  11  21  33  50  73  98 129 163 192 228 278
#     4  10  22  36  49  67  95 130 164 199 235 275
#     4  11  21  32  45  64  97 136 165 190 226 274
#     4   8  13  23  40  63  92 123 155 193 236 280
#     4  10  17  26  43  70  97 123 156 195 238 284
#
# _framework density 16.645016999999999
#
# number of rings (size 3 to 8) (size 9 to 14) (size 15 to 20)
#    0.000    2.500    1.250    3.000    0.000    5.750 
#    0.000    1.250    0.000    2.250    0.000    0.875 
#    0.000    6.000    0.000    0.000    0.000    0.000 
#
# Total GULP energy -356502.956239 kJ/mol
# GULP energy per Si atom -5570.358691 kJ/mol
# Density = 1.660713 g / cm^3
# Si number density = 16.645017 Si / 1000 Ang^3
#
#
#
# Elastic Constant Matrix: (Units=GPa)
#
#
# Indices 1 2 3 4 5 6 
#
# 1 40.1098 13.2714 9.3370 0.0000 0.0000 0.0000
# 2 13.2714 55.4316 2.8790 0.0000 0.0000 0.0000
# 3 9.3370 2.8790 39.0718 0.0000 0.0000 0.0000
# 4 0.0000 0.0000 0.0000 7.9023 0.0000 0.0000
# 5 0.0000 0.0000 0.0000 0.0000 20.2239 0.0000
# 6 0.0000 0.0000 0.0000 0.0000 0.0000 5.9830
#
#
#
# Elastic Compliance Matrix: (Units=1/GPa)
#
#
# Indices 1 2 3 4 5 6 
#
# 1 0.028562 -0.006509 -0.006346 0.000000 0.000000 0.000000
# 2 -0.006509 0.019593 0.000112 0.000000 0.000000 0.000000
# 3 -0.006346 0.000112 0.027102 0.000000 0.000000 0.000000
# 4 0.000000 0.000000 0.000000 0.126545 0.000000 0.000000
# 5 0.000000 0.000000 0.000000 0.000000 0.049447 0.000000
# 6 0.000000 0.000000 0.000000 0.000000 0.000000 0.167140
#
#
# Mechanical properties :
#
#
# Convention : Reuss Voigt Hill
#
# Bulk Modulus (GPa) = 20.09192 20.62090 20.35641
# Shear Modulus (GPa) = 10.85858 14.09690 12.47774
#
# Velocity S-wave (km/s) = 2.55691 2.91334 2.74092
# Velocity P-wave (km/s) = 4.56225 4.87157 4.71944
#
# Compressibility (1/GPa) = 0.04977124
#
# Stress axis : x y z
#
# Youngs Moduli (GPa) = 35.01102 51.03925 36.89744
#
# Poissons Ratio (x) = 0.33220 0.23415
# Poissons Ratio (y) = 0.22788 -0.00412
# Poissons Ratio (z) = 0.22218 -0.00570
#
# Static dielectric constant tensor:
#      x y z
#    x 1.592990 0.000000 0.000000 
#    y 0.000000 1.573120 0.000000 
#    z 0.000000 0.000000 1.554460 
# 
# From -- ./inp_files/25333.got.cif
#   From: 2010.05.17/outbox.cif.g08.bks.cpg/sg51_13_cif.got.tgz:25333.got - 2010.06.03 11:52:47.
