data_PCOD9398317
_publ_section_title
;
Structure prediction by ZEFSAII (Michael W. Deem and Ramdas Pophale) SiO2 
 PCOD9398317
Probable space group: P B A N
;
_chemical_formula_sum "Si O2"
_cell_formula_units_Z 58
_cell_length_a 9.000000
_cell_length_b 27.000000
_cell_length_c 12.000000
_cell_angle_alpha 90.000000
_cell_angle_beta 90.000000
_cell_angle_gamma 90.000000
_cell_volume 2916.000000
_symmetry_space_group_name_H-M "P B A N"
_symmetry_group_IT_number 50
_space_group.IT_coordinate_system_code '2'
_symmetry_cell_setting 'orthorhombic'
loop_
_space_group_symop_operation_xyz
x,y,z
1/2-x,1/2-y,z
x,1/2-y,-z
1/2-x,y,-z
-x,-y,-z
1/2+x,1/2+y,-z
-x,1/2+y,z
1/2+x,-y,z
loop_
_atom_site_type_symbol
_atom_site_label
_atom_site_fract_x
_atom_site_fract_y
_atom_site_fract_z
Si Si1 0.888205 0.367154 0.075422
Si Si2 0.079372 0.437214 0.785944
Si Si3 0.761997 0.461189 0.179316
Si Si4 0.750000 0.750000 0.000000
Si Si5 0.933212 0.833827 0.878957
Si Si6 0.339237 0.899482 0.604277
Si Si7 0.423137 0.447269 0.477462
Si Si8 0.261724 0.809014 0.259406
O O1 0.858380 0.424616 0.101266
O O2 0.869680 0.330967 0.180182
O O3 0.750000 0.351075 0.000000
O O4 0.026625 0.356367 0.000100
O O5 0.189477 0.481729 0.821990
O O6 0.134055 0.382368 0.819389
O O7 0.056799 0.436289 0.653033
O O8 0.913709 0.449705 0.834760
O O9 0.808757 0.437732 0.297323
O O10 0.844336 0.785104 0.915719
O O11 0.080411 0.820477 0.803400
O O12 0.250000 0.919030 0.500000
O O13 0.506874 0.905694 0.560234
O O14 0.267824 0.846279 0.637123
O O15 0.250000 0.451303 0.500000
O O16 0.500000 0.500000 0.500000
O O17 0.250000 0.750000 0.278501
#
# Coordination Sequence:
#
# PCOD9398317 Si02
#       8
#     8   8   8   2   8   8   8   8
#     4   9  18  39  62  85 123 161 209 261 317 390
#     4  12  23  40  62  95 134 172 216 270 319 396
#     4  11  22  36  61  95 130 171 212 260 325 389
#     4  12  28  44  66  96 130 180 212 286 346 396
#     4  11  23  45  63  93 130 165 218 269 334 392
#     4  11  20  39  63  91 133 165 221 276 322 394
#     4  12  23  38  62  94 136 180 215 264 330 400
#     4  10  20  38  68  94 116 166 221 281 321 382
#
# _framework density 19.890260999999999
#
# number of rings (size 3 to 8) (size 9 to 14) (size 15 to 20)
#    0.000    1.103    6.897    2.069    0.000    3.862 
#    6.207    0.000    0.000    0.000    0.000    0.000 
#    0.000    0.000    0.000    0.000    0.000    0.000 
#
# Total GULP energy -323203.975716 kJ/mol
# GULP energy per Si atom -5572.482340 kJ/mol
# Density = 1.984499 g / cm^3
# Si number density = 19.890261 Si / 1000 Ang^3
#
#
#
# Elastic Constant Matrix: (Units=GPa)
#
#
# Indices 1 2 3 4 5 6 
#
# 1 74.6431 42.5873 27.0180 0.0000 0.0000 0.0000
# 2 42.5873 161.1181 34.1796 0.0000 0.0000 0.0000
# 3 27.0180 34.1796 79.5563 0.0000 0.0000 0.0000
# 4 0.0000 0.0000 0.0000 15.1274 0.0000 0.0000
# 5 0.0000 0.0000 0.0000 0.0000 20.7263 0.0000
# 6 0.0000 0.0000 0.0000 0.0000 0.0000 36.5335
#
#
#
# Elastic Compliance Matrix: (Units=1/GPa)
#
#
# Indices 1 2 3 4 5 6 
#
# 1 0.016974 -0.003591 -0.004222 0.000000 0.000000 0.000000
# 2 -0.003591 0.007589 -0.002041 0.000000 0.000000 0.000000
# 3 -0.004222 -0.002041 0.014880 0.000000 0.000000 0.000000
# 4 0.000000 0.000000 0.000000 0.066105 0.000000 0.000000
# 5 0.000000 0.000000 0.000000 0.000000 0.048248 0.000000
# 6 0.000000 0.000000 0.000000 0.000000 0.000000 0.027372
#
#
# Mechanical properties :
#
#
# Convention : Reuss Voigt Hill
#
# Bulk Modulus (GPa) = 50.66904 58.09860 54.38382
# Shear Modulus (GPa) = 24.10173 28.57961 26.34067
#
# Velocity S-wave (km/s) = 3.48477 3.79471 3.64304
# Velocity P-wave (km/s) = 6.45919 6.96224 6.71543
#
# Compressibility (1/GPa) = 0.01973592
#
# Stress axis : x y z
#
# Youngs Moduli (GPa) = 58.91348 131.77381 67.20328
#
# Poissons Ratio (x) = 0.47321 0.28371
# Poissons Ratio (y) = 0.21156 0.13715
# Poissons Ratio (z) = 0.24872 0.26892
#
# Static dielectric constant tensor:
#      x y z
#    x 1.607580 0.000000 0.000000 
#    y 0.000000 1.693780 0.000000 
#    z 0.000000 0.000000 1.900980 
# 
# From -- ./inp_files/19429.got.cif
#   From: 2010.05.17/outbox.ucp.g08.bks.cvg/sg50_10_cif.got.tgz:19429.got - 2010.06.11 16:26:39.
