data_PCOD9398223
_publ_section_title
;
Structure prediction by ZEFSAII (Michael W. Deem and Ramdas Pophale) SiO2 
 PCOD9398223
Probable space group: P B A N
;
_chemical_formula_sum "Si O2"
_cell_formula_units_Z 32
_cell_length_a 9.005385
_cell_length_b 9.321260
_cell_length_c 15.449627
_cell_angle_alpha 90.000000
_cell_angle_beta 90.000000
_cell_angle_gamma 90.000000
_cell_volume 1296.865405
_symmetry_space_group_name_H-M "P B A N"
_symmetry_group_IT_number 50
_space_group.IT_coordinate_system_code '2'
_symmetry_cell_setting 'orthorhombic'
loop_
_space_group_symop_operation_xyz
x,y,z
1/2-x,1/2-y,z
x,1/2-y,-z
1/2-x,y,-z
-x,-y,-z
1/2+x,1/2+y,-z
-x,1/2+y,z
1/2+x,-y,z
loop_
_atom_site_type_symbol
_atom_site_label
_atom_site_fract_x
_atom_site_fract_y
_atom_site_fract_z
Si Si1 0.851037 0.369024 0.086772
Si Si2 0.409217 0.825949 0.337320
Si Si3 0.408321 0.183357 0.839610
Si Si4 0.103133 0.098632 0.558565
O O1 0.750000 0.250000 0.135297
O O2 0.882629 0.522832 0.126282
O O3 0.007626 0.285250 0.090923
O O4 0.750000 0.392412 0.000000
O O5 0.250000 0.750000 0.338364
O O6 0.495957 0.821205 0.247477
O O7 0.516329 0.737354 0.404426
O O8 0.373058 0.991116 0.360766
O O9 0.250000 0.250000 0.819799
O O10 0.250000 0.113482 0.500000
O O11 0.000000 0.000000 0.500000
#
# Coordination Sequence:
#
# PCOD9398223 Si02
#       4
#     8   8   8   8
#     4  11  27  52  82 117 162 206 266 339 410 497
#     4  12  28  52  76 114 165 210 263 333 406 488
#     4  12  28  49  81 121 160 214 271 334 416 500
#     4  12  27  48  80 116 156 212 271 336 403 481
#
# _framework density 24.674880999999999
#
# number of rings (size 3 to 8) (size 9 to 14) (size 15 to 20)
#    0.000    0.250    2.500    4.500    3.500   14.500 
#    0.000    1.250    0.000    0.000    0.000    0.000 
#    0.000    0.000    0.000    0.000    0.000    0.000 
#
# Total GULP energy -178933.632473 kJ/mol
# GULP energy per Si atom -5591.676015 kJ/mol
# Density = 2.461872 g / cm^3
# Si number density = 24.674881 Si / 1000 Ang^3
#
#
#
# Elastic Constant Matrix: (Units=GPa)
#
#
# Indices 1 2 3 4 5 6 
#
# 1 226.1950 91.2795 93.1429 0.0000 0.0000 0.0000
# 2 91.2795 236.0982 71.1156 0.0000 0.0000 0.0000
# 3 93.1429 71.1156 159.0407 0.0000 0.0000 0.0000
# 4 0.0000 0.0000 0.0000 83.2630 0.0000 0.0000
# 5 0.0000 0.0000 0.0000 0.0000 44.5483 0.0000
# 6 0.0000 0.0000 0.0000 0.0000 0.0000 -67.3972
#
#
#
# Elastic Compliance Matrix: (Units=1/GPa)
#
#
# Indices 1 2 3 4 5 6 
#
# 1 0.006266 -0.001522 -0.002989 0.000000 0.000000 0.000000
# 2 -0.001522 0.005265 -0.001463 0.000000 0.000000 0.000000
# 3 -0.002989 -0.001463 0.008692 0.000000 0.000000 0.000000
# 4 0.000000 0.000000 0.000000 0.012010 0.000000 0.000000
# 5 0.000000 0.000000 0.000000 0.000000 0.022448 0.000000
# 6 0.000000 0.000000 0.000000 0.000000 0.000000 -0.014837
#
#
# Mechanical properties :
#
#
# Convention : Reuss Voigt Hill
#
# Bulk Modulus (GPa) = 120.84370 125.82331 123.33350
# Shear Modulus (GPa) = 91.65996 36.46922 64.06459
#
# Velocity S-wave (km/s) = 6.10145 3.84863 5.10097
# Velocity P-wave (km/s) = 9.93568 8.41739 9.20788
#
# Compressibility (1/GPa) = 0.00827515
#
# Stress axis : x y z
#
# Youngs Moduli (GPa) = 159.58876 189.94831 115.04467
#
# Poissons Ratio (x) = 0.28914 0.34388
# Poissons Ratio (y) = 0.24293 0.16826
# Poissons Ratio (z) = 0.47703 0.27781
#
# Static dielectric constant tensor:
#      x y z
#    x 2.131400 0.000000 0.000000 
#    y 0.000000 2.007730 0.000000 
#    z 0.000000 0.000000 2.073790 
# 
# From -- ./inp_files/30522.got.cif
#   From: 2010.05.17/outbox.cif.g08.bks.cpg/sg50_16_cif.got.tgz:30522.got - 2010.06.03 11:33:33.
