data_PCOD9398326
_publ_section_title
;
Structure prediction by ZEFSAII (Michael W. Deem and Ramdas Pophale) SiO2 
 PCOD9398326
Probable space group: P B A N
;
_chemical_formula_sum "Si O2"
_cell_formula_units_Z 58
_cell_length_a 9.000000
_cell_length_b 27.000000
_cell_length_c 12.000000
_cell_angle_alpha 90.000000
_cell_angle_beta 90.000000
_cell_angle_gamma 90.000000
_cell_volume 2916.000000
_symmetry_space_group_name_H-M "P B A N"
_symmetry_group_IT_number 50
_space_group.IT_coordinate_system_code '2'
_symmetry_cell_setting 'orthorhombic'
loop_
_space_group_symop_operation_xyz
x,y,z
1/2-x,1/2-y,z
x,1/2-y,-z
1/2-x,y,-z
-x,-y,-z
1/2+x,1/2+y,-z
-x,1/2+y,z
1/2+x,-y,z
loop_
_atom_site_type_symbol
_atom_site_label
_atom_site_fract_x
_atom_site_fract_y
_atom_site_fract_z
Si Si1 0.368767 0.025879 0.658449
Si Si2 0.959968 0.070254 0.131180
Si Si3 0.449874 0.438433 0.581372
Si Si4 0.146538 0.906711 0.091100
Si Si5 0.383616 0.173769 0.819796
Si Si6 0.930804 0.753515 0.629516
Si Si7 0.053667 0.151274 0.735021
Si Si8 0.750000 0.750000 0.000000
O O1 0.441790 0.040609 0.777518
O O2 0.194515 0.036824 0.641820
O O3 0.437664 0.056540 0.552228
O O4 0.411749 0.969959 0.626098
O O5 0.020220 0.126704 0.142808
O O6 0.781631 0.065357 0.155244
O O7 0.955936 0.061387 0.995424
O O8 0.451023 0.382934 0.625538
O O9 0.050178 0.873880 0.172495
O O10 0.250000 0.877624 0.000000
O O11 0.456089 0.199413 0.710111
O O12 0.221020 0.154004 0.782608
O O13 0.347624 0.214362 0.917489
O O14 0.750000 0.750000 0.626725
O O15 0.979882 0.750000 0.500000
O O16 0.989025 0.706183 0.697497
#
# Coordination Sequence:
#
# PCOD9398326 Si02
#       8
#     8   8   8   8   8   8   8   2
#     4  10  21  40  57  95 117 155 195 248 296 350
#     4   9  20  39  60  79 120 155 191 242 297 347
#     4  10  23  35  65  89 122 152 199 244 294 364
#     4   8  22  38  58  82 114 157 192 239 292 358
#     4  11  20  33  62  87 117 155 192 253 292 352
#     4   9  20  33  55  89 122 146 193 246 297 351
#     4  11  19  39  59  89 115 159 196 242 299 356
#     4  12  20  32  54  98 116 144 208 252 284 352
#
# _framework density 19.890260999999999
#
# number of rings (size 3 to 8) (size 9 to 14) (size 15 to 20)
#    0.828    1.241    3.448    0.828    3.862    1.103 
#    0.000    1.379    3.034    0.828    0.000    0.000 
#    0.000    0.000    0.000    0.000    0.000    0.000 
#
# Total GULP energy -323008.159156 kJ/mol
# GULP energy per Si atom -5569.106192 kJ/mol
# Density = 1.984499 g / cm^3
# Si number density = 19.890261 Si / 1000 Ang^3
#
#
#
# Elastic Constant Matrix: (Units=GPa)
#
#
# Indices 1 2 3 4 5 6 
#
# 1 27.9936 -7.8275 3.2703 0.0000 0.0000 0.0000
# 2 -7.8275 29.4901 -17.2406 0.0000 0.0000 0.0000
# 3 3.2703 -17.2406 78.4670 0.0000 0.0000 0.0000
# 4 0.0000 0.0000 0.0000 31.7497 0.0000 0.0000
# 5 0.0000 0.0000 0.0000 0.0000 30.6830 0.0000
# 6 0.0000 0.0000 0.0000 0.0000 0.0000 18.7396
#
#
#
# Elastic Compliance Matrix: (Units=1/GPa)
#
#
# Indices 1 2 3 4 5 6 
#
# 1 0.038623 0.010683 0.000738 0.000000 0.000000 0.000000
# 2 0.010683 0.041862 0.008753 0.000000 0.000000 0.000000
# 3 0.000738 0.008753 0.014637 0.000000 0.000000 0.000000
# 4 0.000000 0.000000 0.000000 0.031496 0.000000 0.000000
# 5 0.000000 0.000000 0.000000 0.000000 0.032591 0.000000
# 6 0.000000 0.000000 0.000000 0.000000 0.000000 0.053363
#
#
# Mechanical properties :
#
#
# Convention : Reuss Voigt Hill
#
# Bulk Modulus (GPa) = 7.38179 10.26168 8.82173
# Shear Modulus (GPa) = 23.00090 26.75102 24.87596
#
# Velocity S-wave (km/s) = 3.40426 3.67131 3.54030
# Velocity P-wave (km/s) = 4.37851 4.81058 4.59962
#
# Compressibility (1/GPa) = 0.13546845
#
# Stress axis : x y z
#
# Youngs Moduli (GPa) = 25.89105 23.88787 68.32201
#
# Poissons Ratio (x) = -0.25519 -0.05039
# Poissons Ratio (y) = -0.27659 -0.59800
# Poissons Ratio (z) = -0.01910 -0.20908
#
# Static dielectric constant tensor:
#      x y z
#    x 1.711480 0.000000 0.000000 
#    y 0.000000 1.712940 0.000000 
#    z 0.000000 0.000000 1.738170 
# 
# From -- ./inp_files/19415.got.cif
#   From: 2010.05.17/outbox.ucp.g08.bks.cvg/sg50_10_cif.got.tgz:19415.got - 2010.06.11 16:26:39.
