data_PCOD9398473
_publ_section_title
;
Structure prediction by ZEFSAII (Michael W. Deem and Ramdas Pophale) SiO2 
 PCOD9398473
Probable space group: P M M A
;
_chemical_formula_sum "Si O2"
_cell_formula_units_Z 32
_cell_length_a 8.659330
_cell_length_b 21.793999
_cell_length_c 9.418628
_cell_angle_alpha 90.000000
_cell_angle_beta 90.000000
_cell_angle_gamma 90.000000
_cell_volume 1777.496939
_symmetry_space_group_name_H-M "P M M A"
_symmetry_group_IT_number 51
_symmetry_cell_setting 'orthorhombic'
loop_
_space_group_symop_operation_xyz
x,y,z
1/2-x,-y,z
1/2+x,-y,-z
-x,y,-z
-x,-y,-z
1/2+x,y,-z
1/2-x,y,z
x,-y,z
loop_
_atom_site_type_symbol
_atom_site_label
_atom_site_fract_x
_atom_site_fract_y
_atom_site_fract_z
Si Si1 0.435053 0.567192 0.838748
Si Si2 0.065016 0.930462 0.340827
Si Si3 0.065903 0.180607 0.840585
Si Si4 0.434258 0.307496 0.161577
O O1 0.250000 0.573421 0.844852
O O2 0.472150 0.500000 0.775017
O O3 0.506659 0.628613 0.772056
O O4 0.500000 0.565187 0.000000
O O5 0.250000 0.922855 0.342028
O O6 0.000000 0.925625 0.500000
O O7 0.988410 0.878259 0.246362
O O8 0.030806 0.000000 0.289980
O O9 0.250000 0.184832 0.846172
O O10 0.998493 0.244021 0.776067
O O11 0.000000 0.175169 0.000000
O O12 0.250000 0.306603 0.157206
O O13 0.500000 0.307673 0.000000
#
# Coordination Sequence:
#
# PCOD9398473 Si02
#       4
#     8   8   8   8
#     4   9  15  22  33  51  78 114 155 195 236 285
#     4  10  21  38  58  79 103 131 164 202 246 296
#     4  11  21  34  52  74 102 134 169 208 251 298
#     4  10  17  26  40  59  87 121 158 199 244 292
#
# _framework density 18.002844
#
# number of rings (size 3 to 8) (size 9 to 14) (size 15 to 20)
#    0.000    2.000    0.000    9.000    0.000    3.500 
#    0.000    0.000    0.000    0.000    0.000    0.000 
#    0.000    1.000    0.000    3.750    0.000   14.500 
#
# Total GULP energy -178415.137096 kJ/mol
# GULP energy per Si atom -5575.473034 kJ/mol
# Density = 1.796187 g / cm^3
# Si number density = 18.002844 Si / 1000 Ang^3
#
#
#
# Elastic Constant Matrix: (Units=GPa)
#
#
# Indices 1 2 3 4 5 6 
#
# 1 159.2631 96.5064 19.8281 0.0000 0.0000 0.0000
# 2 96.5064 218.0944 44.6970 0.0000 0.0000 0.0000
# 3 19.8281 44.6970 16.8918 0.0000 0.0000 0.0000
# 4 0.0000 0.0000 0.0000 -9.8415 0.0000 0.0000
# 5 0.0000 0.0000 0.0000 0.0000 17.6365 0.0000
# 6 0.0000 0.0000 0.0000 0.0000 0.0000 41.0935
#
#
#
# Elastic Compliance Matrix: (Units=1/GPa)
#
#
# Indices 1 2 3 4 5 6 
#
# 1 0.008579 -0.003785 -0.000055 0.000000 0.000000 0.000000
# 2 -0.003785 0.011688 -0.026483 0.000000 0.000000 0.000000
# 3 -0.000055 -0.026483 0.129342 0.000000 0.000000 0.000000
# 4 0.000000 0.000000 0.000000 -0.101611 0.000000 0.000000
# 5 0.000000 0.000000 0.000000 0.000000 0.056701 0.000000
# 6 0.000000 0.000000 0.000000 0.000000 0.000000 0.024335
#
#
# Mechanical properties :
#
#
# Convention : Reuss Voigt Hill
#
# Bulk Modulus (GPa) = 11.24078 79.59024 45.41551
# Shear Modulus (GPa) = 22.79621 25.32556 24.06088
#
# Velocity S-wave (km/s) = 3.56231 3.75474 3.65979
# Velocity P-wave (km/s) = 4.81430 7.94375 6.56813
#
# Compressibility (1/GPa) = 0.08896182
#
# Stress axis : x y z
#
# Youngs Moduli (GPa) = 116.55883 85.56061 7.73144
#
# Poissons Ratio (x) = 0.32385 0.00043
# Poissons Ratio (y) = 0.44118 0.20475
# Poissons Ratio (z) = 0.00643 2.26593
#
# Static dielectric constant tensor:
#      x y z
#    x 1.596870 0.000000 0.000000 
#    y 0.000000 1.701250 0.000000 
#    z 0.000000 0.000000 1.582090 
# 
# From -- ./inp_files/4850.got.cif
#   From: 2010.05.17/outbox.cif.g08.bks.cpg/sg51_3_cif.got.tgz:4850.got - 2010.06.03 11:52:47.
