data_PCOD9398110
_publ_section_title
;
Structure prediction by ZEFSAII (Michael W. Deem and Ramdas Pophale) SiO2 
 PCOD9398110
Probable space group: P B A N
;
_chemical_formula_sum "Si O2"
_cell_formula_units_Z 48
_cell_length_a 27.392621
_cell_length_b 14.403747
_cell_length_c 5.059934
_cell_angle_alpha 90.000000
_cell_angle_beta 90.000000
_cell_angle_gamma 90.000000
_cell_volume 1996.429255
_symmetry_space_group_name_H-M "P B A N"
_symmetry_group_IT_number 50
_space_group.IT_coordinate_system_code '2'
_symmetry_cell_setting 'orthorhombic'
loop_
_space_group_symop_operation_xyz
x,y,z
1/2-x,1/2-y,z
x,1/2-y,-z
1/2-x,y,-z
-x,-y,-z
1/2+x,1/2+y,-z
-x,1/2+y,z
1/2+x,-y,z
loop_
_atom_site_type_symbol
_atom_site_label
_atom_site_fract_x
_atom_site_fract_y
_atom_site_fract_z
Si Si1 0.800002 0.887359 0.357376
Si Si2 0.479857 0.250000 0.500000
Si Si3 0.750000 0.750000 0.000000
Si Si4 0.396517 0.534325 0.096691
Si Si5 0.750000 0.250000 0.500000
Si Si6 0.893388 0.836654 0.177623
Si Si7 0.201733 0.910464 0.829946
Si Si8 0.540350 0.426777 0.400067
O O1 0.750000 0.858569 0.500000
O O2 0.854652 0.854706 0.414653
O O3 0.802373 0.998175 0.352635
O O4 0.789045 0.828973 0.094548
O O5 0.445078 0.309826 0.693407
O O6 0.515195 0.327205 0.383326
O O7 0.390093 0.426402 0.013727
O O8 0.346638 0.587244 0.011113
O O9 0.439105 0.558663 0.891062
O O10 0.415270 0.559810 0.388689
O O11 0.784847 0.182975 0.326449
O O12 0.882218 0.750000 0.000000
O O13 0.250000 0.929849 0.000000
O O14 0.500000 0.500000 0.500000
#
# Coordination Sequence:
#
# PCOD9398110 Si02
#       8
#     8   4   2   8   2   8   8   8
#     4  11  24  42  71 105 153 197 246 305 376 469
#     4  12  28  43  79 102 149 192 251 324 382 454
#     4  12  22  40  60 100 148 196 230 292 376 440
#     4  11  28  50  82 108 157 203 255 321 392 467
#     4  12  26  50  80 108 156 208 260 328 406 450
#     4  11  25  44  70 110 146 201 251 307 390 459
#     4  11  26  50  78 110 154 199 260 326 391 472
#     4  12  26  52  76 113 151 202 257 322 384 458
#
# _framework density 24.042928
#
# number of rings (size 3 to 8) (size 9 to 14) (size 15 to 20)
#    0.000    0.667    4.167    2.000    7.000    0.667 
#    3.000    0.000    0.000    0.000    0.000    0.000 
#    0.000    0.000    0.000    0.000    0.000    0.000 
#
# Total GULP energy -267959.752387 kJ/mol
# GULP energy per Si atom -5582.494841 kJ/mol
# Density = 2.398820 g / cm^3
# Si number density = 24.042928 Si / 1000 Ang^3
#
#
#
# Elastic Constant Matrix: (Units=GPa)
#
#
# Indices 1 2 3 4 5 6 
#
# 1 102.8291 43.4957 -2.8015 0.0000 0.0000 0.0000
# 2 43.4957 160.0453 9.4668 0.0000 0.0000 0.0000
# 3 -2.8015 9.4668 27.6116 0.0000 0.0000 0.0000
# 4 0.0000 0.0000 0.0000 27.3911 0.0000 0.0000
# 5 0.0000 0.0000 0.0000 0.0000 25.6255 0.0000
# 6 0.0000 0.0000 0.0000 0.0000 0.0000 50.8664
#
#
#
# Elastic Compliance Matrix: (Units=1/GPa)
#
#
# Indices 1 2 3 4 5 6 
#
# 1 0.011118 -0.003152 0.002209 0.000000 0.000000 0.000000
# 2 -0.003152 0.007271 -0.002813 0.000000 0.000000 0.000000
# 3 0.002209 -0.002813 0.037405 0.000000 0.000000 0.000000
# 4 0.000000 0.000000 0.000000 0.036508 0.000000 0.000000
# 5 0.000000 0.000000 0.000000 0.000000 0.039024 0.000000
# 6 0.000000 0.000000 0.000000 0.000000 0.000000 0.019659
#
#
# Mechanical properties :
#
#
# Convention : Reuss Voigt Hill
#
# Bulk Modulus (GPa) = 20.71153 43.42313 32.06733
# Shear Modulus (GPa) = 28.63806 36.79827 32.71817
#
# Velocity S-wave (km/s) = 3.45501 3.91643 3.69294
# Velocity P-wave (km/s) = 4.95472 6.20896 5.61695
#
# Compressibility (1/GPa) = 0.04828228
#
# Stress axis : x y z
#
# Youngs Moduli (GPa) = 89.94048 137.52644 26.73429
#
# Poissons Ratio (x) = 0.43353 -0.05905
# Poissons Ratio (y) = 0.28352 0.07520
# Poissons Ratio (z) = -0.19867 0.38684
#
# Static dielectric constant tensor:
#      x y z
#    x 2.011660 0.000000 0.000000 
#    y 0.000000 2.044470 0.000000 
#    z 0.000000 0.000000 2.047670 
# 
# From -- ./inp_files/6676.got.cif
#   From: 2010.05.17/outbox.cif.g08.bks.cpg/sg50_4_cif.got.tgz:6676.got - 2010.06.03 11:33:33.
