data_PCOD9398828
_publ_section_title
;
Structure prediction by ZEFSAII (Michael W. Deem and Ramdas Pophale) SiO2 
 PCOD9398828
Probable space group: P M M A
;
_chemical_formula_sum "Si O2"
_cell_formula_units_Z 48
_cell_length_a 8.544388
_cell_length_b 25.084894
_cell_length_c 13.930835
_cell_angle_alpha 90.000000
_cell_angle_beta 90.000000
_cell_angle_gamma 90.000000
_cell_volume 2985.866457
_symmetry_space_group_name_H-M "P M M A"
_symmetry_group_IT_number 51
_symmetry_cell_setting 'orthorhombic'
loop_
_space_group_symop_operation_xyz
x,y,z
1/2-x,-y,z
1/2+x,-y,-z
-x,y,-z
-x,-y,-z
1/2+x,y,-z
1/2-x,y,z
x,-y,z
loop_
_atom_site_type_symbol
_atom_site_label
_atom_site_fract_x
_atom_site_fract_y
_atom_site_fract_z
Si Si1 0.938874 0.057271 0.109325
Si Si2 0.562086 0.667759 0.395664
Si Si3 0.062553 0.384227 0.896035
Si Si4 0.940312 0.559199 0.299034
Si Si5 0.438379 0.174180 0.890663
Si Si6 0.436385 0.279954 0.205074
O O1 0.750000 0.057244 0.107770
O O2 0.986367 0.115319 0.148264
O O3 0.989576 0.000000 0.152777
O O4 0.000000 0.057049 0.000000
O O5 0.500000 0.682336 0.500000
O O6 0.750000 0.669124 0.394134
O O7 0.509773 0.607352 0.368111
O O8 0.499201 0.704769 0.310320
O O9 0.250000 0.382412 0.898197
O O10 0.015053 0.423529 0.809217
O O11 0.000747 0.325890 0.866019
O O12 0.000000 0.399781 0.000000
O O13 0.750000 0.558327 0.301444
O O14 0.997089 0.500000 0.323041
O O15 0.250000 0.177245 0.892307
O O16 0.504995 0.222726 0.829765
O O17 0.500000 0.178669 0.000000
O O18 0.250000 0.281871 0.204125
#
# Coordination Sequence:
#
# PCOD9398828 Si02
#       6
#     8   8   8   8   8   8
#     4   8  14  24  38  57  84 120 158 192 224 259
#     4  10  20  35  54  73  93 116 143 178 225 275
#     4  10  19  31  47  66  91 122 154 187 225 267
#     4   8  16  31  49  69  93 119 147 180 217 262
#     4  10  18  28  43  65  94 126 160 194 228 266
#     4  11  21  33  48  66  90 118 153 192 229 270
#
# _framework density 16.075735999999999
#
# number of rings (size 3 to 8) (size 9 to 14) (size 15 to 20)
#    0.000    2.500    0.000    4.500    0.000    1.333 
#    0.000    0.000    0.000   17.000    0.000    0.000 
#    0.000    0.667    0.000    1.833    0.000    3.000 
#
# Total GULP energy -267490.914355 kJ/mol
# GULP energy per Si atom -5572.727382 kJ/mol
# Density = 1.603915 g / cm^3
# Si number density = 16.075736 Si / 1000 Ang^3
#
#
#
# Elastic Constant Matrix: (Units=GPa)
#
#
# Indices 1 2 3 4 5 6 
#
# 1 53.9788 17.8192 14.7189 0.0000 0.0000 0.0000
# 2 17.8192 118.8226 20.3555 0.0000 0.0000 0.0000
# 3 14.7189 20.3555 59.8567 0.0000 0.0000 0.0000
# 4 0.0000 0.0000 0.0000 25.4100 0.0000 0.0000
# 5 0.0000 0.0000 0.0000 0.0000 21.6560 0.0000
# 6 0.0000 0.0000 0.0000 0.0000 0.0000 6.2614
#
#
#
# Elastic Compliance Matrix: (Units=1/GPa)
#
#
# Indices 1 2 3 4 5 6 
#
# 1 0.020453 -0.002342 -0.004233 0.000000 0.000000 0.000000
# 2 -0.002342 0.009205 -0.002554 0.000000 0.000000 0.000000
# 3 -0.004233 -0.002554 0.018616 0.000000 0.000000 0.000000
# 4 0.000000 0.000000 0.000000 0.039355 0.000000 0.000000
# 5 0.000000 0.000000 0.000000 0.000000 0.046177 0.000000
# 6 0.000000 0.000000 0.000000 0.000000 0.000000 0.159708
#
#
# Mechanical properties :
#
#
# Convention : Reuss Voigt Hill
#
# Bulk Modulus (GPa) = 33.31648 37.60503 35.46076
# Shear Modulus (GPa) = 15.53872 22.64977 19.09424
#
# Velocity S-wave (km/s) = 3.11238 3.75766 3.45014
# Velocity P-wave (km/s) = 5.80393 6.50153 6.16261
#
# Compressibility (1/GPa) = 0.03001518
#
# Stress axis : x y z
#
# Youngs Moduli (GPa) = 48.89207 108.63982 53.71681
#
# Poissons Ratio (x) = 0.25445 0.22738
# Poissons Ratio (y) = 0.11451 0.13721
# Poissons Ratio (z) = 0.20696 0.27750
#
# Static dielectric constant tensor:
#      x y z
#    x 1.539360 0.000000 0.000000 
#    y 0.000000 1.577820 0.000000 
#    z 0.000000 0.000000 1.485140 
# 
# From -- ./inp_files/21964.got.cif
#   From: 2010.05.17/outbox.cif.g08.bks.cpg/sg51_11_cif.got.tgz:21964.got - 2010.06.03 11:52:47.
