data_PCOD9398721
_publ_section_title
;
Structure prediction by ZEFSAII (Michael W. Deem and Ramdas Pophale) SiO2 
 PCOD9398721
Probable space group: P M M A
;
_chemical_formula_sum "Si O2"
_cell_formula_units_Z 64
_cell_length_a 29.961867
_cell_length_b 7.496142
_cell_length_c 16.137292
_cell_angle_alpha 90.000000
_cell_angle_beta 90.000000
_cell_angle_gamma 90.000000
_cell_volume 3624.410119
_symmetry_space_group_name_H-M "P M M A"
_symmetry_group_IT_number 51
_symmetry_cell_setting 'orthorhombic'
loop_
_space_group_symop_operation_xyz
x,y,z
1/2-x,-y,z
1/2+x,-y,-z
-x,y,-z
-x,-y,-z
1/2+x,y,-z
1/2-x,y,z
x,-y,z
loop_
_atom_site_type_symbol
_atom_site_label
_atom_site_fract_x
_atom_site_fract_y
_atom_site_fract_z
Si Si1 0.799126 0.788809 0.889886
Si Si2 0.700196 0.715842 0.084685
Si Si3 0.551035 0.784658 0.000377
Si Si4 0.553822 0.280595 0.318941
Si Si5 0.393687 0.786489 0.158608
Si Si6 0.445763 0.706203 0.499160
Si Si7 0.109514 0.288231 0.837464
Si Si8 0.951331 0.285780 0.680147
O O1 0.750000 0.713064 0.870477
O O2 0.843104 0.715943 0.845315
O O3 0.796971 0.000000 0.872585
O O4 0.806350 0.767551 0.988628
O O5 0.750000 0.775585 0.109695
O O6 0.699896 0.500000 0.087271
O O7 0.658408 0.782533 0.138062
O O8 0.577118 0.737387 0.083957
O O9 0.549700 0.000000 0.996163
O O10 0.500000 0.720454 0.000000
O O11 0.577958 0.718707 0.919960
O O12 0.553831 0.500000 0.319741
O O13 0.567544 0.219156 0.411305
O O14 0.585684 0.218725 0.245196
O O15 0.502312 0.225130 0.304033
O O16 0.419540 0.753372 0.243410
O O17 0.390792 0.000000 0.148050
O O18 0.500000 0.705920 0.500000
O O19 0.430701 0.500000 0.499329
O O20 0.434429 0.784459 0.409203
O O21 0.114671 0.500000 0.825105
O O22 0.954042 0.500000 0.671526
#
# Coordination Sequence:
#
# PCOD9398721 Si02
#       8
#     8   8   8   8   8   8   8   8
#     4   9  17  30  46  59  73 101 142 178 204 238
#     4   9  17  28  41  59  82 104 130 170 214 244
#     4  10  20  31  40  54  83 118 142 161 195 241
#     4   8  14  25  41  62  84 105 136 173 202 234
#     4  10  19  29  40  58  83 109 134 165 205 243
#     4   7  11  22  40  60  80 102 132 171 205 231
#     4  10  18  27  42  62  81 106 138 170 202 239
#     4   9  16  26  43  63  81 106 139 170 200 239
#
# _framework density 17.658045999999999
#
# number of rings (size 3 to 8) (size 9 to 14) (size 15 to 20)
#    0.000    3.000    1.250    2.250    0.000    1.250 
#    0.000    0.000    0.000    4.125    0.000    0.875 
#    0.000    3.000    0.000    0.000    0.000    0.000 
#
# Total GULP energy -356636.571722 kJ/mol
# GULP energy per Si atom -5572.446433 kJ/mol
# Density = 1.761786 g / cm^3
# Si number density = 17.658046 Si / 1000 Ang^3
#
#
#
# Elastic Constant Matrix: (Units=GPa)
#
#
# Indices 1 2 3 4 5 6 
#
# 1 111.4254 -0.3958 52.2576 0.0000 0.0000 0.0000
# 2 -0.3958 46.2267 -8.8224 0.0000 0.0000 0.0000
# 3 52.2576 -8.8224 115.4330 0.0000 0.0000 0.0000
# 4 0.0000 0.0000 0.0000 19.0357 0.0000 0.0000
# 5 0.0000 0.0000 0.0000 0.0000 7.2554 0.0000
# 6 0.0000 0.0000 0.0000 0.0000 0.0000 0.2520
#
#
#
# Elastic Compliance Matrix: (Units=1/GPa)
#
#
# Indices 1 2 3 4 5 6 
#
# 1 0.011431 -0.000903 -0.005244 0.000000 0.000000 0.000000
# 2 -0.000903 0.022024 0.002092 0.000000 0.000000 0.000000
# 3 -0.005244 0.002092 0.011197 0.000000 0.000000 0.000000
# 4 0.000000 0.000000 0.000000 0.052533 0.000000 0.000000
# 5 0.000000 0.000000 0.000000 0.000000 0.137828 0.000000
# 6 0.000000 0.000000 0.000000 0.000000 0.000000 3.967705
#
#
# Mechanical properties :
#
#
# Convention : Reuss Voigt Hill
#
# Bulk Modulus (GPa) = 27.36561 39.90712 33.63636
# Shear Modulus (GPa) = 1.18399 20.64500 10.91450
#
# Velocity S-wave (km/s) = 0.81974 3.42300 2.48887
# Velocity P-wave (km/s) = 4.05304 6.18641 5.22966
#
# Compressibility (1/GPa) = 0.03654222
#
# Stress axis : x y z
#
# Youngs Moduli (GPa) = 87.48362 45.40492 89.31086
#
# Poissons Ratio (x) = 0.04100 0.46833
# Poissons Ratio (y) = 0.07899 -0.18684
# Poissons Ratio (z) = 0.45875 -0.09499
#
# Static dielectric constant tensor:
#      x y z
#    x 1.612350 0.000000 0.000000 
#    y 0.000000 1.664420 0.000000 
#    z 0.000000 0.000000 1.604190 
# 
# From -- ./inp_files/26575.got.cif
#   From: 2010.05.17/outbox.cif.g08.bks.cpg/sg51_14_cif.got.tgz:26575.got - 2010.06.03 11:52:47.
