data_PCOD9398205
_publ_section_title
;
Structure prediction by ZEFSAII (Michael W. Deem and Ramdas Pophale) SiO2 
 PCOD9398205
Probable space group: P B A N
;
_chemical_formula_sum "Si O2"
_cell_formula_units_Z 58
_cell_length_a 16.277588
_cell_length_b 8.673392
_cell_length_c 18.305833
_cell_angle_alpha 90.000000
_cell_angle_beta 90.000000
_cell_angle_gamma 90.000000
_cell_volume 2584.452312
_symmetry_space_group_name_H-M "P B A N"
_symmetry_group_IT_number 50
_space_group.IT_coordinate_system_code '2'
_symmetry_cell_setting 'orthorhombic'
loop_
_space_group_symop_operation_xyz
x,y,z
1/2-x,1/2-y,z
x,1/2-y,-z
1/2-x,y,-z
-x,-y,-z
1/2+x,1/2+y,-z
-x,1/2+y,z
1/2+x,-y,z
loop_
_atom_site_type_symbol
_atom_site_label
_atom_site_fract_x
_atom_site_fract_y
_atom_site_fract_z
Si Si1 0.348229 0.428934 0.505880
Si Si2 0.411337 0.950176 0.339795
Si Si3 0.896785 0.367684 0.100988
Si Si4 0.750000 0.250000 0.000000
Si Si5 0.304434 0.884867 0.764049
Si Si6 0.183996 0.382173 0.207231
Si Si7 0.925253 0.727078 0.081984
Si Si8 0.090791 0.920067 0.358879
O O1 0.375355 0.250000 0.500000
O O2 0.250000 0.434064 0.500000
O O3 0.373963 0.492536 0.583985
O O4 0.386575 0.530366 0.440657
O O5 0.409879 0.763793 0.343980
O O6 0.364868 0.039429 0.274244
O O7 0.504960 0.005538 0.337836
O O8 0.816857 0.337970 0.050850
O O9 0.874804 0.321397 0.183821
O O10 0.918401 0.547709 0.100424
O O11 0.979523 0.277920 0.080212
O O12 0.250000 0.750000 0.731203
O O13 0.341194 0.981792 0.697976
O O14 0.245201 0.981509 0.816693
O O15 0.250000 0.250000 0.227777
O O16 0.124558 0.322134 0.143448
O O17 0.891158 0.750000 0.000000
#
# Coordination Sequence:
#
# PCOD9398205 Si02
#       8
#     8   8   8   2   8   8   8   8
#     4  11  26  45  76 109 148 196 251 314 381 460
#     4  12  27  47  74 106 151 200 254 314 384 462
#     4  12  28  48  77 110 152 200 253 320 391 469
#     4  12  28  48  78 108 150 204 260 324 392 480
#     4  12  26  47  74 109 147 199 256 314 385 458
#     4  12  28  47  76 111 151 202 257 318 384 467
#     4  12  29  49  77 112 155 200 255 321 393 467
#     4  12  27  47  73 108 150 200 252 318 383 458
#
# _framework density 22.441890999999998
#
# number of rings (size 3 to 8) (size 9 to 14) (size 15 to 20)
#    0.000    0.138    4.138    3.724    9.655    3.034 
#    0.000    0.000    0.000    0.000    0.000    0.000 
#    0.000    0.000    0.000    0.000    0.000    0.000 
#
# Total GULP energy -324407.382642 kJ/mol
# GULP energy per Si atom -5593.230735 kJ/mol
# Density = 2.239081 g / cm^3
# Si number density = 22.441891 Si / 1000 Ang^3
#
#
#
# Elastic Constant Matrix: (Units=GPa)
#
#
# Indices 1 2 3 4 5 6 
#
# 1 140.7243 74.1583 71.5067 0.0000 0.0000 0.0000
# 2 74.1583 111.8579 59.9150 0.0000 0.0000 0.0000
# 3 71.5067 59.9150 174.6180 0.0000 0.0000 0.0000
# 4 0.0000 0.0000 0.0000 50.0573 0.0000 0.0000
# 5 0.0000 0.0000 0.0000 0.0000 36.1741 0.0000
# 6 0.0000 0.0000 0.0000 0.0000 0.0000 43.9547
#
#
#
# Elastic Compliance Matrix: (Units=1/GPa)
#
#
# Indices 1 2 3 4 5 6 
#
# 1 0.011838 -0.006434 -0.002640 0.000000 0.000000 0.000000
# 2 -0.006434 0.014450 -0.002323 0.000000 0.000000 0.000000
# 3 -0.002640 -0.002323 0.007605 0.000000 0.000000 0.000000
# 4 0.000000 0.000000 0.000000 0.019977 0.000000 0.000000
# 5 0.000000 0.000000 0.000000 0.000000 0.027644 0.000000
# 6 0.000000 0.000000 0.000000 0.000000 0.000000 0.022751
#
#
# Mechanical properties :
#
#
# Convention : Reuss Voigt Hill
#
# Bulk Modulus (GPa) = 90.10494 93.15114 91.62804
# Shear Modulus (GPa) = 38.23794 40.81188 39.52491
#
# Velocity S-wave (km/s) = 4.13227 4.26908 4.20123
# Velocity P-wave (km/s) = 7.93757 8.11775 8.02817
#
# Compressibility (1/GPa) = 0.01109817
#
# Stress axis : x y z
#
# Youngs Moduli (GPa) = 84.47119 69.20370 131.49133
#
# Poissons Ratio (x) = 0.44528 0.34715
# Poissons Ratio (y) = 0.54352 0.30549
# Poissons Ratio (z) = 0.22301 0.16078
#
# Static dielectric constant tensor:
#      x y z
#    x 1.907610 0.000000 0.000000 
#    y 0.000000 1.877030 0.000000 
#    z 0.000000 0.000000 1.843470 
# 
# From -- ./inp_files/29709.got.cif
#   From: 2010.05.17/outbox.cif.g08.bks.cpg/sg50_15_cif.got.tgz:29709.got - 2010.06.03 11:33:33.
