data_PCOD9398898
_publ_section_title
;
Structure prediction by ZEFSAII (Michael W. Deem and Ramdas Pophale) SiO2 
 PCOD9398898
Probable space group: P M M A
;
_chemical_formula_sum "Si O2"
_cell_formula_units_Z 48
_cell_length_a 27.165382
_cell_length_b 8.191617
_cell_length_c 12.278676
_cell_angle_alpha 90.000000
_cell_angle_beta 90.000000
_cell_angle_gamma 90.000000
_cell_volume 2732.354186
_symmetry_space_group_name_H-M "P M M A"
_symmetry_group_IT_number 51
_symmetry_cell_setting 'orthorhombic'
loop_
_space_group_symop_operation_xyz
x,y,z
1/2-x,-y,z
1/2+x,-y,-z
-x,y,-z
-x,-y,-z
1/2+x,y,-z
1/2-x,y,z
x,-y,z
loop_
_atom_site_type_symbol
_atom_site_label
_atom_site_fract_x
_atom_site_fract_y
_atom_site_fract_z
Si Si1 0.433594 0.303724 0.212066
Si Si2 0.945237 0.700296 0.539878
Si Si3 0.039699 0.692633 0.860288
Si Si4 0.123790 0.189028 0.016117
Si Si5 0.386233 0.693182 0.662641
Si Si6 0.694264 0.696176 0.170110
O O1 0.436835 0.500000 0.214839
O O2 0.433765 0.246910 0.337046
O O3 0.484512 0.246674 0.155830
O O4 0.388229 0.256628 0.135607
O O5 0.945009 0.500000 0.538443
O O6 0.904656 0.759030 0.452741
O O7 0.000000 0.748387 0.500000
O O8 0.039137 0.500000 0.891101
O O9 0.074028 0.782328 0.946110
O O10 0.067401 0.704052 0.744566
O O11 0.166276 0.269794 0.943131
O O12 0.134878 0.000000 0.023954
O O13 0.376385 0.500000 0.646799
O O14 0.340027 0.761217 0.730925
O O15 0.750000 0.758593 0.171883
O O16 0.695725 0.500000 0.181487
#
# Coordination Sequence:
#
# PCOD9398898 Si02
#       6
#     8   8   8   8   8   8
#     4  10  18  28  46  69  97 134 169 197 231 276
#     4   9  14  23  43  72 100 128 161 194 230 276
#     4   9  16  28  46  67  94 128 165 201 234 273
#     4  11  22  32  44  66  97 129 161 198 242 290
#     4   8  13  24  44  72  99 119 149 195 242 284
#     4   9  18  34  56  76  92 114 150 201 254 295
#
# _framework density 17.567269
#
# number of rings (size 3 to 8) (size 9 to 14) (size 15 to 20)
#    0.000    2.667    1.667    3.000    0.000    3.000 
#    0.000    0.000    0.000    5.500    0.000    4.667 
#    0.000    0.000    0.000    0.000    0.000    0.000 
#
# Total GULP energy -267460.625630 kJ/mol
# GULP energy per Si atom -5572.096367 kJ/mol
# Density = 1.752729 g / cm^3
# Si number density = 17.567269 Si / 1000 Ang^3
#
#
#
# Elastic Constant Matrix: (Units=GPa)
#
#
# Indices 1 2 3 4 5 6 
#
# 1 116.6007 4.0209 56.3712 0.0000 0.0000 0.0000
# 2 4.0209 5.4583 2.4327 0.0000 0.0000 0.0000
# 3 56.3712 2.4327 101.1390 0.0000 0.0000 0.0000
# 4 0.0000 0.0000 0.0000 -328.6136 0.0000 0.0000
# 5 0.0000 0.0000 0.0000 0.0000 10.2391 0.0000
# 6 0.0000 0.0000 0.0000 0.0000 0.0000 -78.8411
#
#
#
# Elastic Compliance Matrix: (Units=1/GPa)
#
#
# Indices 1 2 3 4 5 6 
#
# 1 0.011924 -0.005885 -0.006504 0.000000 0.000000 0.000000
# 2 -0.005885 0.188096 -0.001244 0.000000 0.000000 0.000000
# 3 -0.006504 -0.001244 0.013543 0.000000 0.000000 0.000000
# 4 0.000000 0.000000 0.000000 -0.003043 0.000000 0.000000
# 5 0.000000 0.000000 0.000000 0.000000 0.097665 0.000000
# 6 0.000000 0.000000 0.000000 0.000000 0.000000 -0.012684
#
#
# Mechanical properties :
#
#
# Convention : Reuss Voigt Hill
#
# Bulk Modulus (GPa) = 5.36781 38.76084 22.06432
# Shear Modulus (GPa) = 12.99151 -68.75159 -27.88004
#
# Velocity S-wave (km/s) = 2.72238 -6.26268 -3.98809
# Velocity P-wave (km/s) = 3.59778 5.49388 2.93588
#
# Compressibility (1/GPa) = 0.18629588
#
# Stress axis : x y z
#
# Youngs Moduli (GPa) = 83.86613 5.31642 73.84112
#
# Poissons Ratio (x) = 0.03129 0.48029
# Poissons Ratio (y) = 0.49353 0.09188
# Poissons Ratio (z) = 0.54549 0.00662
#
# Static dielectric constant tensor:
#      x y z
#    x 1.597500 0.000000 0.000000 
#    y 0.000000 1.612190 0.000000 
#    z 0.000000 0.000000 1.626610 
# 
# From -- ./inp_files/18996.got.cif
#   From: 2010.05.17/outbox.cif.g08.bks.cpg/sg51_10_cif.got.tgz:18996.got - 2010.06.03 11:52:47.
