data_PCOD9398714
_publ_section_title
;
Structure prediction by ZEFSAII (Michael W. Deem and Ramdas Pophale) SiO2 
 PCOD9398714
Probable space group: P M M A
;
_chemical_formula_sum "Si O2"
_cell_formula_units_Z 52
_cell_length_a 8.628026
_cell_length_b 27.615820
_cell_length_c 13.949958
_cell_angle_alpha 90.000000
_cell_angle_beta 90.000000
_cell_angle_gamma 90.000000
_cell_volume 3323.856674
_symmetry_space_group_name_H-M "P M M A"
_symmetry_group_IT_number 51
_symmetry_cell_setting 'orthorhombic'
loop_
_space_group_symop_operation_xyz
x,y,z
1/2-x,-y,z
1/2+x,-y,-z
-x,y,-z
-x,-y,-z
1/2+x,y,-z
1/2-x,y,z
x,-y,z
loop_
_atom_site_type_symbol
_atom_site_label
_atom_site_fract_x
_atom_site_fract_y
_atom_site_fract_z
Si Si1 0.437565 0.400582 0.290508
Si Si2 0.436999 0.947955 0.891347
Si Si3 0.937365 0.500000 0.607990
Si Si4 0.434811 0.649191 0.895497
Si Si5 0.436212 0.254466 0.200741
Si Si6 0.436483 0.158079 0.891401
Si Si7 0.064252 0.302978 0.396285
O O1 0.250000 0.399722 0.282379
O O2 0.485607 0.451730 0.334912
O O3 0.506540 0.387202 0.187191
O O4 0.483712 0.356819 0.361839
O O5 0.250000 0.947968 0.894370
O O6 0.482942 0.895286 0.851501
O O7 0.486177 0.000000 0.847621
O O8 0.500000 0.948096 0.000000
O O9 0.750000 0.500000 0.603505
O O10 0.000000 0.500000 0.500000
O O11 0.250000 0.649980 0.897542
O O12 0.496798 0.702344 0.864839
O O13 0.500000 0.636823 0.000000
O O14 0.250000 0.256255 0.193997
O O15 0.496829 0.202754 0.167491
O O16 0.482451 0.267506 0.309760
O O17 0.250000 0.161025 0.893918
O O18 0.500000 0.161534 0.000000
O O19 0.250000 0.302647 0.401049
O O20 0.000000 0.291011 0.500000
#
# Coordination Sequence:
#
# PCOD9398714 Si02
#       7
#     8   8   4   8   8   8   8
#     4   9  19  35  51  73 100 125 152 184 222 265
#     4   8  14  24  37  54  79 112 149 186 222 260
#     4  10  20  34  55  78 103 128 153 190 232 272
#     4  11  21  34  52  71  92 122 156 191 227 268
#     4  10  20  33  46  65  93 121 150 186 225 268
#     4  10  18  27  41  62  88 120 155 189 224 263
#     4   9  18  31  48  67  90 117 145 179 220 265
#
# _framework density 15.644477999999999
#
# number of rings (size 3 to 8) (size 9 to 14) (size 15 to 20)
#    0.000    2.462    0.000    4.154    0.000    4.308 
#    0.000    0.385    0.000    0.000    0.000    0.000 
#    0.000    0.615    0.000    1.385    0.000    2.462 
#
# Total GULP energy -289795.994119 kJ/mol
# GULP energy per Si atom -5572.999887 kJ/mol
# Density = 1.560887 g / cm^3
# Si number density = 15.644478 Si / 1000 Ang^3
#
#
#
# Elastic Constant Matrix: (Units=GPa)
#
#
# Indices 1 2 3 4 5 6 
#
# 1 42.3427 35.2336 28.3349 0.0000 0.0000 0.0000
# 2 35.2336 161.3734 68.4766 0.0000 0.0000 0.0000
# 3 28.3349 68.4766 102.8000 0.0000 0.0000 0.0000
# 4 0.0000 0.0000 0.0000 13.1873 0.0000 0.0000
# 5 0.0000 0.0000 0.0000 0.0000 26.3275 0.0000
# 6 0.0000 0.0000 0.0000 0.0000 0.0000 83.0291
#
#
#
# Elastic Compliance Matrix: (Units=1/GPa)
#
#
# Indices 1 2 3 4 5 6 
#
# 1 0.031036 -0.004386 -0.005633 0.000000 0.000000 0.000000
# 2 -0.004386 0.009258 -0.004958 0.000000 0.000000 0.000000
# 3 -0.005633 -0.004958 0.014583 0.000000 0.000000 0.000000
# 4 0.000000 0.000000 0.000000 0.075831 0.000000 0.000000
# 5 0.000000 0.000000 0.000000 0.000000 0.037983 0.000000
# 6 0.000000 0.000000 0.000000 0.000000 0.000000 0.012044
#
#
# Mechanical properties :
#
#
# Convention : Reuss Voigt Hill
#
# Bulk Modulus (GPa) = 40.12360 63.40070 51.76215
# Shear Modulus (GPa) = 22.83139 36.14017 29.48578
#
# Velocity S-wave (km/s) = 3.82434 4.81155 4.34607
# Velocity P-wave (km/s) = 6.72336 8.45470 7.63824
#
# Compressibility (1/GPa) = 0.02492299
#
# Stress axis : x y z
#
# Youngs Moduli (GPa) = 32.22085 108.01015 68.57317
#
# Poissons Ratio (x) = 0.47373 0.38626
# Poissons Ratio (y) = 0.14132 0.34000
# Poissons Ratio (z) = 0.18150 0.53554
#
# Static dielectric constant tensor:
#      x y z
#    x 1.527990 0.000000 0.000000 
#    y 0.000000 1.550630 0.000000 
#    z 0.000000 0.000000 1.499710 
# 
# From -- ./inp_files/14631.got.cif
#   From: 2010.05.17/outbox.cif.g08.bks.cpg/sg51_8_cif.got.tgz:14631.got - 2010.06.03 11:52:47.
