data_PCOD9398425
_publ_section_title
;
Structure prediction by ZEFSAII (Michael W. Deem and Ramdas Pophale) SiO2 
 PCOD9398425
Probable space group: P M M A
;
_chemical_formula_sum "Si O2"
_cell_formula_units_Z 64
_cell_length_a 23.175399
_cell_length_b 8.958308
_cell_length_c 20.916349
_cell_angle_alpha 90.000000
_cell_angle_beta 90.000000
_cell_angle_gamma 90.000000
_cell_volume 4342.492626
_symmetry_space_group_name_H-M "P M M A"
_symmetry_group_IT_number 51
_symmetry_cell_setting 'orthorhombic'
loop_
_space_group_symop_operation_xyz
x,y,z
1/2-x,-y,z
1/2+x,-y,-z
-x,y,-z
-x,-y,-z
1/2+x,y,-z
1/2-x,y,z
x,-y,z
loop_
_atom_site_type_symbol
_atom_site_label
_atom_site_fract_x
_atom_site_fract_y
_atom_site_fract_z
Si Si1 0.682987 0.178336 0.791090
Si Si2 0.449955 0.178562 0.579989
Si Si3 0.973183 0.321030 0.292110
Si Si4 0.899207 0.321964 0.895000
Si Si5 0.425640 0.679019 0.455701
Si Si6 0.530207 0.678788 0.147083
Si Si7 0.108597 0.322809 0.317993
Si Si8 0.067282 0.827723 0.978112
O O1 0.750000 0.222560 0.791275
O O2 0.648691 0.249296 0.850305
O O3 0.651524 0.233832 0.726893
O O4 0.679308 0.000000 0.795081
O O5 0.439629 0.235560 0.651854
O O6 0.513289 0.246862 0.564163
O O7 0.410530 0.248477 0.523833
O O8 0.450825 0.000000 0.576127
O O9 0.967056 0.500000 0.301221
O O10 0.955502 0.281298 0.220044
O O11 0.041955 0.289095 0.298998
O O12 0.893759 0.500000 0.894346
O O13 0.962669 0.284684 0.866005
O O14 0.898799 0.261328 0.967284
O O15 0.432883 0.500000 0.461895
O O16 0.385773 0.706636 0.393925
O O17 0.535355 0.500000 0.140262
O O18 0.567424 0.757113 0.092253
O O19 0.116465 0.500000 0.307211
O O20 0.084845 0.000000 0.977151
O O21 0.000000 0.820889 0.000000
#
# Coordination Sequence:
#
# PCOD9398425 Si02
#       8
#     8   8   8   8   8   8   8   8
#     4  11  23  34  44  61  84 108 136 176 224 262
#     4  10  17  23  34  56  79 102 134 166 198 236
#     4   9  16  27  40  56  81 110 139 169 204 240
#     4  10  18  31  47  60  76 104 141 176 208 248
#     4   9  16  27  40  52  72 101 133 167 203 240
#     4   9  16  27  42  60  81 108 141 172 203 245
#     4   9  17  30  45  59  73 101 141 175 209 248
#     4   9  17  27  40  61  84 105 131 166 209 251
#
# _framework density 14.738079000000001
#
# number of rings (size 3 to 8) (size 9 to 14) (size 15 to 20)
#    0.000    2.500    1.250    4.125    0.000    6.000 
#    0.000    0.000    0.000    0.000    0.000    0.000 
#    0.000    0.000    0.000    1.125    0.000   18.750 
#
# Total GULP energy -356465.876621 kJ/mol
# GULP energy per Si atom -5569.779322 kJ/mol
# Density = 1.470453 g / cm^3
# Si number density = 14.738079 Si / 1000 Ang^3
#
#
#
# Elastic Constant Matrix: (Units=GPa)
#
#
# Indices 1 2 3 4 5 6 
#
# 1 34.9514 26.4527 36.0996 0.0000 0.0000 0.0000
# 2 26.4527 65.5917 63.8600 0.0000 0.0000 0.0000
# 3 36.0996 63.8600 158.2693 0.0000 0.0000 0.0000
# 4 0.0000 0.0000 0.0000 -0.4822 0.0000 0.0000
# 5 0.0000 0.0000 0.0000 0.0000 7.8206 0.0000
# 6 0.0000 0.0000 0.0000 0.0000 0.0000 14.0345
#
#
#
# Elastic Compliance Matrix: (Units=1/GPa)
#
#
# Indices 1 2 3 4 5 6 
#
# 1 0.043160 -0.012883 -0.004646 0.000000 0.000000 0.000000
# 2 -0.012883 0.028955 -0.008745 0.000000 0.000000 0.000000
# 3 -0.004646 -0.008745 0.010907 0.000000 0.000000 0.000000
# 4 0.000000 0.000000 0.000000 -2.073634 0.000000 0.000000
# 5 0.000000 0.000000 0.000000 0.000000 0.127867 0.000000
# 6 0.000000 0.000000 0.000000 0.000000 0.000000 0.071253
#
#
# Mechanical properties :
#
#
# Convention : Reuss Voigt Hill
#
# Bulk Modulus (GPa) = 32.81416 56.84855 44.83136
# Shear Modulus (GPa) = -2.89220 13.10124 5.10452
#
# Velocity S-wave (km/s) = -1.40238 2.98474 1.86306
# Velocity P-wave (km/s) = 4.43745 7.10876 5.92560
#
# Compressibility (1/GPa) = 0.03047465
#
# Stress axis : x y z
#
# Youngs Moduli (GPa) = 23.16939 34.53624 91.68800
#
# Poissons Ratio (x) = 0.44491 0.42603
# Poissons Ratio (y) = 0.29848 0.80178
# Poissons Ratio (z) = 0.10766 0.30201
#
# Static dielectric constant tensor:
#      x y z
#    x 1.446650 0.000000 0.000000 
#    y 0.000000 1.489130 0.000000 
#    z 0.000000 0.000000 1.534940 
# 
# From -- ./inp_files/34233.got.cif
#   From: 2010.05.17/outbox.cif.g08.bks.cpg/sg51_18_cif.got.tgz:34233.got - 2010.06.03 11:52:47.
