data_PCOD9398606
_publ_section_title
;
Structure prediction by ZEFSAII (Michael W. Deem and Ramdas Pophale) SiO2 
 PCOD9398606
Probable space group: P M M A
;
_chemical_formula_sum "Si O2"
_cell_formula_units_Z 56
_cell_length_a 21.858136
_cell_length_b 7.495422
_cell_length_c 17.478285
_cell_angle_alpha 90.000000
_cell_angle_beta 90.000000
_cell_angle_gamma 90.000000
_cell_volume 2863.571488
_symmetry_space_group_name_H-M "P M M A"
_symmetry_group_IT_number 51
_symmetry_cell_setting 'orthorhombic'
loop_
_space_group_symop_operation_xyz
x,y,z
1/2-x,-y,z
1/2+x,-y,-z
-x,y,-z
-x,-y,-z
1/2+x,y,-z
1/2-x,y,z
x,-y,z
loop_
_atom_site_type_symbol
_atom_site_label
_atom_site_fract_x
_atom_site_fract_y
_atom_site_fract_z
Si Si1 0.109829 0.289128 0.206196
Si Si2 0.026676 0.781697 0.622497
Si Si3 0.817740 0.288728 0.649579
Si Si4 0.472061 0.795724 0.794214
Si Si5 0.937085 0.781262 0.042767
Si Si6 0.319286 0.214613 0.053960
Si Si7 0.091488 0.786059 0.473855
O O1 0.097930 0.500000 0.212771
O O2 0.136716 0.216609 0.285735
O O3 0.159014 0.259372 0.139737
O O4 0.044628 0.203785 0.187946
O O5 0.034563 0.716700 0.709081
O O6 0.077471 0.727387 0.560172
O O7 0.963030 0.723710 0.582815
O O8 0.024865 0.000000 0.625636
O O9 0.750000 0.213614 0.656536
O O10 0.814296 0.500000 0.664510
O O11 0.845834 0.264663 0.566014
O O12 0.440214 0.718363 0.869340
O O13 0.450540 0.000000 0.788419
O O14 0.937628 0.000000 0.042691
O O15 0.875168 0.723013 0.000067
O O16 0.000000 0.726662 0.000000
O O17 0.250000 0.279642 0.038926
O O18 0.317759 0.000000 0.047392
O O19 0.087633 0.000000 0.474863
#
# Coordination Sequence:
#
# PCOD9398606 Si02
#       7
#     8   8   8   8   8   8   8
#     4  11  21  32  47  70 101 130 158 195 241 286
#     4   8  15  27  47  72  95 119 148 191 237 276
#     4  10  21  34  45  63  96 132 159 189 234 284
#     4  10  17  30  52  72  98 131 159 190 237 289
#     4   9  16  28  49  74  96 121 158 201 239 277
#     4  10  20  34  51  70  93 125 165 201 235 288
#     4   9  16  29  48  70  93 119 156 193 228 273
#
# _framework density 19.556000000000001
#
# number of rings (size 3 to 8) (size 9 to 14) (size 15 to 20)
#    0.000    2.429    2.857    1.714    0.000    1.714 
#    0.000    3.571    0.000    0.857    0.000    4.000 
#    0.000    0.000    0.000    0.000    0.000    0.000 
#
# Total GULP energy -312372.576769 kJ/mol
# GULP energy per Si atom -5578.081728 kJ/mol
# Density = 1.951149 g / cm^3
# Si number density = 19.556000 Si / 1000 Ang^3
#
#
#
# Elastic Constant Matrix: (Units=GPa)
#
#
# Indices 1 2 3 4 5 6 
#
# 1 86.1889 -3.5321 47.4661 0.0000 0.0000 0.0000
# 2 -3.5321 54.9626 1.0010 0.0000 0.0000 0.0000
# 3 47.4661 1.0010 138.3636 0.0000 0.0000 0.0000
# 4 0.0000 0.0000 0.0000 4.2537 0.0000 0.0000
# 5 0.0000 0.0000 0.0000 0.0000 18.7422 0.0000
# 6 0.0000 0.0000 0.0000 0.0000 0.0000 19.8587
#
#
#
# Elastic Compliance Matrix: (Units=1/GPa)
#
#
# Indices 1 2 3 4 5 6 
#
# 1 0.014361 0.001013 -0.004934 0.000000 0.000000 0.000000
# 2 0.001013 0.018268 -0.000480 0.000000 0.000000 0.000000
# 3 -0.004934 -0.000480 0.008923 0.000000 0.000000 0.000000
# 4 0.000000 0.000000 0.000000 0.235091 0.000000 0.000000
# 5 0.000000 0.000000 0.000000 0.000000 0.053355 0.000000
# 6 0.000000 0.000000 0.000000 0.000000 0.000000 0.050356
#
#
# Mechanical properties :
#
#
# Convention : Reuss Voigt Hill
#
# Bulk Modulus (GPa) = 30.53344 41.04280 35.78812
# Shear Modulus (GPa) = 12.49771 24.20958 18.35365
#
# Velocity S-wave (km/s) = 2.53073 3.52229 3.06685
# Velocity P-wave (km/s) = 4.91800 6.12983 5.55705
#
# Compressibility (1/GPa) = 0.03275098
#
# Stress axis : x y z
#
# Youngs Moduli (GPa) = 69.63218 54.74049 112.06465
#
# Poissons Ratio (x) = -0.05544 0.55292
# Poissons Ratio (y) = -0.07052 0.05375
# Poissons Ratio (z) = 0.34356 0.02625
#
# Static dielectric constant tensor:
#      x y z
#    x 1.669720 0.000000 0.000000 
#    y 0.000000 1.730180 0.000000 
#    z 0.000000 0.000000 1.704640 
# 
# From -- ./inp_files/30448.got.cif
#   From: 2010.05.17/outbox.cif.g08.bks.cpg/sg51_16_cif.got.tgz:30448.got - 2010.06.03 11:52:47.
