data_PCOD9398239
_publ_section_title
;
Structure prediction by ZEFSAII (Michael W. Deem and Ramdas Pophale) SiO2 
 PCOD9398239
Probable space group: P B A N
;
_chemical_formula_sum "Si O2"
_cell_formula_units_Z 52
_cell_length_a 25.670982
_cell_length_b 9.045316
_cell_length_c 12.114104
_cell_angle_alpha 90.000000
_cell_angle_beta 90.000000
_cell_angle_gamma 90.000000
_cell_volume 2812.920924
_symmetry_space_group_name_H-M "P B A N"
_symmetry_group_IT_number 50
_space_group.IT_coordinate_system_code '2'
_symmetry_cell_setting 'orthorhombic'
loop_
_space_group_symop_operation_xyz
x,y,z
1/2-x,1/2-y,z
x,1/2-y,-z
1/2-x,y,-z
-x,-y,-z
1/2+x,1/2+y,-z
-x,1/2+y,z
1/2+x,-y,z
loop_
_atom_site_type_symbol
_atom_site_label
_atom_site_fract_x
_atom_site_fract_y
_atom_site_fract_z
Si Si1 0.973182 0.700801 0.759090
Si Si2 0.110757 0.750000 0.500000
Si Si3 0.310438 0.011736 0.494372
Si Si4 0.046298 0.905424 0.061861
Si Si5 0.474827 0.933294 0.387932
Si Si6 0.382184 0.172517 0.892129
Si Si7 0.310320 0.253535 0.686269
O O1 0.953400 0.570019 0.681699
O O2 0.934676 0.740911 0.857350
O O3 0.024866 0.641361 0.818252
O O4 0.983191 0.843350 0.683698
O O5 0.148863 0.614603 0.524601
O O6 0.070522 0.684158 0.411244
O O7 0.250000 0.961409 0.500000
O O8 0.315619 0.137028 0.586986
O O9 0.320623 0.088883 0.374872
O O10 0.096798 0.009232 0.077598
O O11 0.055807 0.750000 0.000000
O O12 0.000000 0.000000 0.000000
O O13 0.500000 0.000000 0.500000
O O14 0.345838 0.199789 0.786639
O O15 0.359123 0.250000 0.000000
O O16 0.250000 0.250000 0.721346
#
# Coordination Sequence:
#
# PCOD9398239 Si02
#       7
#     8   4   8   8   8   8   8
#     4  12  22  39  58  78 126 168 208 249 294 365
#     4  12  23  36  56  90 128 162 197 254 308 364
#     4   9  20  42  68  92 118 155 204 256 315 381
#     4  12  21  40  59  84 118 163 213 255 290 354
#     4  12  25  38  51  86 129 170 203 246 306 366
#     4  12  24  38  63  91 120 165 209 252 309 361
#     4   9  21  43  68  92 120 154 201 259 318 379
#
# _framework density 18.486122999999999
#
# number of rings (size 3 to 8) (size 9 to 14) (size 15 to 20)
#    0.000    0.923    6.154    2.077    4.308    0.308 
#    0.000    0.000    0.000    0.000    0.000    1.077 
#    0.000    0.000    0.000    0.000    0.000    0.000 
#
# Total GULP energy -290055.493231 kJ/mol
# GULP energy per Si atom -5577.990254 kJ/mol
# Density = 1.844405 g / cm^3
# Si number density = 18.486123 Si / 1000 Ang^3
#
#
#
# Elastic Constant Matrix: (Units=GPa)
#
#
# Indices 1 2 3 4 5 6 
#
# 1 69.1476 34.6932 32.8070 0.0000 0.0000 0.0000
# 2 34.6932 102.4516 32.8693 0.0000 0.0000 0.0000
# 3 32.8070 32.8693 93.9695 0.0000 0.0000 0.0000
# 4 0.0000 0.0000 0.0000 33.6350 0.0000 0.0000
# 5 0.0000 0.0000 0.0000 0.0000 -16.7289 0.0000
# 6 0.0000 0.0000 0.0000 0.0000 0.0000 25.3299
#
#
#
# Elastic Compliance Matrix: (Units=1/GPa)
#
#
# Indices 1 2 3 4 5 6 
#
# 1 0.019317 -0.004931 -0.005019 0.000000 0.000000 0.000000
# 2 -0.004931 0.012253 -0.002564 0.000000 0.000000 0.000000
# 3 -0.005019 -0.002564 0.013291 0.000000 0.000000 0.000000
# 4 0.000000 0.000000 0.000000 0.029731 0.000000 0.000000
# 5 0.000000 0.000000 0.000000 0.000000 -0.059777 0.000000
# 6 0.000000 0.000000 0.000000 0.000000 0.000000 0.039479
#
#
# Mechanical properties :
#
#
# Convention : Reuss Voigt Hill
#
# Bulk Modulus (GPa) = 50.42363 51.81195 51.11779
# Shear Modulus (GPa) = 58.18330 19.46047 38.82188
#
# Velocity S-wave (km/s) = 5.61626 3.24806 4.58761
# Velocity P-wave (km/s) = 8.33020 6.49268 7.46817
#
# Compressibility (1/GPa) = 0.01983197
#
# Stress axis : x y z
#
# Youngs Moduli (GPa) = 51.76719 81.61085 75.23819
#
# Poissons Ratio (x) = 0.40243 0.37764
# Poissons Ratio (y) = 0.25527 0.19295
# Poissons Ratio (z) = 0.25983 0.20929
#
# Static dielectric constant tensor:
#      x y z
#    x 1.651120 0.000000 0.000000 
#    y 0.000000 1.644760 0.000000 
#    z 0.000000 0.000000 1.774020 
# 
# From -- ./inp_files/23097.got.cif
#   From: 2010.05.17/outbox.cif.g08.bks.cpg/sg50_12_cif.got.tgz:23097.got - 2010.06.03 11:33:33.
