data_PCOD9398822
_publ_section_title
;
Structure prediction by ZEFSAII (Michael W. Deem and Ramdas Pophale) SiO2 
 PCOD9398822
Probable space group: P M M A
;
_chemical_formula_sum "Si O2"
_cell_formula_units_Z 48
_cell_length_a 7.361090
_cell_length_b 19.974023
_cell_length_c 15.181699
_cell_angle_alpha 90.000000
_cell_angle_beta 90.000000
_cell_angle_gamma 90.000000
_cell_volume 2232.174024
_symmetry_space_group_name_H-M "P M M A"
_symmetry_group_IT_number 51
_symmetry_cell_setting 'orthorhombic'
loop_
_space_group_symop_operation_xyz
x,y,z
1/2-x,-y,z
1/2+x,-y,-z
-x,y,-z
-x,-y,-z
1/2+x,y,-z
1/2-x,y,z
x,-y,z
loop_
_atom_site_type_symbol
_atom_site_label
_atom_site_fract_x
_atom_site_fract_y
_atom_site_fract_z
Si Si1 0.028211 0.312293 0.260728
Si Si2 0.467437 0.576295 0.398468
Si Si3 0.469093 0.925781 0.152078
Si Si4 0.534514 0.788750 0.592980
Si Si5 0.533724 0.776908 0.899138
Si Si6 0.030538 0.070743 0.361460
O O1 0.250000 0.316938 0.257622
O O2 0.967972 0.377753 0.316503
O O3 0.968729 0.252965 0.325598
O O4 0.969295 0.282706 0.166018
O O5 0.500000 0.599335 0.500000
O O6 0.250000 0.574767 0.390350
O O7 0.536372 0.500000 0.392348
O O8 0.250000 0.926543 0.140295
O O9 0.535785 0.853789 0.115970
O O10 0.504921 0.924366 0.256915
O O11 0.533426 0.000000 0.119586
O O12 0.500000 0.755386 0.500000
O O13 0.750000 0.793152 0.604612
O O14 0.457292 0.863179 0.593752
O O15 0.750000 0.781844 0.882926
O O16 0.500000 0.759301 0.000000
O O17 0.250000 0.069919 0.370159
O O18 0.959950 0.000000 0.394584
#
# Coordination Sequence:
#
# PCOD9398822 Si02
#       6
#     8   8   8   8   8   8
#     4   9  17  31  49  67  92 124 154 183 221 272
#     4   9  17  30  50  76 102 127 155 186 221 264
#     4   8  13  24  44  65  83 110 151 193 231 275
#     4  10  18  28  43  64  87 115 149 183 219 263
#     4  10  19  32  49  69  91 118 154 195 235 277
#     4   8  13  23  40  59  79 109 149 184 214 259
#
# _framework density 21.503699000000001
#
# number of rings (size 3 to 8) (size 9 to 14) (size 15 to 20)
#    0.000    3.000    1.667    1.500    0.000    0.667 
#    0.000    1.667    0.000    0.500    0.000    2.333 
#    0.000    0.000    0.000    0.000    0.000    0.000 
#
# Total GULP energy -267422.776554 kJ/mol
# GULP energy per Si atom -5571.307845 kJ/mol
# Density = 2.145476 g / cm^3
# Si number density = 21.503699 Si / 1000 Ang^3
#
#
#
# Elastic Constant Matrix: (Units=GPa)
#
#
# Indices 1 2 3 4 5 6 
#
# 1 78.2436 7.6403 -3.9798 0.0000 0.0000 0.0000
# 2 7.6403 163.6337 84.4695 0.0000 0.0000 0.0000
# 3 -3.9798 84.4695 148.6623 0.0000 0.0000 0.0000
# 4 0.0000 0.0000 0.0000 22.6597 0.0000 0.0000
# 5 0.0000 0.0000 0.0000 0.0000 11.2828 0.0000
# 6 0.0000 0.0000 0.0000 0.0000 0.0000 -34.0340
#
#
#
# Elastic Compliance Matrix: (Units=1/GPa)
#
#
# Indices 1 2 3 4 5 6 
#
# 1 0.012938 -0.001108 0.000976 0.000000 0.000000 0.000000
# 2 -0.001108 0.008743 -0.004997 0.000000 0.000000 0.000000
# 3 0.000976 -0.004997 0.009592 0.000000 0.000000 0.000000
# 4 0.000000 0.000000 0.000000 0.044131 0.000000 0.000000
# 5 0.000000 0.000000 0.000000 0.000000 0.088630 0.000000
# 6 0.000000 0.000000 0.000000 0.000000 0.000000 -0.029382
#
#
# Mechanical properties :
#
#
# Convention : Reuss Voigt Hill
#
# Bulk Modulus (GPa) = 47.58554 62.97775 55.28164
# Shear Modulus (GPa) = 32.91308 20.14236 26.52772
#
# Velocity S-wave (km/s) = 3.91650 3.06386 3.51612
# Velocity P-wave (km/s) = 6.52909 6.47046 6.49984
#
# Compressibility (1/GPa) = 0.02101479
#
# Stress axis : x y z
#
# Youngs Moduli (GPa) = 77.28922 114.38363 104.25210
#
# Poissons Ratio (x) = 0.12672 -0.10174
# Poissons Ratio (y) = 0.08563 0.52096
# Poissons Ratio (z) = -0.07542 0.57159
#
# Static dielectric constant tensor:
#      x y z
#    x 1.784980 0.000000 0.000000 
#    y 0.000000 1.830900 0.000000 
#    z 0.000000 0.000000 1.742260 
# 
# From -- ./inp_files/21377.got.cif
#   From: 2010.05.17/outbox.cif.g08.bks.cpg/sg51_11_cif.got.tgz:21377.got - 2010.06.03 11:52:47.
