data_PCOD9398847
_publ_section_title
;
Structure prediction by ZEFSAII (Michael W. Deem and Ramdas Pophale) SiO2 
 PCOD9398847
Probable space group: P M M A
;
_chemical_formula_sum "Si O2"
_cell_formula_units_Z 48
_cell_length_a 24.850294
_cell_length_b 7.613176
_cell_length_c 14.086607
_cell_angle_alpha 90.000000
_cell_angle_beta 90.000000
_cell_angle_gamma 90.000000
_cell_volume 2665.040415
_symmetry_space_group_name_H-M "P M M A"
_symmetry_group_IT_number 51
_symmetry_cell_setting 'orthorhombic'
loop_
_space_group_symop_operation_xyz
x,y,z
1/2-x,-y,z
1/2+x,-y,-z
-x,y,-z
-x,-y,-z
1/2+x,y,-z
1/2-x,y,z
x,-y,z
loop_
_atom_site_type_symbol
_atom_site_label
_atom_site_fract_x
_atom_site_fract_y
_atom_site_fract_z
Si Si1 0.083225 0.285653 0.540710
Si Si2 0.024356 0.285283 0.352243
Si Si3 0.690153 0.712388 0.358265
Si Si4 0.032781 0.297867 0.140756
Si Si5 0.920438 0.203071 0.055683
Si Si6 0.309617 0.209018 0.863772
O O1 0.083671 0.500000 0.540750
O O2 0.065597 0.231767 0.435010
O O3 0.140787 0.224263 0.577872
O O4 0.035021 0.232639 0.611675
O O5 0.024051 0.500000 0.349247
O O6 0.037284 0.223140 0.246554
O O7 0.750000 0.773261 0.386440
O O8 0.690117 0.500000 0.362104
O O9 0.681824 0.762985 0.248512
O O10 0.050251 0.500000 0.142670
O O11 0.970099 0.292510 0.109727
O O12 0.065726 0.210310 0.055740
O O13 0.861989 0.277735 0.081482
O O14 0.921830 0.000000 0.086248
O O15 0.250000 0.281099 0.887240
O O16 0.307477 0.000000 0.881684
#
# Coordination Sequence:
#
# PCOD9398847 Si02
#       6
#     8   8   8   8   8   8
#     4   8  13  23  38  58  84 108 132 161 196 239
#     4   8  14  23  38  59  81 108 136 163 195 235
#     4   9  16  25  41  65  87 106 131 167 208 246
#     4  10  18  28  44  65  87 111 141 174 209 249
#     4  10  19  30  44  62  85 112 140 172 213 255
#     4   9  18  31  45  61  83 112 142 171 207 252
#
# _framework density 18.010983
#
# number of rings (size 3 to 8) (size 9 to 14) (size 15 to 20)
#    0.000    3.000    0.000    4.000    0.000    2.667 
#    0.000    0.000    0.000    3.000    0.000   10.500 
#    0.000    0.000    0.000    0.000    0.000    0.000 
#
# Total GULP energy -267536.430274 kJ/mol
# GULP energy per Si atom -5573.675631 kJ/mol
# Density = 1.796999 g / cm^3
# Si number density = 18.010983 Si / 1000 Ang^3
#
#
#
# Elastic Constant Matrix: (Units=GPa)
#
#
# Indices 1 2 3 4 5 6 
#
# 1 165.1954 -1.8638 74.4734 0.0000 0.0000 0.0000
# 2 -1.8638 36.4227 -10.0765 0.0000 0.0000 0.0000
# 3 74.4734 -10.0765 102.9858 0.0000 0.0000 0.0000
# 4 0.0000 0.0000 0.0000 29.7491 0.0000 0.0000
# 5 0.0000 0.0000 0.0000 0.0000 25.1886 0.0000
# 6 0.0000 0.0000 0.0000 0.0000 0.0000 8.2258
#
#
#
# Elastic Compliance Matrix: (Units=1/GPa)
#
#
# Indices 1 2 3 4 5 6 
#
# 1 0.009049 -0.001385 -0.006679 0.000000 0.000000 0.000000
# 2 -0.001385 0.028431 0.003783 0.000000 0.000000 0.000000
# 3 -0.006679 0.003783 0.014910 0.000000 0.000000 0.000000
# 4 0.000000 0.000000 0.000000 0.033614 0.000000 0.000000
# 5 0.000000 0.000000 0.000000 0.000000 0.039700 0.000000
# 6 0.000000 0.000000 0.000000 0.000000 0.000000 0.121569
#
#
# Mechanical properties :
#
#
# Convention : Reuss Voigt Hill
#
# Bulk Modulus (GPa) = 22.81601 47.74112 35.27856
# Shear Modulus (GPa) = 18.48804 28.77076 23.62940
#
# Velocity S-wave (km/s) = 3.20736 4.00109 3.62601
# Velocity P-wave (km/s) = 5.13922 6.92164 6.09593
#
# Compressibility (1/GPa) = 0.04382888
#
# Stress axis : x y z
#
# Youngs Moduli (GPa) = 110.51065 35.17265 67.06817
#
# Poissons Ratio (x) = 0.04871 0.44796
# Poissons Ratio (y) = 0.15303 -0.25373
# Poissons Ratio (z) = 0.73812 -0.13306
#
# Static dielectric constant tensor:
#      x y z
#    x 1.629760 0.000000 0.000000 
#    y 0.000000 1.650000 0.000000 
#    z 0.000000 0.000000 1.598760 
# 
# From -- ./inp_files/18989.got.cif
#   From: 2010.05.17/outbox.cif.g08.bks.cpg/sg51_10_cif.got.tgz:18989.got - 2010.06.03 11:52:47.
