data_PCOD9398762
_publ_section_title
;
Structure prediction by ZEFSAII (Michael W. Deem and Ramdas Pophale) SiO2 
 PCOD9398762
Probable space group: P M M A
;
_chemical_formula_sum "Si O2"
_cell_formula_units_Z 48
_cell_length_a 27.179714
_cell_length_b 7.624308
_cell_length_c 12.374848
_cell_angle_alpha 90.000000
_cell_angle_beta 90.000000
_cell_angle_gamma 90.000000
_cell_volume 2564.396574
_symmetry_space_group_name_H-M "P M M A"
_symmetry_group_IT_number 51
_symmetry_cell_setting 'orthorhombic'
loop_
_space_group_symop_operation_xyz
x,y,z
1/2-x,-y,z
1/2+x,-y,-z
-x,y,-z
-x,-y,-z
1/2+x,y,-z
1/2-x,y,z
x,-y,z
loop_
_atom_site_type_symbol
_atom_site_label
_atom_site_fract_x
_atom_site_fract_y
_atom_site_fract_z
Si Si1 0.379979 0.799235 0.665380
Si Si2 0.194876 0.707120 0.846544
Si Si3 0.384395 0.286100 0.018337
Si Si4 0.555395 0.792175 0.523571
Si Si5 0.460533 0.712718 0.840777
Si Si6 0.431282 0.712078 0.228508
O O1 0.334866 0.723293 0.734167
O O2 0.402482 0.718453 0.556028
O O3 0.426083 0.787612 0.747075
O O4 0.366301 0.000000 0.644198
O O5 0.250000 0.780564 0.842269
O O6 0.198794 0.500000 0.867185
O O7 0.160555 0.778474 0.943829
O O8 0.382092 0.500000 0.018946
O O9 0.434182 0.240313 0.952738
O O10 0.390267 0.228764 0.142124
O O11 0.500000 0.721448 0.500000
O O12 0.570005 0.770787 0.647992
O O13 0.552786 0.000000 0.498899
O O14 0.458875 0.500000 0.833483
O O15 0.515999 0.767698 0.820095
O O16 0.430592 0.500000 0.230155
#
# Coordination Sequence:
#
# PCOD9398762 Si02
#       6
#     8   8   8   8   8   8
#     4  10  19  31  48  69  95 128 163 199 237 276
#     4   9  18  34  56  76  94 118 150 196 250 294
#     4   8  15  28  45  69  97 121 150 190 238 287
#     4  10  20  33  45  62  97 138 168 196 232 278
#     4   9  16  27  44  66  95 127 158 193 232 276
#     4  10  18  27  45  69  94 128 166 197 227 273
#
# _framework density 18.717852000000001
#
# number of rings (size 3 to 8) (size 9 to 14) (size 15 to 20)
#    0.000    2.667    1.667    2.000    0.000    4.000 
#    0.000    3.333    0.000    6.000    0.000    2.333 
#    0.000    0.000    0.000    0.000    0.000    0.000 
#
# Total GULP energy -267436.707421 kJ/mol
# GULP energy per Si atom -5571.598071 kJ/mol
# Density = 1.867525 g / cm^3
# Si number density = 18.717852 Si / 1000 Ang^3
#
#
#
# Elastic Constant Matrix: (Units=GPa)
#
#
# Indices 1 2 3 4 5 6 
#
# 1 107.5988 0.9275 66.8094 0.0000 0.0000 0.0000
# 2 0.9275 30.3890 -4.2293 0.0000 0.0000 0.0000
# 3 66.8094 -4.2293 155.1723 0.0000 0.0000 0.0000
# 4 0.0000 0.0000 0.0000 25.5859 0.0000 0.0000
# 5 0.0000 0.0000 0.0000 0.0000 7.9794 0.0000
# 6 0.0000 0.0000 0.0000 0.0000 0.0000 7.8813
#
#
#
# Elastic Compliance Matrix: (Units=1/GPa)
#
#
# Indices 1 2 3 4 5 6 
#
# 1 0.012725 -0.001155 -0.005510 0.000000 0.000000 0.000000
# 2 -0.001155 0.033137 0.001401 0.000000 0.000000 0.000000
# 3 -0.005510 0.001401 0.008855 0.000000 0.000000 0.000000
# 4 0.000000 0.000000 0.000000 0.039084 0.000000 0.000000
# 5 0.000000 0.000000 0.000000 0.000000 0.125322 0.000000
# 6 0.000000 0.000000 0.000000 0.000000 0.000000 0.126883
#
#
# Mechanical properties :
#
#
# Convention : Reuss Voigt Hill
#
# Bulk Modulus (GPa) = 22.63105 46.68614 34.65859
# Shear Modulus (GPa) = 13.46745 23.59948 18.53346
#
# Velocity S-wave (km/s) = 2.68525 3.55463 3.15008
# Velocity P-wave (km/s) = 4.66165 6.46864 5.63801
#
# Compressibility (1/GPa) = 0.04418709
#
# Stress axis : x y z
#
# Youngs Moduli (GPa) = 78.58454 30.17789 112.92963
#
# Poissons Ratio (x) = 0.03486 0.62228
# Poissons Ratio (y) = 0.09078 -0.15816
# Poissons Ratio (z) = 0.43302 -0.04227
#
# Static dielectric constant tensor:
#      x y z
#    x 1.646640 0.000000 0.000000 
#    y 0.000000 1.713610 0.000000 
#    z 0.000000 0.000000 1.668910 
# 
# From -- ./inp_files/18979.got.cif
#   From: 2010.05.17/outbox.cif.g08.bks.cpg/sg51_10_cif.got.tgz:18979.got - 2010.06.03 11:52:47.
