data_PCOD9398833
_publ_section_title
;
Structure prediction by ZEFSAII (Michael W. Deem and Ramdas Pophale) SiO2 
 PCOD9398833
Probable space group: P M M A
;
_chemical_formula_sum "Si O2"
_cell_formula_units_Z 64
_cell_length_a 18.941766
_cell_length_b 14.665422
_cell_length_c 15.590220
_cell_angle_alpha 90.000000
_cell_angle_beta 90.000000
_cell_angle_gamma 90.000000
_cell_volume 4330.791496
_symmetry_space_group_name_H-M "P M M A"
_symmetry_group_IT_number 51
_symmetry_cell_setting 'orthorhombic'
loop_
_space_group_symop_operation_xyz
x,y,z
1/2-x,-y,z
1/2+x,-y,-z
-x,y,-z
-x,-y,-z
1/2+x,y,-z
1/2-x,y,z
x,-y,z
loop_
_atom_site_type_symbol
_atom_site_label
_atom_site_fract_x
_atom_site_fract_y
_atom_site_fract_z
Si Si1 0.835705 0.101224 0.820663
Si Si2 0.438982 0.389468 0.767710
Si Si3 0.899500 0.390307 0.728566
Si Si4 0.167059 0.609336 0.618021
Si Si5 0.335642 0.100980 0.379400
Si Si6 0.334330 0.292157 0.107351
Si Si7 0.835326 0.296236 0.561313
Si Si8 0.420637 0.607315 0.963020
O O1 0.750000 0.101232 0.821970
O O2 0.855656 0.113899 0.720641
O O3 0.858526 0.188028 0.875357
O O4 0.859049 0.000000 0.848221
O O5 0.438110 0.500000 0.769899
O O6 0.518523 0.363826 0.741977
O O7 0.382199 0.361042 0.696699
O O8 0.421230 0.360426 0.864516
O O9 0.894369 0.500000 0.728509
O O10 0.856702 0.349545 0.808734
O O11 0.869685 0.350130 0.640263
O O12 0.250000 0.626880 0.635380
O O13 0.159128 0.500000 0.606617
O O14 0.147069 0.658911 0.529699
O O15 0.250000 0.099214 0.381339
O O16 0.357274 0.190177 0.431698
O O17 0.359897 0.000000 0.407238
O O18 0.250000 0.293617 0.099342
O O19 0.370451 0.335840 0.024774
O O20 0.750000 0.301164 0.571137
O O21 0.400531 0.500000 0.965616
O O22 0.500000 0.613178 0.000000
#
# Coordination Sequence:
#
# PCOD9398833 Si02
#       8
#     8   8   8   8   8   8   8   8
#     4   8  14  26  43  65  95 123 147 183 229 277
#     4   9  19  34  49  63  85 125 167 193 221 266
#     4  11  20  29  43  66  98 128 151 181 228 283
#     4   9  18  32  48  66  90 120 156 195 226 260
#     4   8  13  23  40  62  89 120 153 187 223 271
#     4  11  20  29  46  74  97 119 153 190 234 283
#     4  10  18  28  43  68  98 124 150 187 235 273
#     4  10  19  33  48  64  92 128 159 190 232 276
#
# _framework density 14.777899
#
# number of rings (size 3 to 8) (size 9 to 14) (size 15 to 20)
#    0.000    2.500    2.500    1.875    0.000    3.250 
#    0.000    3.125    0.000    0.375    0.000    3.500 
#    0.000    4.000    0.000    0.000    0.000    0.000 
#
# Total GULP energy -356493.624678 kJ/mol
# GULP energy per Si atom -5570.212886 kJ/mol
# Density = 1.474426 g / cm^3
# Si number density = 14.777899 Si / 1000 Ang^3
#
#
#
# Elastic Constant Matrix: (Units=GPa)
#
#
# Indices 1 2 3 4 5 6 
#
# 1 46.1085 33.1928 48.8479 0.0000 0.0000 0.0000
# 2 33.1928 91.5606 55.9821 0.0000 0.0000 0.0000
# 3 48.8479 55.9821 130.6616 0.0000 0.0000 0.0000
# 4 0.0000 0.0000 0.0000 12.6139 0.0000 0.0000
# 5 0.0000 0.0000 0.0000 0.0000 25.5016 0.0000
# 6 0.0000 0.0000 0.0000 0.0000 0.0000 6.3620
#
#
#
# Elastic Compliance Matrix: (Units=1/GPa)
#
#
# Indices 1 2 3 4 5 6 
#
# 1 0.039031 -0.007083 -0.011557 0.000000 0.000000 0.000000
# 2 -0.007083 0.016084 -0.004243 0.000000 0.000000 0.000000
# 3 -0.011557 -0.004243 0.013792 0.000000 0.000000 0.000000
# 4 0.000000 0.000000 0.000000 0.079277 0.000000 0.000000
# 5 0.000000 0.000000 0.000000 0.000000 0.039213 0.000000
# 6 0.000000 0.000000 0.000000 0.000000 0.000000 0.157184
#
#
# Mechanical properties :
#
#
# Convention : Reuss Voigt Hill
#
# Bulk Modulus (GPa) = 43.21535 60.48624 51.85079
# Shear Modulus (GPa) = 12.56090 17.58269 15.07180
#
# Velocity S-wave (km/s) = 2.91860 3.45308 3.19703
# Velocity P-wave (km/s) = 6.37686 7.54437 6.98505
#
# Compressibility (1/GPa) = 0.02313993
#
# Stress axis : x y z
#
# Youngs Moduli (GPa) = 25.62096 62.17392 72.50708
#
# Poissons Ratio (x) = 0.44041 0.83794
# Poissons Ratio (y) = 0.18148 0.30765
# Poissons Ratio (z) = 0.29609 0.26381
#
# Static dielectric constant tensor:
#      x y z
#    x 1.480800 0.000000 0.000000 
#    y 0.000000 1.502220 0.000000 
#    z 0.000000 0.000000 1.472560 
# 
# From -- ./inp_files/25328.got.cif
#   From: 2010.05.17/outbox.cif.g08.bks.cpg/sg51_13_cif.got.tgz:25328.got - 2010.06.03 11:52:47.
