data_PCOD9398348
_publ_section_title
;
Structure prediction by ZEFSAII (Michael W. Deem and Ramdas Pophale) SiO2 
 PCOD9398348
Probable space group: P M M A
;
_chemical_formula_sum "Si O2"
_cell_formula_units_Z 56
_cell_length_a 26.837999
_cell_length_b 26.314510
_cell_length_c 5.467733
_cell_angle_alpha 90.000000
_cell_angle_beta 90.000000
_cell_angle_gamma 90.000000
_cell_volume 3861.470477
_symmetry_space_group_name_H-M "P M M A"
_symmetry_group_IT_number 51
_symmetry_cell_setting 'orthorhombic'
loop_
_space_group_symop_operation_xyz
x,y,z
1/2-x,-y,z
1/2+x,-y,-z
-x,y,-z
-x,-y,-z
1/2+x,y,-z
1/2-x,y,z
x,-y,z
loop_
_atom_site_type_symbol
_atom_site_label
_atom_site_fract_x
_atom_site_fract_y
_atom_site_fract_z
Si Si1 0.054600 0.265915 0.750000
Si Si2 0.530735 0.385562 0.250000
Si Si3 0.058711 0.897371 0.250000
Si Si4 0.692350 0.438140 0.750000
Si Si5 0.863065 0.438621 0.250000
Si Si6 0.058692 0.223721 0.250000
Si Si7 0.054895 0.060541 0.750000
O O1 0.045170 0.325880 0.750000
O O2 0.079742 0.247533 0.499547
O O3 0.999896 0.239406 0.750000
O O4 0.079742 0.247533 0.000453
O O5 0.500000 0.395462 0.500000
O O6 0.581101 0.417777 0.250000
O O7 0.500000 0.395462 0.000000
O O8 0.062033 0.836820 0.250000
O O9 0.079839 0.920530 0.500251
O O10 0.000381 0.914371 0.250000
O O11 0.079839 0.920530 0.999749
O O12 0.750000 0.422080 0.750000
O O13 0.692031 0.500000 0.750000
O O14 0.664871 0.422209 0.499658
O O15 0.664871 0.422209 0.000343
O O16 0.863763 0.500000 0.250000
O O17 0.049134 0.000000 0.750000
#
# Coordination Sequence:
#
# PCOD9398348 Si02
#       7
#     8   8   8   8   8   8   8
#     4  10  16  27  37  51  64  93 125 161 193 223
#     4  12  21  33  45  60  87 121 146 165 200 241
#     4  10  16  22  31  44  54  75 103 148 185 221
#     4   9  17  33  54  72  89 107 130 170 215 243
#     4  10  21  33  48  71  91 111 143 170 195 248
#     4  10  16  25  38  48  62  79 127 167 192 222
#     4  10  16  22  28  39  59  78  96 123 183 255
#
# _framework density 14.502248
#
# number of rings (size 3 to 8) (size 9 to 14) (size 15 to 20)
#    0.000    1.857    2.857    7.714    0.000    2.286 
#    0.000    0.000    0.000    0.000    0.000    0.000 
#    0.000    0.000    0.000    0.000    0.000    0.000 
#
# Total GULP energy -311877.360571 kJ/mol
# GULP energy per Si atom -5569.238582 kJ/mol
# Density = 1.446924 g / cm^3
# Si number density = 14.502248 Si / 1000 Ang^3
#
#
#
# Elastic Constant Matrix: (Units=GPa)
#
#
# Indices 1 2 3 4 5 6 
#
# 1 54.8388 27.6298 48.8740 0.0000 0.0000 0.0000
# 2 27.6298 26.0632 33.8976 0.0000 0.0000 0.0000
# 3 48.8740 33.8976 192.5320 0.0000 0.0000 0.0000
# 4 0.0000 0.0000 0.0000 14.5397 0.0000 0.0000
# 5 0.0000 0.0000 0.0000 0.0000 13.7405 0.0000
# 6 0.0000 0.0000 0.0000 0.0000 0.0000 -1.0473
#
#
#
# Elastic Compliance Matrix: (Units=1/GPa)
#
#
# Indices 1 2 3 4 5 6 
#
# 1 0.040949 -0.038768 -0.003569 0.000000 0.000000 0.000000
# 2 -0.038768 0.086467 -0.005382 0.000000 0.000000 0.000000
# 3 -0.003569 -0.005382 0.007048 0.000000 0.000000 0.000000
# 4 0.000000 0.000000 0.000000 0.068777 0.000000 0.000000
# 5 0.000000 0.000000 0.000000 0.000000 0.072778 0.000000
# 6 0.000000 0.000000 0.000000 0.000000 0.000000 -0.954840
#
#
# Mechanical properties :
#
#
# Convention : Reuss Voigt Hill
#
# Bulk Modulus (GPa) = 25.62520 54.91518 40.27019
# Shear Modulus (GPa) = -8.76619 16.31542 3.77462
#
# Velocity S-wave (km/s) = -2.46127 3.35778 1.61506
# Velocity P-wave (km/s) = 3.10340 7.27886 5.59522
#
# Compressibility (1/GPa) = 0.03902408
#
# Stress axis : x y z
#
# Youngs Moduli (GPa) = 24.42048 11.56507 141.89210
#
# Poissons Ratio (x) = 0.44836 0.50645
# Poissons Ratio (y) = 0.94674 0.76371
# Poissons Ratio (z) = 0.08716 0.06225
#
# Static dielectric constant tensor:
#      x y z
#    x 1.426700 0.000000 0.000000 
#    y 0.000000 1.468010 0.000000 
#    z 0.000000 0.000000 1.606050 
# 
# From -- ./inp_files/2666.got.cif
#   From: 2010.05.17/outbox.cif.g08.bks.cpg/sg51_2_cif.got.tgz:2666.got - 2010.06.03 11:52:47.
