data_PCOD9398672
_publ_section_title
;
Structure prediction by ZEFSAII (Michael W. Deem and Ramdas Pophale) SiO2 
 PCOD9398672
Probable space group: P M M A
;
_chemical_formula_sum "Si O2"
_cell_formula_units_Z 48
_cell_length_a 7.355360
_cell_length_b 17.955792
_cell_length_c 15.698315
_cell_angle_alpha 90.000000
_cell_angle_beta 90.000000
_cell_angle_gamma 90.000000
_cell_volume 2073.297093
_symmetry_space_group_name_H-M "P M M A"
_symmetry_group_IT_number 51
_symmetry_cell_setting 'orthorhombic'
loop_
_space_group_symop_operation_xyz
x,y,z
1/2-x,-y,z
1/2+x,-y,-z
-x,y,-z
-x,-y,-z
1/2+x,y,-z
1/2-x,y,z
x,-y,z
loop_
_atom_site_type_symbol
_atom_site_label
_atom_site_fract_x
_atom_site_fract_y
_atom_site_fract_z
Si Si1 0.467281 0.689978 0.899313
Si Si2 0.030007 0.848594 0.828016
Si Si3 0.530807 0.085504 0.358227
Si Si4 0.533189 0.237258 0.409297
Si Si5 0.472195 0.637814 0.718935
Si Si6 0.532615 0.500000 0.397862
Si Si7 0.964740 0.000000 0.097129
O O1 0.250000 0.690259 0.893328
O O2 0.535283 0.772249 0.870714
O O3 0.528622 0.638318 0.818795
O O4 0.500000 0.673804 0.000000
O O5 0.250000 0.843732 0.834641
O O6 0.995126 0.874075 0.731749
O O7 0.959520 0.921741 0.873797
O O8 0.750000 0.079041 0.367643
O O9 0.458405 0.153051 0.415488
O O10 0.462822 0.000000 0.364979
O O11 0.500000 0.276063 0.500000
O O12 0.750000 0.231529 0.398236
O O13 0.469637 0.286493 0.329633
O O14 0.250000 0.637035 0.719036
O O15 0.532111 0.571406 0.656648
O O16 0.750000 0.500000 0.390788
O O17 0.500000 0.500000 0.500000
O O18 0.750000 0.000000 0.121930
O O19 0.000000 0.000000 0.000000
#
# Coordination Sequence:
#
# PCOD9398672 Si02
#       7
#     8   8   8   8   8   4   4
#     4  10  19  33  52  75 101 133 171 208 245 293
#     4   9  15  26  45  66  89 121 165 208 243 288
#     4   9  15  26  46  69  91 123 169 211 245 292
#     4  10  19  32  51  74  98 129 167 208 253 303
#     4   9  18  34  56  78 104 137 171 204 246 304
#     4  10  20  36  59  86 110 136 169 208 253 300
#     4  10  18  26  40  64  89 116 156 206 253 292
#
# _framework density 23.151530999999999
#
# number of rings (size 3 to 8) (size 9 to 14) (size 15 to 20)
#    0.000    2.500    2.500    1.000    0.000    0.333 
#    0.000    2.083    0.000    1.000    0.000    0.000 
#    0.000    0.000    0.000    0.000    0.000    0.000 
#
# Total GULP energy -267244.971909 kJ/mol
# GULP energy per Si atom -5567.603581 kJ/mol
# Density = 2.309884 g / cm^3
# Si number density = 23.151531 Si / 1000 Ang^3
#
#
#
# Elastic Constant Matrix: (Units=GPa)
#
#
# Indices 1 2 3 4 5 6 
#
# 1 85.0343 7.8879 3.2165 0.0000 0.0000 0.0000
# 2 7.8879 141.0684 76.9112 0.0000 0.0000 0.0000
# 3 3.2165 76.9112 197.3450 0.0000 0.0000 0.0000
# 4 0.0000 0.0000 0.0000 40.5365 0.0000 0.0000
# 5 0.0000 0.0000 0.0000 0.0000 11.2527 0.0000
# 6 0.0000 0.0000 0.0000 0.0000 0.0000 -3.0594
#
#
#
# Elastic Compliance Matrix: (Units=1/GPa)
#
#
# Indices 1 2 3 4 5 6 
#
# 1 0.011822 -0.000706 0.000082 0.000000 0.000000 0.000000
# 2 -0.000706 0.009044 -0.003513 0.000000 0.000000 0.000000
# 3 0.000082 -0.003513 0.006435 0.000000 0.000000 0.000000
# 4 0.000000 0.000000 0.000000 0.024669 0.000000 0.000000
# 5 0.000000 0.000000 0.000000 0.000000 0.088868 0.000000
# 6 0.000000 0.000000 0.000000 0.000000 0.000000 -0.326861
#
#
# Mechanical properties :
#
#
# Convention : Reuss Voigt Hill
#
# Bulk Modulus (GPa) = 52.55472 66.60876 59.58174
# Shear Modulus (GPa) = -29.17019 32.10809 1.46895
#
# Velocity S-wave (km/s) = -3.55345 3.72811 0.79741
# Velocity P-wave (km/s) = 2.43178 6.88222 5.16132
#
# Compressibility (1/GPa) = 0.01902779
#
# Stress axis : x y z
#
# Youngs Moduli (GPa) = 84.58566 110.57588 155.39873
#
# Poissons Ratio (x) = 0.07807 -0.01281
# Poissons Ratio (y) = 0.05972 0.54592
# Poissons Ratio (z) = -0.00697 0.38846
#
# Static dielectric constant tensor:
#      x y z
#    x 1.915600 0.000000 0.000000 
#    y 0.000000 1.863550 0.000000 
#    z 0.000000 0.000000 1.956860 
# 
# From -- ./inp_files/21176.got.cif
#   From: 2010.05.17/outbox.cif.g08.bks.cpg/sg51_11_cif.got.tgz:21176.got - 2010.06.03 11:52:47.
