data_PCOD9398891
_publ_section_title
;
Structure prediction by ZEFSAII (Michael W. Deem and Ramdas Pophale) SiO2 
 PCOD9398891
Probable space group: P M M A
;
_chemical_formula_sum "Si O2"
_cell_formula_units_Z 40
_cell_length_a 7.613984
_cell_length_b 13.526314
_cell_length_c 19.994377
_cell_angle_alpha 90.000000
_cell_angle_beta 90.000000
_cell_angle_gamma 90.000000
_cell_volume 2059.203660
_symmetry_space_group_name_H-M "P M M A"
_symmetry_group_IT_number 51
_symmetry_cell_setting 'orthorhombic'
loop_
_space_group_symop_operation_xyz
x,y,z
1/2-x,-y,z
1/2+x,-y,-z
-x,y,-z
-x,-y,-z
1/2+x,y,-z
1/2-x,y,z
x,-y,z
loop_
_atom_site_type_symbol
_atom_site_label
_atom_site_fract_x
_atom_site_fract_y
_atom_site_fract_z
Si Si1 0.038559 0.785741 0.827409
Si Si2 0.960825 0.611156 0.422817
Si Si3 0.551687 0.000000 0.337831
Si Si4 0.547829 0.000000 0.813144
Si Si5 0.038890 0.388994 0.922287
Si Si6 0.965996 0.214230 0.327119
O O1 0.250000 0.781027 0.827051
O O2 0.971986 0.698064 0.874570
O O3 0.979840 0.774195 0.750264
O O4 0.989601 0.896867 0.849564
O O5 0.750000 0.608099 0.415570
O O6 0.028062 0.500000 0.409200
O O7 0.025380 0.695318 0.372764
O O8 0.000000 0.634703 0.500000
O O9 0.558984 0.000000 0.256386
O O10 0.472360 0.106919 0.353646
O O11 0.750000 0.000000 0.364809
O O12 0.750000 0.000000 0.792807
O O13 0.250000 0.391523 0.915019
O O14 0.973003 0.500000 0.906447
O O15 0.000000 0.369162 0.000000
O O16 0.750000 0.211540 0.327478
#
# Coordination Sequence:
#
# PCOD9398891 Si02
#       6
#     8   8   4   4   8   8
#     4   9  17  31  50  70  93 122 155 189 227 271
#     4   9  17  29  44  62  86 116 147 180 220 264
#     4   8  14  28  47  64  86 116 147 180 224 272
#     4  10  18  28  45  70  97 122 151 188 231 274
#     4   9  18  32  50  71  95 123 153 187 229 276
#     4   8  14  26  46  67  84 109 147 185 216 254
#
# _framework density 19.424985
#
# number of rings (size 3 to 8) (size 9 to 14) (size 15 to 20)
#    0.000    3.200    0.000    2.100    0.000    1.600 
#    0.000    9.000    0.000    0.000    0.000    5.600 
#    0.000    0.000    0.000    0.000    0.000    0.000 
#
# Total GULP energy -222851.109111 kJ/mol
# GULP energy per Si atom -5571.277728 kJ/mol
# Density = 1.938077 g / cm^3
# Si number density = 19.424985 Si / 1000 Ang^3
#
#
#
# Elastic Constant Matrix: (Units=GPa)
#
#
# Indices 1 2 3 4 5 6 
#
# 1 47.6758 7.0949 2.2391 0.0000 0.0000 0.0000
# 2 7.0949 229.3473 116.9543 0.0000 0.0000 0.0000
# 3 2.2391 116.9543 80.2170 0.0000 0.0000 0.0000
# 4 0.0000 0.0000 0.0000 -156.7772 0.0000 0.0000
# 5 0.0000 0.0000 0.0000 0.0000 15.2103 0.0000
# 6 0.0000 0.0000 0.0000 0.0000 0.0000 1.4307
#
#
#
# Elastic Compliance Matrix: (Units=1/GPa)
#
#
# Indices 1 2 3 4 5 6 
#
# 1 0.021113 -0.001375 0.001415 0.000000 0.000000 0.000000
# 2 -0.001375 0.017087 -0.024875 0.000000 0.000000 0.000000
# 3 0.001415 -0.024875 0.048693 0.000000 0.000000 0.000000
# 4 0.000000 0.000000 0.000000 -0.006378 0.000000 0.000000
# 5 0.000000 0.000000 0.000000 0.000000 0.065745 0.000000
# 6 0.000000 0.000000 0.000000 0.000000 0.000000 0.698950
#
#
# Mechanical properties :
#
#
# Convention : Reuss Voigt Hill
#
# Bulk Modulus (GPa) = 26.86371 67.75741 47.31056
# Shear Modulus (GPa) = 5.51094 -12.63044 -3.55975
#
# Velocity S-wave (km/s) = 1.68618 -2.55270 -1.35519
# Velocity P-wave (km/s) = 4.20124 5.12532 4.68611
#
# Compressibility (1/GPa) = 0.03722493
#
# Stress axis : x y z
#
# Youngs Moduli (GPa) = 47.36396 58.52272 20.53674
#
# Poissons Ratio (x) = 0.08045 -0.02906
# Poissons Ratio (y) = 0.06511 0.51084
# Poissons Ratio (z) = -0.06701 1.45573
#
# Static dielectric constant tensor:
#      x y z
#    x 1.731410 0.000000 0.000000 
#    y 0.000000 1.722800 0.000000 
#    z 0.000000 0.000000 1.628080 
# 
# From -- ./inp_files/31452.got.cif
#   From: 2010.05.17/outbox.cif.g08.bks.cpg/sg51_16_cif.got.tgz:31452.got - 2010.06.03 11:52:47.
