data_PCOD9398475
_publ_section_title
;
Structure prediction by ZEFSAII (Michael W. Deem and Ramdas Pophale) SiO2 
 PCOD9398475
Probable space group: P M M A
;
_chemical_formula_sum "Si O2"
_cell_formula_units_Z 44
_cell_length_a 8.573161
_cell_length_b 30.031165
_cell_length_c 9.349035
_cell_angle_alpha 90.000000
_cell_angle_beta 90.000000
_cell_angle_gamma 90.000000
_cell_volume 2407.021367
_symmetry_space_group_name_H-M "P M M A"
_symmetry_group_IT_number 51
_symmetry_cell_setting 'orthorhombic'
loop_
_space_group_symop_operation_xyz
x,y,z
1/2-x,-y,z
1/2+x,-y,-z
-x,y,-z
-x,-y,-z
1/2+x,y,-z
1/2-x,y,z
x,-y,z
loop_
_atom_site_type_symbol
_atom_site_label
_atom_site_fract_x
_atom_site_fract_y
_atom_site_fract_z
Si Si1 0.564082 0.188145 0.163324
Si Si2 0.062239 0.364527 0.660177
Si Si3 0.937528 0.096382 0.836197
Si Si4 0.562078 0.000000 0.837179
Si Si5 0.938158 0.450005 0.159788
Si Si6 0.563788 0.718759 0.837937
O O1 0.750000 0.189329 0.160182
O O2 0.506477 0.141546 0.229807
O O3 0.498007 0.234223 0.224512
O O4 0.500000 0.187742 0.000000
O O5 0.250000 0.362772 0.661167
O O6 0.011202 0.410475 0.736440
O O7 0.000000 0.363163 0.500000
O O8 0.996896 0.322771 0.747942
O O9 0.750000 0.099896 0.838995
O O10 0.983772 0.048013 0.772504
O O11 0.000000 0.095150 0.000000
O O12 0.750000 0.000000 0.843494
O O13 0.500000 0.000000 0.000000
O O14 0.750000 0.449594 0.155209
O O15 0.988145 0.500000 0.203524
O O16 0.000000 0.441984 0.000000
O O17 0.750000 0.719646 0.842416
O O18 0.500000 0.714656 0.000000
#
# Coordination Sequence:
#
# PCOD9398475 Si02
#       6
#     8   8   8   4   8   8
#     4  10  17  26  40  60  84 113 152 199 247 295
#     4  11  23  38  55  78 108 140 174 212 256 305
#     4   9  14  21  31  47  72 105 145 189 236 287
#     4   8  14  20  28  42  66 102 143 184 229 284
#     4   9  19  36  58  83 110 140 175 213 252 296
#     4  11  21  35  54  75  99 130 169 213 259 307
#
# _framework density 18.279855000000001
#
# number of rings (size 3 to 8) (size 9 to 14) (size 15 to 20)
#    0.000    2.182    0.000    7.091    0.000    4.000 
#    0.000    0.000    0.000    0.000    0.000    0.000 
#    0.000    0.000    0.000    0.818    0.000   11.273 
#
# Total GULP energy -245278.425738 kJ/mol
# GULP energy per Si atom -5574.509676 kJ/mol
# Density = 1.823825 g / cm^3
# Si number density = 18.279855 Si / 1000 Ang^3
#
#
#
# Elastic Constant Matrix: (Units=GPa)
#
#
# Indices 1 2 3 4 5 6 
#
# 1 103.1759 65.3411 22.3561 0.0000 0.0000 0.0000
# 2 65.3411 227.8202 72.6489 0.0000 0.0000 0.0000
# 3 22.3561 72.6489 45.4619 0.0000 0.0000 0.0000
# 4 0.0000 0.0000 0.0000 -2.7017 0.0000 0.0000
# 5 0.0000 0.0000 0.0000 0.0000 17.7908 0.0000
# 6 0.0000 0.0000 0.0000 0.0000 0.0000 32.4514
#
#
#
# Elastic Compliance Matrix: (Units=1/GPa)
#
#
# Indices 1 2 3 4 5 6 
#
# 1 0.011858 -0.003143 -0.000808 0.000000 0.000000 0.000000
# 2 -0.003143 0.009784 -0.014089 0.000000 0.000000 0.000000
# 3 -0.000808 -0.014089 0.044908 0.000000 0.000000 0.000000
# 4 0.000000 0.000000 0.000000 -0.370135 0.000000 0.000000
# 5 0.000000 0.000000 0.000000 0.000000 0.056209 0.000000
# 6 0.000000 0.000000 0.000000 0.000000 0.000000 0.030815
#
#
# Mechanical properties :
#
#
# Convention : Reuss Voigt Hill
#
# Bulk Modulus (GPa) = 32.82017 77.46113 55.14065
# Shear Modulus (GPa) = -29.35572 23.91554 -2.72009
#
# Velocity S-wave (km/s) = -4.01172 3.62097 -1.22117
# Velocity P-wave (km/s) = 1.86153 7.74267 5.31431
#
# Compressibility (1/GPa) = 0.03046907
#
# Stress axis : x y z
#
# Youngs Moduli (GPa) = 84.33186 102.21126 22.26774
#
# Poissons Ratio (x) = 0.32127 0.01800
# Poissons Ratio (y) = 0.26507 0.31372
# Poissons Ratio (z) = 0.06816 1.44003
#
# Static dielectric constant tensor:
#      x y z
#    x 1.629760 0.000000 0.000000 
#    y 0.000000 1.711500 0.000000 
#    z 0.000000 0.000000 1.562840 
# 
# From -- ./inp_files/5722.got.cif
#   From: 2010.05.17/outbox.cif.g08.bks.cpg/sg51_3_cif.got.tgz:5722.got - 2010.06.03 11:52:47.
