data_PCOD9398844
_publ_section_title
;
Structure prediction by ZEFSAII (Michael W. Deem and Ramdas Pophale) SiO2 
 PCOD9398844
Probable space group: P M M A
;
_chemical_formula_sum "Si O2"
_cell_formula_units_Z 52
_cell_length_a 8.738391
_cell_length_b 27.465937
_cell_length_c 14.037189
_cell_angle_alpha 90.000000
_cell_angle_beta 90.000000
_cell_angle_gamma 90.000000
_cell_volume 3369.039015
_symmetry_space_group_name_H-M "P M M A"
_symmetry_group_IT_number 51
_symmetry_cell_setting 'orthorhombic'
loop_
_space_group_symop_operation_xyz
x,y,z
1/2-x,-y,z
1/2+x,-y,-z
-x,y,-z
-x,-y,-z
1/2+x,y,-z
1/2-x,y,z
x,-y,z
loop_
_atom_site_type_symbol
_atom_site_label
_atom_site_fract_x
_atom_site_fract_y
_atom_site_fract_z
Si Si1 0.434164 0.000000 0.393438
Si Si2 0.565891 0.348818 0.786786
Si Si3 0.433451 0.199500 0.708903
Si Si4 0.933554 0.299352 0.395863
Si Si5 0.066621 0.893309 0.392942
Si Si6 0.066076 0.256748 0.896487
Si Si7 0.434495 0.554865 0.105189
O O1 0.500000 0.000000 0.500000
O O2 0.479926 0.052945 0.353768
O O3 0.250000 0.000000 0.397112
O O4 0.750000 0.345767 0.785385
O O5 0.500444 0.335560 0.683397
O O6 0.501216 0.307825 0.858472
O O7 0.519183 0.402011 0.824165
O O8 0.250000 0.194120 0.704785
O O9 0.475358 0.244865 0.640282
O O10 0.509099 0.150390 0.672408
O O11 0.474437 0.216997 0.815491
O O12 0.750000 0.302592 0.396247
O O13 0.000000 0.308030 0.500000
O O14 0.250000 0.891560 0.399711
O O15 0.000000 0.887944 0.500000
O O16 0.250000 0.260446 0.899840
O O17 0.000000 0.245494 0.000000
O O18 0.250000 0.555654 0.099339
O O19 0.481454 0.500000 0.133789
O O20 0.500000 0.564193 0.000000
#
# Coordination Sequence:
#
# PCOD9398844 Si02
#       7
#     4   8   8   8   8   8   8
#     4   8  16  28  40  60  87 116 149 182 219 260
#     4  10  19  31  49  70  93 122 153 185 223 268
#     4   9  19  32  45  65  91 118 148 182 221 265
#     4  10  20  33  48  67  93 122 153 189 226 267
#     4  10  18  28  44  64  90 121 151 184 220 261
#     4  10  20  33  48  67  93 121 150 186 225 269
#     4   9  18  31  47  69  95 121 149 183 224 268
#
# _framework density 15.434668
#
# number of rings (size 3 to 8) (size 9 to 14) (size 15 to 20)
#    0.000    2.462    0.000    3.692    0.000    8.000 
#    0.000    0.000    0.000    0.462    0.000    0.538 
#    0.000    0.000    0.000    0.000    0.000    0.000 
#
# Total GULP energy -289867.636491 kJ/mol
# GULP energy per Si atom -5574.377625 kJ/mol
# Density = 1.539954 g / cm^3
# Si number density = 15.434668 Si / 1000 Ang^3
#
#
#
# Elastic Constant Matrix: (Units=GPa)
#
#
# Indices 1 2 3 4 5 6 
#
# 1 37.5550 45.3240 36.9062 0.0000 0.0000 0.0000
# 2 45.3240 158.1399 84.1250 0.0000 0.0000 0.0000
# 3 36.9062 84.1250 114.6017 0.0000 0.0000 0.0000
# 4 0.0000 0.0000 0.0000 20.8405 0.0000 0.0000
# 5 0.0000 0.0000 0.0000 0.0000 27.1635 0.0000
# 6 0.0000 0.0000 0.0000 0.0000 0.0000 21.0269
#
#
#
# Elastic Compliance Matrix: (Units=1/GPa)
#
#
# Indices 1 2 3 4 5 6 
#
# 1 0.045003 -0.008513 -0.008244 0.000000 0.000000 0.000000
# 2 -0.008513 0.011985 -0.006056 0.000000 0.000000 0.000000
# 3 -0.008244 -0.006056 0.015826 0.000000 0.000000 0.000000
# 4 0.000000 0.000000 0.000000 0.047984 0.000000 0.000000
# 5 0.000000 0.000000 0.000000 0.000000 0.036814 0.000000
# 6 0.000000 0.000000 0.000000 0.000000 0.000000 0.047558
#
#
# Mechanical properties :
#
#
# Convention : Reuss Voigt Hill
#
# Bulk Modulus (GPa) = 36.78025 71.44523 54.11274
# Shear Modulus (GPa) = 19.24125 23.40228 21.32177
#
# Velocity S-wave (km/s) = 3.53459 3.89809 3.72078
# Velocity P-wave (km/s) = 6.36703 8.16391 7.32081
#
# Compressibility (1/GPa) = 0.02718851
#
# Stress axis : x y z
#
# Youngs Moduli (GPa) = 22.22097 83.43673 63.18527
#
# Poissons Ratio (x) = 0.71027 0.52088
# Poissons Ratio (y) = 0.18916 0.38268
# Poissons Ratio (z) = 0.18318 0.50533
#
# Static dielectric constant tensor:
#      x y z
#    x 1.522110 0.000000 0.000000 
#    y 0.000000 1.530110 0.000000 
#    z 0.000000 0.000000 1.484930 
# 
# From -- ./inp_files/22071.got.cif
#   From: 2010.05.17/outbox.cif.g08.bks.cpg/sg51_12_cif.got.tgz:22071.got - 2010.06.03 11:52:47.
