data_PCOD9398972
_publ_section_title
;
Structure prediction by ZEFSAII (Michael W. Deem and Ramdas Pophale) SiO2 
 PCOD9398972
Probable space group: P M M A
;
_chemical_formula_sum "Si O2"
_cell_formula_units_Z 48
_cell_length_a 32.055966
_cell_length_b 12.412106
_cell_length_c 5.571219
_cell_angle_alpha 90.000000
_cell_angle_beta 90.000000
_cell_angle_gamma 90.000000
_cell_volume 2216.688025
_symmetry_space_group_name_H-M "P M M A"
_symmetry_group_IT_number 51
_symmetry_cell_setting 'orthorhombic'
loop_
_space_group_symop_operation_xyz
x,y,z
1/2-x,-y,z
1/2+x,-y,-z
-x,y,-z
-x,-y,-z
1/2+x,y,-z
1/2-x,y,z
x,-y,z
loop_
_atom_site_type_symbol
_atom_site_label
_atom_site_fract_x
_atom_site_fract_y
_atom_site_fract_z
Si Si1 0.868544 0.500000 0.250000
Si Si2 0.986773 0.667834 0.250000
Si Si3 0.824405 0.732240 0.250000
Si Si4 0.704068 0.684406 0.750000
Si Si5 0.133817 0.500000 0.250000
Si Si6 0.915217 0.819256 0.250000
Si Si7 0.044330 0.882313 0.250000
O O1 0.839129 0.605989 0.250000
O O2 0.891566 0.500000 0.504252
O O3 0.891566 0.500000 0.995749
O O4 0.012126 0.783256 0.250000
O O5 0.000000 0.616621 0.500000
O O6 0.938661 0.703099 0.250000
O O7 0.000000 0.616621 0.000000
O O8 0.800576 0.748017 0.500179
O O9 0.866248 0.801661 0.250000
O O10 0.800576 0.748017 0.999821
O O11 0.750000 0.632192 0.750000
O O12 0.665215 0.601504 0.750000
O O13 0.929537 0.871653 0.502472
O O14 0.929537 0.871653 0.997528
O O15 0.023763 0.000000 0.250000
#
# Coordination Sequence:
#
# PCOD9398972 Si02
#       7
#     4   8   8   8   4   8   8
#     4   8  16  28  43  62  88 125 155 184 221 265
#     4   8  16  27  42  64  89 121 148 170 210 267
#     4  10  19  31  45  66  95 123 158 190 225 267
#     4  10  18  29  45  65  91 121 153 190 231 274
#     4   8  15  26  42  64  88 115 147 184 227 277
#     4  10  19  30  45  67  96 126 149 184 222 267
#     4  10  19  31  48  71  97 123 147 175 225 287
#
# _framework density 21.653928000000001
#
# number of rings (size 3 to 8) (size 9 to 14) (size 15 to 20)
#    0.000    2.667    0.000    2.250    0.000    6.000 
#    0.000    5.000    0.000    0.000    0.000   10.500 
#    0.000   46.667    0.000    0.000    0.000    0.000 
#
# Total GULP energy -267550.873052 kJ/mol
# GULP energy per Si atom -5573.976522 kJ/mol
# Density = 2.160464 g / cm^3
# Si number density = 21.653928 Si / 1000 Ang^3
#
#
#
# Elastic Constant Matrix: (Units=GPa)
#
#
# Indices 1 2 3 4 5 6 
#
# 1 63.0416 17.0877 34.5640 0.0000 0.0000 0.0000
# 2 17.0877 66.7159 18.8618 0.0000 0.0000 0.0000
# 3 34.5640 18.8618 279.7001 0.0000 0.0000 0.0000
# 4 0.0000 0.0000 0.0000 2.2113 0.0000 0.0000
# 5 0.0000 0.0000 0.0000 0.0000 33.0268 0.0000
# 6 0.0000 0.0000 0.0000 0.0000 0.0000 12.2786
#
#
#
# Elastic Compliance Matrix: (Units=1/GPa)
#
#
# Indices 1 2 3 4 5 6 
#
# 1 0.018037 -0.004067 -0.001955 0.000000 0.000000 0.000000
# 2 -0.004067 0.016197 -0.000590 0.000000 0.000000 0.000000
# 3 -0.001955 -0.000590 0.003857 0.000000 0.000000 0.000000
# 4 0.000000 0.000000 0.000000 0.452218 0.000000 0.000000
# 5 0.000000 0.000000 0.000000 0.000000 0.030278 0.000000
# 6 0.000000 0.000000 0.000000 0.000000 0.000000 0.081443
#
#
# Mechanical properties :
#
#
# Convention : Reuss Voigt Hill
#
# Bulk Modulus (GPa) = 40.21267 61.16496 50.68882
# Shear Modulus (GPa) = 8.01870 32.09961 20.05916
#
# Velocity S-wave (km/s) = 1.92644 3.85436 3.04690
# Velocity P-wave (km/s) = 4.85378 6.93657 5.98645
#
# Compressibility (1/GPa) = 0.02486778
#
# Stress axis : x y z
#
# Youngs Moduli (GPa) = 55.44280 61.73858 259.29810
#
# Poissons Ratio (x) = 0.25109 0.50683
# Poissons Ratio (y) = 0.22549 0.15291
# Poissons Ratio (z) = 0.10837 0.03641
#
# Static dielectric constant tensor:
#      x y z
#    x 1.755130 0.000000 0.000000 
#    y 0.000000 1.802380 0.000000 
#    z 0.000000 0.000000 1.893500 
# 
# From -- ./inp_files/3978.got.cif
#   From: 2010.05.17/outbox.cif.g08.bks.cpg/sg51_2_cif.got.tgz:3978.got - 2010.06.03 11:52:47.
