data_PCOD9398892
_publ_section_title
;
Structure prediction by ZEFSAII (Michael W. Deem and Ramdas Pophale) SiO2 
 PCOD9398892
Probable space group: P M M A
;
_chemical_formula_sum "Si O2"
_cell_formula_units_Z 64
_cell_length_a 18.475564
_cell_length_b 9.172572
_cell_length_c 22.223402
_cell_angle_alpha 90.000000
_cell_angle_beta 90.000000
_cell_angle_gamma 90.000000
_cell_volume 3766.165291
_symmetry_space_group_name_H-M "P M M A"
_symmetry_group_IT_number 51
_symmetry_cell_setting 'orthorhombic'
loop_
_space_group_symop_operation_xyz
x,y,z
1/2-x,-y,z
1/2+x,-y,-z
-x,y,-z
-x,-y,-z
1/2+x,y,-z
1/2-x,y,z
x,-y,z
loop_
_atom_site_type_symbol
_atom_site_label
_atom_site_fract_x
_atom_site_fract_y
_atom_site_fract_z
Si Si1 0.976688 0.175484 0.933724
Si Si2 0.095238 0.828103 0.616269
Si Si3 0.168676 0.174760 0.133072
Si Si4 0.334404 0.325983 0.729799
Si Si5 0.045608 0.328390 0.822455
Si Si6 0.578666 0.172418 0.628570
Si Si7 0.895308 0.327937 0.752174
Si Si8 0.087832 0.668036 0.494049
O O1 0.894973 0.216638 0.913418
O O2 0.028165 0.239864 0.882286
O O3 0.980769 0.000000 0.932605
O O4 0.000000 0.225271 0.000000
O O5 0.137939 0.757015 0.671108
O O6 0.114426 0.749649 0.553677
O O7 0.008964 0.808808 0.628115
O O8 0.108980 0.000000 0.611843
O O9 0.250000 0.207282 0.112003
O O10 0.153235 0.254861 0.196098
O O11 0.163090 0.000000 0.142577
O O12 0.250000 0.300322 0.739984
O O13 0.345918 0.500000 0.720939
O O14 0.383235 0.281823 0.786582
O O15 0.050613 0.500000 0.836968
O O16 0.977383 0.310643 0.777350
O O17 0.609238 0.248582 0.688209
O O18 0.605866 0.248142 0.567404
O O19 0.593573 0.000000 0.628412
O O20 0.880467 0.500000 0.746544
O O21 0.111286 0.500000 0.492110
O O22 0.000000 0.668798 0.500000
#
# Coordination Sequence:
#
# PCOD9398892 Si02
#       8
#     8   8   8   8   8   8   8   8
#     4   9  18  33  54  79 105 135 171 208 247 295
#     4  10  19  30  46  68  97 129 166 215 262 308
#     4   9  18  33  52  74 103 137 170 205 250 303
#     4  10  20  34  51  70  97 135 176 216 260 310
#     4   9  18  32  50  73 100 130 167 209 251 296
#     4  10  18  28  45  71 100 129 164 208 259 309
#     4  10  18  29  49  74 100 130 166 209 254 300
#     4   9  17  28  44  66  94 127 163 206 255 306
#
# _framework density 16.993411999999999
#
# number of rings (size 3 to 8) (size 9 to 14) (size 15 to 20)
#    0.000    2.500    1.250    1.500    0.000    4.250 
#    0.000    0.625    0.000    1.500    0.000    0.000 
#    0.000    0.000    0.000    0.000    0.000    0.000 
#
# Total GULP energy -356916.329504 kJ/mol
# GULP energy per Si atom -5576.817649 kJ/mol
# Density = 1.695473 g / cm^3
# Si number density = 16.993412 Si / 1000 Ang^3
#
#
#
# Elastic Constant Matrix: (Units=GPa)
#
#
# Indices 1 2 3 4 5 6 
#
# 1 74.6058 42.3961 59.4394 0.0000 0.0000 0.0000
# 2 42.3961 60.7700 65.9274 0.0000 0.0000 0.0000
# 3 59.4394 65.9274 164.9688 0.0000 0.0000 0.0000
# 4 0.0000 0.0000 0.0000 28.7164 0.0000 0.0000
# 5 0.0000 0.0000 0.0000 0.0000 14.6953 0.0000
# 6 0.0000 0.0000 0.0000 0.0000 0.0000 16.4225
#
#
#
# Elastic Compliance Matrix: (Units=1/GPa)
#
#
# Indices 1 2 3 4 5 6 
#
# 1 0.023205 -0.012567 -0.003339 0.000000 0.000000 0.000000
# 2 -0.012567 0.035856 -0.009801 0.000000 0.000000 0.000000
# 3 -0.003339 -0.009801 0.011182 0.000000 0.000000 0.000000
# 4 0.000000 0.000000 0.000000 0.034823 0.000000 0.000000
# 5 0.000000 0.000000 0.000000 0.000000 0.068049 0.000000
# 6 0.000000 0.000000 0.000000 0.000000 0.000000 0.060892
#
#
# Mechanical properties :
#
#
# Convention : Reuss Voigt Hill
#
# Bulk Modulus (GPa) = 53.11036 70.65226 61.88131
# Shear Modulus (GPa) = 17.14104 20.80563 18.97333
#
# Velocity S-wave (km/s) = 3.17943 3.50285 3.34505
# Velocity P-wave (km/s) = 6.69326 7.61751 7.17029
#
# Compressibility (1/GPa) = 0.01882872
#
# Stress axis : x y z
#
# Youngs Moduli (GPa) = 43.09375 27.88933 89.43154
#
# Poissons Ratio (x) = 0.35048 0.29859
# Poissons Ratio (y) = 0.54156 0.87655
# Poissons Ratio (z) = 0.14388 0.27335
#
# Static dielectric constant tensor:
#      x y z
#    x 1.575140 0.000000 0.000000 
#    y 0.000000 1.565400 0.000000 
#    z 0.000000 0.000000 1.544200 
# 
# From -- ./inp_files/33833.got.cif
#   From: 2010.05.17/outbox.cif.g08.bks.cpg/sg51_17_cif.got.tgz:33833.got - 2010.06.03 11:52:47.
