data_PCOD9398399
_publ_section_title
;
Structure prediction by ZEFSAII (Michael W. Deem and Ramdas Pophale) SiO2 
 PCOD9398399
Probable space group: P M M A
;
_chemical_formula_sum "Si O2"
_cell_formula_units_Z 48
_cell_length_a 20.048774
_cell_length_b 11.915707
_cell_length_c 13.239871
_cell_angle_alpha 90.000000
_cell_angle_beta 90.000000
_cell_angle_gamma 90.000000
_cell_volume 3162.943176
_symmetry_space_group_name_H-M "P M M A"
_symmetry_group_IT_number 51
_symmetry_cell_setting 'orthorhombic'
loop_
_space_group_symop_operation_xyz
x,y,z
1/2-x,-y,z
1/2+x,-y,-z
-x,y,-z
-x,-y,-z
1/2+x,y,-z
1/2-x,y,z
x,-y,z
loop_
_atom_site_type_symbol
_atom_site_label
_atom_site_fract_x
_atom_site_fract_y
_atom_site_fract_z
Si Si1 0.048567 0.000000 0.403008
Si Si2 0.040411 0.633847 0.602855
Si Si3 0.174796 0.764924 0.649089
Si Si4 0.926902 0.868181 0.948769
Si Si5 0.484370 0.804820 0.248319
Si Si6 0.872026 0.868240 0.157168
Si Si7 0.326044 0.000000 0.535223
O O1 0.036441 0.108456 0.334683
O O2 0.000000 0.000000 0.500000
O O3 0.122672 0.000000 0.445007
O O4 0.044367 0.500000 0.609532
O O5 0.114616 0.687481 0.609623
O O6 0.000000 0.662959 0.500000
O O7 0.001240 0.688580 0.697146
O O8 0.250000 0.727177 0.623604
O O9 0.169551 0.788350 0.769276
O O10 0.163544 0.888320 0.601182
O O11 0.931991 0.802437 0.843694
O O12 0.916896 0.000000 0.924887
O O13 0.876308 0.836920 0.038755
O O14 0.000000 0.858750 0.000000
O O15 0.553036 0.854690 0.201776
O O16 0.852787 0.000000 0.164228
O O17 0.250000 0.000000 0.500379
#
# Coordination Sequence:
#
# PCOD9398399 Si02
#       7
#     4   8   8   8   8   8   4
#     4  12  18  24  44  69  88 117 154 192 232 281
#     4  10  21  34  47  66  93 125 163 207 243 275
#     4  10  19  31  48  69  94 123 153 192 240 292
#     4   8  13  22  38  64  93 117 143 173 217 272
#     4  10  16  26  43  67  90 117 154 190 230 280
#     4   9  14  24  42  67  97 118 143 182 222 277
#     4  10  20  30  41  65  95 117 140 180 234 285
#
# _framework density 15.175739999999999
#
# number of rings (size 3 to 8) (size 9 to 14) (size 15 to 20)
#    0.000    2.333    2.500    4.500    0.000    0.333 
#    0.000    0.000    0.000   13.500    0.000    0.000 
#    0.000    0.000    0.000    1.667    0.000    0.000 
#
# Total GULP energy -267228.980488 kJ/mol
# GULP energy per Si atom -5567.270427 kJ/mol
# Density = 1.514120 g / cm^3
# Si number density = 15.175740 Si / 1000 Ang^3
#
#
#
# Elastic Constant Matrix: (Units=GPa)
#
#
# Indices 1 2 3 4 5 6 
#
# 1 61.4424 36.9244 46.7698 0.0000 0.0000 0.0000
# 2 36.9244 65.0759 40.9415 0.0000 0.0000 0.0000
# 3 46.7698 40.9415 107.8028 0.0000 0.0000 0.0000
# 4 0.0000 0.0000 0.0000 18.2509 0.0000 0.0000
# 5 0.0000 0.0000 0.0000 0.0000 18.1594 0.0000
# 6 0.0000 0.0000 0.0000 0.0000 0.0000 14.3731
#
#
#
# Elastic Compliance Matrix: (Units=1/GPa)
#
#
# Indices 1 2 3 4 5 6 
#
# 1 0.029640 -0.011468 -0.008504 0.000000 0.000000 0.000000
# 2 -0.011468 0.024628 -0.004378 0.000000 0.000000 0.000000
# 3 -0.008504 -0.004378 0.014628 0.000000 0.000000 0.000000
# 4 0.000000 0.000000 0.000000 0.054792 0.000000 0.000000
# 5 0.000000 0.000000 0.000000 0.000000 0.055068 0.000000
# 6 0.000000 0.000000 0.000000 0.000000 0.000000 0.069575
#
#
# Mechanical properties :
#
#
# Convention : Reuss Voigt Hill
#
# Bulk Modulus (GPa) = 49.51269 53.73248 51.62258
# Shear Modulus (GPa) = 16.46021 17.46905 16.96463
#
# Velocity S-wave (km/s) = 3.29696 3.39649 3.34710
# Velocity P-wave (km/s) = 6.86952 7.13199 7.00198
#
# Compressibility (1/GPa) = 0.02019684
#
# Stress axis : x y z
#
# Youngs Moduli (GPa) = 33.73774 40.60430 68.36067
#
# Poissons Ratio (x) = 0.46565 0.58134
# Poissons Ratio (y) = 0.38690 0.29928
# Poissons Ratio (z) = 0.28691 0.17776
#
# Static dielectric constant tensor:
#      x y z
#    x 1.534850 0.000000 0.000000 
#    y 0.000000 1.484010 0.000000 
#    z 0.000000 0.000000 1.538880 
# 
# From -- ./inp_files/18729.got.cif
#   From: 2010.05.17/outbox.cif.g08.bks.cpg/sg51_10_cif.got.tgz:18729.got - 2010.06.03 11:52:47.
