data_PCOD9398956
_publ_section_title
;
Structure prediction by ZEFSAII (Michael W. Deem and Ramdas Pophale) SiO2 
 PCOD9398956
Probable space group: P M M A
;
_chemical_formula_sum "Si O2"
_cell_formula_units_Z 64
_cell_length_a 22.815148
_cell_length_b 7.683571
_cell_length_c 19.462630
_cell_angle_alpha 90.000000
_cell_angle_beta 90.000000
_cell_angle_gamma 90.000000
_cell_volume 3411.834257
_symmetry_space_group_name_H-M "P M M A"
_symmetry_group_IT_number 51
_symmetry_cell_setting 'orthorhombic'
loop_
_space_group_symop_operation_xyz
x,y,z
1/2-x,-y,z
1/2+x,-y,-z
-x,y,-z
-x,-y,-z
1/2+x,y,-z
1/2-x,y,z
x,-y,z
loop_
_atom_site_type_symbol
_atom_site_label
_atom_site_fract_x
_atom_site_fract_y
_atom_site_fract_z
Si Si1 0.504253 0.296154 0.170695
Si Si2 0.496772 0.288947 0.327744
Si Si3 0.119767 0.797904 0.912689
Si Si4 0.625418 0.297545 0.351923
Si Si5 0.184764 0.201498 0.517028
Si Si6 0.940191 0.794611 0.536183
Si Si7 0.184591 0.211333 0.785488
Si Si8 0.940880 0.210342 0.958529
O O1 0.519029 0.500000 0.175117
O O2 0.492618 0.232339 0.248112
O O3 0.559254 0.208281 0.131885
O O4 0.449582 0.274843 0.118662
O O5 0.497025 0.500000 0.327567
O O6 0.559506 0.227765 0.357780
O O7 0.448988 0.228267 0.382287
O O8 0.167003 0.722628 0.860718
O O9 0.134643 0.000000 0.923269
O O10 0.108644 0.724391 0.988670
O O11 0.625794 0.500000 0.370418
O O12 0.671755 0.206919 0.401358
O O13 0.641684 0.279005 0.272586
O O14 0.250000 0.276752 0.503259
O O15 0.123568 0.277409 0.486650
O O16 0.187047 0.000000 0.494770
O O17 0.000000 0.721804 0.500000
O O18 0.938915 0.000000 0.519169
O O19 0.250000 0.263038 0.767259
O O20 0.180995 0.000000 0.785589
O O21 0.938563 0.000000 0.955817
O O22 0.000000 0.258777 0.000000
#
# Coordination Sequence:
#
# PCOD9398956 Si02
#       8
#     8   8   8   8   8   8   8   8
#     4  10  18  29  44  66  93 120 152 187 231 282
#     4  10  21  33  47  70 100 131 159 196 243 286
#     4   9  17  29  44  62  89 122 155 193 234 276
#     4  11  21  33  48  69  98 131 166 200 236 283
#     4  10  21  37  54  73  98 126 159 203 248 289
#     4  10  20  34  53  75  95 123 164 200 237 293
#     4  10  20  32  46  65  91 128 169 203 237 279
#     4   8  15  27  42  63  88 116 149 185 226 271
#
# _framework density 18.758239
#
# number of rings (size 3 to 8) (size 9 to 14) (size 15 to 20)
#    0.000    2.250    2.500    1.875    0.000    6.500 
#    0.000    0.000    0.000    0.000    0.000    0.875 
#    0.000    5.000    0.000    0.000    0.000    0.000 
#
# Total GULP energy -356560.959442 kJ/mol
# GULP energy per Si atom -5571.264991 kJ/mol
# Density = 1.871554 g / cm^3
# Si number density = 18.758239 Si / 1000 Ang^3
#
#
#
# Elastic Constant Matrix: (Units=GPa)
#
#
# Indices 1 2 3 4 5 6 
#
# 1 92.3792 4.8953 39.1929 0.0000 0.0000 0.0000
# 2 4.8953 34.0218 -3.4711 0.0000 0.0000 0.0000
# 3 39.1929 -3.4711 86.4844 0.0000 0.0000 0.0000
# 4 0.0000 0.0000 0.0000 27.5883 0.0000 0.0000
# 5 0.0000 0.0000 0.0000 0.0000 24.6108 0.0000
# 6 0.0000 0.0000 0.0000 0.0000 0.0000 3.2775
#
#
#
# Elastic Compliance Matrix: (Units=1/GPa)
#
#
# Indices 1 2 3 4 5 6 
#
# 1 0.013627 -0.002601 -0.006280 0.000000 0.000000 0.000000
# 2 -0.002601 0.030010 0.002383 0.000000 0.000000 0.000000
# 3 -0.006280 0.002383 0.014504 0.000000 0.000000 0.000000
# 4 0.000000 0.000000 0.000000 0.036247 0.000000 0.000000
# 5 0.000000 0.000000 0.000000 0.000000 0.040632 0.000000
# 6 0.000000 0.000000 0.000000 0.000000 0.000000 0.305115
#
#
# Mechanical properties :
#
#
# Convention : Reuss Voigt Hill
#
# Bulk Modulus (GPa) = 22.15038 32.67994 27.41516
# Shear Modulus (GPa) = 10.67963 22.57988 16.62975
#
# Velocity S-wave (km/s) = 2.38865 3.47325 2.98070
# Velocity P-wave (km/s) = 4.40925 5.79172 5.14712
#
# Compressibility (1/GPa) = 0.04514594
#
# Stress axis : x y z
#
# Youngs Moduli (GPa) = 73.38304 33.32177 68.94478
#
# Poissons Ratio (x) = 0.08669 0.43297
# Poissons Ratio (y) = 0.19090 -0.16432
# Poissons Ratio (z) = 0.46084 -0.07942
#
# Static dielectric constant tensor:
#      x y z
#    x 1.683030 0.000000 0.000000 
#    y 0.000000 1.697630 0.000000 
#    z 0.000000 0.000000 1.678710 
# 
# From -- ./inp_files/30865.got.cif
#   From: 2010.05.17/outbox.cif.g08.bks.cpg/sg51_16_cif.got.tgz:30865.got - 2010.06.03 11:52:47.
