data_PCOD9398481
_publ_section_title
;
Structure prediction by ZEFSAII (Michael W. Deem and Ramdas Pophale) SiO2 
 PCOD9398481
Probable space group: P M M A
;
_chemical_formula_sum "Si O2"
_cell_formula_units_Z 64
_cell_length_a 7.479847
_cell_length_b 19.528970
_cell_length_c 22.201835
_cell_angle_alpha 90.000000
_cell_angle_beta 90.000000
_cell_angle_gamma 90.000000
_cell_volume 3243.104355
_symmetry_space_group_name_H-M "P M M A"
_symmetry_group_IT_number 51
_symmetry_cell_setting 'orthorhombic'
loop_
_space_group_symop_operation_xyz
x,y,z
1/2-x,-y,z
1/2+x,-y,-z
-x,y,-z
-x,-y,-z
1/2+x,y,-z
1/2-x,y,z
x,-y,z
loop_
_atom_site_type_symbol
_atom_site_label
_atom_site_fract_x
_atom_site_fract_y
_atom_site_fract_z
Si Si1 0.968135 0.925524 0.192279
Si Si2 0.530888 0.778157 0.236602
Si Si3 0.464806 0.576213 0.237951
Si Si4 0.536463 0.574198 0.901627
Si Si5 0.036776 0.275185 0.893283
Si Si6 0.036848 0.129109 0.934306
Si Si7 0.535421 0.576597 0.429374
Si Si8 0.450801 0.683666 0.664430
O O1 0.750000 0.925678 0.193321
O O2 0.022533 0.856713 0.226653
O O3 0.026183 0.913573 0.123054
O O4 0.027773 0.000000 0.213954
O O5 0.750000 0.775177 0.237544
O O6 0.473454 0.735413 0.176544
O O7 0.465871 0.747371 0.299863
O O8 0.250000 0.586833 0.239214
O O9 0.501453 0.500000 0.260771
O O10 0.522176 0.577910 0.168369
O O11 0.556733 0.629931 0.280468
O O12 0.750000 0.569274 0.902673
O O13 0.468686 0.500000 0.926084
O O14 0.498814 0.651172 0.923357
O O15 0.250000 0.270494 0.890214
O O16 0.968941 0.207645 0.927829
O O17 0.250000 0.132353 0.928263
O O18 0.000000 0.100854 0.000000
O O19 0.500000 0.586838 0.500000
O O20 0.750000 0.575420 0.420177
O O21 0.467818 0.500000 0.413531
O O22 0.464253 0.639048 0.388971
O O23 0.250000 0.703283 0.645021
#
# Coordination Sequence:
#
# PCOD9398481 Si02
#       8
#     8   8   8   8   8   8   8   8
#     4   8  14  26  44  65  91 119 139 160 199 251
#     4   8  14  24  39  61  85 107 134 169 208 247
#     4   9  17  26  35  53  82 110 134 163 203 250
#     4   9  17  27  38  56  82 107 132 165 207 253
#     4   9  16  28  43  59  81 108 137 171 210 253
#     4   9  18  30  45  66  88 110 142 176 204 241
#     4   9  18  30  41  55  78 111 149 183 215 250
#     4  10  17  26  42  61  81 106 141 182 214 245
#
# _framework density 19.734179999999999
#
# number of rings (size 3 to 8) (size 9 to 14) (size 15 to 20)
#    0.000    3.125    1.250    2.625    0.000    2.250 
#    0.000    2.500    0.000    0.375    0.000    0.000 
#    0.000    0.500    0.000    0.375    0.000    0.750 
#
# Total GULP energy -356559.708055 kJ/mol
# GULP energy per Si atom -5571.245438 kJ/mol
# Density = 1.968926 g / cm^3
# Si number density = 19.734180 Si / 1000 Ang^3
#
#
#
# Elastic Constant Matrix: (Units=GPa)
#
#
# Indices 1 2 3 4 5 6 
#
# 1 53.6558 3.9740 -3.3189 0.0000 0.0000 0.0000
# 2 3.9740 142.3214 38.5814 0.0000 0.0000 0.0000
# 3 -3.3189 38.5814 81.0808 0.0000 0.0000 0.0000
# 4 0.0000 0.0000 0.0000 8.1532 0.0000 0.0000
# 5 0.0000 0.0000 0.0000 0.0000 8.2322 0.0000
# 6 0.0000 0.0000 0.0000 0.0000 0.0000 22.8144
#
#
#
# Elastic Compliance Matrix: (Units=1/GPa)
#
#
# Indices 1 2 3 4 5 6 
#
# 1 0.018772 -0.000841 0.001169 0.000000 0.000000 0.000000
# 2 -0.000841 0.008105 -0.003891 0.000000 0.000000 0.000000
# 3 0.001169 -0.003891 0.014233 0.000000 0.000000 0.000000
# 4 0.000000 0.000000 0.000000 0.122651 0.000000 0.000000
# 5 0.000000 0.000000 0.000000 0.000000 0.121474 0.000000
# 6 0.000000 0.000000 0.000000 0.000000 0.000000 0.043832
#
#
# Mechanical properties :
#
#
# Convention : Reuss Voigt Hill
#
# Bulk Modulus (GPa) = 29.42687 39.50344 34.46516
# Shear Modulus (GPa) = 14.38767 23.69474 19.04120
#
# Velocity S-wave (km/s) = 2.70307 3.46886 3.10963
# Velocity P-wave (km/s) = 4.96851 6.00877 5.51323
#
# Compressibility (1/GPa) = 0.03398255
#
# Stress axis : x y z
#
# Youngs Moduli (GPa) = 53.27115 123.38670 70.26097
#
# Poissons Ratio (x) = 0.10376 -0.08210
# Poissons Ratio (y) = 0.04480 0.27338
# Poissons Ratio (z) = -0.06225 0.48009
#
# Static dielectric constant tensor:
#      x y z
#    x 1.800770 0.000000 0.000000 
#    y 0.000000 1.767890 0.000000 
#    z 0.000000 0.000000 1.693510 
# 
# From -- ./inp_files/33153.got.cif
#   From: 2010.05.17/outbox.cif.g08.bks.cpg/sg51_17_cif.got.tgz:33153.got - 2010.06.03 11:52:47.
