data_PCOD9398729
_publ_section_title
;
Structure prediction by ZEFSAII (Michael W. Deem and Ramdas Pophale) SiO2 
 PCOD9398729
Probable space group: P M M A
;
_chemical_formula_sum "Si O2"
_cell_formula_units_Z 48
_cell_length_a 8.788178
_cell_length_b 24.989434
_cell_length_c 13.812633
_cell_angle_alpha 90.000000
_cell_angle_beta 90.000000
_cell_angle_gamma 90.000000
_cell_volume 3033.414352
_symmetry_space_group_name_H-M "P M M A"
_symmetry_group_IT_number 51
_symmetry_cell_setting 'orthorhombic'
loop_
_space_group_symop_operation_xyz
x,y,z
1/2-x,-y,z
1/2+x,-y,-z
-x,y,-z
-x,-y,-z
1/2+x,y,-z
1/2-x,y,z
x,-y,z
loop_
_atom_site_type_symbol
_atom_site_label
_atom_site_fract_x
_atom_site_fract_y
_atom_site_fract_z
Si Si1 0.066943 0.560661 0.196290
Si Si2 0.432489 0.280583 0.698068
Si Si3 0.066662 0.942498 0.391517
Si Si4 0.566812 0.174973 0.608797
Si Si5 0.568757 0.336012 0.101546
Si Si6 0.431830 0.615369 0.398376
O O1 0.250000 0.563849 0.186124
O O2 0.018584 0.500000 0.176491
O O3 0.030679 0.577333 0.307199
O O4 0.992309 0.604999 0.128275
O O5 0.250000 0.280260 0.688743
O O6 0.499844 0.223520 0.669949
O O7 0.473151 0.298703 0.807163
O O8 0.499958 0.326575 0.628483
O O9 0.250000 0.942517 0.397304
O O10 0.024000 0.884215 0.350675
O O11 0.000000 0.942694 0.500000
O O12 0.020358 0.000000 0.346340
O O13 0.500000 0.178900 0.500000
O O14 0.750000 0.178964 0.604293
O O15 0.750000 0.337610 0.094909
O O16 0.500000 0.318137 0.000000
O O17 0.500000 0.596785 0.500000
O O18 0.250000 0.619231 0.405570
#
# Coordination Sequence:
#
# PCOD9398729 Si02
#       6
#     8   8   8   8   8   8
#     4   9  19  35  52  70  92 117 146 179 214 257
#     4  10  20  33  47  65  89 115 147 184 220 262
#     4   8  14  24  37  55  82 117 155 189 218 250
#     4  10  18  27  42  64  91 124 157 188 221 255
#     4  10  21  36  54  72  89 112 140 176 223 270
#     4  10  19  31  47  66  90 120 151 182 217 256
#
# _framework density 15.823753999999999
#
# number of rings (size 3 to 8) (size 9 to 14) (size 15 to 20)
#    0.000    2.500    0.000    2.500    0.000    4.333 
#    0.000    0.000    0.000    0.000    0.000    0.000 
#    0.000    0.667    0.000    1.500    0.000    2.667 
#
# Total GULP energy -267523.025612 kJ/mol
# GULP energy per Si atom -5573.396367 kJ/mol
# Density = 1.578774 g / cm^3
# Si number density = 15.823754 Si / 1000 Ang^3
#
#
#
# Elastic Constant Matrix: (Units=GPa)
#
#
# Indices 1 2 3 4 5 6 
#
# 1 30.9883 23.6029 20.0866 0.0000 0.0000 0.0000
# 2 23.6029 118.1875 17.3199 0.0000 0.0000 0.0000
# 3 20.0866 17.3199 57.3812 0.0000 0.0000 0.0000
# 4 0.0000 0.0000 0.0000 8.9661 0.0000 0.0000
# 5 0.0000 0.0000 0.0000 0.0000 24.4607 0.0000
# 6 0.0000 0.0000 0.0000 0.0000 0.0000 13.7927
#
#
#
# Elastic Compliance Matrix: (Units=1/GPa)
#
#
# Indices 1 2 3 4 5 6 
#
# 1 0.047096 -0.007313 -0.014279 0.000000 0.000000 0.000000
# 2 -0.007313 0.009988 -0.000455 0.000000 0.000000 0.000000
# 3 -0.014279 -0.000455 0.022563 0.000000 0.000000 0.000000
# 4 0.000000 0.000000 0.000000 0.111531 0.000000 0.000000
# 5 0.000000 0.000000 0.000000 0.000000 0.040882 0.000000
# 6 0.000000 0.000000 0.000000 0.000000 0.000000 0.072502
#
#
# Mechanical properties :
#
#
# Convention : Reuss Voigt Hill
#
# Bulk Modulus (GPa) = 28.12640 36.50842 32.31741
# Shear Modulus (GPa) = 13.86936 19.14707 16.50822
#
# Velocity S-wave (km/s) = 2.96377 3.48231 3.23345
# Velocity P-wave (km/s) = 5.43372 6.26822 5.86583
#
# Compressibility (1/GPa) = 0.03555379
#
# Stress axis : x y z
#
# Youngs Moduli (GPa) = 21.23330 100.11770 44.32035
#
# Poissons Ratio (x) = 0.73215 0.63284
# Poissons Ratio (y) = 0.15528 0.02016
# Poissons Ratio (z) = 0.30319 0.04555
#
# Static dielectric constant tensor:
#      x y z
#    x 1.527640 0.000000 0.000000 
#    y 0.000000 1.555730 0.000000 
#    z 0.000000 0.000000 1.509720 
# 
# From -- ./inp_files/14398.got.cif
#   From: 2010.05.17/outbox.cif.g08.bks.cpg/sg51_8_cif.got.tgz:14398.got - 2010.06.03 11:52:47.
