data_PCOD9398459
_publ_section_title
;
Structure prediction by ZEFSAII (Michael W. Deem and Ramdas Pophale) SiO2 
 PCOD9398459
Probable space group: P M M A
;
_chemical_formula_sum "Si O2"
_cell_formula_units_Z 48
_cell_length_a 20.735996
_cell_length_b 8.480189
_cell_length_c 15.904148
_cell_angle_alpha 90.000000
_cell_angle_beta 90.000000
_cell_angle_gamma 90.000000
_cell_volume 2796.667532
_symmetry_space_group_name_H-M "P M M A"
_symmetry_group_IT_number 51
_symmetry_cell_setting 'orthorhombic'
loop_
_space_group_symop_operation_xyz
x,y,z
1/2-x,-y,z
1/2+x,-y,-z
-x,y,-z
-x,-y,-z
1/2+x,y,-z
1/2-x,y,z
x,-y,z
loop_
_atom_site_type_symbol
_atom_site_label
_atom_site_fract_x
_atom_site_fract_y
_atom_site_fract_z
Si Si1 0.605362 0.690324 0.749963
Si Si2 0.413719 0.313536 0.067199
Si Si3 0.056315 0.185324 0.898552
Si Si4 0.068118 0.809234 0.541862
Si Si5 0.544244 0.311494 0.275569
Si Si6 0.177209 0.190220 0.411348
O O1 0.606965 0.500000 0.748152
O O2 0.620113 0.739465 0.846216
O O3 0.531578 0.738611 0.727802
O O4 0.652178 0.756527 0.679593
O O5 0.404640 0.500000 0.056778
O O6 0.489259 0.279345 0.087138
O O7 0.400096 0.229288 0.978853
O O8 0.078248 0.235960 0.805936
O O9 0.042461 0.000000 0.900544
O O10 0.071915 0.742606 0.635582
O O11 0.126154 0.755962 0.481626
O O12 0.000000 0.761249 0.500000
O O13 0.068598 0.000000 0.546179
O O14 0.546319 0.500000 0.268032
O O15 0.250000 0.245498 0.426800
O O16 0.176973 0.000000 0.413131
#
# Coordination Sequence:
#
# PCOD9398459 Si02
#       6
#     8   8   8   8   8   8
#     4   9  18  30  46  68  94 127 162 198 239 289
#     4   9  16  27  41  62  94 128 159 194 237 282
#     4  10  17  25  40  65  95 127 160 195 237 286
#     4  10  19  32  50  72  95 126 165 207 248 295
#     4  10  19  30  46  69  97 128 162 202 248 292
#     4  10  21  35  50  70  98 129 162 203 250 295
#
# _framework density 17.163284000000001
#
# number of rings (size 3 to 8) (size 9 to 14) (size 15 to 20)
#    0.000    2.333    1.667    4.500    0.000    4.667 
#    0.000    0.000    0.000    0.000    0.000    1.167 
#    0.000    6.667    0.000    0.000    0.000    0.000 
#
# Total GULP energy -267501.132290 kJ/mol
# GULP energy per Si atom -5572.940256 kJ/mol
# Density = 1.712422 g / cm^3
# Si number density = 17.163284 Si / 1000 Ang^3
#
#
#
# Elastic Constant Matrix: (Units=GPa)
#
#
# Indices 1 2 3 4 5 6 
#
# 1 70.2921 12.4477 55.7652 0.0000 0.0000 0.0000
# 2 12.4477 13.4689 22.7422 0.0000 0.0000 0.0000
# 3 55.7652 22.7422 182.5037 0.0000 0.0000 0.0000
# 4 0.0000 0.0000 0.0000 32.4022 0.0000 0.0000
# 5 0.0000 0.0000 0.0000 0.0000 13.1018 0.0000
# 6 0.0000 0.0000 0.0000 0.0000 0.0000 9.9127
#
#
#
# Elastic Compliance Matrix: (Units=1/GPa)
#
#
# Indices 1 2 3 4 5 6 
#
# 1 0.019837 -0.010257 -0.004783 0.000000 0.000000 0.000000
# 2 -0.010257 0.099333 -0.009244 0.000000 0.000000 0.000000
# 3 -0.004783 -0.009244 0.008093 0.000000 0.000000 0.000000
# 4 0.000000 0.000000 0.000000 0.030862 0.000000 0.000000
# 5 0.000000 0.000000 0.000000 0.000000 0.076326 0.000000
# 6 0.000000 0.000000 0.000000 0.000000 0.000000 0.100881
#
#
# Mechanical properties :
#
#
# Convention : Reuss Voigt Hill
#
# Bulk Modulus (GPa) = 12.70729 49.79720 31.25224
# Shear Modulus (GPa) = 12.19121 22.77065 17.48093
#
# Velocity S-wave (km/s) = 2.66805 3.64635 3.19487
# Velocity P-wave (km/s) = 4.11232 6.84139 5.64428
#
# Compressibility (1/GPa) = 0.07869496
#
# Stress axis : x y z
#
# Youngs Moduli (GPa) = 50.40971 10.06716 123.56574
#
# Poissons Ratio (x) = 0.10326 0.59106
# Poissons Ratio (y) = 0.51703 1.14225
# Poissons Ratio (z) = 0.24113 0.09306
#
# Static dielectric constant tensor:
#      x y z
#    x 1.564920 0.000000 0.000000 
#    y 0.000000 1.582480 0.000000 
#    z 0.000000 0.000000 1.627600 
# 
# From -- ./inp_files/25489.got.cif
#   From: 2010.05.17/outbox.cif.g08.bks.cpg/sg51_13_cif.got.tgz:25489.got - 2010.06.03 11:52:47.
