data_PCOD9398740
_publ_section_title
;
Structure prediction by ZEFSAII (Michael W. Deem and Ramdas Pophale) SiO2 
 PCOD9398740
Probable space group: P M M A
;
_chemical_formula_sum "Si O2"
_cell_formula_units_Z 64
_cell_length_a 14.538453
_cell_length_b 7.543088
_cell_length_c 32.948078
_cell_angle_alpha 90.000000
_cell_angle_beta 90.000000
_cell_angle_gamma 90.000000
_cell_volume 3613.245385
_symmetry_space_group_name_H-M "P M M A"
_symmetry_group_IT_number 51
_symmetry_cell_setting 'orthorhombic'
loop_
_space_group_symop_operation_xyz
x,y,z
1/2-x,-y,z
1/2+x,-y,-z
-x,y,-z
-x,-y,-z
1/2+x,y,-z
1/2-x,y,z
x,-y,z
loop_
_atom_site_type_symbol
_atom_site_label
_atom_site_fract_x
_atom_site_fract_y
_atom_site_fract_z
Si Si1 0.962891 0.287951 0.061078
Si Si2 0.355817 0.290247 0.533558
Si Si3 0.854640 0.787410 0.142010
Si Si4 0.854472 0.283244 0.981298
Si Si5 0.861729 0.204467 0.229936
Si Si6 0.145363 0.214132 0.441894
Si Si7 0.980528 0.203385 0.391962
Si Si8 0.356280 0.218109 0.680962
O O1 0.965677 0.500000 0.057436
O O2 0.922033 0.247078 0.104860
O O3 0.066210 0.225949 0.050353
O O4 0.893607 0.227022 0.025396
O O5 0.250000 0.227236 0.535751
O O6 0.357316 0.500000 0.541120
O O7 0.387159 0.259510 0.487381
O O8 0.416160 0.203523 0.568270
O O9 0.750000 0.723044 0.133505
O O10 0.887013 0.717225 0.186103
O O11 0.848359 0.000000 0.146433
O O12 0.750000 0.222931 0.974385
O O13 0.852169 0.500000 0.980948
O O14 0.750000 0.202555 0.229565
O O15 0.885990 0.279677 0.274030
O O16 0.893687 0.000000 0.230407
O O17 0.250000 0.278037 0.437589
O O18 0.075702 0.283761 0.407980
O O19 0.146130 0.000000 0.439609
O O20 0.923308 0.280746 0.354608
O O21 0.000094 0.000000 0.380342
O O22 0.250000 0.270404 0.673561
O O23 0.355673 0.000000 0.681313
#
# Coordination Sequence:
#
# PCOD9398740 Si02
#       8
#     8   8   8   8   8   8   8   8
#     4   9  16  25  40  60  77  99 134 169 197 228
#     4  10  20  31  42  58  81 107 131 155 187 229
#     4   9  16  25  38  57  81 107 132 159 193 231
#     4   8  14  25  39  55  78 106 133 162 197 235
#     4   7  11  21  36  54  77 103 127 151 184 229
#     4   9  18  31  43  56  78 105 131 162 196 224
#     4  10  18  27  43  64  80  99 130 163 193 224
#     4   8  13  22  38  60  81  98 122 156 188 226
#
# _framework density 17.712607999999999
#
# number of rings (size 3 to 8) (size 9 to 14) (size 15 to 20)
#    0.000    3.250    0.000    3.750    0.000    4.000 
#    0.000    1.250    0.000    1.875    0.000    2.625 
#    0.000    3.000    0.000    0.000    0.000    0.000 
#
# Total GULP energy -356506.549425 kJ/mol
# GULP energy per Si atom -5570.414835 kJ/mol
# Density = 1.767229 g / cm^3
# Si number density = 17.712608 Si / 1000 Ang^3
#
#
#
# Elastic Constant Matrix: (Units=GPa)
#
#
# Indices 1 2 3 4 5 6 
#
# 1 109.6405 3.2137 84.2609 0.0000 0.0000 0.0000
# 2 3.2137 43.3287 -0.0005 0.0000 0.0000 0.0000
# 3 84.2609 -0.0005 162.5509 0.0000 0.0000 0.0000
# 4 0.0000 0.0000 0.0000 24.3989 0.0000 0.0000
# 5 0.0000 0.0000 0.0000 0.0000 28.7783 0.0000
# 6 0.0000 0.0000 0.0000 0.0000 0.0000 3.1931
#
#
#
# Elastic Compliance Matrix: (Units=1/GPa)
#
#
# Indices 1 2 3 4 5 6 
#
# 1 0.015215 -0.001129 -0.007887 0.000000 0.000000 0.000000
# 2 -0.001129 0.023163 0.000585 0.000000 0.000000 0.000000
# 3 -0.007887 0.000585 0.010240 0.000000 0.000000 0.000000
# 4 0.000000 0.000000 0.000000 0.040985 0.000000 0.000000
# 5 0.000000 0.000000 0.000000 0.000000 0.034748 0.000000
# 6 0.000000 0.000000 0.000000 0.000000 0.000000 0.313176
#
#
# Mechanical properties :
#
#
# Convention : Reuss Voigt Hill
#
# Bulk Modulus (GPa) = 31.48862 54.49648 42.99255
# Shear Modulus (GPa) = 10.75327 26.47713 18.61520
#
# Velocity S-wave (km/s) = 2.46661 3.87048 3.24536
# Velocity P-wave (km/s) = 5.09198 7.12797 6.19420
#
# Compressibility (1/GPa) = 0.03175751
#
# Stress axis : x y z
#
# Youngs Moduli (GPa) = 65.72404 43.17206 97.65355
#
# Poissons Ratio (x) = 0.04872 0.77020
# Poissons Ratio (y) = 0.07418 -0.05714
# Poissons Ratio (z) = 0.51837 -0.02526
#
# Static dielectric constant tensor:
#      x y z
#    x 1.609790 0.000000 0.000000 
#    y 0.000000 1.684700 0.000000 
#    z 0.000000 0.000000 1.623720 
# 
# From -- ./inp_files/37828.got.cif
#   From: 2010.05.17/outbox.cif.g08.bks.cpg/sg51_19_cif.got.tgz:37828.got - 2010.06.03 11:52:47.
