data_PCOD9398175
_publ_section_title
;
Structure prediction by ZEFSAII (Michael W. Deem and Ramdas Pophale) SiO2 
 PCOD9398175
Probable space group: P B A N
;
_chemical_formula_sum "Si O2"
_cell_formula_units_Z 40
_cell_length_a 8.681290
_cell_length_b 23.881692
_cell_length_c 8.601945
_cell_angle_alpha 90.000000
_cell_angle_beta 90.000000
_cell_angle_gamma 90.000000
_cell_volume 1783.388733
_symmetry_space_group_name_H-M "P B A N"
_symmetry_group_IT_number 50
_space_group.IT_coordinate_system_code '2'
_symmetry_cell_setting 'orthorhombic'
loop_
_space_group_symop_operation_xyz
x,y,z
1/2-x,1/2-y,z
x,1/2-y,-z
1/2-x,y,-z
-x,-y,-z
1/2+x,1/2+y,-z
-x,1/2+y,z
1/2+x,-y,z
loop_
_atom_site_type_symbol
_atom_site_label
_atom_site_fract_x
_atom_site_fract_y
_atom_site_fract_z
Si Si1 0.379344 0.668796 0.882528
Si Si2 0.540539 0.974670 0.831517
Si Si3 0.730822 0.070212 0.681265
Si Si4 0.115828 0.142334 0.883332
Si Si5 0.440980 0.737304 0.319689
O O1 0.307834 0.630552 0.750761
O O2 0.485977 0.714771 0.802863
O O3 0.250000 0.691599 0.000000
O O4 0.478872 0.630575 0.995031
O O5 0.386069 0.951383 0.757259
O O6 0.655616 0.920570 0.826779
O O7 0.604313 0.025122 0.728795
O O8 0.500000 0.000000 0.000000
O O9 0.750000 0.075558 0.500000
O O10 0.034171 0.183085 0.752267
O O11 0.250000 0.164456 0.000000
O O12 0.250000 0.750000 0.313123
O O13 0.481158 0.750000 0.500000
#
# Coordination Sequence:
#
# PCOD9398175 Si02
#       5
#     8   8   8   8   8
#     4  12  23  44  72 104 138 188 246 292 355 443
#     4  12  23  46  72 104 141 193 244 295 361 439
#     4  12  26  43  71 109 149 187 240 305 370 431
#     4  12  26  46  74 108 144 191 246 300 365 443
#     4  11  25  44  74 108 144 188 244 309 368 426
#
# _framework density 22.429210000000001
#
# number of rings (size 3 to 8) (size 9 to 14) (size 15 to 20)
#    0.000    0.200    6.000    3.000    5.600    1.600 
#    0.000    2.000    0.000    0.000    0.000    0.000 
#    0.000    0.000    0.000    0.000    0.000    0.000 
#
# Total GULP energy -223017.716699 kJ/mol
# GULP energy per Si atom -5575.442917 kJ/mol
# Density = 2.237816 g / cm^3
# Si number density = 22.429210 Si / 1000 Ang^3
#
#
#
# Elastic Constant Matrix: (Units=GPa)
#
#
# Indices 1 2 3 4 5 6 
#
# 1 50.1254 22.1822 17.5955 0.0000 0.0000 0.0000
# 2 22.1822 169.6239 77.1964 0.0000 0.0000 0.0000
# 3 17.5955 77.1964 180.1427 0.0000 0.0000 0.0000
# 4 0.0000 0.0000 0.0000 27.4233 0.0000 0.0000
# 5 0.0000 0.0000 0.0000 0.0000 29.1314 0.0000
# 6 0.0000 0.0000 0.0000 0.0000 0.0000 27.6665
#
#
#
# Elastic Compliance Matrix: (Units=1/GPa)
#
#
# Indices 1 2 3 4 5 6 
#
# 1 0.021351 -0.002290 -0.001104 0.000000 0.000000 0.000000
# 2 -0.002290 0.007569 -0.003020 0.000000 0.000000 0.000000
# 3 -0.001104 -0.003020 0.006953 0.000000 0.000000 0.000000
# 4 0.000000 0.000000 0.000000 0.036465 0.000000 0.000000
# 5 0.000000 0.000000 0.000000 0.000000 0.034327 0.000000
# 6 0.000000 0.000000 0.000000 0.000000 0.000000 0.036145
#
#
# Mechanical properties :
#
#
# Convention : Reuss Voigt Hill
#
# Bulk Modulus (GPa) = 43.39242 70.42669 56.90955
# Shear Modulus (GPa) = 30.61473 35.70544 33.16009
#
# Velocity S-wave (km/s) = 3.69853 3.99421 3.84921
# Velocity P-wave (km/s) = 6.13410 7.26219 6.72185
#
# Compressibility (1/GPa) = 0.02304550
#
# Stress axis : x y z
#
# Youngs Moduli (GPa) = 46.83667 132.11405 143.81913
#
# Poissons Ratio (x) = 0.30248 0.15882
# Poissons Ratio (y) = 0.10723 0.43433
# Poissons Ratio (z) = 0.05172 0.39898
#
# Static dielectric constant tensor:
#      x y z
#    x 1.907050 0.000000 0.000000 
#    y 0.000000 1.909870 0.000000 
#    z 0.000000 0.000000 1.785270 
# 
# From -- ./inp_files/9538.got.cif
#   From: 2010.05.17/outbox.cif.g08.bks.cpg/sg50_5_cif.got.tgz:9538.got - 2010.06.03 11:33:33.
