data_PCOD9398443
_publ_section_title
;
Structure prediction by ZEFSAII (Michael W. Deem and Ramdas Pophale) SiO2 
 PCOD9398443
Probable space group: P M M A
;
_chemical_formula_sum "Si O2"
_cell_formula_units_Z 40
_cell_length_a 8.571456
_cell_length_b 27.513590
_cell_length_c 9.125453
_cell_angle_alpha 90.000000
_cell_angle_beta 90.000000
_cell_angle_gamma 90.000000
_cell_volume 2152.069507
_symmetry_space_group_name_H-M "P M M A"
_symmetry_group_IT_number 51
_symmetry_cell_setting 'orthorhombic'
loop_
_space_group_symop_operation_xyz
x,y,z
1/2-x,-y,z
1/2+x,-y,-z
-x,y,-z
-x,-y,-z
1/2+x,y,-z
1/2-x,y,z
x,-y,z
loop_
_atom_site_type_symbol
_atom_site_label
_atom_site_fract_x
_atom_site_fract_y
_atom_site_fract_z
Si Si1 0.437362 0.693475 0.834159
Si Si2 0.562533 0.105145 0.167842
Si Si3 0.561682 0.403522 0.336075
Si Si4 0.061382 0.500000 0.835829
Si Si5 0.435712 0.205243 0.167411
Si Si6 0.561966 0.000000 0.166919
O O1 0.250000 0.695842 0.838978
O O2 0.487297 0.646181 0.743784
O O3 0.501016 0.744188 0.769041
O O4 0.500000 0.688805 0.000000
O O5 0.750000 0.108724 0.164803
O O6 0.494728 0.154565 0.235556
O O7 0.515755 0.052393 0.233059
O O8 0.500000 0.103971 0.000000
O O9 0.500000 0.405208 0.500000
O O10 0.750000 0.403893 0.338263
O O11 0.509341 0.451296 0.247822
O O12 0.250000 0.500000 0.838256
O O13 0.000000 0.500000 0.000000
O O14 0.250000 0.205694 0.163444
O O15 0.500000 0.205242 0.000000
O O16 0.750000 0.000000 0.160769
O O17 0.500000 0.000000 0.000000
#
# Coordination Sequence:
#
# PCOD9398443 Si02
#       6
#     8   8   8   4   8   4
#     4  10  19  32  49  71  95 125 163 204 244 290
#     4   9  14  21  31  46  70 102 141 186 231 281
#     4  10  22  37  55  78 106 135 167 202 244 292
#     4  10  21  38  58  84 110 136 169 206 242 286
#     4  10  17  25  38  57  80 111 149 193 240 286
#     4   8  14  20  28  42  64  98 139 180 227 278
#
# _framework density 18.586759000000001
#
# number of rings (size 3 to 8) (size 9 to 14) (size 15 to 20)
#    0.000    2.400    0.000    6.300    0.000    3.200 
#    0.000    0.000    0.000    0.000    0.000    0.000 
#    0.000    0.000    0.000    0.900    0.000   11.600 
#
# Total GULP energy -222913.658777 kJ/mol
# GULP energy per Si atom -5572.841469 kJ/mol
# Density = 1.854445 g / cm^3
# Si number density = 18.586759 Si / 1000 Ang^3
#
#
#
# Elastic Constant Matrix: (Units=GPa)
#
#
# Indices 1 2 3 4 5 6 
#
# 1 63.3612 52.7934 12.9349 0.0000 0.0000 0.0000
# 2 52.7934 254.1994 63.4779 0.0000 0.0000 0.0000
# 3 12.9349 63.4779 55.1815 0.0000 0.0000 0.0000
# 4 0.0000 0.0000 0.0000 -5.4480 0.0000 0.0000
# 5 0.0000 0.0000 0.0000 0.0000 17.0383 0.0000
# 6 0.0000 0.0000 0.0000 0.0000 0.0000 20.7081
#
#
#
# Elastic Compliance Matrix: (Units=1/GPa)
#
#
# Indices 1 2 3 4 5 6 
#
# 1 0.019086 -0.003994 0.000121 0.000000 0.000000 0.000000
# 2 -0.003994 0.006355 -0.006375 0.000000 0.000000 0.000000
# 3 0.000121 -0.006375 0.025427 0.000000 0.000000 0.000000
# 4 0.000000 0.000000 0.000000 -0.183555 0.000000 0.000000
# 5 0.000000 0.000000 0.000000 0.000000 0.058691 0.000000
# 6 0.000000 0.000000 0.000000 0.000000 0.000000 0.048290
#
#
# Mechanical properties :
#
#
# Convention : Reuss Voigt Hill
#
# Bulk Modulus (GPa) = 32.92522 70.12829 51.52676
# Shear Modulus (GPa) = 1017.52988 22.69542 520.11265
#
# Velocity S-wave (km/s) = 23.42301 3.49815 16.74626
# Velocity P-wave (km/s) = 27.37278 7.35719 20.04242
#
# Compressibility (1/GPa) = 0.03037185
#
# Stress axis : x y z
#
# Youngs Moduli (GPa) = 52.39521 157.35105 39.32885
#
# Poissons Ratio (x) = 0.62845 -0.00474
# Poissons Ratio (y) = 0.20926 0.25070
# Poissons Ratio (z) = -0.00632 1.00303
#
# Static dielectric constant tensor:
#      x y z
#    x 1.624450 0.000000 0.000000 
#    y 0.000000 1.734860 0.000000 
#    z 0.000000 0.000000 1.589790 
# 
# From -- ./inp_files/5549.got.cif
#   From: 2010.05.17/outbox.cif.g08.bks.cpg/sg51_3_cif.got.tgz:5549.got - 2010.06.03 11:52:47.
