data_PCOD9398165
_publ_section_title
;
Structure prediction by ZEFSAII (Michael W. Deem and Ramdas Pophale) SiO2 
 PCOD9398165
Probable space group: P B A N
;
_chemical_formula_sum "Si O2"
_cell_formula_units_Z 48
_cell_length_a 29.997091
_cell_length_b 9.013621
_cell_length_c 8.486110
_cell_angle_alpha 90.000000
_cell_angle_beta 90.000000
_cell_angle_gamma 90.000000
_cell_volume 2294.494868
_symmetry_space_group_name_H-M "P B A N"
_symmetry_group_IT_number 50
_space_group.IT_coordinate_system_code '2'
_symmetry_cell_setting 'orthorhombic'
loop_
_space_group_symop_operation_xyz
x,y,z
1/2-x,1/2-y,z
x,1/2-y,-z
1/2-x,y,-z
-x,-y,-z
1/2+x,1/2+y,-z
-x,1/2+y,z
1/2+x,-y,z
loop_
_atom_site_type_symbol
_atom_site_label
_atom_site_fract_x
_atom_site_fract_y
_atom_site_fract_z
Si Si1 0.532594 0.893779 0.599899
Si Si2 0.111323 0.441662 0.841036
Si Si3 0.472724 0.885621 0.889346
Si Si4 0.298290 0.933342 0.317282
Si Si5 0.198691 0.585368 0.696588
Si Si6 0.885421 0.904128 0.212636
O O1 0.544665 0.750000 0.500000
O O2 0.506798 0.835745 0.754899
O O3 0.577328 0.969444 0.669295
O O4 0.500000 0.000000 0.500000
O O5 0.068227 0.537946 0.797948
O O6 0.157612 0.507903 0.780714
O O7 0.109800 0.273432 0.781390
O O8 0.107510 0.443942 0.030580
O O9 0.458151 0.750000 0.000000
O O10 0.500000 0.000000 0.000000
O O11 0.302073 0.935194 0.507351
O O12 0.248273 0.971369 0.260669
O O13 0.304759 0.761237 0.270516
O O14 0.336556 0.039145 0.254813
#
# Coordination Sequence:
#
# PCOD9398165 Si02
#       6
#     8   8   8   8   8   8
#     4  12  27  44  66  98 132 172 227 283 336 402
#     4  11  25  42  66  94 131 177 221 268 335 405
#     4  12  25  46  69  94 136 182 222 278 346 411
#     4   9  21  42  67  96 135 167 217 276 329 396
#     4   9  21  42  67  98 129 173 218 270 332 398
#     4  11  25  43  63  95 133 173 218 277 332 397
#
# _framework density 20.919636000000001
#
# number of rings (size 3 to 8) (size 9 to 14) (size 15 to 20)
#    0.000    1.333    1.667    4.000    7.000    1.333 
#    0.000    5.000    0.000    0.000    0.000    0.000 
#    0.000    0.000    0.000    0.000    0.000    0.000 
#
# Total GULP energy -268296.906682 kJ/mol
# GULP energy per Si atom -5589.518889 kJ/mol
# Density = 2.087202 g / cm^3
# Si number density = 20.919636 Si / 1000 Ang^3
#
#
#
# Elastic Constant Matrix: (Units=GPa)
#
#
# Indices 1 2 3 4 5 6 
#
# 1 173.5831 49.3639 43.1813 0.0000 0.0000 0.0000
# 2 49.3639 51.5732 22.1289 0.0000 0.0000 0.0000
# 3 43.1813 22.1289 65.2354 0.0000 0.0000 0.0000
# 4 0.0000 0.0000 0.0000 33.6513 0.0000 0.0000
# 5 0.0000 0.0000 0.0000 0.0000 46.0407 0.0000
# 6 0.0000 0.0000 0.0000 0.0000 0.0000 38.7652
#
#
#
# Elastic Compliance Matrix: (Units=1/GPa)
#
#
# Indices 1 2 3 4 5 6 
#
# 1 0.008500 -0.006696 -0.003355 0.000000 0.000000 0.000000
# 2 -0.006696 0.027968 -0.005055 0.000000 0.000000 0.000000
# 3 -0.003355 -0.005055 0.019264 0.000000 0.000000 0.000000
# 4 0.000000 0.000000 0.000000 0.029717 0.000000 0.000000
# 5 0.000000 0.000000 0.000000 0.000000 0.021720 0.000000
# 6 0.000000 0.000000 0.000000 0.000000 0.000000 0.025796
#
#
# Mechanical properties :
#
#
# Convention : Reuss Voigt Hill
#
# Bulk Modulus (GPa) = 39.18389 57.74889 48.46639
# Shear Modulus (GPa) = 29.12335 35.40597 32.26466
#
# Velocity S-wave (km/s) = 3.73521 4.11843 3.93149
# Velocity P-wave (km/s) = 6.11340 7.09087 6.62020
#
# Compressibility (1/GPa) = 0.02552069
#
# Stress axis : x y z
#
# Youngs Moduli (GPa) = 117.65046 35.75498 51.90920
#
# Poissons Ratio (x) = 0.23942 0.17414
# Poissons Ratio (y) = 0.78781 0.26239
# Poissons Ratio (z) = 0.39469 0.18074
#
# Static dielectric constant tensor:
#      x y z
#    x 1.773320 0.000000 0.000000 
#    y 0.000000 1.731660 0.000000 
#    z 0.000000 0.000000 1.808400 
# 
# From -- ./inp_files/16930.got.cif
#   From: 2010.05.17/outbox.cif.g08.bks.cpg/sg50_9_cif.got.tgz:16930.got - 2010.06.03 11:33:33.
