data_PCOD9398437
_publ_section_title
;
Structure prediction by ZEFSAII (Michael W. Deem and Ramdas Pophale) SiO2 
 PCOD9398437
Probable space group: P M M A
;
_chemical_formula_sum "Si O2"
_cell_formula_units_Z 56
_cell_length_a 15.239185
_cell_length_b 9.277082
_cell_length_c 19.134015
_cell_angle_alpha 90.000000
_cell_angle_beta 90.000000
_cell_angle_gamma 90.000000
_cell_volume 2705.074602
_symmetry_space_group_name_H-M "P M M A"
_symmetry_group_IT_number 51
_symmetry_cell_setting 'orthorhombic'
loop_
_space_group_symop_operation_xyz
x,y,z
1/2-x,-y,z
1/2+x,-y,-z
-x,y,-z
-x,-y,-z
1/2+x,y,-z
1/2-x,y,z
x,-y,z
loop_
_atom_site_type_symbol
_atom_site_label
_atom_site_fract_x
_atom_site_fract_y
_atom_site_fract_z
Si Si1 0.089542 0.825657 0.145468
Si Si2 0.852586 0.672963 0.569508
Si Si3 0.892648 0.165085 0.006219
Si Si4 0.599310 0.671629 0.142233
Si Si5 0.613581 0.837049 0.278475
Si Si6 0.354486 0.662224 0.581612
Si Si7 0.095387 0.160926 0.295136
O O1 0.135335 0.795685 0.219855
O O2 0.001648 0.729008 0.142724
O O3 0.068416 0.000000 0.145353
O O4 0.138526 0.800090 0.072262
O O5 0.750000 0.712609 0.573906
O O6 0.859391 0.500000 0.569890
O O7 0.888494 0.719254 0.493265
O O8 0.894272 0.737857 0.638611
O O9 0.864450 0.268030 0.068913
O O10 0.869597 0.000000 0.023614
O O11 0.000000 0.169808 0.000000
O O12 0.603562 0.500000 0.146026
O O13 0.640744 0.744306 0.211109
O O14 0.634461 0.760976 0.351425
O O15 0.507920 0.845490 0.278500
O O16 0.647187 0.000000 0.274777
O O17 0.250000 0.648283 0.570997
O O18 0.390047 0.500000 0.594381
O O19 0.126676 0.000000 0.313210
#
# Coordination Sequence:
#
# PCOD9398437 Si02
#       7
#     8   8   8   8   8   8   8
#     4   8  15  27  40  58  89 125 156 189 233 278
#     4   9  19  35  52  70  94 124 156 191 234 284
#     4   8  13  23  38  55  83 123 157 187 229 276
#     4  10  17  24  38  62  91 121 155 193 232 274
#     4  10  20  33  48  69  98 127 157 193 235 282
#     4   9  19  36  54  71  93 121 155 194 234 279
#     4   9  18  31  47  70  98 126 158 196 233 272
#
# _framework density 20.701832
#
# number of rings (size 3 to 8) (size 9 to 14) (size 15 to 20)
#    0.000    3.000    0.000    4.286    0.000    7.143 
#    0.000    4.286    0.000    0.000    0.000    1.000 
#    0.000    5.714    0.000    0.000    0.000    0.000 
#
# Total GULP energy -312045.774740 kJ/mol
# GULP energy per Si atom -5572.245977 kJ/mol
# Density = 2.065471 g / cm^3
# Si number density = 20.701832 Si / 1000 Ang^3
#
#
#
# Elastic Constant Matrix: (Units=GPa)
#
#
# Indices 1 2 3 4 5 6 
#
# 1 32.5808 7.5994 11.9817 0.0000 0.0000 0.0000
# 2 7.5994 107.1088 96.9154 0.0000 0.0000 0.0000
# 3 11.9817 96.9154 225.5638 0.0000 0.0000 0.0000
# 4 0.0000 0.0000 0.0000 39.1283 0.0000 0.0000
# 5 0.0000 0.0000 0.0000 0.0000 53.4116 0.0000
# 6 0.0000 0.0000 0.0000 0.0000 0.0000 29.6476
#
#
#
# Elastic Compliance Matrix: (Units=1/GPa)
#
#
# Indices 1 2 3 4 5 6 
#
# 1 0.031395 -0.001176 -0.001163 0.000000 0.000000 0.000000
# 2 -0.001176 0.015319 -0.006519 0.000000 0.000000 0.000000
# 3 -0.001163 -0.006519 0.007296 0.000000 0.000000 0.000000
# 4 0.000000 0.000000 0.000000 0.025557 0.000000 0.000000
# 5 0.000000 0.000000 0.000000 0.000000 0.018723 0.000000
# 6 0.000000 0.000000 0.000000 0.000000 0.000000 0.033730
#
#
# Mechanical properties :
#
#
# Convention : Reuss Voigt Hill
#
# Bulk Modulus (GPa) = 27.55234 66.47182 47.01208
# Shear Modulus (GPa) = 30.89636 41.02130 35.95883
#
# Velocity S-wave (km/s) = 3.86741 4.45627 4.17224
# Velocity P-wave (km/s) = 5.76893 7.65876 6.78001
#
# Compressibility (1/GPa) = 0.03629456
#
# Stress axis : x y z
#
# Youngs Moduli (GPa) = 31.85259 65.28020 137.05823
#
# Poissons Ratio (x) = 0.07674 0.15934
# Poissons Ratio (y) = 0.03744 0.89353
# Poissons Ratio (z) = 0.03703 0.42558
#
# Static dielectric constant tensor:
#      x y z
#    x 1.809650 0.000000 0.000000 
#    y 0.000000 1.701760 0.000000 
#    z 0.000000 0.000000 1.806970 
# 
# From -- ./inp_files/30439.got.cif
#   From: 2010.05.17/outbox.cif.g08.bks.cpg/sg51_16_cif.got.tgz:30439.got - 2010.06.03 11:52:47.
