data_PCOD9398979
_publ_section_title
;
Structure prediction by ZEFSAII (Michael W. Deem and Ramdas Pophale) SiO2 
 PCOD9398979
Probable space group: P M M A
;
_chemical_formula_sum "Si O2"
_cell_formula_units_Z 52
_cell_length_a 8.857682
_cell_length_b 27.089876
_cell_length_c 14.000221
_cell_angle_alpha 90.000000
_cell_angle_beta 90.000000
_cell_angle_gamma 90.000000
_cell_volume 3359.402128
_symmetry_space_group_name_H-M "P M M A"
_symmetry_group_IT_number 51
_symmetry_cell_setting 'orthorhombic'
loop_
_space_group_symop_operation_xyz
x,y,z
1/2-x,-y,z
1/2+x,-y,-z
-x,y,-z
-x,-y,-z
1/2+x,y,-z
1/2-x,y,z
x,-y,z
loop_
_atom_site_type_symbol
_atom_site_label
_atom_site_fract_x
_atom_site_fract_y
_atom_site_fract_z
Si Si1 0.429997 0.300703 0.395797
Si Si2 0.430708 0.254309 0.895378
Si Si3 0.930325 0.645735 0.218764
Si Si4 0.069102 0.000000 0.605514
Si Si5 0.931861 0.108684 0.392868
Si Si6 0.930278 0.442838 0.895491
Si Si7 0.930360 0.799793 0.717833
O O1 0.500000 0.305900 0.500000
O O2 0.250000 0.306780 0.399116
O O3 0.501051 0.338562 0.320174
O O4 0.462402 0.246054 0.353685
O O5 0.250000 0.249250 0.898460
O O6 0.466301 0.308923 0.853521
O O7 0.499595 0.216052 0.819156
O O8 0.500000 0.248606 0.000000
O O9 0.750000 0.641955 0.225319
O O10 0.000117 0.595839 0.177836
O O11 0.027466 0.053705 0.646340
O O12 0.000000 0.000000 0.500000
O O13 0.250000 0.000000 0.598101
O O14 0.750000 0.112741 0.398771
O O15 0.000000 0.113297 0.500000
O O16 0.997776 0.151343 0.326629
O O17 0.750000 0.436903 0.900199
O O18 0.963645 0.500000 0.870900
O O19 0.000000 0.433338 0.000000
O O20 0.750000 0.804748 0.725957
#
# Coordination Sequence:
#
# PCOD9398979 Si02
#       7
#     8   8   8   4   8   8   8
#     4  10  20  33  49  69  96 127 160 196 233 276
#     4  10  20  33  49  70  96 125 156 192 233 278
#     4  10  20  33  51  73  97 126 159 193 232 278
#     4   8  16  28  42  62  89 122 157 192 232 276
#     4  10  18  29  45  66  94 126 159 195 234 277
#     4  10  20  33  50  73 100 128 158 193 234 279
#     4  10  20  32  47  69  95 125 159 194 233 277
#
# _framework density 15.478945
#
# number of rings (size 3 to 8) (size 9 to 14) (size 15 to 20)
#    0.000    2.154    0.000    3.692    0.000    7.692 
#    0.000    0.000    0.000    0.462    0.000    0.538 
#    0.000    0.000    0.000    0.000    0.000    0.000 
#
# Total GULP energy -290109.973383 kJ/mol
# GULP energy per Si atom -5579.037950 kJ/mol
# Density = 1.544371 g / cm^3
# Si number density = 15.478945 Si / 1000 Ang^3
#
#
#
# Elastic Constant Matrix: (Units=GPa)
#
#
# Indices 1 2 3 4 5 6 
#
# 1 64.5816 64.2205 61.2367 0.0000 0.0000 0.0000
# 2 64.2205 130.2444 83.3923 0.0000 0.0000 0.0000
# 3 61.2367 83.3923 136.5343 0.0000 0.0000 0.0000
# 4 0.0000 0.0000 0.0000 24.7035 0.0000 0.0000
# 5 0.0000 0.0000 0.0000 0.0000 30.3662 0.0000
# 6 0.0000 0.0000 0.0000 0.0000 0.0000 26.0682
#
#
#
# Elastic Compliance Matrix: (Units=1/GPa)
#
#
# Indices 1 2 3 4 5 6 
#
# 1 0.035653 -0.012056 -0.008627 0.000000 0.000000 0.000000
# 2 -0.012056 0.016685 -0.004784 0.000000 0.000000 0.000000
# 3 -0.008627 -0.004784 0.014115 0.000000 0.000000 0.000000
# 4 0.000000 0.000000 0.000000 0.040480 0.000000 0.000000
# 5 0.000000 0.000000 0.000000 0.000000 0.032931 0.000000
# 6 0.000000 0.000000 0.000000 0.000000 0.000000 0.038361
#
#
# Mechanical properties :
#
#
# Convention : Reuss Voigt Hill
#
# Bulk Modulus (GPa) = 64.43342 83.22882 73.83112
# Shear Modulus (GPa) = 21.33705 24.39496 22.86601
#
# Velocity S-wave (km/s) = 3.71678 3.97420 3.84765
# Velocity P-wave (km/s) = 7.75475 8.65707 8.21830
#
# Compressibility (1/GPa) = 0.01551990
#
# Stress axis : x y z
#
# Youngs Moduli (GPa) = 28.04790 59.93254 70.84439
#
# Poissons Ratio (x) = 0.72255 0.61119
# Poissons Ratio (y) = 0.33815 0.33891
# Poissons Ratio (z) = 0.24198 0.28671
#
# Static dielectric constant tensor:
#      x y z
#    x 1.159580 0.000000 0.000000 
#    y 0.000000 1.522250 0.000000 
#    z 0.000000 0.000000 1.476790 
# 
# From -- ./inp_files/14634.got.cif
#   From: 2010.05.17/outbox.cif.g08.bks.cpg/sg51_8_cif.got.tgz:14634.got - 2010.06.03 11:52:47.
