data_PCOD9398185
_publ_section_title
;
Structure prediction by ZEFSAII (Michael W. Deem and Ramdas Pophale) SiO2 
 PCOD9398185
Probable space group: P B A N
;
_chemical_formula_sum "Si O2"
_cell_formula_units_Z 34
_cell_length_a 14.443495
_cell_length_b 9.431420
_cell_length_c 10.337439
_cell_angle_alpha 90.000000
_cell_angle_beta 90.000000
_cell_angle_gamma 90.000000
_cell_volume 1408.193517
_symmetry_space_group_name_H-M "P B A N"
_symmetry_group_IT_number 50
_space_group.IT_coordinate_system_code '2'
_symmetry_cell_setting 'orthorhombic'
loop_
_space_group_symop_operation_xyz
x,y,z
1/2-x,1/2-y,z
x,1/2-y,-z
1/2-x,y,-z
-x,-y,-z
1/2+x,1/2+y,-z
-x,1/2+y,z
1/2+x,-y,z
loop_
_atom_site_type_symbol
_atom_site_label
_atom_site_fract_x
_atom_site_fract_y
_atom_site_fract_z
Si Si1 0.750000 0.250000 0.000000
Si Si2 0.466954 0.309829 0.866903
Si Si3 0.688037 0.495966 0.185119
Si Si4 0.859351 0.914985 0.468595
Si Si5 0.599203 0.968783 0.262870
O O1 0.694614 0.147021 0.899543
O O2 0.371153 0.392321 0.896370
O O3 0.542872 0.414441 0.812505
O O4 0.444321 0.182588 0.770533
O O5 0.502103 0.250000 0.000000
O O6 0.635599 0.515380 0.325687
O O7 0.793991 0.534873 0.217080
O O8 0.885689 0.750000 0.500000
O O9 0.750000 0.917250 0.500000
O O10 0.905496 0.001702 0.584622
#
# Coordination Sequence:
#
# PCOD9398185 Si02
#       5
#     2   8   8   8   8
#     4  12  28  44  76 120 156 202 256 328 404 456
#     4  12  26  45  74 117 155 206 260 327 391 480
#     4  11  25  47  78 105 159 211 261 316 395 485
#     4   9  18  43  75 105 141 202 268 309 371 468
#     4  11  25  45  77 111 154 203 261 326 393 468
#
# _framework density 24.144410000000001
#
# number of rings (size 3 to 8) (size 9 to 14) (size 15 to 20)
#    0.000    1.176    2.353    2.824    4.941    1.882 
#    0.000    5.294    0.000    0.000    0.000    0.000 
#    0.000    0.000    0.000    0.000    0.000    0.000 
#
# Total GULP energy -190124.479903 kJ/mol
# GULP energy per Si atom -5591.896468 kJ/mol
# Density = 2.408946 g / cm^3
# Si number density = 24.144410 Si / 1000 Ang^3
#
#
#
# Elastic Constant Matrix: (Units=GPa)
#
#
# Indices 1 2 3 4 5 6 
#
# 1 111.2275 51.4962 43.8139 0.0000 0.0000 0.0000
# 2 51.4962 150.6577 86.5156 0.0000 0.0000 0.0000
# 3 43.8139 86.5156 156.4066 0.0000 0.0000 0.0000
# 4 0.0000 0.0000 0.0000 -4.0671 0.0000 0.0000
# 5 0.0000 0.0000 0.0000 0.0000 18.4076 0.0000
# 6 0.0000 0.0000 0.0000 0.0000 0.0000 62.7468
#
#
#
# Elastic Compliance Matrix: (Units=1/GPa)
#
#
# Indices 1 2 3 4 5 6 
#
# 1 0.010902 -0.002891 -0.001455 0.000000 0.000000 0.000000
# 2 -0.002891 0.010494 -0.004995 0.000000 0.000000 0.000000
# 3 -0.001455 -0.004995 0.009564 0.000000 0.000000 0.000000
# 4 0.000000 0.000000 0.000000 -0.245872 0.000000 0.000000
# 5 0.000000 0.000000 0.000000 0.000000 0.054325 0.000000
# 6 0.000000 0.000000 0.000000 0.000000 0.000000 0.015937
#
#
# Mechanical properties :
#
#
# Convention : Reuss Voigt Hill
#
# Bulk Modulus (GPa) = 81.44149 86.88259 84.16204
# Shear Modulus (GPa) = -41.02550 31.18186 -4.92182
#
# Velocity S-wave (km/s) = -4.12657 3.59761 -1.42931
# Velocity P-wave (km/s) = 3.33158 7.30203 5.67535
#
# Compressibility (1/GPa) = 0.01227875
#
# Stress axis : x y z
#
# Youngs Moduli (GPa) = 91.72502 95.29190 104.55825
#
# Poissons Ratio (x) = 0.27549 0.15212
# Poissons Ratio (y) = 0.26518 0.52226
# Poissons Ratio (z) = 0.13345 0.47597
#
# Static dielectric constant tensor:
#      x y z
#    x 1.916260 0.000000 0.000000 
#    y 0.000000 1.899360 0.000000 
#    z 0.000000 0.000000 2.017210 
# 
# From -- ./inp_files/20789.got.cif
#   From: 2010.05.17/outbox.cif.g08.bks.cpg/sg50_11_cif.got.tgz:20789.got - 2010.06.03 11:33:33.
