data_PCOD9398296
_publ_section_title
;
Structure prediction by ZEFSAII (Michael W. Deem and Ramdas Pophale) SiO2 
 PCOD9398296
Probable space group: P B A N
;
_chemical_formula_sum "Si O2"
_cell_formula_units_Z 34
_cell_length_a 8.128079
_cell_length_b 10.929963
_cell_length_c 13.939440
_cell_angle_alpha 90.000000
_cell_angle_beta 90.000000
_cell_angle_gamma 90.000000
_cell_volume 1238.374312
_symmetry_space_group_name_H-M "P B A N"
_symmetry_group_IT_number 50
_space_group.IT_coordinate_system_code '2'
_symmetry_cell_setting 'orthorhombic'
loop_
_space_group_symop_operation_xyz
x,y,z
1/2-x,1/2-y,z
x,1/2-y,-z
1/2-x,y,-z
-x,-y,-z
1/2+x,1/2+y,-z
-x,1/2+y,z
1/2+x,-y,z
loop_
_atom_site_type_symbol
_atom_site_label
_atom_site_fract_x
_atom_site_fract_y
_atom_site_fract_z
Si Si1 0.486155 0.916387 0.094675
Si Si2 0.250000 0.250000 0.000000
Si Si3 0.175554 0.897870 0.214373
Si Si4 0.132874 0.538786 0.407277
Si Si5 0.938890 0.770376 0.342929
O O1 0.622774 0.816798 0.070646
O O2 0.300914 0.881918 0.125068
O O3 0.550236 0.998700 0.181203
O O4 0.500000 0.000000 0.000000
O O5 0.264917 0.943632 0.309680
O O6 0.061982 0.787187 0.252652
O O7 0.250000 0.548372 0.500000
O O8 0.061660 0.401109 0.398217
O O9 0.006031 0.653152 0.400955
O O10 0.750000 0.750000 0.315134
#
# Coordination Sequence:
#
# PCOD9398296 Si02
#       5
#     8   2   8   8   8
#     4  12  27  56  87 134 176 238 310 386 482 551
#     4  12  28  52 106 122 192 244 308 400 484 568
#     4  12  27  54  88 132 186 236 312 386 467 560
#     4  12  31  59  90 139 192 249 318 389 471 564
#     4  12  30  58  93 135 191 258 320 385 473 561
#
# _framework density 27.455349999999999
#
# number of rings (size 3 to 8) (size 9 to 14) (size 15 to 20)
#    0.000    0.000    4.706    2.118    0.000   13.647 
#    6.353    2.353    0.000    0.000    0.000    0.000 
#    0.000    0.000    0.000    0.000    0.000    0.000 
#
# Total GULP energy -190783.900533 kJ/mol
# GULP energy per Si atom -5611.291192 kJ/mol
# Density = 2.739286 g / cm^3
# Si number density = 27.455350 Si / 1000 Ang^3
#
#
#
# Elastic Constant Matrix: (Units=GPa)
#
#
# Indices 1 2 3 4 5 6 
#
# 1 214.1176 74.4855 94.2609 0.0000 0.0000 0.0000
# 2 74.4855 173.4583 50.8411 0.0000 0.0000 0.0000
# 3 94.2609 50.8411 176.0497 0.0000 0.0000 0.0000
# 4 0.0000 0.0000 0.0000 32.7854 0.0000 0.0000
# 5 0.0000 0.0000 0.0000 0.0000 74.7451 0.0000
# 6 0.0000 0.0000 0.0000 0.0000 0.0000 38.3006
#
#
#
# Elastic Compliance Matrix: (Units=1/GPa)
#
#
# Indices 1 2 3 4 5 6 
#
# 1 0.006685 -0.001990 -0.003005 0.000000 0.000000 0.000000
# 2 -0.001990 0.006891 -0.000924 0.000000 0.000000 0.000000
# 3 -0.003005 -0.000924 0.007556 0.000000 0.000000 0.000000
# 4 0.000000 0.000000 0.000000 0.030501 0.000000 0.000000
# 5 0.000000 0.000000 0.000000 0.000000 0.013379 0.000000
# 6 0.000000 0.000000 0.000000 0.000000 0.000000 0.026109
#
#
# Mechanical properties :
#
#
# Convention : Reuss Voigt Hill
#
# Bulk Modulus (GPa) = 107.60267 111.42228 109.51248
# Shear Modulus (GPa) = 47.14407 52.10210 49.62308
#
# Velocity S-wave (km/s) = 4.14831 4.36099 4.25598
# Velocity P-wave (km/s) = 7.88806 8.12581 8.00782
#
# Compressibility (1/GPa) = 0.00929345
#
# Stress axis : x y z
#
# Youngs Moduli (GPa) = 149.57877 145.12539 132.34506
#
# Poissons Ratio (x) = 0.28882 0.39767
# Poissons Ratio (y) = 0.29768 0.12234
# Poissons Ratio (z) = 0.44946 0.13415
#
# Static dielectric constant tensor:
#      x y z
#    x 2.127050 0.000000 0.000000 
#    y 0.000000 2.210170 0.000000 
#    z 0.000000 0.000000 2.055810 
# 
# From -- ./inp_files/24475.got.cif
#   From: 2010.05.17/outbox.cif.g08.bks.cpg/sg50_13_cif.got.tgz:24475.got - 2010.06.03 11:33:33.
