data_PCOD9398219
_publ_section_title
;
Structure prediction by ZEFSAII (Michael W. Deem and Ramdas Pophale) SiO2 
 PCOD9398219
Probable space group: P B A N
;
_chemical_formula_sum "Si O2"
_cell_formula_units_Z 40
_cell_length_a 8.574269
_cell_length_b 18.960733
_cell_length_c 11.007513
_cell_angle_alpha 90.000000
_cell_angle_beta 90.000000
_cell_angle_gamma 90.000000
_cell_volume 1789.540099
_symmetry_space_group_name_H-M "P B A N"
_symmetry_group_IT_number 50
_space_group.IT_coordinate_system_code '2'
_symmetry_cell_setting 'orthorhombic'
loop_
_space_group_symop_operation_xyz
x,y,z
1/2-x,1/2-y,z
x,1/2-y,-z
1/2-x,y,-z
-x,-y,-z
1/2+x,1/2+y,-z
-x,1/2+y,z
1/2+x,-y,z
loop_
_atom_site_type_symbol
_atom_site_label
_atom_site_fract_x
_atom_site_fract_y
_atom_site_fract_z
Si Si1 0.437155 0.579452 0.491629
Si Si2 0.430561 0.725273 0.130907
Si Si3 0.557218 0.848707 0.265297
Si Si4 0.095138 0.100837 0.764376
Si Si5 0.887772 0.040484 0.091448
O O1 0.250000 0.581085 0.500000
O O2 0.500000 0.500000 0.500000
O O3 0.506097 0.624551 0.602554
O O4 0.502630 0.602687 0.361772
O O5 0.250000 0.750000 0.136384
O O6 0.512726 0.768728 0.237929
O O7 0.480609 0.644335 0.146772
O O8 0.490991 0.750000 0.000000
O O9 0.739405 0.861175 0.246513
O O10 0.463406 0.895589 0.165403
O O11 0.140800 0.021711 0.808727
O O12 0.250000 0.938291 0.000000
O O13 0.000000 0.000000 0.000000
#
# Coordination Sequence:
#
# PCOD9398219 Si02
#       5
#     8   8   8   8   8
#     4  12  26  45  72 104 142 183 242 299 362 428
#     4  11  27  46  72 104 148 190 236 291 364 436
#     4  12  26  46  73 103 143 189 240 298 357 426
#     4  12  26  47  71 105 142 190 240 298 357 427
#     4  12  26  41  70 105 143 183 238 293 356 422
#
# _framework density 22.35211
#
# number of rings (size 3 to 8) (size 9 to 14) (size 15 to 20)
#    0.000    0.200    4.000    4.800    8.400    1.600 
#    0.000    4.000    0.000    0.000    0.000    0.000 
#    0.000    0.000    0.000    0.000    0.000    0.000 
#
# Total GULP energy -223845.851467 kJ/mol
# GULP energy per Si atom -5596.146287 kJ/mol
# Density = 2.230124 g / cm^3
# Si number density = 22.352110 Si / 1000 Ang^3
#
#
#
# Elastic Constant Matrix: (Units=GPa)
#
#
# Indices 1 2 3 4 5 6 
#
# 1 145.8687 26.1647 39.5722 0.0000 0.0000 0.0000
# 2 26.1647 99.4000 29.8294 0.0000 0.0000 0.0000
# 3 39.5722 29.8294 144.5968 0.0000 0.0000 0.0000
# 4 0.0000 0.0000 0.0000 41.0487 0.0000 0.0000
# 5 0.0000 0.0000 0.0000 0.0000 40.5785 0.0000
# 6 0.0000 0.0000 0.0000 0.0000 0.0000 38.0899
#
#
#
# Elastic Compliance Matrix: (Units=1/GPa)
#
#
# Indices 1 2 3 4 5 6 
#
# 1 0.007601 -0.001467 -0.001777 0.000000 0.000000 0.000000
# 2 -0.001467 0.011008 -0.001869 0.000000 0.000000 0.000000
# 3 -0.001777 -0.001869 0.007788 0.000000 0.000000 0.000000
# 4 0.000000 0.000000 0.000000 0.024361 0.000000 0.000000
# 5 0.000000 0.000000 0.000000 0.000000 0.024644 0.000000
# 6 0.000000 0.000000 0.000000 0.000000 0.000000 0.026254
#
#
# Mechanical properties :
#
#
# Convention : Reuss Voigt Hill
#
# Bulk Modulus (GPa) = 61.84967 64.55534 63.20251
# Shear Modulus (GPa) = 42.63583 43.56338 43.09961
#
# Velocity S-wave (km/s) = 4.37219 4.41949 4.39590
# Velocity P-wave (km/s) = 7.29512 7.41528 7.35544
#
# Compressibility (1/GPa) = 0.01616823
#
# Stress axis : x y z
#
# Youngs Moduli (GPa) = 131.56379 90.84678 128.40552
#
# Poissons Ratio (x) = 0.13330 0.22823
# Poissons Ratio (y) = 0.19305 0.24002
# Poissons Ratio (z) = 0.23385 0.16981
#
# Static dielectric constant tensor:
#      x y z
#    x 1.815420 0.000000 0.000000 
#    y 0.000000 1.854410 0.000000 
#    z 0.000000 0.000000 1.863460 
# 
# From -- ./inp_files/18728.got.cif
#   From: 2010.05.17/outbox.cif.g08.bks.cpg/sg50_10_cif.got.tgz:18728.got - 2010.06.03 11:33:33.
