data_PCOD9398281
_publ_section_title
;
Structure prediction by ZEFSAII (Michael W. Deem and Ramdas Pophale) SiO2 
 PCOD9398281
Probable space group: P B A N
;
_chemical_formula_sum "Si O2"
_cell_formula_units_Z 32
_cell_length_a 7.707764
_cell_length_b 14.701717
_cell_length_c 10.543427
_cell_angle_alpha 90.000000
_cell_angle_beta 90.000000
_cell_angle_gamma 90.000000
_cell_volume 1194.753366
_symmetry_space_group_name_H-M "P B A N"
_symmetry_group_IT_number 50
_space_group.IT_coordinate_system_code '2'
_symmetry_cell_setting 'orthorhombic'
loop_
_space_group_symop_operation_xyz
x,y,z
1/2-x,1/2-y,z
x,1/2-y,-z
1/2-x,y,-z
-x,-y,-z
1/2+x,1/2+y,-z
-x,1/2+y,z
1/2+x,-y,z
loop_
_atom_site_type_symbol
_atom_site_label
_atom_site_fract_x
_atom_site_fract_y
_atom_site_fract_z
Si Si1 0.574589 0.809572 0.220806
Si Si2 0.456838 0.870253 0.763196
Si Si3 0.542959 0.107100 0.512309
Si Si4 0.642813 0.039297 0.871410
O O1 0.750000 0.750000 0.206583
O O2 0.439810 0.730047 0.183570
O O3 0.541007 0.849417 0.362532
O O4 0.525813 0.895482 0.132809
O O5 0.526308 0.855186 0.621021
O O6 0.273741 0.922236 0.765177
O O7 0.583980 0.938828 0.835041
O O8 0.750000 0.124112 0.500000
O O9 0.500000 0.000000 0.500000
O O10 0.750000 0.047004 0.000000
#
# Coordination Sequence:
#
# PCOD9398281 Si02
#       4
#     8   8   8   8
#     4  12  28  47  80 119 166 220 287 350 426 516
#     4  12  25  47  76 113 161 218 281 344 426 501
#     4  12  25  46  79 117 170 219 276 346 433 514
#     4  12  27  52  81 116 165 227 285 352 418 496
#
# _framework density 26.783770000000001
#
# number of rings (size 3 to 8) (size 9 to 14) (size 15 to 20)
#    0.000    0.000    5.000    3.750    3.500    4.000 
#    0.000    1.250    0.000    0.000    0.000    0.000 
#    0.000    0.000    0.000    0.000    0.000    0.000 
#
# Total GULP energy -179228.912579 kJ/mol
# GULP energy per Si atom -5600.903518 kJ/mol
# Density = 2.672281 g / cm^3
# Si number density = 26.783770 Si / 1000 Ang^3
#
#
#
# Elastic Constant Matrix: (Units=GPa)
#
#
# Indices 1 2 3 4 5 6 
#
# 1 167.5597 37.5573 42.6073 0.0000 0.0000 0.0000
# 2 37.5573 198.6090 42.1887 0.0000 0.0000 0.0000
# 3 42.6073 42.1887 154.2580 0.0000 0.0000 0.0000
# 4 0.0000 0.0000 0.0000 -0.6534 0.0000 0.0000
# 5 0.0000 0.0000 0.0000 0.0000 37.9870 0.0000
# 6 0.0000 0.0000 0.0000 0.0000 0.0000 48.7017
#
#
#
# Elastic Compliance Matrix: (Units=1/GPa)
#
#
# Indices 1 2 3 4 5 6 
#
# 1 0.006570 -0.000910 -0.001566 0.000000 0.000000 0.000000
# 2 -0.000910 0.005472 -0.001245 0.000000 0.000000 0.000000
# 3 -0.001566 -0.001245 0.007256 0.000000 0.000000 0.000000
# 4 0.000000 0.000000 0.000000 -1.530385 0.000000 0.000000
# 5 0.000000 0.000000 0.000000 0.000000 0.026325 0.000000
# 6 0.000000 0.000000 0.000000 0.000000 0.000000 0.020533
#
#
# Mechanical properties :
#
#
# Convention : Reuss Voigt Hill
#
# Bulk Modulus (GPa) = 84.34760 85.01483 84.68121
# Shear Modulus (GPa) = -3.44154 43.74529 20.15187
#
# Velocity S-wave (km/s) = -1.13478 4.04577 2.74595
# Velocity P-wave (km/s) = 5.46292 7.32355 6.46057
#
# Compressibility (1/GPa) = 0.01185570
#
# Stress axis : x y z
#
# Youngs Moduli (GPa) = 152.20410 182.76335 137.82265
#
# Poissons Ratio (x) = 0.16628 0.21582
# Poissons Ratio (y) = 0.13847 0.17161
# Poissons Ratio (z) = 0.23834 0.22757
#
# Static dielectric constant tensor:
#      x y z
#    x 2.292690 0.000000 0.000000 
#    y 0.000000 2.171790 0.000000 
#    z 0.000000 0.000000 2.167760 
# 
# From -- ./inp_files/18463.got.cif
#   From: 2010.05.17/outbox.cif.g08.bks.cpg/sg50_10_cif.got.tgz:18463.got - 2010.06.03 11:33:33.
