data_PCOD9398866
_publ_section_title
;
Structure prediction by ZEFSAII (Michael W. Deem and Ramdas Pophale) SiO2 
 PCOD9398866
Probable space group: P M M A
;
_chemical_formula_sum "Si O2"
_cell_formula_units_Z 64
_cell_length_a 22.887450
_cell_length_b 9.548496
_cell_length_c 16.224940
_cell_angle_alpha 90.000000
_cell_angle_beta 90.000000
_cell_angle_gamma 90.000000
_cell_volume 3545.810147
_symmetry_space_group_name_H-M "P M M A"
_symmetry_group_IT_number 51
_symmetry_cell_setting 'orthorhombic'
loop_
_space_group_symop_operation_xyz
x,y,z
1/2-x,-y,z
1/2+x,-y,-z
-x,y,-z
-x,-y,-z
1/2+x,y,-z
1/2-x,y,z
x,-y,z
loop_
_atom_site_type_symbol
_atom_site_label
_atom_site_fract_x
_atom_site_fract_y
_atom_site_fract_z
Si Si1 0.509934 0.838241 0.151067
Si Si2 0.683567 0.160345 0.740811
Si Si3 0.103684 0.841466 0.697732
Si Si4 0.095603 0.337636 0.955186
Si Si5 0.478441 0.663398 0.589801
Si Si6 0.316613 0.161889 0.060407
Si Si7 0.183551 0.658078 0.800021
Si Si8 0.573074 0.663345 0.735863
O O1 0.557412 0.841905 0.225775
O O2 0.540604 0.751997 0.077604
O O3 0.455981 0.753641 0.190375
O O4 0.495746 0.000000 0.129799
O O5 0.750000 0.190937 0.714316
O O6 0.683182 0.164210 0.840606
O O7 0.634966 0.269289 0.713253
O O8 0.669071 0.000000 0.716803
O O9 0.160397 0.766277 0.733375
O O10 0.074076 0.754564 0.625148
O O11 0.114637 0.000000 0.673521
O O12 0.081141 0.500000 0.974037
O O13 0.141011 0.337567 0.878391
O O14 0.132619 0.259887 0.025500
O O15 0.500000 0.708528 0.500000
O O16 0.461444 0.500000 0.584942
O O17 0.530056 0.673510 0.657408
O O18 0.250000 0.202382 0.034629
O O19 0.326110 0.000000 0.033758
O O20 0.250000 0.685511 0.824757
O O21 0.179616 0.500000 0.766399
O O22 0.577619 0.500000 0.759136
#
# Coordination Sequence:
#
# PCOD9398866 Si02
#       8
#     8   8   8   8   8   8   8   8
#     4   9  17  30  47  67  95 131 164 194 237 292
#     4   9  19  36  55  73  96 129 165 199 241 294
#     4   9  17  28  44  68  95 122 155 195 232 267
#     4  10  18  28  44  68  97 126 162 210 255 289
#     4   9  18  33  53  76 101 127 152 181 226 285
#     4   9  18  32  48  66  91 126 167 207 248 296
#     4   9  17  28  42  62  91 129 166 195 231 281
#     4  10  19  32  53  79 102 124 156 200 242 282
#
# _framework density 18.049469999999999
#
# number of rings (size 3 to 8) (size 9 to 14) (size 15 to 20)
#    0.000    2.750    0.000    2.625    0.000    6.000 
#    0.000    1.875    0.000    4.500    0.000    1.750 
#    0.000    0.000    0.000    0.000    0.000    0.000 
#
# Total GULP energy -356982.955532 kJ/mol
# GULP energy per Si atom -5577.858680 kJ/mol
# Density = 1.800839 g / cm^3
# Si number density = 18.049470 Si / 1000 Ang^3
#
#
#
# Elastic Constant Matrix: (Units=GPa)
#
#
# Indices 1 2 3 4 5 6 
#
# 1 57.6404 40.6203 2.7306 0.0000 0.0000 0.0000
# 2 40.6203 98.6457 18.9596 0.0000 0.0000 0.0000
# 3 2.7306 18.9596 31.2004 0.0000 0.0000 0.0000
# 4 0.0000 0.0000 0.0000 13.3360 0.0000 0.0000
# 5 0.0000 0.0000 0.0000 0.0000 17.4789 0.0000
# 6 0.0000 0.0000 0.0000 0.0000 0.0000 28.9684
#
#
#
# Elastic Compliance Matrix: (Units=1/GPa)
#
#
# Indices 1 2 3 4 5 6 
#
# 1 0.025013 -0.011186 0.004608 0.000000 0.000000 0.000000
# 2 -0.011186 0.016480 -0.009035 0.000000 0.000000 0.000000
# 3 0.004608 -0.009035 0.037138 0.000000 0.000000 0.000000
# 4 0.000000 0.000000 0.000000 0.074985 0.000000 0.000000
# 5 0.000000 0.000000 0.000000 0.000000 0.057212 0.000000
# 6 0.000000 0.000000 0.000000 0.000000 0.000000 0.034520
#
#
# Mechanical properties :
#
#
# Convention : Reuss Voigt Hill
#
# Bulk Modulus (GPa) = 21.09460 34.67861 27.88661
# Shear Modulus (GPa) = 17.10123 20.30173 18.70148
#
# Velocity S-wave (km/s) = 3.08143 3.35742 3.22238
# Velocity P-wave (km/s) = 4.93688 5.85529 5.41559
#
# Compressibility (1/GPa) = 0.04740549
#
# Stress axis : x y z
#
# Youngs Moduli (GPa) = 39.97857 60.67987 26.92646
#
# Poissons Ratio (x) = 0.67875 -0.12408
# Poissons Ratio (y) = 0.44719 0.24329
# Poissons Ratio (z) = -0.18423 0.54827
#
# Static dielectric constant tensor:
#      x y z
#    x 1.629830 0.000000 0.000000 
#    y 0.000000 1.621130 0.000000 
#    z 0.000000 0.000000 1.600500 
# 
# From -- ./inp_files/30598.got.cif
#   From: 2010.05.17/outbox.cif.g08.bks.cpg/sg51_16_cif.got.tgz:30598.got - 2010.06.03 11:52:47.
