data_PCOD9398936
_publ_section_title
;
Structure prediction by ZEFSAII (Michael W. Deem and Ramdas Pophale) SiO2 
 PCOD9398936
Probable space group: P M M A
;
_chemical_formula_sum "Si O2"
_cell_formula_units_Z 48
_cell_length_a 19.131739
_cell_length_b 14.904713
_cell_length_c 7.747408
_cell_angle_alpha 90.000000
_cell_angle_beta 90.000000
_cell_angle_gamma 90.000000
_cell_volume 2209.197245
_symmetry_space_group_name_H-M "P M M A"
_symmetry_group_IT_number 51
_symmetry_cell_setting 'orthorhombic'
loop_
_space_group_symop_operation_xyz
x,y,z
1/2-x,-y,z
1/2+x,-y,-z
-x,y,-z
-x,-y,-z
1/2+x,y,-z
1/2-x,y,z
x,-y,z
loop_
_atom_site_type_symbol
_atom_site_label
_atom_site_fract_x
_atom_site_fract_y
_atom_site_fract_z
Si Si1 0.461662 0.000000 0.816432
Si Si2 0.168882 0.853865 0.307856
Si Si3 0.436673 0.166524 0.597353
Si Si4 0.578626 0.500000 0.923736
Si Si5 0.170917 0.695176 0.744245
Si Si6 0.829178 0.342827 0.844230
Si Si7 0.332233 0.500000 0.727658
Si Si8 0.830890 0.000000 0.978924
O O1 0.473694 0.909896 0.710448
O O2 0.500000 0.000000 0.000000
O O3 0.379369 0.000000 0.857281
O O4 0.250000 0.871061 0.352794
O O5 0.116423 0.877007 0.460048
O O6 0.161193 0.748883 0.261184
O O7 0.154117 0.913557 0.139557
O O8 0.500000 0.215410 0.500000
O O9 0.388190 0.233931 0.702173
O O10 0.607564 0.587023 0.822033
O O11 0.500000 0.500000 0.000000
O O12 0.624603 0.500000 0.097212
O O13 0.250000 0.723385 0.694125
O O14 0.155661 0.599023 0.651331
O O15 0.171482 0.681347 0.951175
O O16 0.750000 0.378218 0.805691
O O17 0.250000 0.500000 0.770727
O O18 0.750000 0.000000 0.024949
#
# Coordination Sequence:
#
# PCOD9398936 Si02
#       8
#     4   8   8   4   8   8   4   4
#     4  12  26  45  64  83 114 159 204 241 290 364
#     4  10  21  38  59  87 123 154 186 239 303 359
#     4  12  25  39  58  85 120 159 195 239 300 364
#     4  10  18  28  51  86 119 156 203 253 292 331
#     4   9  18  36  62  88 113 152 205 250 290 344
#     4   9  18  35  58  83 116 158 201 243 293 354
#     4   8  16  34  58  82 114 154 198 249 297 341
#     4  10  21  39  65  91 110 139 191 249 291 334
#
# _framework density 21.727350000000001
#
# number of rings (size 3 to 8) (size 9 to 14) (size 15 to 20)
#    0.000    2.000    0.000    5.000    0.000    5.333 
#    0.000    2.917    0.000    2.000    0.000    0.000 
#    0.000    0.000    0.000    0.000    0.000    0.000 
#
# Total GULP energy -267993.238711 kJ/mol
# GULP energy per Si atom -5583.192473 kJ/mol
# Density = 2.167790 g / cm^3
# Si number density = 21.727350 Si / 1000 Ang^3
#
#
#
# Elastic Constant Matrix: (Units=GPa)
#
#
# Indices 1 2 3 4 5 6 
#
# 1 64.9130 43.0039 25.7276 0.0000 0.0000 0.0000
# 2 43.0039 96.0278 8.9821 0.0000 0.0000 0.0000
# 3 25.7276 8.9821 33.8863 0.0000 0.0000 0.0000
# 4 0.0000 0.0000 0.0000 48.1142 0.0000 0.0000
# 5 0.0000 0.0000 0.0000 0.0000 34.8550 0.0000
# 6 0.0000 0.0000 0.0000 0.0000 0.0000 15.1891
#
#
#
# Elastic Compliance Matrix: (Units=1/GPa)
#
#
# Indices 1 2 3 4 5 6 
#
# 1 0.031849 -0.012306 -0.020919 0.000000 0.000000 0.000000
# 2 -0.012306 0.015433 0.005252 0.000000 0.000000 0.000000
# 3 -0.020919 0.005252 0.044000 0.000000 0.000000 0.000000
# 4 0.000000 0.000000 0.000000 0.020784 0.000000 0.000000
# 5 0.000000 0.000000 0.000000 0.000000 0.028690 0.000000
# 6 0.000000 0.000000 0.000000 0.000000 0.000000 0.065837
#
#
# Mechanical properties :
#
#
# Convention : Reuss Voigt Hill
#
# Bulk Modulus (GPa) = 28.29845 38.91713 33.60779
# Shear Modulus (GPa) = 18.22705 27.43923 22.83314
#
# Velocity S-wave (km/s) = 2.89952 3.55757 3.24527
# Velocity P-wave (km/s) = 4.92567 5.90132 5.43543
#
# Compressibility (1/GPa) = 0.03533762
#
# Stress axis : x y z
#
# Youngs Moduli (GPa) = 31.39839 64.79458 22.72708
#
# Poissons Ratio (x) = 0.79737 0.47542
# Poissons Ratio (y) = 0.38639 -0.11937
# Poissons Ratio (z) = 0.65681 -0.34032
#
# Static dielectric constant tensor:
#      x y z
#    x 1.776150 0.000000 0.000000 
#    y 0.000000 1.897890 0.000000 
#    z 0.000000 0.000000 1.817430 
# 
# From -- ./inp_files/9758.got.cif
#   From: 2010.05.17/outbox.cif.g08.bks.cpg/sg51_5_cif.got.tgz:9758.got - 2010.06.03 11:52:47.
