data_PCOD9398590
_publ_section_title
;
Structure prediction by ZEFSAII (Michael W. Deem and Ramdas Pophale) SiO2 
 PCOD9398590
Probable space group: P M M A
;
_chemical_formula_sum "Si O2"
_cell_formula_units_Z 56
_cell_length_a 27.069307
_cell_length_b 21.558691
_cell_length_c 5.164601
_cell_angle_alpha 90.000000
_cell_angle_beta 90.000000
_cell_angle_gamma 90.000000
_cell_volume 3013.951784
_symmetry_space_group_name_H-M "P M M A"
_symmetry_group_IT_number 51
_symmetry_cell_setting 'orthorhombic'
loop_
_space_group_symop_operation_xyz
x,y,z
1/2-x,-y,z
1/2+x,-y,-z
-x,y,-z
-x,-y,-z
1/2+x,y,-z
1/2-x,y,z
x,-y,z
loop_
_atom_site_type_symbol
_atom_site_label
_atom_site_fract_x
_atom_site_fract_y
_atom_site_fract_z
Si Si1 0.301344 0.256644 0.681646
Si Si2 0.691213 0.426751 0.453944
Si Si3 0.160117 0.353388 0.030963
Si Si4 0.306337 0.852459 0.037541
Si Si5 0.881590 0.246939 0.706766
Si Si6 0.056928 0.135308 0.427477
Si Si7 0.103526 0.072313 0.928078
O O1 0.250000 0.268163 0.535416
O O2 0.351728 0.271635 0.539459
O O3 0.301822 0.300643 0.932233
O O4 0.302343 0.185699 0.769774
O O5 0.750000 0.417838 0.400125
O O6 0.683011 0.500000 0.485625
O O7 0.677424 0.390938 0.717320
O O8 0.660140 0.400188 0.211247
O O9 0.114847 0.307010 0.109008
O O10 0.250000 0.860535 0.133382
O O11 0.342526 0.805883 0.194368
O O12 0.339244 0.913122 0.996233
O O13 0.929040 0.206690 0.637209
O O14 0.088289 0.111530 0.674482
O O15 0.000000 0.128367 0.500000
O O16 0.071665 0.095849 0.173597
O O17 0.095359 0.000000 0.880653
#
# Coordination Sequence:
#
# PCOD9398590 Si02
#       7
#     8   8   8   8   8   8   8
#     4  10  17  29  51  76 103 139 179 224 274 324
#     4  11  22  34  47  71 112 159 199 226 253 305
#     4  11  21  32  51  75 106 146 190 230 272 315
#     4   9  19  33  52  80 112 147 183 227 282 331
#     4  10  20  35  56  82 111 139 184 239 285 338
#     4  11  24  42  63  84 112 145 181 238 303 344
#     4  11  23  40  60  85 113 147 192 232 272 344
#
# _framework density 18.580255999999999
#
# number of rings (size 3 to 8) (size 9 to 14) (size 15 to 20)
#    0.000    1.571    2.857    3.000    0.000    5.429 
#    0.000    0.000    0.000    1.714    0.000    0.000 
#    0.000    3.429    0.000    0.000    0.000    0.000 
#
# Total GULP energy -311805.408623 kJ/mol
# GULP energy per Si atom -5567.953725 kJ/mol
# Density = 1.853797 g / cm^3
# Si number density = 18.580256 Si / 1000 Ang^3
#
#
#
# Elastic Constant Matrix: (Units=GPa)
#
#
# Indices 1 2 3 4 5 6 
#
# 1 46.4603 17.9593 1.3067 0.0000 0.0000 0.0000
# 2 17.9593 96.9680 24.7400 0.0000 0.0000 0.0000
# 3 1.3067 24.7400 90.2193 0.0000 0.0000 0.0000
# 4 0.0000 0.0000 0.0000 27.1005 0.0000 0.0000
# 5 0.0000 0.0000 0.0000 0.0000 14.6016 0.0000
# 6 0.0000 0.0000 0.0000 0.0000 0.0000 0.0684
#
#
#
# Elastic Compliance Matrix: (Units=1/GPa)
#
#
# Indices 1 2 3 4 5 6 
#
# 1 0.023252 -0.004538 0.000908 0.000000 0.000000 0.000000
# 2 -0.004538 0.011974 -0.003218 0.000000 0.000000 0.000000
# 3 0.000908 -0.003218 0.011953 0.000000 0.000000 0.000000
# 4 0.000000 0.000000 0.000000 0.036900 0.000000 0.000000
# 5 0.000000 0.000000 0.000000 0.000000 0.068486 0.000000
# 6 0.000000 0.000000 0.000000 0.000000 0.000000 14.611267
#
#
# Mechanical properties :
#
#
# Convention : Reuss Voigt Hill
#
# Bulk Modulus (GPa) = 29.86558 35.73996 32.80277
# Shear Modulus (GPa) = 0.33810 20.99688 10.66749
#
# Velocity S-wave (km/s) = 0.42704 3.36529 2.39870
# Velocity P-wave (km/s) = 4.04374 5.86323 5.03633
#
# Compressibility (1/GPa) = 0.03348336
#
# Stress axis : x y z
#
# Youngs Moduli (GPa) = 43.00625 83.51312 83.65854
#
# Poissons Ratio (x) = 0.37899 -0.07593
# Poissons Ratio (y) = 0.19517 0.26920
# Poissons Ratio (z) = -0.03904 0.26873
#
# Static dielectric constant tensor:
#      x y z
#    x 1.662480 0.000000 0.000000 
#    y 0.000000 1.673830 0.000000 
#    z 0.000000 0.000000 1.755010 
# 
# From -- ./inp_files/3638.got.cif
#   From: 2010.05.17/outbox.cif.g08.bks.cpg/sg51_2_cif.got.tgz:3638.got - 2010.06.03 11:52:47.
