data_PCOD9398174
_publ_section_title
;
Structure prediction by ZEFSAII (Michael W. Deem and Ramdas Pophale) SiO2 
 PCOD9398174
Probable space group: P B A N
;
_chemical_formula_sum "Si O2"
_cell_formula_units_Z 34
_cell_length_a 9.566185
_cell_length_b 9.611646
_cell_length_c 17.057689
_cell_angle_alpha 90.000000
_cell_angle_beta 90.000000
_cell_angle_gamma 90.000000
_cell_volume 1568.399642
_symmetry_space_group_name_H-M "P B A N"
_symmetry_group_IT_number 50
_space_group.IT_coordinate_system_code '2'
_symmetry_cell_setting 'orthorhombic'
loop_
_space_group_symop_operation_xyz
x,y,z
1/2-x,1/2-y,z
x,1/2-y,-z
1/2-x,y,-z
-x,-y,-z
1/2+x,1/2+y,-z
-x,1/2+y,z
1/2+x,-y,z
loop_
_atom_site_type_symbol
_atom_site_label
_atom_site_fract_x
_atom_site_fract_y
_atom_site_fract_z
Si Si1 0.313105 0.406777 0.136134
Si Si2 0.045555 0.552208 0.414570
Si Si3 0.226280 0.091274 0.310137
Si Si4 0.908514 0.105698 0.050975
Si Si5 0.750000 0.250000 0.500000
O O1 0.250000 0.250000 0.122998
O O2 0.293919 0.469916 0.223579
O O3 0.478597 0.378715 0.121679
O O4 0.228394 0.521116 0.082585
O O5 0.142686 0.456420 0.361190
O O6 0.146197 0.676245 0.439435
O O7 0.000000 0.500000 0.500000
O O8 0.908415 0.579538 0.364794
O O9 0.250000 0.250000 0.290995
O O10 0.894011 0.250000 0.000000
O O11 0.000000 0.000000 0.000000
#
# Coordination Sequence:
#
# PCOD9398174 Si02
#       5
#     8   8   8   8   2
#     4  11  25  48  70 108 147 187 236 303 372 443
#     4  12  23  44  69 103 138 194 242 299 356 423
#     4  11  25  44  71 100 148 189 234 299 365 430
#     4  12  25  46  77 105 142 188 242 299 365 443
#     4  12  24  40  68 104 144 176 268 302 352 436
#
# _framework density 21.678146999999999
#
# number of rings (size 3 to 8) (size 9 to 14) (size 15 to 20)
#    0.000    0.471    4.706    3.529    0.000    2.824 
#    0.000    0.000    0.000    0.000    0.000    0.000 
#    0.000    0.000    0.000    0.000    0.000    0.000 
#
# Total GULP energy -189459.008875 kJ/mol
# GULP energy per Si atom -5572.323790 kJ/mol
# Density = 2.162881 g / cm^3
# Si number density = 21.678147 Si / 1000 Ang^3
#
#
#
# Elastic Constant Matrix: (Units=GPa)
#
#
# Indices 1 2 3 4 5 6 
#
# 1 151.8467 30.1785 48.3812 0.0000 0.0000 0.0000
# 2 30.1785 83.5431 35.1722 0.0000 0.0000 0.0000
# 3 48.3812 35.1722 163.9290 0.0000 0.0000 0.0000
# 4 0.0000 0.0000 0.0000 32.8545 0.0000 0.0000
# 5 0.0000 0.0000 0.0000 0.0000 17.1058 0.0000
# 6 0.0000 0.0000 0.0000 0.0000 0.0000 46.4520
#
#
#
# Elastic Compliance Matrix: (Units=1/GPa)
#
#
# Indices 1 2 3 4 5 6 
#
# 1 0.007552 -0.001967 -0.001807 0.000000 0.000000 0.000000
# 2 -0.001967 0.013671 -0.002353 0.000000 0.000000 0.000000
# 3 -0.001807 -0.002353 0.007138 0.000000 0.000000 0.000000
# 4 0.000000 0.000000 0.000000 0.030437 0.000000 0.000000
# 5 0.000000 0.000000 0.000000 0.000000 0.058460 0.000000
# 6 0.000000 0.000000 0.000000 0.000000 0.000000 0.021528
#
#
# Mechanical properties :
#
#
# Convention : Reuss Voigt Hill
#
# Bulk Modulus (GPa) = 62.08143 69.64252 65.86198
# Shear Modulus (GPa) = 31.96744 38.32157 35.14450
#
# Velocity S-wave (km/s) = 3.84427 4.20902 4.03077
# Velocity P-wave (km/s) = 6.95733 7.47105 7.21876
#
# Compressibility (1/GPa) = 0.01610788
#
# Stress axis : x y z
#
# Youngs Moduli (GPa) = 132.41019 73.14742 140.09107
#
# Poissons Ratio (x) = 0.14391 0.25312
# Poissons Ratio (y) = 0.26051 0.32957
# Poissons Ratio (z) = 0.23924 0.17208
#
# Static dielectric constant tensor:
#      x y z
#    x 1.780060 0.000000 0.000000 
#    y 0.000000 1.833530 0.000000 
#    z 0.000000 0.000000 -0.559290 
# 
# From -- ./inp_files/30539.got.cif
#   From: 2010.05.17/outbox.cif.g08.bks.cpg/sg50_16_cif.got.tgz:30539.got - 2010.06.03 11:33:33.
