data_PCOD9398669
_publ_section_title
;
Structure prediction by ZEFSAII (Michael W. Deem and Ramdas Pophale) SiO2 
 PCOD9398669
Probable space group: P M M A
;
_chemical_formula_sum "Si O2"
_cell_formula_units_Z 64
_cell_length_a 22.911529
_cell_length_b 7.313464
_cell_length_c 14.585529
_cell_angle_alpha 90.000000
_cell_angle_beta 90.000000
_cell_angle_gamma 90.000000
_cell_volume 2443.989782
_symmetry_space_group_name_H-M "P M M A"
_symmetry_group_IT_number 51
_symmetry_cell_setting 'orthorhombic'
loop_
_space_group_symop_operation_xyz
x,y,z
1/2-x,-y,z
1/2+x,-y,-z
-x,y,-z
-x,-y,-z
1/2+x,y,-z
1/2-x,y,z
x,-y,z
loop_
_atom_site_type_symbol
_atom_site_label
_atom_site_fract_x
_atom_site_fract_y
_atom_site_fract_z
Si Si1 0.936146 0.295798 0.006588
Si Si2 0.687113 0.277089 0.018142
Si Si3 0.936577 0.209047 0.513056
Si Si4 0.312340 0.222127 0.483355
Si Si5 0.812252 0.281334 0.233750
Si Si6 0.436671 0.215052 0.787108
Si Si7 0.563257 0.791299 0.732450
Si Si8 0.187479 0.777873 0.265690
O O1 0.941695 0.500000 0.965431
O O2 0.874302 0.212209 0.975834
O O3 0.927638 0.309425 0.115610
O O4 0.000000 0.206471 0.000000
O O5 0.750000 0.218039 0.979843
O O6 0.685281 0.500000 0.014514
O O7 0.688067 0.225115 0.126019
O O8 0.874840 0.289045 0.480410
O O9 0.930646 0.199122 0.622857
O O10 0.000000 0.295474 0.500000
O O11 0.940773 0.000000 0.475227
O O12 0.250000 0.285440 0.521938
O O13 0.310636 0.263985 0.374647
O O14 0.313985 0.000000 0.490471
O O15 0.750000 0.213127 0.272520
O O16 0.810385 0.500000 0.236300
O O17 0.876542 0.231847 0.269562
O O18 0.498747 0.284630 0.750168
O O19 0.442453 0.000000 0.804020
O O20 0.624325 0.708634 0.767531
O O21 0.561974 0.000000 0.767632
O O22 0.250000 0.714280 0.227208
O O23 0.186374 0.000000 0.258685
#
# Coordination Sequence:
#
# PCOD9398669 Si02
#       8
#     8   8   8   8   8   8   8   8
#     4   9  17  29  44  60  78 103 137 172 201 235
#     4   7  10  19  37  58  74  88 114 156 198 226
#     4   8  12  18  29  43  62  93 130 162 193 234
#     4   7   9  13  22  37  54  73 108 159 198 217
#     4   8  14  26  43  60  78 102 136 174 201 227
#     4  10  18  26  39  60  87 112 130 159 207 259
#     4   8  14  22  31  49  76 102 129 162 202 245
#     4   7   9  15  28  43  60  87 124 162 194 223
#
# _framework density 26.186689000000001
#
# number of rings (size 3 to 8) (size 9 to 14) (size 15 to 20)
#    0.000    4.000    0.000    4.125    0.000    0.500 
#    0.000    0.000    0.000    1.500    0.000    3.500 
#    0.000    3.500    0.000    0.000    0.000    0.750 
#
# Total GULP energy -356426.053882 kJ/mol
# GULP energy per Si atom -5569.157092 kJ/mol
# Density = 2.612709 g / cm^3
# Si number density = 26.186689 Si / 1000 Ang^3
#
#
#
# Elastic Constant Matrix: (Units=GPa)
#
#
# Indices 1 2 3 4 5 6 
#
# 1 400.9445 19.5228 14.3687 0.0000 0.0000 0.0000
# 2 19.5228 113.8546 -5.9054 0.0000 0.0000 0.0000
# 3 14.3687 -5.9054 70.6855 0.0000 0.0000 0.0000
# 4 0.0000 0.0000 0.0000 -12.8159 0.0000 0.0000
# 5 0.0000 0.0000 0.0000 0.0000 15.5398 0.0000
# 6 0.0000 0.0000 0.0000 0.0000 0.0000 -12.0722
#
#
#
# Elastic Compliance Matrix: (Units=1/GPa)
#
#
# Indices 1 2 3 4 5 6 
#
# 1 0.002537 -0.000464 -0.000554 0.000000 0.000000 0.000000
# 2 -0.000464 0.008906 0.000838 0.000000 0.000000 0.000000
# 3 -0.000554 0.000838 0.014330 0.000000 0.000000 0.000000
# 4 0.000000 0.000000 0.000000 -0.078028 0.000000 0.000000
# 5 0.000000 0.000000 0.000000 0.000000 0.064351 0.000000
# 6 0.000000 0.000000 0.000000 0.000000 0.000000 -0.082835
#
#
# Mechanical properties :
#
#
# Convention : Reuss Voigt Hill
#
# Bulk Modulus (GPa) = 39.34981 71.27299 55.31140
# Shear Modulus (GPa) = -80.76306 35.29693 -22.73306
#
# Velocity S-wave (km/s) = -5.55952 3.67535 -2.94958
# Velocity P-wave (km/s) = 5.11387 6.72958 3.09319
#
# Compressibility (1/GPa) = 0.02541308
#
# Stress axis : x y z
#
# Youngs Moduli (GPa) = 394.23533 112.28232 69.78420
#
# Poissons Ratio (x) = 0.05207 0.03869
# Poissons Ratio (y) = 0.18281 -0.05850
# Poissons Ratio (z) = 0.21855 -0.09413
#
# Static dielectric constant tensor:
#      x y z
#    x 2.211060 0.000000 0.000000 
#    y 0.000000 2.048130 0.000000 
#    z 0.000000 0.000000 2.058180 
# 
# From -- ./inp_files/34235.got.cif
#   From: 2010.05.17/outbox.cif.g08.bks.cpg/sg51_18_cif.got.tgz:34235.got - 2010.06.03 11:52:47.
