data_PCOD9398495
_publ_section_title
;
Structure prediction by ZEFSAII (Michael W. Deem and Ramdas Pophale) SiO2 
 PCOD9398495
Probable space group: P M M A
;
_chemical_formula_sum "Si O2"
_cell_formula_units_Z 44
_cell_length_a 8.635196
_cell_length_b 17.524772
_cell_length_c 15.842468
_cell_angle_alpha 90.000000
_cell_angle_beta 90.000000
_cell_angle_gamma 90.000000
_cell_volume 2397.438165
_symmetry_space_group_name_H-M "P M M A"
_symmetry_group_IT_number 51
_symmetry_cell_setting 'orthorhombic'
loop_
_space_group_symop_operation_xyz
x,y,z
1/2-x,-y,z
1/2+x,-y,-z
-x,y,-z
-x,-y,-z
1/2+x,y,-z
1/2-x,y,z
x,-y,z
loop_
_atom_site_type_symbol
_atom_site_label
_atom_site_fract_x
_atom_site_fract_y
_atom_site_fract_z
Si Si1 0.936865 0.700878 0.760366
Si Si2 0.434789 0.117672 0.412398
Si Si3 0.433938 0.000000 0.905167
Si Si4 0.436777 0.879808 0.225275
Si Si5 0.065865 0.709999 0.584793
Si Si6 0.563413 0.587280 0.908232
O O1 0.750000 0.697709 0.750203
O O2 0.976022 0.789725 0.778224
O O3 0.984781 0.646664 0.836809
O O4 0.015515 0.674605 0.673422
O O5 0.500000 0.084986 0.500000
O O6 0.250000 0.112148 0.415873
O O7 0.484399 0.090446 0.319065
O O8 0.485799 0.206387 0.412417
O O9 0.490710 0.927624 0.850211
O O10 0.250000 0.000000 0.910033
O O11 0.500000 0.000000 0.000000
O O12 0.250000 0.886700 0.220537
O O13 0.250000 0.718437 0.578997
O O14 0.000000 0.671828 0.500000
O O15 0.750000 0.588190 0.911331
O O16 0.514167 0.500000 0.889853
O O17 0.500000 0.608216 0.000000
#
# Coordination Sequence:
#
# PCOD9398495 Si02
#       6
#     8   8   4   8   8   8
#     4   9  18  33  53  78 106 136 170 209 252 297
#     4   9  16  28  49  76 106 137 166 203 249 298
#     4  12  26  42  59  74  95 130 171 216 264 312
#     4   9  19  36  55  76 104 135 170 212 254 298
#     4  10  17  26  44  71 103 137 172 210 250 296
#     4   9  18  33  53  77 106 137 167 204 253 306
#
# _framework density 18.352924000000002
#
# number of rings (size 3 to 8) (size 9 to 14) (size 15 to 20)
#    0.000    2.545    0.000    5.182    0.000    5.091 
#    0.000    2.273    0.000    0.545    0.000    0.000 
#    0.000    0.000    0.000    0.000    0.000    0.000 
#
# Total GULP energy -245305.508939 kJ/mol
# GULP energy per Si atom -5575.125203 kJ/mol
# Density = 1.831115 g / cm^3
# Si number density = 18.352924 Si / 1000 Ang^3
#
#
#
# Elastic Constant Matrix: (Units=GPa)
#
#
# Indices 1 2 3 4 5 6 
#
# 1 37.3960 22.4348 55.7850 0.0000 0.0000 0.0000
# 2 22.4348 66.0670 82.8505 0.0000 0.0000 0.0000
# 3 55.7850 82.8505 223.4525 0.0000 0.0000 0.0000
# 4 0.0000 0.0000 0.0000 319.2975 0.0000 0.0000
# 5 0.0000 0.0000 0.0000 0.0000 37.0209 0.0000
# 6 0.0000 0.0000 0.0000 0.0000 0.0000 13.8353
#
#
#
# Elastic Compliance Matrix: (Units=1/GPa)
#
#
# Indices 1 2 3 4 5 6 
#
# 1 0.042767 -0.002119 -0.009891 0.000000 0.000000 0.000000
# 2 -0.002119 0.028395 -0.009999 0.000000 0.000000 0.000000
# 3 -0.009891 -0.009999 0.010652 0.000000 0.000000 0.000000
# 4 0.000000 0.000000 0.000000 0.003132 0.000000 0.000000
# 5 0.000000 0.000000 0.000000 0.000000 0.027012 0.000000
# 6 0.000000 0.000000 0.000000 0.000000 0.000000 0.072279
#
#
# Mechanical properties :
#
#
# Convention : Reuss Voigt Hill
#
# Bulk Modulus (GPa) = 26.45796 72.11733 49.28764
# Shear Modulus (GPa) = 20.75953 85.08710 52.92332
#
# Velocity S-wave (km/s) = 3.36688 6.81632 5.37578
# Velocity P-wave (km/s) = 5.43709 10.06627 8.08986
#
# Compressibility (1/GPa) = 0.03779581
#
# Stress axis : x y z
#
# Youngs Moduli (GPa) = 23.38249 35.21753 93.87883
#
# Poissons Ratio (x) = 0.07461 0.92858
# Poissons Ratio (y) = 0.04954 0.93871
# Poissons Ratio (z) = 0.23128 0.35215
#
# Static dielectric constant tensor:
#      x y z
#    x 1.769430 0.000000 0.000000 
#    y 0.000000 1.641170 0.000000 
#    z 0.000000 0.000000 1.664480 
# 
# From -- ./inp_files/20915.got.cif
#   From: 2010.05.17/outbox.cif.g08.bks.cpg/sg51_11_cif.got.tgz:20915.got - 2010.06.03 11:52:47.
