data_PCOD9398950
_publ_section_title
;
Structure prediction by ZEFSAII (Michael W. Deem and Ramdas Pophale) SiO2 
 PCOD9398950
Probable space group: P M M A
;
_chemical_formula_sum "Si O2"
_cell_formula_units_Z 56
_cell_length_a 14.107551
_cell_length_b 21.485713
_cell_length_c 7.484284
_cell_angle_alpha 90.000000
_cell_angle_beta 90.000000
_cell_angle_gamma 90.000000
_cell_volume 2268.567250
_symmetry_space_group_name_H-M "P M M A"
_symmetry_group_IT_number 51
_symmetry_cell_setting 'orthorhombic'
loop_
_space_group_symop_operation_xyz
x,y,z
1/2-x,-y,z
1/2+x,-y,-z
-x,y,-z
-x,-y,-z
1/2+x,y,-z
1/2-x,y,z
x,-y,z
loop_
_atom_site_type_symbol
_atom_site_label
_atom_site_fract_x
_atom_site_fract_y
_atom_site_fract_z
Si Si1 0.859307 0.000000 0.875566
Si Si2 0.854082 0.675855 0.134144
Si Si3 0.495085 0.226573 0.265013
Si Si4 0.983511 0.428790 0.217193
Si Si5 0.856426 0.127898 0.419301
Si Si6 0.852304 0.864844 0.847965
Si Si7 0.640774 0.666259 0.702996
Si Si8 0.941610 0.000000 0.319613
O O1 0.857860 0.929866 0.951022
O O2 0.968509 0.000000 0.809696
O O3 0.750000 0.000000 0.786362
O O4 0.750000 0.694322 0.194808
O O5 0.934717 0.724039 0.182105
O O6 0.888365 0.612205 0.228425
O O7 0.852884 0.670672 0.919529
O O8 0.564023 0.176706 0.360577
O O9 0.431929 0.185461 0.131633
O O10 0.415093 0.271245 0.360909
O O11 0.975629 0.500000 0.274034
O O12 0.069665 0.392564 0.316243
O O13 0.000000 0.428744 0.000000
O O14 0.750000 0.148369 0.374042
O O15 0.859344 0.118590 0.635163
O O16 0.879530 0.061844 0.330438
O O17 0.750000 0.835946 0.882158
O O18 0.750000 0.661781 0.638323
O O19 0.000000 0.000000 0.500000
#
# Coordination Sequence:
#
# PCOD9398950 Si02
#       8
#     4   8   8   8   8   8   8   4
#     4  10  18  29  44  63  88 116 143 176 221 274
#     4   9  18  31  45  64  92 121 151 183 215 253
#     4  11  18  29  44  63  87 120 154 184 213 258
#     4   8  14  25  43  67  92 117 144 173 210 258
#     4  11  21  30  43  65  93 120 147 179 221 271
#     4  10  19  30  44  65  91 117 145 179 220 272
#     4   9  18  31  46  65  90 120 151 184 218 254
#     4  12  17  29  44  63  87 120 142 176 220 276
#
# _framework density 24.685182999999999
#
# number of rings (size 3 to 8) (size 9 to 14) (size 15 to 20)
#    0.000    2.143    2.857    2.786    0.000    0.571 
#    0.000    2.857    0.000    0.000    0.000    8.000 
#    0.000   54.857    0.000   96.000    0.000    4.571 
#
# Total GULP energy -312728.903585 kJ/mol
# GULP energy per Si atom -5584.444707 kJ/mol
# Density = 2.462900 g / cm^3
# Si number density = 24.685183 Si / 1000 Ang^3
#
#
#
# Elastic Constant Matrix: (Units=GPa)
#
#
# Indices 1 2 3 4 5 6 
#
# 1 204.8986 78.9242 22.8257 0.0000 0.0000 0.0000
# 2 78.9242 185.8686 10.8561 0.0000 0.0000 0.0000
# 3 22.8257 10.8561 65.2447 0.0000 0.0000 0.0000
# 4 0.0000 0.0000 0.0000 16.8173 0.0000 0.0000
# 5 0.0000 0.0000 0.0000 0.0000 16.5910 0.0000
# 6 0.0000 0.0000 0.0000 0.0000 0.0000 10.9733
#
#
#
# Elastic Compliance Matrix: (Units=1/GPa)
#
#
# Indices 1 2 3 4 5 6 
#
# 1 0.006015 -0.002455 -0.001696 0.000000 0.000000 0.000000
# 2 -0.002455 0.006435 -0.000212 0.000000 0.000000 0.000000
# 3 -0.001696 -0.000212 0.015955 0.000000 0.000000 0.000000
# 4 0.000000 0.000000 0.000000 0.059462 0.000000 0.000000
# 5 0.000000 0.000000 0.000000 0.000000 0.060274 0.000000
# 6 0.000000 0.000000 0.000000 0.000000 0.000000 0.091130
#
#
# Mechanical properties :
#
#
# Convention : Reuss Voigt Hill
#
# Bulk Modulus (GPa) = 50.81300 75.69154 63.25227
# Shear Modulus (GPa) = 19.64193 31.77006 25.70599
#
# Velocity S-wave (km/s) = 2.82387 3.59138 3.23050
# Velocity P-wave (km/s) = 5.59119 6.92291 6.29238
#
# Compressibility (1/GPa) = 0.01968000
#
# Stress axis : x y z
#
# Youngs Moduli (GPa) = 166.24992 155.40012 62.67451
#
# Poissons Ratio (x) = 0.38152 0.10629
# Poissons Ratio (y) = 0.40816 0.01328
# Poissons Ratio (z) = 0.28193 0.03292
#
# Static dielectric constant tensor:
#      x y z
#    x 1.911030 0.000000 0.000000 
#    y 0.000000 1.915150 0.000000 
#    z 0.000000 0.000000 2.140120 
# 
# From -- ./inp_files/24415.got.cif
#   From: 2010.05.17/outbox.cif.g08.bks.cpg/sg51_13_cif.got.tgz:24415.got - 2010.06.03 11:52:47.
