data_PCOD9398248
_publ_section_title
;
Structure prediction by ZEFSAII (Michael W. Deem and Ramdas Pophale) SiO2 
 PCOD9398248
Probable space group: P B A N
;
_chemical_formula_sum "Si O2"
_cell_formula_units_Z 34
_cell_length_a 33.509320
_cell_length_b 5.306415
_cell_length_c 9.949037
_cell_angle_alpha 90.000000
_cell_angle_beta 90.000000
_cell_angle_gamma 90.000000
_cell_volume 1769.081630
_symmetry_space_group_name_H-M "P B A N"
_symmetry_group_IT_number 50
_space_group.IT_coordinate_system_code '2'
_symmetry_cell_setting 'orthorhombic'
loop_
_space_group_symop_operation_xyz
x,y,z
1/2-x,1/2-y,z
x,1/2-y,-z
1/2-x,y,-z
-x,-y,-z
1/2+x,1/2+y,-z
-x,1/2+y,z
1/2+x,-y,z
loop_
_atom_site_type_symbol
_atom_site_label
_atom_site_fract_x
_atom_site_fract_y
_atom_site_fract_z
Si Si1 0.913849 0.748876 0.242922
Si Si2 0.250000 0.250000 0.500000
Si Si3 0.474207 0.250000 0.000000
Si Si4 0.471515 0.250000 0.500000
Si Si5 0.634367 0.249725 0.835686
Si Si6 0.794689 0.356207 0.643370
O O1 0.946099 0.736060 0.126597
O O2 0.940795 0.743885 0.375589
O O3 0.884720 0.509406 0.220380
O O4 0.890699 0.011222 0.219831
O O5 0.217473 0.361890 0.394627
O O6 0.500000 0.500000 0.000000
O O7 0.500000 0.500000 0.500000
O O8 0.677460 0.207393 0.767119
O O9 0.634614 0.250000 0.000000
O O10 0.750000 0.250000 0.659842
O O11 0.811033 0.250000 0.500000
#
# Coordination Sequence:
#
# PCOD9398248 Si02
#       6
#     8   2   4   4   8   8
#     4  12  26  44  66 103 134 172 223 274 336 394
#     4   8  18  42  64 104 124 168 238 266 326 396
#     4  12  22  42  70  90 125 178 215 262 324 392
#     4  12  26  47  70 100 133 170 227 286 334 402
#     4  12  25  44  66  99 141 177 219 274 326 398
#     4   9  22  40  69  97 131 174 227 266 331 389
#
# _framework density 19.219010999999998
#
# number of rings (size 3 to 8) (size 9 to 14) (size 15 to 20)
#    0.000    1.176    2.353    4.235    9.882    0.471 
#    0.000    0.000    0.000    0.000    0.000    0.000 
#    0.000    0.000    0.000    0.000    0.000    0.000 
#
# Total GULP energy -189389.346579 kJ/mol
# GULP energy per Si atom -5570.274899 kJ/mol
# Density = 1.917527 g / cm^3
# Si number density = 19.219011 Si / 1000 Ang^3
#
#
#
# Elastic Constant Matrix: (Units=GPa)
#
#
# Indices 1 2 3 4 5 6 
#
# 1 96.9110 38.1389 69.1427 0.0000 0.0000 0.0000
# 2 38.1389 117.5061 33.6333 0.0000 0.0000 0.0000
# 3 69.1427 33.6333 174.8975 0.0000 0.0000 0.0000
# 4 0.0000 0.0000 0.0000 25.5251 0.0000 0.0000
# 5 0.0000 0.0000 0.0000 0.0000 51.8917 0.0000
# 6 0.0000 0.0000 0.0000 0.0000 0.0000 397.8934
#
#
#
# Elastic Compliance Matrix: (Units=1/GPa)
#
#
# Indices 1 2 3 4 5 6 
#
# 1 0.015620 -0.003495 -0.005503 0.000000 0.000000 0.000000
# 2 -0.003495 0.009788 -0.000501 0.000000 0.000000 0.000000
# 3 -0.005503 -0.000501 0.007990 0.000000 0.000000 0.000000
# 4 0.000000 0.000000 0.000000 0.039177 0.000000 0.000000
# 5 0.000000 0.000000 0.000000 0.000000 0.019271 0.000000
# 6 0.000000 0.000000 0.000000 0.000000 0.000000 0.002513
#
#
# Mechanical properties :
#
#
# Convention : Reuss Voigt Hill
#
# Bulk Modulus (GPa) = 69.44191 74.57162 72.00676
# Shear Modulus (GPa) = 42.31680 111.62203 76.96941
#
# Velocity S-wave (km/s) = 4.69745 7.62922 6.33526
# Velocity P-wave (km/s) = 8.10134 10.79314 9.54263
#
# Compressibility (1/GPa) = 0.01440053
#
# Stress axis : x y z
#
# Youngs Moduli (GPa) = 64.01863 102.16817 125.16413
#
# Poissons Ratio (x) = 0.35705 0.68881
# Poissons Ratio (y) = 0.22373 0.06266
# Poissons Ratio (z) = 0.35231 0.05115
#
# Static dielectric constant tensor:
#      x y z
#    x 1.647400 0.000000 0.000000 
#    y 0.000000 1.981120 0.000000 
#    z 0.000000 0.000000 1.654960 
# 
# From -- ./inp_files/16736.got.cif
#   From: 2010.05.17/outbox.cif.g08.bks.cpg/sg50_9_cif.got.tgz:16736.got - 2010.06.03 11:33:33.
