data_PCOD9398699
_publ_section_title
;
Structure prediction by ZEFSAII (Michael W. Deem and Ramdas Pophale) SiO2 
 PCOD9398699
Probable space group: P M M A
;
_chemical_formula_sum "Si O2"
_cell_formula_units_Z 64
_cell_length_a 9.013151
_cell_length_b 26.975520
_cell_length_c 18.855784
_cell_angle_alpha 90.000000
_cell_angle_beta 90.000000
_cell_angle_gamma 90.000000
_cell_volume 4584.490391
_symmetry_space_group_name_H-M "P M M A"
_symmetry_group_IT_number 51
_symmetry_cell_setting 'orthorhombic'
loop_
_space_group_symop_operation_xyz
x,y,z
1/2-x,-y,z
1/2+x,-y,-z
-x,y,-z
-x,-y,-z
1/2+x,y,-z
1/2-x,y,z
x,-y,z
loop_
_atom_site_type_symbol
_atom_site_label
_atom_site_fract_x
_atom_site_fract_y
_atom_site_fract_z
Si Si1 0.074026 0.740290 0.075951
Si Si2 0.573402 0.057229 0.424443
Si Si3 0.428735 0.646328 0.175234
Si Si4 0.573498 0.297603 0.296871
Si Si5 0.927207 0.207626 0.787202
Si Si6 0.928379 0.557247 0.924836
Si Si7 0.072505 0.755653 0.422768
Si Si8 0.424975 0.141686 0.337832
O O1 0.250000 0.737993 0.065484
O O2 0.032458 0.690512 0.119695
O O3 0.042498 0.785947 0.129663
O O4 0.000000 0.743379 0.000000
O O5 0.500000 0.070011 0.500000
O O6 0.750000 0.060418 0.431442
O O7 0.516379 0.095721 0.366532
O O8 0.533613 0.000000 0.408143
O O9 0.250000 0.648090 0.185178
O O10 0.507434 0.657786 0.249705
O O11 0.470371 0.595027 0.137361
O O12 0.750000 0.300808 0.303123
O O13 0.523683 0.249499 0.251341
O O14 0.497926 0.286634 0.372514
O O15 0.750000 0.219380 0.776729
O O16 0.954405 0.157615 0.743589
O O17 0.750000 0.559747 0.932155
O O18 0.969561 0.500000 0.910431
O O19 0.000000 0.571773 0.000000
O O20 0.250000 0.749790 0.426411
O O21 0.043561 0.809044 0.385031
O O22 0.000000 0.755302 0.500000
O O23 0.250000 0.131132 0.345286
#
# Coordination Sequence:
#
# PCOD9398699 Si02
#       8
#     8   8   8   8   8   8   8   8
#     4   9  16  25  38  56  79 106 134 164 198 237
#     4  10  20  31  42  58  81 107 135 168 202 234
#     4   9  17  29  41  54  79 112 140 169 206 243
#     4  10  18  27  41  60  79 103 137 171 202 239
#     4   8  16  30  42  55  79 108 134 164 203 241
#     4   9  17  28  42  60  82 109 141 176 212 247
#     4  10  19  30  43  61  85 110 136 166 201 239
#     4   9  17  29  45  60  77 106 139 167 197 235
#
# _framework density 13.960112000000001
#
# number of rings (size 3 to 8) (size 9 to 14) (size 15 to 20)
#    0.000    2.750    0.000    4.125    0.000    6.750 
#    0.000    0.000    0.000    0.000    0.000    0.000 
#    0.000    1.000    0.000    2.500    0.000    4.000 
#
# Total GULP energy -356380.905119 kJ/mol
# GULP energy per Si atom -5568.451642 kJ/mol
# Density = 1.392834 g / cm^3
# Si number density = 13.960112 Si / 1000 Ang^3
#
#
#
# Elastic Constant Matrix: (Units=GPa)
#
#
# Indices 1 2 3 4 5 6 
#
# 1 38.6591 26.4489 35.9046 0.0000 0.0000 0.0000
# 2 26.4489 55.4383 33.1952 0.0000 0.0000 0.0000
# 3 35.9046 33.1952 90.4945 0.0000 0.0000 0.0000
# 4 0.0000 0.0000 0.0000 24.3764 0.0000 0.0000
# 5 0.0000 0.0000 0.0000 0.0000 26.2863 0.0000
# 6 0.0000 0.0000 0.0000 0.0000 0.0000 16.5258
#
#
#
# Elastic Compliance Matrix: (Units=1/GPa)
#
#
# Indices 1 2 3 4 5 6 
#
# 1 0.049169 -0.015091 -0.013972 0.000000 0.000000 0.000000
# 2 -0.015091 0.027747 -0.004191 0.000000 0.000000 0.000000
# 3 -0.013972 -0.004191 0.018131 0.000000 0.000000 0.000000
# 4 0.000000 0.000000 0.000000 0.041023 0.000000 0.000000
# 5 0.000000 0.000000 0.000000 0.000000 0.038043 0.000000
# 6 0.000000 0.000000 0.000000 0.000000 0.000000 0.060511
#
#
# Mechanical properties :
#
#
# Convention : Reuss Voigt Hill
#
# Bulk Modulus (GPa) = 35.04033 41.74324 38.39178
# Shear Modulus (GPa) = 16.09550 19.37394 17.73472
#
# Velocity S-wave (km/s) = 3.39922 3.72937 3.56811
# Velocity P-wave (km/s) = 6.36875 6.96498 6.67353
#
# Compressibility (1/GPa) = 0.02853854
#
# Stress axis : x y z
#
# Youngs Moduli (GPa) = 20.33812 36.03968 55.15343
#
# Poissons Ratio (x) = 0.54389 0.77062
# Poissons Ratio (y) = 0.30693 0.23112
# Poissons Ratio (z) = 0.28417 0.15103
#
# Static dielectric constant tensor:
#      x y z
#    x 1.464440 0.000000 0.000000 
#    y 0.000000 1.460740 0.000000 
#    z 0.000000 0.000000 1.463370 
# 
# From -- ./inp_files/28701.got.cif
#   From: 2010.05.17/outbox.cif.g08.bks.cpg/sg51_15_cif.got.tgz:28701.got - 2010.06.03 11:52:47.
