data_PCOD9398720
_publ_section_title
;
Structure prediction by ZEFSAII (Michael W. Deem and Ramdas Pophale) SiO2 
 PCOD9398720
Probable space group: P M M A
;
_chemical_formula_sum "Si O2"
_cell_formula_units_Z 64
_cell_length_a 8.877774
_cell_length_b 26.848604
_cell_length_c 18.883455
_cell_angle_alpha 90.000000
_cell_angle_beta 90.000000
_cell_angle_gamma 90.000000
_cell_volume 4500.981751
_symmetry_space_group_name_H-M "P M M A"
_symmetry_group_IT_number 51
_symmetry_cell_setting 'orthorhombic'
loop_
_space_group_symop_operation_xyz
x,y,z
1/2-x,-y,z
1/2+x,-y,-z
-x,y,-z
-x,-y,-z
1/2+x,y,-z
1/2-x,y,z
x,-y,z
loop_
_atom_site_type_symbol
_atom_site_label
_atom_site_fract_x
_atom_site_fract_y
_atom_site_fract_z
Si Si1 0.423408 0.693938 0.290468
Si Si2 0.068561 0.056584 0.576899
Si Si3 0.929814 0.847086 0.337497
Si Si4 0.567999 0.261060 0.922383
Si Si5 0.929167 0.441308 0.923285
Si Si6 0.571096 0.645651 0.162206
Si Si7 0.423085 0.199694 0.208485
Si Si8 0.068506 0.245587 0.422487
O O1 0.250000 0.676466 0.290931
O O2 0.523349 0.657934 0.242745
O O3 0.424409 0.747210 0.249743
O O4 0.472057 0.708867 0.369512
O O5 0.250000 0.057427 0.570943
O O6 0.025120 0.098915 0.632789
O O7 0.000000 0.068243 0.500000
O O8 0.023017 0.000000 0.595799
O O9 0.750000 0.841868 0.343117
O O10 0.980062 0.836712 0.257012
O O11 0.006057 0.804856 0.386523
O O12 0.750000 0.264424 0.923990
O O13 0.503046 0.311142 0.886470
O O14 0.527010 0.215106 0.870190
O O15 0.500000 0.255465 0.000000
O O16 0.750000 0.432545 0.925428
O O17 0.955215 0.500000 0.910114
O O18 0.005481 0.406251 0.865471
O O19 0.000000 0.429305 0.000000
O O20 0.750000 0.647338 0.154481
O O21 0.250000 0.182497 0.206685
O O22 0.250000 0.242806 0.424848
O O23 0.000000 0.251259 0.500000
#
# Coordination Sequence:
#
# PCOD9398720 Si02
#       8
#     8   8   8   8   8   8   8   8
#     4   8  16  30  43  57  80 109 138 168 203 241
#     4   9  18  30  41  56  79 106 137 172 206 238
#     4  10  18  27  42  60  79 107 140 171 203 243
#     4  10  19  30  43  60  83 110 139 169 201 240
#     4  10  20  33  47  62  83 111 142 176 210 243
#     4  11  20  29  44  63  84 111 141 173 206 242
#     4   8  16  29  42  57  80 107 133 166 204 240
#     4  10  19  29  42  60  84 111 138 171 206 243
#
# _framework density 14.219118999999999
#
# number of rings (size 3 to 8) (size 9 to 14) (size 15 to 20)
#    0.000    2.500    0.000    4.875    0.000    8.250 
#    0.000    0.000    0.000    0.000    0.000    0.000 
#    0.000    1.000    0.000    2.750    0.000    3.750 
#
# Total GULP energy -356642.307410 kJ/mol
# GULP energy per Si atom -5572.536053 kJ/mol
# Density = 1.418676 g / cm^3
# Si number density = 14.219119 Si / 1000 Ang^3
#
#
#
# Elastic Constant Matrix: (Units=GPa)
#
#
# Indices 1 2 3 4 5 6 
#
# 1 62.8610 40.5334 43.4831 0.0000 0.0000 0.0000
# 2 40.5334 62.8776 43.8214 0.0000 0.0000 0.0000
# 3 43.4831 43.8214 105.3442 0.0000 0.0000 0.0000
# 4 0.0000 0.0000 0.0000 25.0449 0.0000 0.0000
# 5 0.0000 0.0000 0.0000 0.0000 24.4350 0.0000
# 6 0.0000 0.0000 0.0000 0.0000 0.0000 17.8733
#
#
#
# Elastic Compliance Matrix: (Units=1/GPa)
#
#
# Indices 1 2 3 4 5 6 
#
# 1 0.029736 -0.014949 -0.006056 0.000000 0.000000 0.000000
# 2 -0.014949 0.029912 -0.006272 0.000000 0.000000 0.000000
# 3 -0.006056 -0.006272 0.014602 0.000000 0.000000 0.000000
# 4 0.000000 0.000000 0.000000 0.039928 0.000000 0.000000
# 5 0.000000 0.000000 0.000000 0.000000 0.040925 0.000000
# 6 0.000000 0.000000 0.000000 0.000000 0.000000 0.055949
#
#
# Mechanical properties :
#
#
# Convention : Reuss Voigt Hill
#
# Bulk Modulus (GPa) = 50.77232 54.08429 52.42830
# Shear Modulus (GPa) = 18.37079 20.35364 19.36222
#
# Velocity S-wave (km/s) = 3.59831 3.78753 3.69413
# Velocity P-wave (km/s) = 7.28343 7.56611 7.42612
#
# Compressibility (1/GPa) = 0.01969577
#
# Stress axis : x y z
#
# Youngs Moduli (GPa) = 33.62909 33.43163 68.48554
#
# Poissons Ratio (x) = 0.49975 0.41474
# Poissons Ratio (y) = 0.50271 0.42957
# Poissons Ratio (z) = 0.20365 0.20970
#
# Static dielectric constant tensor:
#      x y z
#    x 1.476990 0.000000 0.000000 
#    y 0.000000 1.456960 0.000000 
#    z 0.000000 0.000000 1.477530 
# 
# From -- ./inp_files/28651.got.cif
#   From: 2010.05.17/outbox.cif.g08.bks.cpg/sg51_15_cif.got.tgz:28651.got - 2010.06.03 11:52:47.
