data_PCOD9398074
_publ_section_title
;
Structure prediction by ZEFSAII (Michael W. Deem and Ramdas Pophale) SiO2 
 PCOD9398074
Probable space group: P B A N
;
_chemical_formula_sum "Si O2"
_cell_formula_units_Z 64
_cell_length_a 17.572737
_cell_length_b 8.651013
_cell_length_c 21.463709
_cell_angle_alpha 90.000000
_cell_angle_beta 90.000000
_cell_angle_gamma 90.000000
_cell_volume 3262.955459
_symmetry_space_group_name_H-M "P B A N"
_symmetry_group_IT_number 50
_space_group.IT_coordinate_system_code '2'
_symmetry_cell_setting 'orthorhombic'
loop_
_space_group_symop_operation_xyz
x,y,z
1/2-x,1/2-y,z
x,1/2-y,-z
1/2-x,y,-z
-x,-y,-z
1/2+x,1/2+y,-z
-x,1/2+y,z
1/2+x,-y,z
loop_
_atom_site_type_symbol
_atom_site_label
_atom_site_fract_x
_atom_site_fract_y
_atom_site_fract_z
Si Si1 0.431551 0.469873 0.360325
Si Si2 0.038010 0.608599 0.247115
Si Si3 0.545837 0.660474 0.156801
Si Si4 0.169515 0.742589 0.669938
Si Si5 0.562718 0.096083 0.040260
Si Si6 0.163603 0.184350 0.066205
Si Si7 0.948376 0.834113 0.437845
Si Si8 0.671635 0.098264 0.536410
O O1 0.479080 0.463990 0.296420
O O2 0.356184 0.570194 0.349304
O O3 0.484615 0.567744 0.406970
O O4 0.422210 0.298959 0.389137
O O5 0.069025 0.491274 0.195050
O O6 0.103678 0.684325 0.288432
O O7 0.990802 0.731872 0.208520
O O8 0.481753 0.630345 0.104423
O O9 0.614737 0.743451 0.121717
O O10 0.250000 0.750000 0.703910
O O11 0.180173 0.843474 0.607290
O O12 0.637799 0.994970 0.058015
O O13 0.580211 0.250000 0.000000
O O14 0.500000 0.000000 0.000000
O O15 0.250000 0.250000 0.072285
O O16 0.135770 0.250000 0.000000
O O17 0.974781 0.750000 0.500000
O O18 0.882766 0.951673 0.459336
O O19 0.642135 0.250000 0.500000
O O20 0.750000 0.060509 0.500000
#
# Coordination Sequence:
#
# PCOD9398074 Si02
#       8
#     8   8   8   8   8   8   8   8
#     4  12  24  46  68 101 133 180 229 293 351 434
#     4  12  24  44  72  97 136 188 246 290 347 440
#     4  12  22  42  75 101 138 191 251 290 350 441
#     4  12  25  48  71  95 141 184 231 301 373 429
#     4  12  20  40  76 109 142 197 248 298 360 428
#     4  11  24  44  70 107 158 190 231 313 374 408
#     4  12  24  40  71  98 128 167 234 284 355 442
#     4  11  23  45  69  97 135 178 218 291 381 438
#
# _framework density 19.61412
#
# number of rings (size 3 to 8) (size 9 to 14) (size 15 to 20)
#    0.000    0.250    8.750    1.125    0.000    1.250 
#    4.500    1.250    0.000    0.000    0.000    0.000 
#    0.000    0.000    0.000    0.000    0.000    0.000 
#
# Total GULP energy -357514.927480 kJ/mol
# GULP energy per Si atom -5586.170742 kJ/mol
# Density = 1.956948 g / cm^3
# Si number density = 19.614120 Si / 1000 Ang^3
#
#
#
# Elastic Constant Matrix: (Units=GPa)
#
#
# Indices 1 2 3 4 5 6 
#
# 1 125.7549 61.3690 35.4883 0.0000 0.0000 0.0000
# 2 61.3690 126.0537 30.3511 0.0000 0.0000 0.0000
# 3 35.4883 30.3511 103.6024 0.0000 0.0000 0.0000
# 4 0.0000 0.0000 0.0000 -23.2681 0.0000 0.0000
# 5 0.0000 0.0000 0.0000 0.0000 24.5109 0.0000
# 6 0.0000 0.0000 0.0000 0.0000 0.0000 25.6088
#
#
#
# Elastic Compliance Matrix: (Units=1/GPa)
#
#
# Indices 1 2 3 4 5 6 
#
# 1 0.010938 -0.004759 -0.002353 0.000000 0.000000 0.000000
# 2 -0.004759 0.010606 -0.001477 0.000000 0.000000 0.000000
# 3 -0.002353 -0.001477 0.010891 0.000000 0.000000 0.000000
# 4 0.000000 0.000000 0.000000 -0.042977 0.000000 0.000000
# 5 0.000000 0.000000 0.000000 0.000000 0.040798 0.000000
# 6 0.000000 0.000000 0.000000 0.000000 0.000000 0.039049
#
#
# Mechanical properties :
#
#
# Convention : Reuss Voigt Hill
#
# Bulk Modulus (GPa) = 65.53981 67.75862 66.64921
# Shear Modulus (GPa) = 54.60481 20.58385 37.59433
#
# Velocity S-wave (km/s) = 5.28204 3.24302 4.38276
# Velocity P-wave (km/s) = 8.40756 6.97451 7.72434
#
# Compressibility (1/GPa) = 0.01525790
#
# Stress axis : x y z
#
# Youngs Moduli (GPa) = 91.42268 94.29053 91.82020
#
# Poissons Ratio (x) = 0.44871 0.21602
# Poissons Ratio (y) = 0.43506 0.13561
# Poissons Ratio (z) = 0.21509 0.13926
#
# Static dielectric constant tensor:
#      x y z
#    x 1.712970 0.000000 0.000000 
#    y 0.000000 1.758290 0.000000 
#    z 0.000000 0.000000 1.641680 
# 
# From -- ./inp_files/31107.got.cif
#   From: 2010.05.17/outbox.cif.g08.bks.cpg/sg50_16_cif.got.tgz:31107.got - 2010.06.03 11:33:33.
