data_PCOD9398742
_publ_section_title
;
Structure prediction by ZEFSAII (Michael W. Deem and Ramdas Pophale) SiO2 
 PCOD9398742
Probable space group: P M M A
;
_chemical_formula_sum "Si O2"
_cell_formula_units_Z 48
_cell_length_a 15.271502
_cell_length_b 7.322430
_cell_length_c 18.593784
_cell_angle_alpha 90.000000
_cell_angle_beta 90.000000
_cell_angle_gamma 90.000000
_cell_volume 2079.240681
_symmetry_space_group_name_H-M "P M M A"
_symmetry_group_IT_number 51
_symmetry_cell_setting 'orthorhombic'
loop_
_space_group_symop_operation_xyz
x,y,z
1/2-x,-y,z
1/2+x,-y,-z
-x,y,-z
-x,-y,-z
1/2+x,y,-z
1/2-x,y,z
x,-y,z
loop_
_atom_site_type_symbol
_atom_site_label
_atom_site_fract_x
_atom_site_fract_y
_atom_site_fract_z
Si Si1 0.652443 0.222269 0.121786
Si Si2 0.397814 0.291856 0.475653
Si Si3 0.029152 0.218254 0.172244
Si Si4 0.155688 0.723269 0.629083
Si Si5 0.463236 0.717042 0.330430
Si Si6 0.849434 0.222024 0.956251
O O1 0.750000 0.285010 0.141431
O O2 0.570884 0.286117 0.168616
O O3 0.654766 0.000000 0.123669
O O4 0.633380 0.274827 0.038760
O O5 0.500000 0.297026 0.500000
O O6 0.365143 0.500000 0.468942
O O7 0.349755 0.215694 0.545446
O O8 0.403932 0.209722 0.395899
O O9 0.069339 0.255256 0.249977
O O10 0.083977 0.287074 0.104261
O O11 0.025515 0.000000 0.164516
O O12 0.250000 0.779709 0.660225
O O13 0.154207 0.500000 0.629823
O O14 0.064080 0.785284 0.663922
O O15 0.467866 0.500000 0.343372
O O16 0.750000 0.275239 0.938782
O O17 0.852488 0.000000 0.956302
#
# Coordination Sequence:
#
# PCOD9398742 Si02
#       6
#     8   8   8   8   8   8
#     4   8  14  25  42  64  86 107 138 181 217 242
#     4   7  11  22  39  55  72  98 132 166 196 228
#     4  10  18  27  43  66  88 112 141 171 208 255
#     4   8  13  23  42  64  80 101 141 184 210 235
#     4   9  17  28  41  60  88 115 135 164 211 258
#     4   8  14  26  44  63  81 105 143 186 215 237
#
# _framework density 23.085349999999998
#
# number of rings (size 3 to 8) (size 9 to 14) (size 15 to 20)
#    0.000    3.667    0.000    3.500    0.000    2.667 
#    0.000    0.833    0.000    8.000    0.000    2.333 
#    0.000    0.000    0.000    0.000    0.000    0.000 
#
# Total GULP energy -267608.619707 kJ/mol
# GULP energy per Si atom -5575.179577 kJ/mol
# Density = 2.303281 g / cm^3
# Si number density = 23.085350 Si / 1000 Ang^3
#
#
#
# Elastic Constant Matrix: (Units=GPa)
#
#
# Indices 1 2 3 4 5 6 
#
# 1 26.8588 -2.2614 10.9877 0.0000 0.0000 0.0000
# 2 -2.2614 90.3946 -8.0680 0.0000 0.0000 0.0000
# 3 10.9877 -8.0680 82.2214 0.0000 0.0000 0.0000
# 4 0.0000 0.0000 0.0000 9.3095 0.0000 0.0000
# 5 0.0000 0.0000 0.0000 0.0000 10.3530 0.0000
# 6 0.0000 0.0000 0.0000 0.0000 0.0000 -11.1858
#
#
#
# Elastic Compliance Matrix: (Units=1/GPa)
#
#
# Indices 1 2 3 4 5 6 
#
# 1 0.039409 0.000520 -0.005215 0.000000 0.000000 0.000000
# 2 0.000520 0.011167 0.001026 0.000000 0.000000 0.000000
# 3 -0.005215 0.001026 0.012960 0.000000 0.000000 0.000000
# 4 0.000000 0.000000 0.000000 0.107418 0.000000 0.000000
# 5 0.000000 0.000000 0.000000 0.000000 0.096590 0.000000
# 6 0.000000 0.000000 0.000000 0.000000 0.000000 -0.089399
#
#
# Mechanical properties :
#
#
# Convention : Reuss Voigt Hill
#
# Bulk Modulus (GPa) = 17.79395 22.31014 20.05204
# Shear Modulus (GPa) = 24.48395 14.94977 19.71686
#
# Velocity S-wave (km/s) = 3.26019 2.54753 2.92564
# Velocity P-wave (km/s) = 4.67936 4.28234 4.48525
#
# Compressibility (1/GPa) = 0.05619888
#
# Stress axis : x y z
#
# Youngs Moduli (GPa) = 25.37481 89.54774 77.16087
#
# Poissons Ratio (x) = -0.04660 0.40242
# Poissons Ratio (y) = -0.01321 -0.07919
# Poissons Ratio (z) = 0.13234 -0.09190
#
# Static dielectric constant tensor:
#      x y z
#    x 1.855390 0.000000 0.000000 
#    y 0.000000 1.935270 0.000000 
#    z 0.000000 0.000000 1.863030 
# 
# From -- ./inp_files/30045.got.cif
#   From: 2010.05.17/outbox.cif.g08.bks.cpg/sg51_16_cif.got.tgz:30045.got - 2010.06.03 11:52:47.
