data_PCOD9398896
_publ_section_title
;
Structure prediction by ZEFSAII (Michael W. Deem and Ramdas Pophale) SiO2 
 PCOD9398896
Probable space group: P M M A
;
_chemical_formula_sum "Si O2"
_cell_formula_units_Z 56
_cell_length_a 15.972197
_cell_length_b 14.107054
_cell_length_c 14.755103
_cell_angle_alpha 90.000000
_cell_angle_beta 90.000000
_cell_angle_gamma 90.000000
_cell_volume 3324.629334
_symmetry_space_group_name_H-M "P M M A"
_symmetry_group_IT_number 51
_symmetry_cell_setting 'orthorhombic'
loop_
_space_group_symop_operation_xyz
x,y,z
1/2-x,-y,z
1/2+x,-y,-z
-x,y,-z
-x,-y,-z
1/2+x,y,-z
1/2-x,y,z
x,-y,z
loop_
_atom_site_type_symbol
_atom_site_label
_atom_site_fract_x
_atom_site_fract_y
_atom_site_fract_z
Si Si1 0.655321 0.279927 0.608485
Si Si2 0.407703 0.394909 0.545971
Si Si3 0.655291 0.113914 0.087432
Si Si4 0.488434 0.389683 0.281328
Si Si5 0.510906 0.803580 0.212487
Si Si6 0.155550 0.886007 0.125780
Si Si7 0.534498 0.112606 0.602485
O O1 0.750000 0.285809 0.639589
O O2 0.646249 0.317892 0.505542
O O3 0.593494 0.347792 0.666638
O O4 0.619133 0.173852 0.610138
O O5 0.500000 0.392132 0.500000
O O6 0.372452 0.500000 0.530090
O O7 0.432360 0.383814 0.650081
O O8 0.750000 0.142300 0.113518
O O9 0.583943 0.157530 0.149465
O O10 0.650160 0.000000 0.094631
O O11 0.644204 0.136582 0.980925
O O12 0.476628 0.500000 0.257710
O O13 0.506794 0.310148 0.207430
O O14 0.420718 0.842443 0.180785
O O15 0.520915 0.841072 0.316578
O O16 0.250000 0.856114 0.152675
O O17 0.151895 0.000000 0.134532
O O18 0.500000 0.127264 0.500000
O O19 0.543476 0.000000 0.617233
#
# Coordination Sequence:
#
# PCOD9398896 Si02
#       7
#     8   8   8   8   8   8   8
#     4  10  18  28  46  69  90 118 160 211 262 301
#     4   8  14  28  47  61  79 112 155 203 247 280
#     4   9  18  33  54  81 107 126 155 208 264 307
#     4   9  19  33  46  65  94 126 163 207 251 295
#     4  11  19  31  55  76  96 136 177 206 246 302
#     4   9  18  32  52  81 110 129 155 204 260 309
#     4  10  21  35  47  64  98 141 176 200 229 283
#
# _framework density 16.843983000000001
#
# number of rings (size 3 to 8) (size 9 to 14) (size 15 to 20)
#    0.000    2.571    0.000    6.000    0.000    4.857 
#    0.000    2.857    0.000    3.857    0.000    2.000 
#    0.000    0.000    0.000    0.000    0.000    0.000 
#
# Total GULP energy -311871.468602 kJ/mol
# GULP energy per Si atom -5569.133368 kJ/mol
# Density = 1.680565 g / cm^3
# Si number density = 16.843983 Si / 1000 Ang^3
#
#
#
# Elastic Constant Matrix: (Units=GPa)
#
#
# Indices 1 2 3 4 5 6 
#
# 1 64.7772 32.3266 38.0997 0.0000 0.0000 0.0000
# 2 32.3266 101.0068 28.1616 0.0000 0.0000 0.0000
# 3 38.0997 28.1616 56.5535 0.0000 0.0000 0.0000
# 4 0.0000 0.0000 0.0000 16.5111 0.0000 0.0000
# 5 0.0000 0.0000 0.0000 0.0000 9.1627 0.0000
# 6 0.0000 0.0000 0.0000 0.0000 0.0000 3.3812
#
#
#
# Elastic Compliance Matrix: (Units=1/GPa)
#
#
# Indices 1 2 3 4 5 6 
#
# 1 0.026984 -0.004143 -0.016116 0.000000 0.000000 0.000000
# 2 -0.004143 0.012132 -0.003251 0.000000 0.000000 0.000000
# 3 -0.016116 -0.003251 0.030158 0.000000 0.000000 0.000000
# 4 0.000000 0.000000 0.000000 0.060565 0.000000 0.000000
# 5 0.000000 0.000000 0.000000 0.000000 0.109138 0.000000
# 6 0.000000 0.000000 0.000000 0.000000 0.000000 0.295754
#
#
# Mechanical properties :
#
#
# Convention : Reuss Voigt Hill
#
# Bulk Modulus (GPa) = 44.93158 46.61259 45.77209
# Shear Modulus (GPa) = 8.48654 14.06096 11.27375
#
# Velocity S-wave (km/s) = 2.24706 2.89238 2.58990
# Velocity P-wave (km/s) = 5.78493 6.23600 6.01470
#
# Compressibility (1/GPa) = 0.02225606
#
# Stress axis : x y z
#
# Youngs Moduli (GPa) = 37.05937 82.42342 33.15846
#
# Poissons Ratio (x) = 0.34146 0.53438
# Poissons Ratio (y) = 0.15353 0.10779
# Poissons Ratio (z) = 0.59724 0.26793
#
# Static dielectric constant tensor:
#      x y z
#    x 1.561210 0.000000 0.000000 
#    y 0.000000 1.577320 0.000000 
#    z 0.000000 0.000000 1.605690 
# 
# From -- ./inp_files/24329.got.cif
#   From: 2010.05.17/outbox.cif.g08.bks.cpg/sg51_13_cif.got.tgz:24329.got - 2010.06.03 11:52:47.
