data_PCOD9398883
_publ_section_title
;
Structure prediction by ZEFSAII (Michael W. Deem and Ramdas Pophale) SiO2 
 PCOD9398883
Probable space group: P M M A
;
_chemical_formula_sum "Si O2"
_cell_formula_units_Z 52
_cell_length_a 9.015537
_cell_length_b 18.825393
_cell_length_c 18.871024
_cell_angle_alpha 90.000000
_cell_angle_beta 90.000000
_cell_angle_gamma 90.000000
_cell_volume 3202.809576
_symmetry_space_group_name_H-M "P M M A"
_symmetry_group_IT_number 51
_symmetry_cell_setting 'orthorhombic'
loop_
_space_group_symop_operation_xyz
x,y,z
1/2-x,-y,z
1/2+x,-y,-z
-x,y,-z
-x,-y,-z
1/2+x,y,-z
1/2-x,y,z
x,-y,z
loop_
_atom_site_type_symbol
_atom_site_label
_atom_site_fract_x
_atom_site_fract_y
_atom_site_fract_z
Si Si1 0.073750 0.281640 0.924891
Si Si2 0.071928 0.579015 0.837017
Si Si3 0.925919 0.351474 0.708081
Si Si4 0.573307 0.713453 0.423229
Si Si5 0.925291 0.000000 0.576968
Si Si6 0.073829 0.217501 0.781296
Si Si7 0.576039 0.867588 0.350527
O O1 0.250000 0.285747 0.934998
O O2 0.026039 0.357008 0.889441
O O3 0.045521 0.221545 0.864959
O O4 0.000000 0.269317 0.000000
O O5 0.250000 0.585258 0.827821
O O6 0.038683 0.500000 0.864298
O O7 0.995472 0.590655 0.760912
O O8 0.750000 0.358811 0.702320
O O9 0.001161 0.342333 0.631511
O O10 0.972300 0.278332 0.747441
O O11 0.500000 0.708735 0.500000
O O12 0.750000 0.703214 0.426612
O O13 0.548234 0.793014 0.391422
O O14 0.000000 0.000000 0.500000
O O15 0.978549 0.930180 0.618585
O O16 0.750000 0.000000 0.568760
O O17 0.250000 0.236857 0.771151
O O18 0.050440 0.148703 0.732855
O O19 0.750000 0.885022 0.360347
#
# Coordination Sequence:
#
# PCOD9398883 Si02
#       7
#     8   8   8   8   4   8   8
#     4   9  17  29  46  71  99 124 152 188 233 279
#     4   9  18  33  49  63  87 126 163 191 225 275
#     4  10  18  28  45  68  91 115 149 194 237 278
#     4  10  19  31  48  69  92 119 153 193 235 277
#     4  12  24  34  46  68 101 134 161 192 231 276
#     4   8  16  32  50  66  89 123 160 194 229 274
#     4   9  18  33  51  68  90 124 162 195 227 270
#
# _framework density 16.235745000000001
#
# number of rings (size 3 to 8) (size 9 to 14) (size 15 to 20)
#    0.000    2.615    0.000    4.846    0.000    7.385 
#    0.000    0.000    0.000    0.462    0.000    0.538 
#    0.000    0.000    0.000    0.000    0.000    0.000 
#
# Total GULP energy -289644.356661 kJ/mol
# GULP energy per Si atom -5570.083782 kJ/mol
# Density = 1.619879 g / cm^3
# Si number density = 16.235745 Si / 1000 Ang^3
#
#
#
# Elastic Constant Matrix: (Units=GPa)
#
#
# Indices 1 2 3 4 5 6 
#
# 1 52.9099 20.7810 49.2104 0.0000 0.0000 0.0000
# 2 20.7810 37.3525 31.4634 0.0000 0.0000 0.0000
# 3 49.2104 31.4634 148.3877 0.0000 0.0000 0.0000
# 4 0.0000 0.0000 0.0000 15.4264 0.0000 0.0000
# 5 0.0000 0.0000 0.0000 0.0000 32.3671 0.0000
# 6 0.0000 0.0000 0.0000 0.0000 0.0000 16.8577
#
#
#
# Elastic Compliance Matrix: (Units=1/GPa)
#
#
# Indices 1 2 3 4 5 6 
#
# 1 0.030211 -0.010188 -0.007859 0.000000 0.000000 0.000000
# 2 -0.010188 0.036029 -0.004261 0.000000 0.000000 0.000000
# 3 -0.007859 -0.004261 0.010249 0.000000 0.000000 0.000000
# 4 0.000000 0.000000 0.000000 0.064824 0.000000 0.000000
# 5 0.000000 0.000000 0.000000 0.000000 0.030896 0.000000
# 6 0.000000 0.000000 0.000000 0.000000 0.000000 0.059320
#
#
# Mechanical properties :
#
#
# Convention : Reuss Voigt Hill
#
# Bulk Modulus (GPa) = 31.37389 49.06220 40.21804
# Shear Modulus (GPa) = 17.43571 22.07658 19.75615
#
# Velocity S-wave (km/s) = 3.28061 3.69148 3.49209
# Velocity P-wave (km/s) = 5.80653 6.96086 6.40973
#
# Compressibility (1/GPa) = 0.03187364
#
# Stress axis : x y z
#
# Youngs Moduli (GPa) = 33.10081 27.75539 97.57299
#
# Poissons Ratio (x) = 0.28277 0.76680
# Poissons Ratio (y) = 0.33723 0.41573
# Poissons Ratio (z) = 0.26013 0.11826
#
# Static dielectric constant tensor:
#      x y z
#    x 1.538430 0.000000 0.000000 
#    y 0.000000 1.551720 0.000000 
#    z 0.000000 0.000000 1.560650 
# 
# From -- ./inp_files/27893.got.cif
#   From: 2010.05.17/outbox.cif.g08.bks.cpg/sg51_14_cif.got.tgz:27893.got - 2010.06.03 11:52:47.
