data_PCOD9398694
_publ_section_title
;
Structure prediction by ZEFSAII (Michael W. Deem and Ramdas Pophale) SiO2 
 PCOD9398694
Probable space group: P M M A
;
_chemical_formula_sum "Si O2"
_cell_formula_units_Z 56
_cell_length_a 8.678461
_cell_length_b 21.882604
_cell_length_c 18.965917
_cell_angle_alpha 90.000000
_cell_angle_beta 90.000000
_cell_angle_gamma 90.000000
_cell_volume 3601.766571
_symmetry_space_group_name_H-M "P M M A"
_symmetry_group_IT_number 51
_symmetry_cell_setting 'orthorhombic'
loop_
_space_group_symop_operation_xyz
x,y,z
1/2-x,-y,z
1/2+x,-y,-z
-x,y,-z
-x,-y,-z
1/2+x,y,-z
1/2-x,y,z
x,-y,z
loop_
_atom_site_type_symbol
_atom_site_label
_atom_site_fract_x
_atom_site_fract_y
_atom_site_fract_z
Si Si1 0.435881 0.431233 0.078192
Si Si2 0.073857 0.877040 0.790669
Si Si3 0.562750 0.068405 0.350103
Si Si4 0.926536 0.252851 0.292282
Si Si5 0.066752 0.188591 0.423175
Si Si6 0.436563 0.806944 0.921760
Si Si7 0.434853 0.310744 0.159264
O O1 0.250000 0.430513 0.074705
O O2 0.484166 0.500000 0.099294
O O3 0.483351 0.376707 0.129754
O O4 0.500000 0.419626 0.000000
O O5 0.250000 0.897377 0.802795
O O6 0.006934 0.921367 0.730973
O O7 0.076548 0.811800 0.750063
O O8 0.007391 0.859609 0.866880
O O9 0.750000 0.074829 0.349815
O O10 0.494880 0.122373 0.397280
O O11 0.524723 0.000000 0.373847
O O12 0.750000 0.270960 0.304337
O O13 0.009680 0.237374 0.365176
O O14 0.009853 0.298516 0.238820
O O15 0.250000 0.187222 0.425003
O O16 0.000000 0.201774 0.500000
O O17 0.250000 0.806886 0.921449
O O18 0.493703 0.742391 0.889912
O O19 0.500000 0.815186 0.000000
O O20 0.250000 0.305692 0.155856
#
# Coordination Sequence:
#
# PCOD9398694 Si02
#       7
#     8   8   8   8   8   8   8
#     4   9  18  30  42  59  88 126 164 199 232 266
#     4   7  13  26  42  59  79 105 136 174 219 263
#     4   9  17  31  50  68  86 113 150 186 220 262
#     4   9  17  31  48  66  89 115 145 180 221 266
#     4  11  21  33  49  69  95 122 147 177 217 262
#     4  10  18  27  40  59  84 111 143 186 233 275
#     4  10  18  28  44  65  88 116 152 189 227 269
#
# _framework density 15.547927
#
# number of rings (size 3 to 8) (size 9 to 14) (size 15 to 20)
#    0.000    2.714    0.000    4.714    0.000    2.857 
#    0.000    0.714    0.000    0.429    0.000    0.000 
#    0.000    0.571    0.000    1.571    0.000    2.714 
#
# Total GULP energy -311858.005967 kJ/mol
# GULP energy per Si atom -5568.892964 kJ/mol
# Density = 1.551254 g / cm^3
# Si number density = 15.547927 Si / 1000 Ang^3
#
#
#
# Elastic Constant Matrix: (Units=GPa)
#
#
# Indices 1 2 3 4 5 6 
#
# 1 53.4106 11.5593 29.3940 0.0000 0.0000 0.0000
# 2 11.5593 37.3807 25.3209 0.0000 0.0000 0.0000
# 3 29.3940 25.3209 119.7539 0.0000 0.0000 0.0000
# 4 0.0000 0.0000 0.0000 17.9506 0.0000 0.0000
# 5 0.0000 0.0000 0.0000 0.0000 24.9218 0.0000
# 6 0.0000 0.0000 0.0000 0.0000 0.0000 14.5516
#
#
#
# Elastic Compliance Matrix: (Units=1/GPa)
#
#
# Indices 1 2 3 4 5 6 
#
# 1 0.022073 -0.003683 -0.004639 0.000000 0.000000 0.000000
# 2 -0.003683 0.031838 -0.005828 0.000000 0.000000 0.000000
# 3 -0.004639 -0.005828 0.010721 0.000000 0.000000 0.000000
# 4 0.000000 0.000000 0.000000 0.055709 0.000000 0.000000
# 5 0.000000 0.000000 0.000000 0.000000 0.040125 0.000000
# 6 0.000000 0.000000 0.000000 0.000000 0.000000 0.068721
#
#
# Mechanical properties :
#
#
# Convention : Reuss Voigt Hill
#
# Bulk Modulus (GPa) = 27.52365 38.12152 32.82259
# Shear Modulus (GPa) = 18.54604 21.10286 19.82445
#
# Velocity S-wave (km/s) = 3.45748 3.68812 3.57466
# Velocity P-wave (km/s) = 5.80343 6.53516 6.18013
#
# Compressibility (1/GPa) = 0.03633238
#
# Stress axis : x y z
#
# Youngs Moduli (GPa) = 45.30401 31.40853 93.27139
#
# Poissons Ratio (x) = 0.11569 0.43270
# Poissons Ratio (y) = 0.16687 0.54358
# Poissons Ratio (z) = 0.21017 0.18305
#
# Static dielectric constant tensor:
#      x y z
#    x 1.530950 0.000000 0.000000 
#    y 0.000000 1.515850 0.000000 
#    z 0.000000 0.000000 1.527500 
# 
# From -- ./inp_files/28275.got.cif
#   From: 2010.05.17/outbox.cif.g08.bks.cpg/sg51_15_cif.got.tgz:28275.got - 2010.06.03 11:52:47.
