data_PCOD9398576
_publ_section_title
;
Structure prediction by ZEFSAII (Michael W. Deem and Ramdas Pophale) SiO2 
 PCOD9398576
Probable space group: P M M A
;
_chemical_formula_sum "Si O2"
_cell_formula_units_Z 40
_cell_length_a 14.691090
_cell_length_b 8.340190
_cell_length_c 15.779182
_cell_angle_alpha 90.000000
_cell_angle_beta 90.000000
_cell_angle_gamma 90.000000
_cell_volume 1933.367658
_symmetry_space_group_name_H-M "P M M A"
_symmetry_group_IT_number 51
_symmetry_cell_setting 'orthorhombic'
loop_
_space_group_symop_operation_xyz
x,y,z
1/2-x,-y,z
1/2+x,-y,-z
-x,y,-z
-x,-y,-z
1/2+x,y,-z
1/2-x,y,z
x,-y,z
loop_
_atom_site_type_symbol
_atom_site_label
_atom_site_fract_x
_atom_site_fract_y
_atom_site_fract_z
Si Si1 0.091748 0.181686 0.387529
Si Si2 0.250000 0.695983 0.702030
Si Si3 0.750000 0.321000 0.914071
Si Si4 0.951475 0.307019 0.257807
Si Si5 0.250000 0.174211 0.250328
Si Si6 0.052062 0.696091 0.085635
Si Si7 0.750000 0.691015 0.493022
O O1 0.162568 0.180167 0.309416
O O2 0.156296 0.254903 0.460565
O O3 0.003195 0.262267 0.345473
O O4 0.068935 0.000000 0.411439
O O5 0.250000 0.500000 0.704386
O O6 0.346268 0.748223 0.741885
O O7 0.250000 0.746358 0.603786
O O8 0.750000 0.500000 0.951719
O O9 0.750000 0.322484 0.811937
O O10 0.653855 0.241460 0.930341
O O11 0.951012 0.500000 0.253749
O O12 0.005310 0.249265 0.173389
O O13 0.250000 0.000000 0.206253
O O14 0.058092 0.500000 0.092087
O O15 0.000000 0.734199 0.000000
O O16 0.750000 0.500000 0.495043
#
# Coordination Sequence:
#
# PCOD9398576 Si02
#       7
#     8   4   4   8   4   8   4
#     4  10  20  34  54  82 111 138 176 226 279 328
#     4   9  21  37  54  78 107 146 190 228 267 326
#     4  10  17  28  50  78 103 132 178 221 263 321
#     4  10  19  35  57  78 107 148 189 226 276 331
#     4   9  17  29  48  74 103 128 159 211 267 313
#     4   9  18  30  49  81 113 140 177 227 275 320
#     4  10  20  36  56  80 109 140 181 226 273 330
#
# _framework density 20.689288999999999
#
# number of rings (size 3 to 8) (size 9 to 14) (size 15 to 20)
#    0.000    2.400    2.000    1.500    0.000    3.200 
#    0.000   10.500    0.000    2.400    0.000    0.000 
#    0.000    0.000    0.000    0.000    0.000    0.000 
#
# Total GULP energy -222744.636724 kJ/mol
# GULP energy per Si atom -5568.615918 kJ/mol
# Density = 2.064220 g / cm^3
# Si number density = 20.689289 Si / 1000 Ang^3
#
#
#
# Elastic Constant Matrix: (Units=GPa)
#
#
# Indices 1 2 3 4 5 6 
#
# 1 190.9843 11.0090 63.4429 0.0000 0.0000 0.0000
# 2 11.0090 23.2229 7.1238 0.0000 0.0000 0.0000
# 3 63.4429 7.1238 82.9681 0.0000 0.0000 0.0000
# 4 0.0000 0.0000 0.0000 -2.0279 0.0000 0.0000
# 5 0.0000 0.0000 0.0000 0.0000 -25.0388 0.0000
# 6 0.0000 0.0000 0.0000 0.0000 0.0000 41.2147
#
#
#
# Elastic Compliance Matrix: (Units=1/GPa)
#
#
# Indices 1 2 3 4 5 6 
#
# 1 0.007087 -0.001743 -0.005270 0.000000 0.000000 0.000000
# 2 -0.001743 0.044654 -0.002501 0.000000 0.000000 0.000000
# 3 -0.005270 -0.002501 0.016297 0.000000 0.000000 0.000000
# 4 0.000000 0.000000 0.000000 -0.493131 0.000000 0.000000
# 5 0.000000 0.000000 0.000000 0.000000 -0.039938 0.000000
# 6 0.000000 0.000000 0.000000 0.000000 0.000000 0.024263
#
#
# Mechanical properties :
#
#
# Convention : Reuss Voigt Hill
#
# Bulk Modulus (GPa) = 20.40370 51.14742 35.77556
# Shear Modulus (GPa) = -12.33341 17.20291 2.43475
#
# Velocity S-wave (km/s) = -2.44422 2.88668 1.08599
# Velocity P-wave (km/s) = 1.38484 5.99049 4.34763
#
# Compressibility (1/GPa) = 0.04901073
#
# Stress axis : x y z
#
# Youngs Moduli (GPa) = 141.10368 22.39417 61.36105
#
# Poissons Ratio (x) = 0.03904 0.32334
# Poissons Ratio (y) = 0.24597 0.15348
# Poissons Ratio (z) = 0.74355 0.05601
#
# Static dielectric constant tensor:
#      x y z
#    x 1.752420 0.000000 0.000000 
#    y 0.000000 1.758090 0.000000 
#    z 0.000000 0.000000 1.722940 
# 
# From -- ./inp_files/23881.got.cif
#   From: 2010.05.17/outbox.cif.g08.bks.cpg/sg51_12_cif.got.tgz:23881.got - 2010.06.03 11:52:47.
