data_PCOD9398319
_publ_section_title
;
Structure prediction by ZEFSAII (Michael W. Deem and Ramdas Pophale) SiO2 
 PCOD9398319
Probable space group: P B A N
;
_chemical_formula_sum "Si O2"
_cell_formula_units_Z 48
_cell_length_a 9.000000
_cell_length_b 18.000000
_cell_length_c 15.000000
_cell_angle_alpha 90.000000
_cell_angle_beta 90.000000
_cell_angle_gamma 90.000000
_cell_volume 2430.000000
_symmetry_space_group_name_H-M "P B A N"
_symmetry_group_IT_number 50
_space_group.IT_coordinate_system_code '2'
_symmetry_cell_setting 'orthorhombic'
loop_
_space_group_symop_operation_xyz
x,y,z
1/2-x,1/2-y,z
x,1/2-y,-z
1/2-x,y,-z
-x,-y,-z
1/2+x,1/2+y,-z
-x,1/2+y,z
1/2+x,-y,z
loop_
_atom_site_type_symbol
_atom_site_label
_atom_site_fract_x
_atom_site_fract_y
_atom_site_fract_z
Si Si1 0.126658 0.068977 0.061749
Si Si2 0.566006 0.076329 0.605021
Si Si3 0.959593 0.827954 0.232995
Si Si4 0.894855 0.654799 0.235301
Si Si5 0.637807 0.405384 0.928375
Si Si6 0.579713 0.414206 0.601286
O O1 0.062459 0.108162 0.148615
O O2 0.195103 0.989413 0.094239
O O3 0.250000 0.109041 0.000000
O O4 0.996764 0.071553 0.990860
O O5 0.473600 0.123860 0.676251
O O6 0.743910 0.076254 0.618012
O O7 0.548196 0.104026 0.502669
O O8 0.503163 0.992836 0.614476
O O9 0.947485 0.739422 0.223868
O O10 0.785440 0.852191 0.232992
O O11 0.067443 0.862501 0.156043
O O12 0.021905 0.854520 0.328158
O O13 0.750000 0.367660 0.000000
#
# Coordination Sequence:
#
# PCOD9398319 Si02
#       6
#     8   8   8   8   8   8
#     4  10  20  40  63  87 121 161 208 260 311 372
#     4  10  22  41  67  96 123 165 207 265 322 373
#     4  11  24  41  59  93 130 168 214 257 316 387
#     4  11  24  40  62  89 129 175 209 256 321 379
#     4  10  22  38  63  93 119 158 211 265 317 367
#     4  10  22  41  67  95 126 159 213 264 316 383
#
# _framework density 19.753086
#
# number of rings (size 3 to 8) (size 9 to 14) (size 15 to 20)
#    0.000    1.667    1.667    2.000    2.333    4.000 
#    0.000    4.167    0.000    0.000    0.000    0.000 
#    0.000    0.000    0.000    0.000    0.000    0.000 
#
# Total GULP energy -267341.322610 kJ/mol
# GULP energy per Si atom -5569.610888 kJ/mol
# Density = 1.970813 g / cm^3
# Si number density = 19.753086 Si / 1000 Ang^3
#
#
#
# Elastic Constant Matrix: (Units=GPa)
#
#
# Indices 1 2 3 4 5 6 
#
# 1 34.8245 -3.3792 22.0228 0.0000 0.0000 0.0000
# 2 -3.3792 49.1428 42.9088 0.0000 0.0000 0.0000
# 3 22.0228 42.9088 114.6313 0.0000 0.0000 0.0000
# 4 0.0000 0.0000 0.0000 -11.8055 0.0000 0.0000
# 5 0.0000 0.0000 0.0000 0.0000 45.0748 0.0000
# 6 0.0000 0.0000 0.0000 0.0000 0.0000 27.5200
#
#
#
# Elastic Compliance Matrix: (Units=1/GPa)
#
#
# Indices 1 2 3 4 5 6 
#
# 1 0.037722 0.013253 -0.012208 0.000000 0.000000 0.000000
# 2 0.013253 0.034885 -0.015604 0.000000 0.000000 0.000000
# 3 -0.012208 -0.015604 0.016910 0.000000 0.000000 0.000000
# 4 0.000000 0.000000 0.000000 -0.084706 0.000000 0.000000
# 5 0.000000 0.000000 0.000000 0.000000 0.022185 0.000000
# 6 0.000000 0.000000 0.000000 0.000000 0.000000 0.036337
#
#
# Mechanical properties :
#
#
# Convention : Reuss Voigt Hill
#
# Bulk Modulus (GPa) = 16.55667 35.74481 26.15074
# Shear Modulus (GPa) = 44.41121 21.29428 32.85274
#
# Velocity S-wave (km/s) = 4.74679 3.28689 4.08262
# Velocity P-wave (km/s) = 6.20021 5.70438 5.95746
#
# Compressibility (1/GPa) = 0.06039860
#
# Stress axis : x y z
#
# Youngs Moduli (GPa) = 26.50991 28.66555 59.13652
#
# Poissons Ratio (x) = -0.37991 0.72194
# Poissons Ratio (y) = -0.35134 0.92279
# Poissons Ratio (z) = 0.32363 0.44731
#
# Static dielectric constant tensor:
#      x y z
#    x 2.189490 0.000000 0.000000 
#    y 0.000000 1.733660 0.000000 
#    z 0.000000 0.000000 1.690460 
# 
# From -- ./inp_files/25013.got.cif
#   From: 2010.05.17/outbox.ucp.g08.bks.cvg/sg50_13_cif.got.tgz:25013.got - 2010.06.11 16:26:39.
