data_PCOD9398374
_publ_section_title
;
Structure prediction by ZEFSAII (Michael W. Deem and Ramdas Pophale) SiO2 
 PCOD9398374
Probable space group: P M M A
;
_chemical_formula_sum "Si O2"
_cell_formula_units_Z 48
_cell_length_a 14.938309
_cell_length_b 22.149806
_cell_length_c 5.687942
_cell_angle_alpha 90.000000
_cell_angle_beta 90.000000
_cell_angle_gamma 90.000000
_cell_volume 1882.029925
_symmetry_space_group_name_H-M "P M M A"
_symmetry_group_IT_number 51
_symmetry_cell_setting 'orthorhombic'
loop_
_space_group_symop_operation_xyz
x,y,z
1/2-x,-y,z
1/2+x,-y,-z
-x,y,-z
-x,-y,-z
1/2+x,y,-z
1/2-x,y,z
x,-y,z
loop_
_atom_site_type_symbol
_atom_site_label
_atom_site_fract_x
_atom_site_fract_y
_atom_site_fract_z
Si Si1 0.750000 0.606687 0.501005
Si Si2 0.586099 0.300252 0.250000
Si Si3 0.111138 0.115918 0.250000
Si Si4 0.090182 0.436036 0.750000
Si Si5 0.093119 0.071328 0.750000
Si Si6 0.609200 0.255262 0.750000
Si Si7 0.750000 0.606687 0.998995
O O1 0.660010 0.567606 0.467510
O O2 0.750000 0.635567 0.750000
O O3 0.750000 0.640816 0.250000
O O4 0.547683 0.369520 0.250000
O O5 0.632421 0.286374 0.500083
O O6 0.499022 0.258099 0.250000
O O7 0.632421 0.286374 0.999917
O O8 0.139465 0.087908 0.501689
O O9 0.136679 0.185992 0.250000
O O10 0.002872 0.105661 0.250000
O O11 0.139465 0.087908 0.998311
O O12 0.041488 0.500000 0.750000
O O13 0.160010 0.432394 0.967510
O O14 0.074526 0.000000 0.750000
#
# Coordination Sequence:
#
# PCOD9398374 Si02
#       7
#     4   8   8   8   8   8   4
#     4   8  18  33  50  70  90 106 128 160 218 293
#     4  10  19  32  46  62  83 109 152 190 211 249
#     4  10  16  26  39  50  77 112 140 180 216 234
#     4   9  20  32  50  70  88 109 133 177 234 275
#     4  10  16  22  36  59  77  97 136 187 223 244
#     4  10  20  33  44  59  83 122 160 187 205 232
#     4   8  18  33  50  70  90 106 128 160 218 293
#
# _framework density 25.504375
#
# number of rings (size 3 to 8) (size 9 to 14) (size 15 to 20)
#    1.000    1.333    0.000    8.500    2.333    1.333 
#    0.000    3.333    0.000    0.000    0.000    0.000 
#    0.000    0.000    0.000    0.000    0.000    0.000 
#
# Total GULP energy -267407.567122 kJ/mol
# GULP energy per Si atom -5570.990982 kJ/mol
# Density = 2.544633 g / cm^3
# Si number density = 25.504375 Si / 1000 Ang^3
#
#
#
# Elastic Constant Matrix: (Units=GPa)
#
#
# Indices 1 2 3 4 5 6 
#
# 1 40.8547 8.5061 29.4870 0.0000 0.0000 0.0000
# 2 8.5061 175.3642 78.2692 0.0000 0.0000 0.0000
# 3 29.4870 78.2692 329.1239 0.0000 0.0000 0.0000
# 4 0.0000 0.0000 0.0000 -10.6647 0.0000 0.0000
# 5 0.0000 0.0000 0.0000 0.0000 9.5828 0.0000
# 6 0.0000 0.0000 0.0000 0.0000 0.0000 16.5000
#
#
#
# Elastic Compliance Matrix: (Units=1/GPa)
#
#
# Indices 1 2 3 4 5 6 
#
# 1 0.026179 -0.000249 -0.002286 0.000000 0.000000 0.000000
# 2 -0.000249 0.006382 -0.001495 0.000000 0.000000 0.000000
# 3 -0.002286 -0.001495 0.003599 0.000000 0.000000 0.000000
# 4 0.000000 0.000000 0.000000 -0.093767 0.000000 0.000000
# 5 0.000000 0.000000 0.000000 0.000000 0.104354 0.000000
# 6 0.000000 0.000000 0.000000 0.000000 0.000000 0.060606
#
#
# Mechanical properties :
#
#
# Convention : Reuss Voigt Hill
#
# Bulk Modulus (GPa) = 35.58999 86.42971 61.00985
# Shear Modulus (GPa) = 40.07059 31.68899 35.87979
#
# Velocity S-wave (km/s) = 3.96804 3.52872 3.75481
# Velocity P-wave (km/s) = 5.91427 7.11086 6.53999
#
# Compressibility (1/GPa) = 0.02809779
#
# Stress axis : x y z
#
# Youngs Moduli (GPa) = 38.19869 156.69254 277.87090
#
# Poissons Ratio (x) = 0.03909 0.63524
# Poissons Ratio (y) = 0.00953 0.41551
# Poissons Ratio (z) = 0.08733 0.23431
#
# Static dielectric constant tensor:
#      x y z
#    x 5.133810 0.000000 0.000000 
#    y 0.000000 1.924950 0.000000 
#    z 0.000000 0.000000 2.038270 
# 
# From -- ./inp_files/2060.got.cif
#   From: 2010.05.17/outbox.cif.g08.bks.cpg/sg51_2_cif.got.tgz:2060.got - 2010.06.03 11:52:47.
