data_PCOD9398677
_publ_section_title
;
Structure prediction by ZEFSAII (Michael W. Deem and Ramdas Pophale) SiO2 
 PCOD9398677
Probable space group: P M M A
;
_chemical_formula_sum "Si O2"
_cell_formula_units_Z 52
_cell_length_a 19.486848
_cell_length_b 10.404381
_cell_length_c 13.719473
_cell_angle_alpha 90.000000
_cell_angle_beta 90.000000
_cell_angle_gamma 90.000000
_cell_volume 2781.603821
_symmetry_space_group_name_H-M "P M M A"
_symmetry_group_IT_number 51
_symmetry_cell_setting 'orthorhombic'
loop_
_space_group_symop_operation_xyz
x,y,z
1/2-x,-y,z
1/2+x,-y,-z
-x,y,-z
-x,-y,-z
1/2+x,y,-z
1/2-x,y,z
x,-y,z
loop_
_atom_site_type_symbol
_atom_site_label
_atom_site_fract_x
_atom_site_fract_y
_atom_site_fract_z
Si Si1 0.860391 0.647422 0.193116
Si Si2 0.250000 0.348180 0.971894
Si Si3 0.362987 0.852182 0.431564
Si Si4 0.750000 0.776097 0.818181
Si Si5 0.097774 0.141154 0.224576
Si Si6 0.013420 0.353184 0.113059
Si Si7 0.750000 0.352837 0.625374
Si Si8 0.169382 0.145054 0.642232
O O1 0.842704 0.500000 0.221109
O O2 0.815620 0.677615 0.096918
O O3 0.940159 0.651983 0.166273
O O4 0.843838 0.747589 0.277669
O O5 0.250000 0.500000 0.995993
O O6 0.250000 0.267379 0.070322
O O7 0.415310 0.844891 0.340993
O O8 0.313503 0.732380 0.410710
O O9 0.377943 0.840961 0.546261
O O10 0.334272 0.000000 0.422543
O O11 0.679994 0.850433 0.792157
O O12 0.750000 0.656736 0.742821
O O13 0.063842 0.253872 0.163670
O O14 0.073423 0.000000 0.193881
O O15 0.040106 0.500000 0.117991
O O16 0.000000 0.323094 0.000000
O O17 0.750000 0.500000 0.593022
O O18 0.250000 0.154170 0.611143
O O19 0.159804 0.000000 0.681289
#
# Coordination Sequence:
#
# PCOD9398677 Si02
#       8
#     8   4   8   4   8   8   4   8
#     4  10  21  37  58  84 111 145 189 239 285 330
#     4  10  19  34  56  80 109 146 188 231 282 342
#     4   9  18  34  53  75 110 150 183 222 279 339
#     4  10  20  34  53  81 117 147 181 231 293 343
#     4  10  21  37  59  86 114 148 190 238 283 332
#     4  10  22  41  62  82 113 157 195 229 282 346
#     4  10  18  26  45  79 110 139 181 226 269 323
#     4  10  19  34  57  83 112 151 189 228 283 344
#
# _framework density 18.694251000000001
#
# number of rings (size 3 to 8) (size 9 to 14) (size 15 to 20)
#    0.000    2.154    1.538    1.615    0.000    7.692 
#    0.000    3.846    0.000    4.615    0.000    0.000 
#    0.000    0.000    0.000    0.000    0.000    0.000 
#
# Total GULP energy -289769.928251 kJ/mol
# GULP energy per Si atom -5572.498620 kJ/mol
# Density = 1.865170 g / cm^3
# Si number density = 18.694251 Si / 1000 Ang^3
#
#
#
# Elastic Constant Matrix: (Units=GPa)
#
#
# Indices 1 2 3 4 5 6 
#
# 1 31.7674 11.3478 3.5231 0.0000 0.0000 0.0000
# 2 11.3478 107.0019 58.6466 0.0000 0.0000 0.0000
# 3 3.5231 58.6466 118.2604 0.0000 0.0000 0.0000
# 4 0.0000 0.0000 0.0000 26.3189 0.0000 0.0000
# 5 0.0000 0.0000 0.0000 0.0000 18.3728 0.0000
# 6 0.0000 0.0000 0.0000 0.0000 0.0000 14.5013
#
#
#
# Elastic Compliance Matrix: (Units=1/GPa)
#
#
# Indices 1 2 3 4 5 6 
#
# 1 0.032809 -0.004042 0.001027 0.000000 0.000000 0.000000
# 2 -0.004042 0.013332 -0.006491 0.000000 0.000000 0.000000
# 3 0.001027 -0.006491 0.011644 0.000000 0.000000 0.000000
# 4 0.000000 0.000000 0.000000 0.037995 0.000000 0.000000
# 5 0.000000 0.000000 0.000000 0.000000 0.054428 0.000000
# 6 0.000000 0.000000 0.000000 0.000000 0.000000 0.068959
#
#
# Mechanical properties :
#
#
# Convention : Reuss Voigt Hill
#
# Bulk Modulus (GPa) = 25.79136 44.89608 35.34372
# Shear Modulus (GPa) = 19.91201 24.07277 21.99239
#
# Velocity S-wave (km/s) = 3.26719 3.59236 3.43363
# Velocity P-wave (km/s) = 5.29708 6.42455 5.88787
#
# Compressibility (1/GPa) = 0.03877268
#
# Stress axis : x y z
#
# Youngs Moduli (GPa) = 30.47956 75.00743 85.87900
#
# Poissons Ratio (x) = 0.30322 -0.08822
# Poissons Ratio (y) = 0.12321 0.55745
# Poissons Ratio (z) = -0.03131 0.48688
#
# Static dielectric constant tensor:
#      x y z
#    x 1.673660 0.000000 0.000000 
#    y 0.000000 1.627870 0.000000 
#    z 0.000000 0.000000 1.649390 
# 
# From -- ./inp_files/25601.got.cif
#   From: 2010.05.17/outbox.cif.g08.bks.cpg/sg51_13_cif.got.tgz:25601.got - 2010.06.03 11:52:47.
