data_PCOD9398735
_publ_section_title
;
Structure prediction by ZEFSAII (Michael W. Deem and Ramdas Pophale) SiO2 
 PCOD9398735
Probable space group: P M M A
;
_chemical_formula_sum "Si O2"
_cell_formula_units_Z 64
_cell_length_a 8.530644
_cell_length_b 30.782351
_cell_length_c 13.864401
_cell_angle_alpha 90.000000
_cell_angle_beta 90.000000
_cell_angle_gamma 90.000000
_cell_volume 3640.698504
_symmetry_space_group_name_H-M "P M M A"
_symmetry_group_IT_number 51
_symmetry_cell_setting 'orthorhombic'
loop_
_space_group_symop_operation_xyz
x,y,z
1/2-x,-y,z
1/2+x,-y,-z
-x,y,-z
-x,-y,-z
1/2+x,y,-z
1/2-x,y,z
x,-y,z
loop_
_atom_site_type_symbol
_atom_site_label
_atom_site_fract_x
_atom_site_fract_y
_atom_site_fract_z
Si Si1 0.564714 0.547679 0.305148
Si Si2 0.060652 0.046715 0.889904
Si Si3 0.940012 0.359473 0.300262
Si Si4 0.061899 0.858556 0.890550
Si Si5 0.562177 0.681876 0.893350
Si Si6 0.062666 0.228153 0.205042
Si Si7 0.574528 0.448307 0.902703
Si Si8 0.062497 0.269623 0.604956
O O1 0.750000 0.545751 0.324398
O O2 0.497152 0.500000 0.332495
O O3 0.503612 0.594096 0.342218
O O4 0.535046 0.553511 0.190602
O O5 0.250000 0.046675 0.891174
O O6 0.011982 0.093864 0.849915
O O7 0.009706 0.000000 0.846664
O O8 0.000000 0.046651 0.000000
O O9 0.750000 0.360573 0.296297
O O10 0.988713 0.318484 0.364717
O O11 0.000413 0.349343 0.192012
O O12 0.250000 0.857031 0.892374
O O13 0.999637 0.817347 0.833291
O O14 0.000000 0.855639 0.000000
O O15 0.750000 0.680293 0.893789
O O16 0.511597 0.730791 0.861397
O O17 0.500000 0.672534 0.000000
O O18 0.250000 0.227710 0.204449
O O19 0.001896 0.238658 0.311648
O O20 0.750000 0.430896 0.884098
O O21 0.592422 0.500000 0.919182
O O22 0.500000 0.429644 0.000000
O O23 0.250000 0.268517 0.605901
O O24 0.000000 0.258692 0.500000
#
# Coordination Sequence:
#
# PCOD9398735 Si02
#       8
#     8   8   8   8   8   8   8   8
#     4   9  17  30  47  65  85 110 140 174 212 253
#     4   8  14  24  37  55  84 126 175 219 252 282
#     4   9  19  34  51  71  93 118 149 183 219 264
#     4  10  18  27  42  66  98 137 176 212 250 288
#     4  10  20  32  47  66  91 124 157 190 227 270
#     4  10  20  33  49  71  97 124 157 196 240 289
#     4   9  16  25  37  54  77 107 142 176 208 242
#     4  10  20  36  57  77  96 118 146 183 230 282
#
# _framework density 17.579045000000001
#
# number of rings (size 3 to 8) (size 9 to 14) (size 15 to 20)
#    0.000    2.625    0.000    2.250    0.000    6.000 
#    0.000    0.000    0.000    0.375    0.000    0.000 
#    0.000    0.500    0.000    1.375    0.000    2.625 
#
# Total GULP energy -356584.070668 kJ/mol
# GULP energy per Si atom -5571.626104 kJ/mol
# Density = 1.753903 g / cm^3
# Si number density = 17.579045 Si / 1000 Ang^3
#
#
#
# Elastic Constant Matrix: (Units=GPa)
#
#
# Indices 1 2 3 4 5 6 
#
# 1 24.2214 22.5927 7.3007 0.0000 0.0000 0.0000
# 2 22.5927 176.9272 36.6203 0.0000 0.0000 0.0000
# 3 7.3007 36.6203 49.1511 0.0000 0.0000 0.0000
# 4 0.0000 0.0000 0.0000 -4.9120 0.0000 0.0000
# 5 0.0000 0.0000 0.0000 0.0000 15.8542 0.0000
# 6 0.0000 0.0000 0.0000 0.0000 0.0000 15.4055
#
#
#
# Elastic Compliance Matrix: (Units=1/GPa)
#
#
# Indices 1 2 3 4 5 6 
#
# 1 0.047235 -0.005414 -0.002982 0.000000 0.000000 0.000000
# 2 -0.005414 0.007303 -0.004637 0.000000 0.000000 0.000000
# 3 -0.002982 -0.004637 0.024243 0.000000 0.000000 0.000000
# 4 0.000000 0.000000 0.000000 -0.203583 0.000000 0.000000
# 5 0.000000 0.000000 0.000000 0.000000 0.063075 0.000000
# 6 0.000000 0.000000 0.000000 0.000000 0.000000 0.064912
#
#
# Mechanical properties :
#
#
# Convention : Reuss Voigt Hill
#
# Bulk Modulus (GPa) = 18.97017 42.59188 30.78103
# Shear Modulus (GPa) = 106.78498 17.52195 62.15347
#
# Velocity S-wave (km/s) = 7.80240 3.16056 5.95259
# Velocity P-wave (km/s) = 9.59087 6.13191 8.04938
#
# Compressibility (1/GPa) = 0.05271434
#
# Stress axis : x y z
#
# Youngs Moduli (GPa) = 21.17078 136.92610 41.24867
#
# Poissons Ratio (x) = 0.74138 0.12300
# Poissons Ratio (y) = 0.11463 0.19127
# Poissons Ratio (z) = 0.06313 0.63493
#
# Static dielectric constant tensor:
#      x y z
#    x 1.601330 0.000000 0.000000 
#    y 0.000000 1.680510 0.000000 
#    z 0.000000 0.000000 1.570070 
# 
# From -- ./inp_files/14809.got.cif
#   From: 2010.05.17/outbox.cif.g08.bks.cpg/sg51_8_cif.got.tgz:14809.got - 2010.06.03 11:52:47.
