data_PCOD9398125
_publ_section_title
;
Structure prediction by ZEFSAII (Michael W. Deem and Ramdas Pophale) SiO2 
 PCOD9398125
Probable space group: P B A N
;
_chemical_formula_sum "Si O2"
_cell_formula_units_Z 32
_cell_length_a 13.770429
_cell_length_b 10.515229
_cell_length_c 10.358927
_cell_angle_alpha 90.000000
_cell_angle_beta 90.000000
_cell_angle_gamma 90.000000
_cell_volume 1499.964491
_symmetry_space_group_name_H-M "P B A N"
_symmetry_group_IT_number 50
_space_group.IT_coordinate_system_code '2'
_symmetry_cell_setting 'orthorhombic'
loop_
_space_group_symop_operation_xyz
x,y,z
1/2-x,1/2-y,z
x,1/2-y,-z
1/2-x,y,-z
-x,-y,-z
1/2+x,1/2+y,-z
-x,1/2+y,z
1/2+x,-y,z
loop_
_atom_site_type_symbol
_atom_site_label
_atom_site_fract_x
_atom_site_fract_y
_atom_site_fract_z
Si Si1 0.522051 0.275483 0.180511
Si Si2 0.105377 0.983958 0.084579
Si Si3 0.686807 0.040515 0.798771
Si Si4 0.650178 0.805690 0.643546
O O1 0.457805 0.395924 0.129646
O O2 0.546873 0.149274 0.097430
O O3 0.627533 0.329861 0.217804
O O4 0.451912 0.229916 0.294052
O O5 0.198880 0.962105 0.175380
O O6 0.144270 0.006613 0.938742
O O7 0.661860 0.953712 0.676274
O O8 0.750000 0.750000 0.707044
O O9 0.649855 0.750000 0.500000
#
# Coordination Sequence:
#
# PCOD9398125 Si02
#       4
#     8   8   8   8
#     4  12  23  43  70 102 138 185 226 284 353 421
#     4  11  25  41  70 106 144 178 223 289 361 426
#     4  11  24  44  67 103 145 179 226 287 356 421
#     4  11  25  45  69  98 135 189 240 288 335 412
#
# _framework density 21.333839000000001
#
# number of rings (size 3 to 8) (size 9 to 14) (size 15 to 20)
#    0.000    0.750    5.000    2.250    3.500    3.000 
#    0.000    0.000    0.000    1.500    0.000    0.000 
#    0.000    0.000    0.000    0.000    0.000    0.000 
#
# Total GULP energy -178280.556483 kJ/mol
# GULP energy per Si atom -5571.267390 kJ/mol
# Density = 2.128528 g / cm^3
# Si number density = 21.333839 Si / 1000 Ang^3
#
#
#
# Elastic Constant Matrix: (Units=GPa)
#
#
# Indices 1 2 3 4 5 6 
#
# 1 161.5773 48.9151 42.2079 0.0000 0.0000 0.0000
# 2 48.9151 118.4414 42.3499 0.0000 0.0000 0.0000
# 3 42.2079 42.3499 63.4480 0.0000 0.0000 0.0000
# 4 0.0000 0.0000 0.0000 31.4528 0.0000 0.0000
# 5 0.0000 0.0000 0.0000 0.0000 24.0430 0.0000
# 6 0.0000 0.0000 0.0000 0.0000 0.0000 71.5741
#
#
#
# Elastic Compliance Matrix: (Units=1/GPa)
#
#
# Indices 1 2 3 4 5 6 
#
# 1 0.007768 -0.001787 -0.003975 0.000000 0.000000 0.000000
# 2 -0.001787 0.011501 -0.006488 0.000000 0.000000 0.000000
# 3 -0.003975 -0.006488 0.022736 0.000000 0.000000 0.000000
# 4 0.000000 0.000000 0.000000 0.031794 0.000000 0.000000
# 5 0.000000 0.000000 0.000000 0.000000 0.041592 0.000000
# 6 0.000000 0.000000 0.000000 0.000000 0.000000 0.013972
#
#
# Mechanical properties :
#
#
# Convention : Reuss Voigt Hill
#
# Bulk Modulus (GPa) = 57.12539 67.82361 62.47450
# Shear Modulus (GPa) = 31.30936 39.41355 35.36145
#
# Velocity S-wave (km/s) = 3.83507 4.30288 4.07569
# Velocity P-wave (km/s) = 6.81509 7.51977 7.17608
#
# Compressibility (1/GPa) = 0.01750535
#
# Stress axis : x y z
#
# Youngs Moduli (GPa) = 128.72779 86.95102 43.98377
#
# Poissons Ratio (x) = 0.15537 0.17484
# Poissons Ratio (y) = 0.23003 0.28535
# Poissons Ratio (z) = 0.51170 0.56411
#
# Static dielectric constant tensor:
#      x y z
#    x 1.812620 0.000000 0.000000 
#    y 0.000000 1.787520 0.000000 
#    z 0.000000 0.000000 1.810030 
# 
# From -- ./inp_files/12184.got.cif
#   From: 2010.05.17/outbox.cif.g08.bks.cpg/sg50_7_cif.got.tgz:12184.got - 2010.06.03 11:33:33.
