data_PCOD9398036
_publ_section_title
;
Structure prediction by ZEFSAII (Michael W. Deem and Ramdas Pophale) SiO2 
 PCOD9398036
Probable space group: P B A N
;
_chemical_formula_sum "Si O2"
_cell_formula_units_Z 40
_cell_length_a 8.303278
_cell_length_b 15.600787
_cell_length_c 13.928796
_cell_angle_alpha 90.000000
_cell_angle_beta 90.000000
_cell_angle_gamma 90.000000
_cell_volume 1804.303800
_symmetry_space_group_name_H-M "P B A N"
_symmetry_group_IT_number 50
_space_group.IT_coordinate_system_code '2'
_symmetry_cell_setting 'orthorhombic'
loop_
_space_group_symop_operation_xyz
x,y,z
1/2-x,1/2-y,z
x,1/2-y,-z
1/2-x,y,-z
-x,-y,-z
1/2+x,1/2+y,-z
-x,1/2+y,z
1/2+x,-y,z
loop_
_atom_site_type_symbol
_atom_site_label
_atom_site_fract_x
_atom_site_fract_y
_atom_site_fract_z
Si Si1 0.977611 0.082296 0.732254
Si Si2 0.444609 0.756340 0.608332
Si Si3 0.932622 0.405890 0.974258
Si Si4 0.589287 0.103549 0.752384
Si Si5 0.337903 0.338026 0.903149
O O1 0.113285 0.104723 0.813159
O O2 0.999541 0.152851 0.650251
O O3 0.786038 0.094873 0.757053
O O4 0.013847 0.983734 0.710417
O O5 0.250000 0.750000 0.601458
O O6 0.508504 0.750000 0.500000
O O7 0.473855 0.681727 0.686898
O O8 0.966264 0.387124 0.862769
O O9 0.750000 0.414651 0.000000
O O10 0.000000 0.500000 0.000000
O O11 0.989892 0.331567 0.046392
O O12 0.250000 0.250000 0.878886
O O13 0.250000 0.374357 0.000000
#
# Coordination Sequence:
#
# PCOD9398036 Si02
#       5
#     8   8   8   8   8
#     4  11  24  43  67 103 138 182 236 286 352 430
#     4   9  22  45  70  99 137 177 235 306 366 426
#     4  12  22  41  65  99 144 187 238 281 352 429
#     4  11  23  41  72 100 137 189 229 287 360 430
#     4  11  26  40  60  98 141 190 227 287 338 411
#
# _framework density 22.169214
#
# number of rings (size 3 to 8) (size 9 to 14) (size 15 to 20)
#    0.000    1.200    4.000    0.600    8.400    0.800 
#    0.000    2.000    0.000    4.200    0.000    0.000 
#    0.000    0.000    0.000    0.000    0.000    0.000 
#
# Total GULP energy -222981.652623 kJ/mol
# GULP energy per Si atom -5574.541316 kJ/mol
# Density = 2.211876 g / cm^3
# Si number density = 22.169214 Si / 1000 Ang^3
#
#
#
# Elastic Constant Matrix: (Units=GPa)
#
#
# Indices 1 2 3 4 5 6 
#
# 1 47.4883 0.7147 -10.1247 0.0000 0.0000 0.0000
# 2 0.7147 106.1108 48.3618 0.0000 0.0000 0.0000
# 3 -10.1247 48.3618 145.2601 0.0000 0.0000 0.0000
# 4 0.0000 0.0000 0.0000 20.0237 0.0000 0.0000
# 5 0.0000 0.0000 0.0000 0.0000 17.4890 0.0000
# 6 0.0000 0.0000 0.0000 0.0000 0.0000 28.8896
#
#
#
# Elastic Compliance Matrix: (Units=1/GPa)
#
#
# Indices 1 2 3 4 5 6 
#
# 1 0.021461 -0.000974 0.001820 0.000000 0.000000 0.000000
# 2 -0.000974 0.011154 -0.003781 0.000000 0.000000 0.000000
# 3 0.001820 -0.003781 0.008270 0.000000 0.000000 0.000000
# 4 0.000000 0.000000 0.000000 0.049941 0.000000 0.000000
# 5 0.000000 0.000000 0.000000 0.000000 0.057179 0.000000
# 6 0.000000 0.000000 0.000000 0.000000 0.000000 0.034615
#
#
# Mechanical properties :
#
#
# Convention : Reuss Voigt Hill
#
# Bulk Modulus (GPa) = 28.56015 41.86252 35.21134
# Shear Modulus (GPa) = 24.97988 30.60761 27.79375
#
# Velocity S-wave (km/s) = 3.36040 3.71972 3.54462
# Velocity P-wave (km/s) = 5.28840 6.11331 5.71576
#
# Compressibility (1/GPa) = 0.03501382
#
# Stress axis : x y z
#
# Youngs Moduli (GPa) = 46.59717 89.65280 120.91838
#
# Poissons Ratio (x) = 0.08733 -0.22009
# Poissons Ratio (y) = 0.04539 0.45725
# Poissons Ratio (z) = -0.08481 0.33902
#
# Static dielectric constant tensor:
#      x y z
#    x 2.261880 0.000000 0.000000 
#    y 0.000000 1.911060 0.000000 
#    z 0.000000 0.000000 1.845700 
# 
# From -- ./inp_files/18710.got.cif
#   From: 2010.05.17/outbox.cif.g08.bks.cpg/sg50_10_cif.got.tgz:18710.got - 2010.06.03 11:33:33.
