data_PCOD9398282
_publ_section_title
;
Structure prediction by ZEFSAII (Michael W. Deem and Ramdas Pophale) SiO2 
 PCOD9398282
Probable space group: P B A N
;
_chemical_formula_sum "Si O2"
_cell_formula_units_Z 40
_cell_length_a 13.966401
_cell_length_b 14.911292
_cell_length_c 8.635777
_cell_angle_alpha 90.000000
_cell_angle_beta 90.000000
_cell_angle_gamma 90.000000
_cell_volume 1798.461732
_symmetry_space_group_name_H-M "P B A N"
_symmetry_group_IT_number 50
_space_group.IT_coordinate_system_code '2'
_symmetry_cell_setting 'orthorhombic'
loop_
_space_group_symop_operation_xyz
x,y,z
1/2-x,1/2-y,z
x,1/2-y,-z
1/2-x,y,-z
-x,-y,-z
1/2+x,1/2+y,-z
-x,1/2+y,z
1/2+x,-y,z
loop_
_atom_site_type_symbol
_atom_site_label
_atom_site_fract_x
_atom_site_fract_y
_atom_site_fract_z
Si Si1 0.999722 0.928978 0.156976
Si Si2 0.038803 0.645022 0.506293
Si Si3 0.225409 0.468582 0.172602
Si Si4 0.250000 0.575719 0.500000
Si Si5 0.087046 0.383403 0.782843
Si Si6 0.495079 0.750000 0.000000
O O1 0.884117 0.937764 0.160298
O O2 0.021134 0.901159 0.332053
O O3 0.046823 0.844593 0.062583
O O4 0.046126 0.027121 0.130799
O O5 0.020897 0.750000 0.500000
O O6 0.151549 0.629724 0.479348
O O7 0.963782 0.606853 0.381938
O O8 0.248388 0.523325 0.332522
O O9 0.299911 0.387807 0.197502
O O10 0.250000 0.508949 0.000000
O O11 0.053452 0.290503 0.857116
#
# Coordination Sequence:
#
# PCOD9398282 Si02
#       6
#     8   8   8   4   8   4
#     4  12  25  47  73 102 147 191 237 301 363 429
#     4  12  25  48  75 105 143 192 247 306 357 430
#     4  12  26  43  76 109 142 194 242 294 367 440
#     4  12  25  48  74 107 144 196 246 301 366 427
#     4  12  25  47  73 102 147 191 237 301 363 429
#     4  12  26  43  72 107 146 184 248 291 364 441
#
# _framework density 22.241228
#
# number of rings (size 3 to 8) (size 9 to 14) (size 15 to 20)
#    0.000    0.000    8.000    2.700    0.000    1.600 
#    0.000    1.000    0.000    3.600    0.000    0.000 
#    0.000    0.000    0.000    0.000    0.000    0.000 
#
# Total GULP energy -222820.151873 kJ/mol
# GULP energy per Si atom -5570.503797 kJ/mol
# Density = 2.219061 g / cm^3
# Si number density = 22.241228 Si / 1000 Ang^3
#
#
#
# Elastic Constant Matrix: (Units=GPa)
#
#
# Indices 1 2 3 4 5 6 
#
# 1 98.5478 -6.4470 16.3768 0.0000 0.0000 0.0000
# 2 -6.4470 110.4398 17.5443 0.0000 0.0000 0.0000
# 3 16.3768 17.5443 94.5181 0.0000 0.0000 0.0000
# 4 0.0000 0.0000 0.0000 29.2875 0.0000 0.0000
# 5 0.0000 0.0000 0.0000 0.0000 -5.2878 0.0000
# 6 0.0000 0.0000 0.0000 0.0000 0.0000 25.3780
#
#
#
# Elastic Compliance Matrix: (Units=1/GPa)
#
#
# Indices 1 2 3 4 5 6 
#
# 1 0.010541 0.000933 -0.002000 0.000000 0.000000 0.000000
# 2 0.000933 0.009412 -0.001909 0.000000 0.000000 0.000000
# 3 -0.002000 -0.001909 0.011281 0.000000 0.000000 0.000000
# 4 0.000000 0.000000 0.000000 0.034144 0.000000 0.000000
# 5 0.000000 0.000000 0.000000 0.000000 -0.189114 0.000000
# 6 0.000000 0.000000 0.000000 0.000000 0.000000 0.039404
#
#
# Mechanical properties :
#
#
# Convention : Reuss Voigt Hill
#
# Bulk Modulus (GPa) = 39.55201 39.82820 39.69010
# Shear Modulus (GPa) = -71.47669 28.27764 -21.59952
#
# Velocity S-wave (km/s) = -5.67510 3.56955 -3.11971
# Velocity P-wave (km/s) = 5.01204 5.91060 2.21524
#
# Compressibility (1/GPa) = 0.02528317
#
# Stress axis : x y z
#
# Youngs Moduli (GPa) = 94.87061 106.24286 88.64668
#
# Poissons Ratio (x) = -0.09912 0.17725
# Poissons Ratio (y) = -0.08851 0.16921
# Poissons Ratio (z) = 0.18970 0.20279
#
# Static dielectric constant tensor:
#      x y z
#    x 3.164400 0.000000 0.000000 
#    y 0.000000 1.800240 0.000000 
#    z 0.000000 0.000000 1.982260 
# 
# From -- ./inp_files/12601.got.cif
#   From: 2010.05.17/outbox.cif.g08.bks.cpg/sg50_7_cif.got.tgz:12601.got - 2010.06.03 11:33:33.
