data_PCOD9398841
_publ_section_title
;
Structure prediction by ZEFSAII (Michael W. Deem and Ramdas Pophale) SiO2 
 PCOD9398841
Probable space group: P M M A
;
_chemical_formula_sum "Si O2"
_cell_formula_units_Z 52
_cell_length_a 8.475679
_cell_length_b 19.231939
_cell_length_c 19.233317
_cell_angle_alpha 90.000000
_cell_angle_beta 90.000000
_cell_angle_gamma 90.000000
_cell_volume 3135.102633
_symmetry_space_group_name_H-M "P M M A"
_symmetry_group_IT_number 51
_symmetry_cell_setting 'orthorhombic'
loop_
_space_group_symop_operation_xyz
x,y,z
1/2-x,-y,z
1/2+x,-y,-z
-x,y,-z
-x,-y,-z
1/2+x,y,-z
1/2-x,y,z
x,-y,z
loop_
_atom_site_type_symbol
_atom_site_label
_atom_site_fract_x
_atom_site_fract_y
_atom_site_fract_z
Si Si1 0.437446 0.852616 0.921941
Si Si2 0.937531 0.078855 0.789443
Si Si3 0.562063 0.716298 0.845610
Si Si4 0.562210 0.000000 0.579182
Si Si5 0.563757 0.214247 0.285085
Si Si6 0.439018 0.148319 0.578404
Si Si7 0.940450 0.578036 0.921963
O O1 0.250000 0.862911 0.919483
O O2 0.522594 0.906467 0.870104
O O3 0.478843 0.776361 0.890948
O O4 0.500000 0.857943 0.000000
O O5 0.750000 0.088238 0.777988
O O6 0.030257 0.138691 0.748875
O O7 0.979456 0.000000 0.770177
O O8 0.750000 0.723423 0.856073
O O9 0.522969 0.732057 0.765365
O O10 0.510247 0.640565 0.871749
O O11 0.500000 0.000000 0.500000
O O12 0.500660 0.073609 0.606087
O O13 0.750000 0.000000 0.581570
O O14 0.750000 0.228048 0.282658
O O15 0.512868 0.206187 0.365240
O O16 0.500000 0.159128 0.500000
O O17 0.250000 0.144893 0.576098
O O18 0.750000 0.577688 0.923188
O O19 0.993689 0.500000 0.902200
O O20 0.000000 0.591863 0.000000
#
# Coordination Sequence:
#
# PCOD9398841 Si02
#       7
#     8   8   8   4   8   8   8
#     4  11  21  33  49  66  87 116 151 192 235 278
#     4  10  21  35  49  66  86 111 149 193 237 283
#     4  10  19  32  50  70  95 125 157 191 227 273
#     4  10  18  28  44  64  88 116 147 186 233 282
#     4  10  21  34  49  68  92 122 155 191 233 281
#     4  10  20  33  48  68  92 120 153 193 236 284
#     4   9  18  31  48  73 102 131 161 192 227 268
#
# _framework density 16.586378
#
# number of rings (size 3 to 8) (size 9 to 14) (size 15 to 20)
#    0.000    2.000    0.000    7.154    1.077    6.462 
#    0.000    0.000    0.000    0.000    0.000    0.000 
#    0.000    0.615    0.000    1.385    0.000    2.154 
#
# Total GULP energy -290161.965604 kJ/mol
# GULP energy per Si atom -5580.037800 kJ/mol
# Density = 1.654863 g / cm^3
# Si number density = 16.586378 Si / 1000 Ang^3
#
#
#
# Elastic Constant Matrix: (Units=GPa)
#
#
# Indices 1 2 3 4 5 6 
#
# 1 28.4768 2.3831 -5.3071 0.0000 0.0000 0.0000
# 2 2.3831 78.3665 23.7509 0.0000 0.0000 0.0000
# 3 -5.3071 23.7509 75.8936 0.0000 0.0000 0.0000
# 4 0.0000 0.0000 0.0000 24.2786 0.0000 0.0000
# 5 0.0000 0.0000 0.0000 0.0000 21.5231 0.0000
# 6 0.0000 0.0000 0.0000 0.0000 0.0000 15.7314
#
#
#
# Elastic Compliance Matrix: (Units=1/GPa)
#
#
# Indices 1 2 3 4 5 6 
#
# 1 0.035874 -0.002045 0.003149 0.000000 0.000000 0.000000
# 2 -0.002045 0.014214 -0.004591 0.000000 0.000000 0.000000
# 3 0.003149 -0.004591 0.014833 0.000000 0.000000 0.000000
# 4 0.000000 0.000000 0.000000 0.041188 0.000000 0.000000
# 5 0.000000 0.000000 0.000000 0.000000 0.046462 0.000000
# 6 0.000000 0.000000 0.000000 0.000000 0.000000 0.063567
#
#
# Mechanical properties :
#
#
# Convention : Reuss Voigt Hill
#
# Bulk Modulus (GPa) = 17.25742 24.93230 21.09486
# Shear Modulus (GPa) = 20.62447 23.10062 21.86254
#
# Velocity S-wave (km/s) = 3.53010 3.73600 3.63451
# Velocity P-wave (km/s) = 5.20025 5.80299 5.50987
#
# Compressibility (1/GPa) = 0.05794608
#
# Stress axis : x y z
#
# Youngs Moduli (GPa) = 27.87516 70.35178 67.41545
#
# Poissons Ratio (x) = 0.14388 -0.21227
# Poissons Ratio (y) = 0.05701 0.30953
# Poissons Ratio (z) = -0.08777 0.32301
#
# Static dielectric constant tensor:
#      x y z
#    x 1.554370 0.000000 0.000000 
#    y 0.000000 1.558360 0.000000 
#    z 0.000000 0.000000 1.586210 
# 
# From -- ./inp_files/32218.got.cif
#   From: 2010.05.17/outbox.cif.g08.bks.cpg/sg51_17_cif.got.tgz:32218.got - 2010.06.03 11:52:47.
