data_PCOD9398887
_publ_section_title
;
Structure prediction by ZEFSAII (Michael W. Deem and Ramdas Pophale) SiO2 
 PCOD9398887
Probable space group: P M M A
;
_chemical_formula_sum "Si O2"
_cell_formula_units_Z 64
_cell_length_a 19.614417
_cell_length_b 8.073997
_cell_length_c 22.413281
_cell_angle_alpha 90.000000
_cell_angle_beta 90.000000
_cell_angle_gamma 90.000000
_cell_volume 3549.518335
_symmetry_space_group_name_H-M "P M M A"
_symmetry_group_IT_number 51
_symmetry_cell_setting 'orthorhombic'
loop_
_space_group_symop_operation_xyz
x,y,z
1/2-x,-y,z
1/2+x,-y,-z
-x,y,-z
-x,-y,-z
1/2+x,y,-z
1/2-x,y,z
x,-y,z
loop_
_atom_site_type_symbol
_atom_site_label
_atom_site_fract_x
_atom_site_fract_y
_atom_site_fract_z
Si Si1 0.580202 0.697357 0.351230
Si Si2 0.070735 0.300648 0.309288
Si Si3 0.529098 0.702255 0.063035
Si Si4 0.367673 0.189944 0.769168
Si Si5 0.176700 0.694883 0.892712
Si Si6 0.576619 0.800047 0.484933
Si Si7 0.015817 0.299399 0.188755
Si Si8 0.326842 0.801557 0.409044
O O1 0.578773 0.500000 0.347306
O O2 0.502631 0.756382 0.336087
O O3 0.631789 0.758051 0.299898
O O4 0.596507 0.750681 0.418126
O O5 0.071950 0.500000 0.313356
O O6 0.071097 0.255792 0.238979
O O7 0.131507 0.233855 0.349019
O O8 0.531550 0.500000 0.061122
O O9 0.606127 0.760988 0.078821
O O10 0.480511 0.745396 0.119265
O O11 0.500000 0.760487 0.000000
O O12 0.328869 0.287758 0.820940
O O13 0.446269 0.217984 0.788083
O O14 0.347651 0.000000 0.774426
O O15 0.250000 0.766755 0.911803
O O16 0.177346 0.500000 0.906775
O O17 0.500000 0.740278 0.500000
O O18 0.628748 0.737887 0.535142
O O19 0.575216 0.000000 0.487632
O O20 0.006726 0.500000 0.191709
O O21 0.250000 0.735516 0.407903
O O22 0.323103 0.000000 0.415628
#
# Coordination Sequence:
#
# PCOD9398887 Si02
#       8
#     8   8   8   8   8   8   8   8
#     4  10  19  31  49  72  96 121 155 197 242 286
#     4   9  17  29  47  69  92 119 152 194 236 280
#     4   8  13  24  46  73  99 127 160 197 235 278
#     4  10  18  28  45  69  95 122 155 195 239 284
#     4   9  17  30  47  67  95 130 166 203 244 292
#     4  10  19  32  50  71  93 121 161 204 242 289
#     4   8  15  28  45  69  98 124 153 192 238 280
#     4  10  21  35  49  67  93 122 153 196 248 293
#
# _framework density 18.030615000000001
#
# number of rings (size 3 to 8) (size 9 to 14) (size 15 to 20)
#    0.000    2.750    1.250    3.000    0.000    3.250 
#    0.000    0.625    0.000    9.000    0.000    3.500 
#    0.000    0.000    0.000    0.000    0.000    0.000 
#
# Total GULP energy -356364.770571 kJ/mol
# GULP energy per Si atom -5568.199540 kJ/mol
# Density = 1.798958 g / cm^3
# Si number density = 18.030615 Si / 1000 Ang^3
#
#
#
# Elastic Constant Matrix: (Units=GPa)
#
#
# Indices 1 2 3 4 5 6 
#
# 1 94.9590 5.0759 62.5375 0.0000 0.0000 0.0000
# 2 5.0759 9.2277 5.0237 0.0000 0.0000 0.0000
# 3 62.5375 5.0237 157.7669 0.0000 0.0000 0.0000
# 4 0.0000 0.0000 0.0000 51.3383 0.0000 0.0000
# 5 0.0000 0.0000 0.0000 0.0000 10.7629 0.0000
# 6 0.0000 0.0000 0.0000 0.0000 0.0000 8.4160
#
#
#
# Elastic Compliance Matrix: (Units=1/GPa)
#
#
# Indices 1 2 3 4 5 6 
#
# 1 0.014468 -0.004921 -0.005578 0.000000 0.000000 0.000000
# 2 -0.004921 0.111955 -0.001614 0.000000 0.000000 0.000000
# 3 -0.005578 -0.001614 0.008601 0.000000 0.000000 0.000000
# 4 0.000000 0.000000 0.000000 0.019479 0.000000 0.000000
# 5 0.000000 0.000000 0.000000 0.000000 0.092912 0.000000
# 6 0.000000 0.000000 0.000000 0.000000 0.000000 0.118821
#
#
# Mechanical properties :
#
#
# Convention : Reuss Voigt Hill
#
# Bulk Modulus (GPa) = 9.02554 45.24754 27.13654
# Shear Modulus (GPa) = 11.69877 26.72453 19.21165
#
# Velocity S-wave (km/s) = 2.54997 3.85408 3.26774
# Velocity P-wave (km/s) = 3.69951 6.70482 5.41484
#
# Compressibility (1/GPa) = 0.11079663
#
# Stress axis : x y z
#
# Youngs Moduli (GPa) = 69.12034 8.93213 116.26583
#
# Poissons Ratio (x) = 0.04396 0.64854
# Poissons Ratio (y) = 0.34016 0.18768
# Poissons Ratio (z) = 0.38556 0.01442
#
# Static dielectric constant tensor:
#      x y z
#    x 1.634420 0.000000 0.000000 
#    y 0.000000 1.646780 0.000000 
#    z 0.000000 0.000000 1.636690 
# 
# From -- ./inp_files/34148.got.cif
#   From: 2010.05.17/outbox.cif.g08.bks.cpg/sg51_18_cif.got.tgz:34148.got - 2010.06.03 11:52:47.
