data_PCOD9398639
_publ_section_title
;
Structure prediction by ZEFSAII (Michael W. Deem and Ramdas Pophale) SiO2 
 PCOD9398639
Probable space group: P M M A
;
_chemical_formula_sum "Si O2"
_cell_formula_units_Z 48
_cell_length_a 15.137286
_cell_length_b 17.424663
_cell_length_c 9.669440
_cell_angle_alpha 90.000000
_cell_angle_beta 90.000000
_cell_angle_gamma 90.000000
_cell_volume 2550.431871
_symmetry_space_group_name_H-M "P M M A"
_symmetry_group_IT_number 51
_symmetry_cell_setting 'orthorhombic'
loop_
_space_group_symop_operation_xyz
x,y,z
1/2-x,-y,z
1/2+x,-y,-z
-x,y,-z
-x,-y,-z
1/2+x,y,-z
1/2-x,y,z
x,-y,z
loop_
_atom_site_type_symbol
_atom_site_label
_atom_site_fract_x
_atom_site_fract_y
_atom_site_fract_z
Si Si1 0.899204 0.680029 0.779265
Si Si2 0.250000 0.595273 0.651611
Si Si3 0.643508 0.215830 0.015680
Si Si4 0.594478 0.712618 0.294946
Si Si5 0.250000 0.412197 0.331885
Si Si6 0.357961 0.087760 0.205340
Si Si7 0.149359 0.194901 0.438845
O O1 0.837504 0.608576 0.751925
O O2 0.850419 0.744635 0.686982
O O3 0.998015 0.676749 0.724628
O O4 0.893584 0.710566 0.933932
O O5 0.250000 0.500000 0.669499
O O6 0.334757 0.642724 0.708629
O O7 0.250000 0.618936 0.488681
O O8 0.750000 0.217809 0.014944
O O9 0.611462 0.226807 0.171343
O O10 0.615219 0.142248 0.923631
O O11 0.601631 0.762508 0.435269
O O12 0.250000 0.500000 0.358409
O O13 0.250000 0.090354 0.209492
O O14 0.387936 0.121608 0.354709
O O15 0.385196 0.000000 0.186220
O O16 0.250000 0.178961 0.484559
#
# Coordination Sequence:
#
# PCOD9398639 Si02
#       7
#     8   4   8   8   4   8   8
#     4  11  20  36  58  84 111 148 196 242 273 341
#     4  11  24  39  57  85 122 152 183 234 301 341
#     4  10  19  35  59  81 114 153 194 237 287 335
#     4  12  21  35  58  86 116 151 196 239 284 341
#     4  11  22  39  61  87 114 148 191 238 295 347
#     4   8  16  31  56  87 116 152 196 236 284 344
#     4  10  17  33  57  79 112 150 192 234 282 330
#
# _framework density 18.820342
#
# number of rings (size 3 to 8) (size 9 to 14) (size 15 to 20)
#    0.000    1.667    5.000    2.000    0.000    0.667 
#    0.000    4.167    0.000   22.000    0.000    0.000 
#    0.000    0.000    0.000    0.167    0.000    0.000 
#
# Total GULP energy -267331.759082 kJ/mol
# GULP energy per Si atom -5569.411648 kJ/mol
# Density = 1.877751 g / cm^3
# Si number density = 18.820342 Si / 1000 Ang^3
#
#
#
# Elastic Constant Matrix: (Units=GPa)
#
#
# Indices 1 2 3 4 5 6 
#
# 1 103.0083 27.3696 8.8380 0.0000 0.0000 0.0000
# 2 27.3696 62.3190 25.1885 0.0000 0.0000 0.0000
# 3 8.8380 25.1885 90.9577 0.0000 0.0000 0.0000
# 4 0.0000 0.0000 0.0000 19.6847 0.0000 0.0000
# 5 0.0000 0.0000 0.0000 0.0000 20.1289 0.0000
# 6 0.0000 0.0000 0.0000 0.0000 0.0000 -26.5667
#
#
#
# Elastic Compliance Matrix: (Units=1/GPa)
#
#
# Indices 1 2 3 4 5 6 
#
# 1 0.010998 -0.004953 0.000303 0.000000 0.000000 0.000000
# 2 -0.004953 0.020299 -0.005140 0.000000 0.000000 0.000000
# 3 0.000303 -0.005140 0.012388 0.000000 0.000000 0.000000
# 4 0.000000 0.000000 0.000000 0.050801 0.000000 0.000000
# 5 0.000000 0.000000 0.000000 0.000000 0.049680 0.000000
# 6 0.000000 0.000000 0.000000 0.000000 0.000000 -0.037641
#
#
# Mechanical properties :
#
#
# Convention : Reuss Voigt Hill
#
# Bulk Modulus (GPa) = 41.48422 42.11968 41.80195
# Shear Modulus (GPa) = 37.27462 15.64197 26.45830
#
# Velocity S-wave (km/s) = 4.45516 2.88604 3.75351
# Velocity P-wave (km/s) = 6.96812 5.79086 6.40659
#
# Compressibility (1/GPa) = 0.02410555
#
# Stress axis : x y z
#
# Youngs Moduli (GPa) = 90.92672 49.26324 80.72250
#
# Poissons Ratio (x) = 0.24398 -0.02445
# Poissons Ratio (y) = 0.45032 0.41492
# Poissons Ratio (z) = -0.02754 0.25322
#
# Static dielectric constant tensor:
#      x y z
#    x 1.764410 0.000000 0.000000 
#    y 0.000000 1.679280 0.000000 
#    z 0.000000 0.000000 1.669070 
# 
# From -- ./inp_files/8361.got.cif
#   From: 2010.05.17/outbox.cif.g08.bks.cpg/sg51_5_cif.got.tgz:8361.got - 2010.06.03 11:52:47.
