data_PCOD9398637
_publ_section_title
;
Structure prediction by ZEFSAII (Michael W. Deem and Ramdas Pophale) SiO2 
 PCOD9398637
Probable space group: P M M A
;
_chemical_formula_sum "Si O2"
_cell_formula_units_Z 56
_cell_length_a 19.281617
_cell_length_b 17.066345
_cell_length_c 9.667561
_cell_angle_alpha 90.000000
_cell_angle_beta 90.000000
_cell_angle_gamma 90.000000
_cell_volume 3181.272665
_symmetry_space_group_name_H-M "P M M A"
_symmetry_group_IT_number 51
_symmetry_cell_setting 'orthorhombic'
loop_
_space_group_symop_operation_xyz
x,y,z
1/2-x,-y,z
1/2+x,-y,-z
-x,y,-z
-x,-y,-z
1/2+x,y,-z
1/2-x,y,z
x,-y,z
loop_
_atom_site_type_symbol
_atom_site_label
_atom_site_fract_x
_atom_site_fract_y
_atom_site_fract_z
Si Si1 0.408362 0.259001 0.097257
Si Si2 0.937500 0.295356 0.200463
Si Si3 0.450503 0.861636 0.631871
Si Si4 0.328818 0.702292 0.368032
Si Si5 0.830494 0.116460 0.553751
Si Si6 0.421278 0.590242 0.554774
Si Si7 0.924799 0.084725 0.815806
O O1 0.481625 0.291572 0.155340
O O2 0.352813 0.284608 0.210487
O O3 0.415498 0.164006 0.096351
O O4 0.396550 0.289300 0.943191
O O5 0.927650 0.217590 0.292317
O O6 0.920345 0.369083 0.295194
O O7 0.500000 0.841678 0.500000
O O8 0.383415 0.904652 0.569534
O O9 0.501601 0.906811 0.736081
O O10 0.250000 0.675704 0.374177
O O11 0.333553 0.788793 0.435530
O O12 0.376655 0.642419 0.450092
O O13 0.750000 0.093625 0.539486
O O14 0.865778 0.087776 0.696181
O O15 0.500000 0.593017 0.500000
O O16 0.398724 0.500000 0.558960
O O17 0.921385 0.000000 0.886776
#
# Coordination Sequence:
#
# PCOD9398637 Si02
#       7
#     8   8   8   8   8   8   8
#     4   9  19  33  54  78 106 145 186 219 266 322
#     4  10  17  33  55  79 107 140 179 228 264 315
#     4   9  16  28  50  71 101 140 174 218 269 315
#     4  10  19  35  55  77 110 146 183 223 264 328
#     4   9  17  28  48  75  98 134 180 220 265 315
#     4  11  21  34  58  87 110 138 177 226 277 320
#     4   9  18  31  48  72 103 138 177 221 269 319
#
# _framework density 17.603017000000001
#
# number of rings (size 3 to 8) (size 9 to 14) (size 15 to 20)
#    0.000    2.429    2.857    1.286    0.000    3.143 
#    0.000    9.286    0.000    0.000    0.000    0.000 
#    0.000    6.857    0.000    0.000    0.000    0.000 
#
# Total GULP energy -312247.819019 kJ/mol
# GULP energy per Si atom -5575.853911 kJ/mol
# Density = 1.756295 g / cm^3
# Si number density = 17.603017 Si / 1000 Ang^3
#
#
#
# Elastic Constant Matrix: (Units=GPa)
#
#
# Indices 1 2 3 4 5 6 
#
# 1 85.6361 22.2835 15.7145 0.0000 0.0000 0.0000
# 2 22.2835 121.8447 42.0331 0.0000 0.0000 0.0000
# 3 15.7145 42.0331 84.8283 0.0000 0.0000 0.0000
# 4 0.0000 0.0000 0.0000 -2.8141 0.0000 0.0000
# 5 0.0000 0.0000 0.0000 0.0000 13.9457 0.0000
# 6 0.0000 0.0000 0.0000 0.0000 0.0000 -7.4847
#
#
#
# Elastic Compliance Matrix: (Units=1/GPa)
#
#
# Indices 1 2 3 4 5 6 
#
# 1 0.012400 -0.001780 -0.001415 0.000000 0.000000 0.000000
# 2 -0.001780 0.010155 -0.004702 0.000000 0.000000 0.000000
# 3 -0.001415 -0.004702 0.014381 0.000000 0.000000 0.000000
# 4 0.000000 0.000000 0.000000 -0.355355 0.000000 0.000000
# 5 0.000000 0.000000 0.000000 0.000000 0.071706 0.000000
# 6 0.000000 0.000000 0.000000 0.000000 0.000000 -0.133606
#
#
# Mechanical properties :
#
#
# Convention : Reuss Voigt Hill
#
# Bulk Modulus (GPa) = 47.30032 50.26349 48.78191
# Shear Modulus (GPa) = -13.98688 14.88125 0.44719
#
# Velocity S-wave (km/s) = -2.82188 2.91070 0.50457
# Velocity P-wave (km/s) = 4.03876 6.31760 5.30206
#
# Compressibility (1/GPa) = 0.02114150
#
# Stress axis : x y z
#
# Youngs Moduli (GPa) = 80.64455 98.47644 69.53794
#
# Poissons Ratio (x) = 0.17524 0.09842
# Poissons Ratio (y) = 0.14351 0.32697
# Poissons Ratio (z) = 0.11414 0.46304
#
# Static dielectric constant tensor:
#      x y z
#    x 1.603090 0.000000 0.000000 
#    y 0.000000 1.609030 0.000000 
#    z 0.000000 0.000000 1.597860 
# 
# From -- ./inp_files/11109.got.cif
#   From: 2010.05.17/outbox.cif.g08.bks.cpg/sg51_6_cif.got.tgz:11109.got - 2010.06.03 11:52:47.
