data_PCOD9398981
_publ_section_title
;
Structure prediction by ZEFSAII (Michael W. Deem and Ramdas Pophale) SiO2 
 PCOD9398981
Probable space group: P M M A
;
_chemical_formula_sum "Si O2"
_cell_formula_units_Z 64
_cell_length_a 8.727489
_cell_length_b 24.367883
_cell_length_c 19.738017
_cell_angle_alpha 90.000000
_cell_angle_beta 90.000000
_cell_angle_gamma 90.000000
_cell_volume 4197.692579
_symmetry_space_group_name_H-M "P M M A"
_symmetry_group_IT_number 51
_symmetry_cell_setting 'orthorhombic'
loop_
_space_group_symop_operation_xyz
x,y,z
1/2-x,-y,z
1/2+x,-y,-z
-x,y,-z
-x,-y,-z
1/2+x,y,-z
1/2-x,y,z
x,-y,z
loop_
_atom_site_type_symbol
_atom_site_label
_atom_site_fract_x
_atom_site_fract_y
_atom_site_fract_z
Si Si1 0.933623 0.887260 0.072172
Si Si2 0.066064 0.241525 0.928612
Si Si3 0.564956 0.062010 0.791775
Si Si4 0.933850 0.226596 0.574403
Si Si5 0.565024 0.562571 0.574361
Si Si6 0.565087 0.666076 0.660200
Si Si7 0.066224 0.271875 0.782611
Si Si8 0.564726 0.833897 0.706472
O O1 0.750000 0.890683 0.071291
O O2 0.978012 0.822813 0.079863
O O3 0.999083 0.920123 0.135658
O O4 0.000000 0.906181 0.000000
O O5 0.250000 0.243066 0.932268
O O6 0.017094 0.273584 0.861120
O O7 0.000000 0.261089 0.000000
O O8 0.750000 0.063377 0.795814
O O9 0.518007 0.107545 0.736532
O O10 0.517732 0.000000 0.775052
O O11 0.750000 0.226796 0.569616
O O12 0.979867 0.284650 0.608770
O O13 0.978990 0.180137 0.629150
O O14 0.000000 0.219880 0.500000
O O15 0.500000 0.575584 0.500000
O O16 0.750000 0.564231 0.570654
O O17 0.519150 0.500000 0.591269
O O18 0.516127 0.608334 0.628251
O O19 0.750000 0.667023 0.665092
O O20 0.497508 0.681419 0.733084
O O21 0.250000 0.271788 0.780191
O O22 0.005634 0.214407 0.752108
O O23 0.750000 0.829510 0.710540
#
# Coordination Sequence:
#
# PCOD9398981 Si02
#       8
#     8   8   8   8   8   8   8   8
#     4  10  19  32  47  65  88 114 144 178 215 257
#     4   9  18  29  43  64  88 114 144 175 212 262
#     4  10  20  33  49  66  83 109 145 181 218 263
#     4   9  17  28  43  64  86 110 139 174 215 259
#     4   9  17  29  45  65  93 129 166 198 224 257
#     4   9  18  30  43  64  93 123 154 184 220 261
#     4  10  18  29  45  67  90 113 146 184 221 260
#     4   9  18  32  47  63  86 112 139 174 219 269
#
# _framework density 15.246471
#
# number of rings (size 3 to 8) (size 9 to 14) (size 15 to 20)
#    0.000    2.625    1.250    1.875    0.000    4.500 
#    0.000    0.000    0.000    0.375    0.000    0.000 
#    0.000    0.500    0.000    1.125    0.000    2.000 
#
# Total GULP energy -356684.433426 kJ/mol
# GULP energy per Si atom -5573.194272 kJ/mol
# Density = 1.521177 g / cm^3
# Si number density = 15.246471 Si / 1000 Ang^3
#
#
#
# Elastic Constant Matrix: (Units=GPa)
#
#
# Indices 1 2 3 4 5 6 
#
# 1 7.9697 21.8995 26.3481 0.0000 0.0000 0.0000
# 2 21.8995 97.0123 71.6685 0.0000 0.0000 0.0000
# 3 26.3481 71.6685 146.0189 0.0000 0.0000 0.0000
# 4 0.0000 0.0000 0.0000 26.7243 0.0000 0.0000
# 5 0.0000 0.0000 0.0000 0.0000 27.3022 0.0000
# 6 0.0000 0.0000 0.0000 0.0000 0.0000 6.5601
#
#
#
# Elastic Compliance Matrix: (Units=1/GPa)
#
#
# Indices 1 2 3 4 5 6 
#
# 1 0.522214 -0.075731 -0.057060 0.000000 0.000000 0.000000
# 2 -0.075731 0.027154 0.000337 0.000000 0.000000 0.000000
# 3 -0.057060 0.000337 0.016979 0.000000 0.000000 0.000000
# 4 0.000000 0.000000 0.000000 0.037419 0.000000 0.000000
# 5 0.000000 0.000000 0.000000 0.000000 0.036627 0.000000
# 6 0.000000 0.000000 0.000000 0.000000 0.000000 0.152437
#
#
# Mechanical properties :
#
#
# Convention : Reuss Voigt Hill
#
# Bulk Modulus (GPa) = 3.31741 54.53701 28.92721
# Shear Modulus (GPa) = 4.31698 20.85631 12.58665
#
# Velocity S-wave (km/s) = 1.68452 3.70258 2.87635
# Velocity P-wave (km/s) = 2.44214 7.35709 5.48137
#
# Compressibility (1/GPa) = 0.30144023
#
# Stress axis : x y z
#
# Youngs Moduli (GPa) = 1.91492 36.82683 58.89653
#
# Poissons Ratio (x) = 2.78892 3.36064
# Poissons Ratio (y) = 0.14502 -0.01987
# Poissons Ratio (z) = 0.10927 -0.01243
#
# Static dielectric constant tensor:
#      x y z
#    x 1.507250 0.000000 0.000000 
#    y 0.000000 1.505680 0.000000 
#    z 0.000000 0.000000 1.502540 
# 
# From -- ./inp_files/28604.got.cif
#   From: 2010.05.17/outbox.cif.g08.bks.cpg/sg51_15_cif.got.tgz:28604.got - 2010.06.03 11:52:47.
