data_PCOD9398099
_publ_section_title
;
Structure prediction by ZEFSAII (Michael W. Deem and Ramdas Pophale) SiO2 
 PCOD9398099
Probable space group: P B A N
;
_chemical_formula_sum "Si O2"
_cell_formula_units_Z 32
_cell_length_a 9.354116
_cell_length_b 10.152998
_cell_length_c 14.209992
_cell_angle_alpha 90.000000
_cell_angle_beta 90.000000
_cell_angle_gamma 90.000000
_cell_volume 1349.555922
_symmetry_space_group_name_H-M "P B A N"
_symmetry_group_IT_number 50
_space_group.IT_coordinate_system_code '2'
_symmetry_cell_setting 'orthorhombic'
loop_
_space_group_symop_operation_xyz
x,y,z
1/2-x,1/2-y,z
x,1/2-y,-z
1/2-x,y,-z
-x,-y,-z
1/2+x,1/2+y,-z
-x,1/2+y,z
1/2+x,-y,z
loop_
_atom_site_type_symbol
_atom_site_label
_atom_site_fract_x
_atom_site_fract_y
_atom_site_fract_z
Si Si1 0.407726 0.884444 0.458667
Si Si2 0.104052 0.545004 0.243113
Si Si3 0.180560 0.894243 0.090280
Si Si4 0.585056 0.778329 0.839842
O O1 0.470140 0.750000 0.500000
O O2 0.250000 0.895353 0.500000
O O3 0.395577 0.895424 0.346580
O O4 0.500000 0.000000 0.500000
O O5 0.255148 0.550866 0.187387
O O6 0.075028 0.387666 0.244012
O O7 0.995624 0.641774 0.185375
O O8 0.250000 0.750000 0.091196
O O9 0.012533 0.861270 0.085925
O O10 0.250000 0.964313 0.000000
O O11 0.750000 0.750000 0.863447
#
# Coordination Sequence:
#
# PCOD9398099 Si02
#       4
#     8   8   8   8
#     4  11  27  45  70 102 137 187 238 292 353 418
#     4  11  24  45  69 100 144 183 230 292 355 422
#     4   9  21  42  68  98 143 186 224 284 354 419
#     4  11  24  41  74 103 138 183 234 287 351 413
#
# _framework density 23.711504999999999
#
# number of rings (size 3 to 8) (size 9 to 14) (size 15 to 20)
#    0.000    1.500    0.000    3.000   17.500    1.500 
#    0.000   15.000    0.000    4.500    0.000    0.000 
#    0.000    0.000    0.000    0.000    0.000    0.000 
#
# Total GULP energy -178584.616831 kJ/mol
# GULP energy per Si atom -5580.769276 kJ/mol
# Density = 2.365754 g / cm^3
# Si number density = 23.711505 Si / 1000 Ang^3
#
#
#
# Elastic Constant Matrix: (Units=GPa)
#
#
# Indices 1 2 3 4 5 6 
#
# 1 182.7916 51.4178 48.9157 0.0000 0.0000 0.0000
# 2 51.4178 161.5512 16.6520 0.0000 0.0000 0.0000
# 3 48.9157 16.6520 123.6000 0.0000 0.0000 0.0000
# 4 0.0000 0.0000 0.0000 16.8279 0.0000 0.0000
# 5 0.0000 0.0000 0.0000 0.0000 19.3454 0.0000
# 6 0.0000 0.0000 0.0000 0.0000 0.0000 37.3021
#
#
#
# Elastic Compliance Matrix: (Units=1/GPa)
#
#
# Indices 1 2 3 4 5 6 
#
# 1 0.006630 -0.001866 -0.002373 0.000000 0.000000 0.000000
# 2 -0.001866 0.006802 -0.000178 0.000000 0.000000 0.000000
# 3 -0.002373 -0.000178 0.009054 0.000000 0.000000 0.000000
# 4 0.000000 0.000000 0.000000 0.059425 0.000000 0.000000
# 5 0.000000 0.000000 0.000000 0.000000 0.051692 0.000000
# 6 0.000000 0.000000 0.000000 0.000000 0.000000 0.026808
#
#
# Mechanical properties :
#
#
# Convention : Reuss Voigt Hill
#
# Bulk Modulus (GPa) = 73.24247 77.99043 75.61645
# Shear Modulus (GPa) = 28.76945 38.09224 33.43084
#
# Velocity S-wave (km/s) = 3.48704 4.01245 3.75894
# Velocity P-wave (km/s) = 6.86795 7.37761 7.12733
#
# Compressibility (1/GPa) = 0.01365328
#
# Stress axis : x y z
#
# Youngs Moduli (GPa) = 150.81880 147.01205 110.45312
#
# Poissons Ratio (x) = 0.27429 0.26207
# Poissons Ratio (y) = 0.28139 0.01966
# Poissons Ratio (z) = 0.35785 0.02617
#
# Static dielectric constant tensor:
#      x y z
#    x 1.942800 0.000000 0.000000 
#    y 0.000000 1.917740 0.000000 
#    z 0.000000 0.000000 1.921250 
# 
# From -- ./inp_files/24413.got.cif
#   From: 2010.05.17/outbox.cif.g08.bks.cpg/sg50_13_cif.got.tgz:24413.got - 2010.06.03 11:33:33.
