data_PCOD9398084
_publ_section_title
;
Structure prediction by ZEFSAII (Michael W. Deem and Ramdas Pophale) SiO2 
 PCOD9398084
Probable space group: P B A N
;
_chemical_formula_sum "Si O2"
_cell_formula_units_Z 40
_cell_length_a 16.669206
_cell_length_b 11.236140
_cell_length_c 9.359104
_cell_angle_alpha 90.000000
_cell_angle_beta 90.000000
_cell_angle_gamma 90.000000
_cell_volume 1752.937084
_symmetry_space_group_name_H-M "P B A N"
_symmetry_group_IT_number 50
_space_group.IT_coordinate_system_code '2'
_symmetry_cell_setting 'orthorhombic'
loop_
_space_group_symop_operation_xyz
x,y,z
1/2-x,1/2-y,z
x,1/2-y,-z
1/2-x,y,-z
-x,-y,-z
1/2+x,1/2+y,-z
-x,1/2+y,z
1/2+x,-y,z
loop_
_atom_site_type_symbol
_atom_site_label
_atom_site_fract_x
_atom_site_fract_y
_atom_site_fract_z
Si Si1 0.078681 0.718732 0.256540
Si Si2 0.580717 0.064524 0.458214
Si Si3 0.794119 0.617864 0.354091
Si Si4 0.312629 0.527530 0.865738
Si Si5 0.898833 0.786486 0.159587
O O1 0.095250 0.640690 0.399269
O O2 0.088440 0.850591 0.320367
O O3 0.142504 0.655339 0.150483
O O4 0.986577 0.730868 0.198161
O O5 0.500000 0.000000 0.500000
O O6 0.632911 0.954404 0.417137
O O7 0.750000 0.643133 0.500000
O O8 0.743701 0.523872 0.260000
O O9 0.833158 0.726976 0.264865
O O10 0.385787 0.429486 0.851564
O O11 0.250000 0.524546 0.000000
O O12 0.877322 0.750000 0.000000
#
# Coordination Sequence:
#
# PCOD9398084 Si02
#       5
#     8   8   8   8   8
#     4  11  26  46  79 109 160 208 271 334 418 491
#     4  11  23  48  74 114 154 206 267 342 402 492
#     4  12  26  46  80 115 154 209 274 340 414 483
#     4  12  27  51  78 115 163 211 270 345 419 502
#     4  12  27  47  79 112 157 213 272 333 417 503
#
# _framework density 22.818847000000002
#
# number of rings (size 3 to 8) (size 9 to 14) (size 15 to 20)
#    0.000    0.400    6.000    1.800    0.000    4.800 
#    0.000    1.000    0.000    0.000    0.000    0.000 
#    0.000    0.000    0.000    0.000    0.000    0.000 
#
# Total GULP energy -222739.115894 kJ/mol
# GULP energy per Si atom -5568.477897 kJ/mol
# Density = 2.276691 g / cm^3
# Si number density = 22.818847 Si / 1000 Ang^3
#
#
#
# Elastic Constant Matrix: (Units=GPa)
#
#
# Indices 1 2 3 4 5 6 
#
# 1 108.3958 57.6761 59.2572 0.0000 0.0000 0.0000
# 2 57.6761 118.6848 45.6940 0.0000 0.0000 0.0000
# 3 59.2572 45.6940 152.6105 0.0000 0.0000 0.0000
# 4 0.0000 0.0000 0.0000 37.0087 0.0000 0.0000
# 5 0.0000 0.0000 0.0000 0.0000 23.7962 0.0000
# 6 0.0000 0.0000 0.0000 0.0000 0.0000 42.2504
#
#
#
# Elastic Compliance Matrix: (Units=1/GPa)
#
#
# Indices 1 2 3 4 5 6 
#
# 1 0.014245 -0.005417 -0.003909 0.000000 0.000000 0.000000
# 2 -0.005417 0.011584 -0.001365 0.000000 0.000000 0.000000
# 3 -0.003909 -0.001365 0.008479 0.000000 0.000000 0.000000
# 4 0.000000 0.000000 0.000000 0.027021 0.000000 0.000000
# 5 0.000000 0.000000 0.000000 0.000000 0.042023 0.000000
# 6 0.000000 0.000000 0.000000 0.000000 0.000000 0.023668
#
#
# Mechanical properties :
#
#
# Convention : Reuss Voigt Hill
#
# Bulk Modulus (GPa) = 77.36864 78.32731 77.84798
# Shear Modulus (GPa) = 32.74139 35.08198 33.91169
#
# Velocity S-wave (km/s) = 3.79204 3.92524 3.85921
# Velocity P-wave (km/s) = 7.29054 7.41239 7.35172
#
# Compressibility (1/GPa) = 0.01292513
#
# Stress axis : x y z
#
# Youngs Moduli (GPa) = 70.19980 86.32729 117.93624
#
# Poissons Ratio (x) = 0.46768 0.46103
# Poissons Ratio (y) = 0.38031 0.16096
# Poissons Ratio (z) = 0.27442 0.11782
#
# Static dielectric constant tensor:
#      x y z
#    x 1.921570 0.000000 0.000000 
#    y 0.000000 1.852800 0.000000 
#    z 0.000000 0.000000 1.367790 
# 
# From -- ./inp_files/13921.got.cif
#   From: 2010.05.17/outbox.cif.g08.bks.cpg/sg50_7_cif.got.tgz:13921.got - 2010.06.03 11:33:33.
