data_PCOD9398778
_publ_section_title
;
Structure prediction by ZEFSAII (Michael W. Deem and Ramdas Pophale) SiO2 
 PCOD9398778
Probable space group: P M M A
;
_chemical_formula_sum "Si O2"
_cell_formula_units_Z 52
_cell_length_a 9.309526
_cell_length_b 23.329163
_cell_length_c 15.208098
_cell_angle_alpha 90.000000
_cell_angle_beta 90.000000
_cell_angle_gamma 90.000000
_cell_volume 3302.947184
_symmetry_space_group_name_H-M "P M M A"
_symmetry_group_IT_number 51
_symmetry_cell_setting 'orthorhombic'
loop_
_space_group_symop_operation_xyz
x,y,z
1/2-x,-y,z
1/2+x,-y,-z
-x,y,-z
-x,-y,-z
1/2+x,y,-z
1/2-x,y,z
x,-y,z
loop_
_atom_site_type_symbol
_atom_site_label
_atom_site_fract_x
_atom_site_fract_y
_atom_site_fract_z
Si Si1 0.924229 0.892250 0.781890
Si Si2 0.077228 0.210016 0.092805
Si Si3 0.577978 0.433539 0.762338
Si Si4 0.078421 0.342016 0.090996
Si Si5 0.421094 0.931298 0.409681
Si Si6 0.413258 0.430411 0.584403
Si Si7 0.423936 0.000000 0.094819
O O1 0.750000 0.892935 0.777367
O O2 0.967580 0.833895 0.830892
O O3 0.972824 0.902055 0.681321
O O4 0.963780 0.944684 0.846431
O O5 0.250000 0.204632 0.080859
O O6 0.045520 0.276176 0.116529
O O7 0.000000 0.197218 0.000000
O O8 0.750000 0.430404 0.748926
O O9 0.543895 0.500000 0.784322
O O10 0.536771 0.389062 0.837551
O O11 0.497510 0.417527 0.673176
O O12 0.250000 0.345654 0.078828
O O13 0.000000 0.353684 0.000000
O O14 0.500000 0.914145 0.500000
O O15 0.250000 0.921285 0.419081
O O16 0.441055 0.000000 0.398387
O O17 0.500000 0.409352 0.500000
O O18 0.250000 0.409736 0.585520
O O19 0.408625 0.500000 0.578701
O O20 0.250000 0.000000 0.083099
O O21 0.500000 0.000000 0.000000
#
# Coordination Sequence:
#
# PCOD9398778 Si02
#       7
#     8   8   8   8   8   8   4
#     4   9  16  28  46  64  86 117 146 172 212 261
#     4   9  17  30  47  65  85 114 149 180 213 258
#     4   9  17  29  44  63  88 116 146 183 226 268
#     4   9  18  31  46  64  86 114 149 185 220 262
#     4   9  16  28  45  64  86 113 144 177 211 251
#     4   9  16  26  42  65  91 117 144 175 214 262
#     4  10  18  28  41  62  90 116 141 172 211 254
#
# _framework density 15.743516
#
# number of rings (size 3 to 8) (size 9 to 14) (size 15 to 20)
#    0.000    2.923    0.769    0.923    0.000    2.769 
#    0.000    1.538    0.000    0.923    0.000    2.154 
#    0.000    0.000    0.000    0.000    0.000    0.000 
#
# Total GULP energy -289572.926448 kJ/mol
# GULP energy per Si atom -5568.710124 kJ/mol
# Density = 1.570768 g / cm^3
# Si number density = 15.743516 Si / 1000 Ang^3
#
#
#
# Elastic Constant Matrix: (Units=GPa)
#
#
# Indices 1 2 3 4 5 6 
#
# 1 26.8302 37.7407 54.4340 0.0000 0.0000 0.0000
# 2 37.7407 81.9386 95.1469 0.0000 0.0000 0.0000
# 3 54.4340 95.1469 178.7758 0.0000 0.0000 0.0000
# 4 0.0000 0.0000 0.0000 11.0776 0.0000 0.0000
# 5 0.0000 0.0000 0.0000 0.0000 30.8532 0.0000
# 6 0.0000 0.0000 0.0000 0.0000 0.0000 7.8647
#
#
#
# Elastic Compliance Matrix: (Units=1/GPa)
#
#
# Indices 1 2 3 4 5 6 
#
# 1 0.128227 -0.035929 -0.019921 0.000000 0.000000 0.000000
# 2 -0.035929 0.042016 -0.011422 0.000000 0.000000 0.000000
# 3 -0.019921 -0.011422 0.017738 0.000000 0.000000 0.000000
# 4 0.000000 0.000000 0.000000 0.090273 0.000000 0.000000
# 5 0.000000 0.000000 0.000000 0.000000 0.032412 0.000000
# 6 0.000000 0.000000 0.000000 0.000000 0.000000 0.127151
#
#
# Mechanical properties :
#
#
# Convention : Reuss Voigt Hill
#
# Bulk Modulus (GPa) = 18.71331 73.57642 46.14487
# Shear Modulus (GPa) = 8.47211 16.64061 12.55636
#
# Velocity S-wave (km/s) = 2.32229 3.25465 2.82717
# Velocity P-wave (km/s) = 4.37068 7.80766 6.32702
#
# Compressibility (1/GPa) = 0.05343789
#
# Stress axis : x y z
#
# Youngs Moduli (GPa) = 7.79866 23.80061 56.37607
#
# Poissons Ratio (x) = 0.85512 1.12308
# Poissons Ratio (y) = 0.28020 0.64391
# Poissons Ratio (z) = 0.15536 0.27184
#
# Static dielectric constant tensor:
#      x y z
#    x 1.525630 0.000000 0.000000 
#    y 0.000000 1.522870 0.000000 
#    z 0.000000 0.000000 1.507500 
# 
# From -- ./inp_files/21558.got.cif
#   From: 2010.05.17/outbox.cif.g08.bks.cpg/sg51_11_cif.got.tgz:21558.got - 2010.06.03 11:52:47.
