data_PCOD9398379
_publ_section_title
;
Structure prediction by ZEFSAII (Michael W. Deem and Ramdas Pophale) SiO2 
 PCOD9398379
Probable space group: P M M A
;
_chemical_formula_sum "Si O2"
_cell_formula_units_Z 36
_cell_length_a 8.698178
_cell_length_b 18.625696
_cell_length_c 15.665969
_cell_angle_alpha 90.000000
_cell_angle_beta 90.000000
_cell_angle_gamma 90.000000
_cell_volume 2538.037672
_symmetry_space_group_name_H-M "P M M A"
_symmetry_group_IT_number 51
_symmetry_cell_setting 'orthorhombic'
loop_
_space_group_symop_operation_xyz
x,y,z
1/2-x,-y,z
1/2+x,-y,-z
-x,y,-z
-x,-y,-z
1/2+x,y,-z
1/2-x,y,z
x,-y,z
loop_
_atom_site_type_symbol
_atom_site_label
_atom_site_fract_x
_atom_site_fract_y
_atom_site_fract_z
Si Si1 0.934442 0.647562 0.903096
Si Si2 0.434435 0.500000 0.902763
Si Si3 0.565178 0.082164 0.230683
Si Si4 0.927088 0.087249 0.588786
Si Si5 0.935555 0.797469 0.095791
O O1 0.750000 0.645441 0.904749
O O2 0.001669 0.574161 0.863740
O O3 0.996143 0.722920 0.867536
O O4 0.000000 0.648747 0.000000
O O5 0.250000 0.500000 0.905272
O O6 0.500000 0.500000 0.000000
O O7 0.750000 0.080171 0.231378
O O8 0.510368 0.107930 0.323693
O O9 0.518577 0.136362 0.156072
O O10 0.509691 0.000000 0.217226
O O11 0.750000 0.108319 0.592594
O O12 0.000000 0.112913 0.500000
O O13 0.934744 0.000000 0.586695
O O14 0.750000 0.792233 0.091891
O O15 0.000000 0.807414 0.000000
#
# Coordination Sequence:
#
# PCOD9398379 Si02
#       5
#     8   4   8   8   8
#     4  10  17  26  39  55  75  99 129 163 200 240
#     4  10  16  24  38  56  76  96 123 158 197 240
#     4   9  18  31  44  58  78 105 138 174 209 244
#     4   9  16  26  42  62  81 100 124 158 202 250
#     4  10  19  30  42  56  77 107 141 175 209 241
#
# _framework density 14.184186
#
# number of rings (size 3 to 8) (size 9 to 14) (size 15 to 20)
#    0.000    2.444    0.000    7.000    0.000    4.889 
#    0.000    0.000    0.000    0.000    0.000    0.000 
#    0.000    0.000    0.000    1.000    0.000   13.444 
#
# Total GULP energy -200433.389311 kJ/mol
# GULP energy per Si atom -5567.594148 kJ/mol
# Density = 1.415190 g / cm^3
# Si number density = 14.184186 Si / 1000 Ang^3
#
#
#
# Elastic Constant Matrix: (Units=GPa)
#
#
# Indices 1 2 3 4 5 6 
#
# 1 76.6388 38.6932 25.2372 0.0000 0.0000 0.0000
# 2 38.6932 101.8165 52.7406 0.0000 0.0000 0.0000
# 3 25.2372 52.7406 66.6898 0.0000 0.0000 0.0000
# 4 0.0000 0.0000 0.0000 -0.2076 0.0000 0.0000
# 5 0.0000 0.0000 0.0000 0.0000 18.7302 0.0000
# 6 0.0000 0.0000 0.0000 0.0000 0.0000 19.1650
#
#
#
# Elastic Compliance Matrix: (Units=1/GPa)
#
#
# Indices 1 2 3 4 5 6 
#
# 1 0.016327 -0.005089 -0.002154 0.000000 0.000000 0.000000
# 2 -0.005089 0.018223 -0.012486 0.000000 0.000000 0.000000
# 3 -0.002154 -0.012486 0.025684 0.000000 0.000000 0.000000
# 4 0.000000 0.000000 0.000000 -4.816489 0.000000 0.000000
# 5 0.000000 0.000000 0.000000 0.000000 0.053390 0.000000
# 6 0.000000 0.000000 0.000000 0.000000 0.000000 0.052178
#
#
# Mechanical properties :
#
#
# Convention : Reuss Voigt Hill
#
# Bulk Modulus (GPa) = 48.13070 53.16522 50.64796
# Shear Modulus (GPa) = -1.08594 16.10247 7.50826
#
# Velocity S-wave (km/s) = -0.87593 3.37299 2.30324
# Velocity P-wave (km/s) = 5.74311 7.26174 6.54661
#
# Compressibility (1/GPa) = 0.02077676
#
# Stress axis : x y z
#
# Youngs Moduli (GPa) = 61.24893 54.87568 38.93471
#
# Poissons Ratio (x) = 0.27926 0.08387
# Poissons Ratio (y) = 0.31169 0.48612
# Poissons Ratio (z) = 0.13193 0.68516
#
# Static dielectric constant tensor:
#      x y z
#    x 1.476560 0.000000 0.000000 
#    y 0.000000 1.516620 0.000000 
#    z 0.000000 0.000000 1.443610 
# 
# From -- ./inp_files/20768.got.cif
#   From: 2010.05.17/outbox.cif.g08.bks.cpg/sg51_11_cif.got.tgz:20768.got - 2010.06.03 11:52:47.
