data_PCOD9398982
_publ_section_title
;
Structure prediction by ZEFSAII (Michael W. Deem and Ramdas Pophale) SiO2 
 PCOD9398982
Probable space group: P M M A
;
_chemical_formula_sum "Si O2"
_cell_formula_units_Z 64
_cell_length_a 8.760611
_cell_length_b 24.263679
_cell_length_c 19.569728
_cell_angle_alpha 90.000000
_cell_angle_beta 90.000000
_cell_angle_gamma 90.000000
_cell_volume 4159.832445
_symmetry_space_group_name_H-M "P M M A"
_symmetry_group_IT_number 51
_symmetry_cell_setting 'orthorhombic'
loop_
_space_group_symop_operation_xyz
x,y,z
1/2-x,-y,z
1/2+x,-y,-z
-x,y,-z
-x,-y,-z
1/2+x,y,-z
1/2-x,y,z
x,-y,z
loop_
_atom_site_type_symbol
_atom_site_label
_atom_site_fract_x
_atom_site_fract_y
_atom_site_fract_z
Si Si1 0.432758 0.338926 0.157096
Si Si2 0.566249 0.832142 0.201853
Si Si3 0.436127 0.062026 0.714326
Si Si4 0.567199 0.244851 0.427269
Si Si5 0.433065 0.227810 0.075318
Si Si6 0.933351 0.114968 0.427877
Si Si7 0.067757 0.436597 0.926000
Si Si8 0.566768 0.730127 0.713630
O O1 0.250000 0.345534 0.153830
O O2 0.473749 0.287637 0.107420
O O3 0.510344 0.393914 0.130246
O O4 0.472959 0.318719 0.233395
O O5 0.750000 0.829310 0.200687
O O6 0.518787 0.891530 0.231162
O O7 0.500049 0.816774 0.128039
O O8 0.504371 0.785375 0.253395
O O9 0.250000 0.061898 0.713521
O O10 0.485097 0.081675 0.638732
O O11 0.487607 0.000000 0.728948
O O12 0.500000 0.263022 0.500000
O O13 0.750000 0.249022 0.427265
O O14 0.526289 0.179697 0.419543
O O15 0.497363 0.275694 0.362296
O O16 0.250000 0.223975 0.074294
O O17 0.500000 0.222339 0.000000
O O18 0.750000 0.111804 0.431183
O O19 0.000000 0.095496 0.500000
O O20 0.250000 0.434624 0.930305
O O21 0.021049 0.500000 0.912141
O O22 0.000000 0.420989 0.000000
O O23 0.750000 0.735470 0.712814
#
# Coordination Sequence:
#
# PCOD9398982 Si02
#       8
#     8   8   8   8   8   8   8   8
#     4   9  19  32  47  69  96 125 158 193 231 269
#     4  10  18  31  49  68  89 117 150 184 230 283
#     4   9  17  30  47  65  87 115 149 188 227 274
#     4  10  18  29  45  67  92 123 157 190 232 282
#     4  10  20  33  49  72  96 119 147 186 232 277
#     4   9  17  29  43  63  87 115 149 184 221 267
#     4  10  20  32  47  68  96 132 169 200 230 265
#     4  10  19  31  47  68  94 123 155 195 236 277
#
# _framework density 15.385236000000001
#
# number of rings (size 3 to 8) (size 9 to 14) (size 15 to 20)
#    0.000    2.375    1.250    3.000    0.000    5.500 
#    0.000    0.000    0.000    3.375    0.000    0.000 
#    0.000    0.500    0.000    1.625    0.000    2.375 
#
# Total GULP energy -356928.496913 kJ/mol
# GULP energy per Si atom -5577.007764 kJ/mol
# Density = 1.535022 g / cm^3
# Si number density = 15.385236 Si / 1000 Ang^3
#
#
#
# Elastic Constant Matrix: (Units=GPa)
#
#
# Indices 1 2 3 4 5 6 
#
# 1 36.0885 29.3950 41.0175 0.0000 0.0000 0.0000
# 2 29.3950 82.8839 60.1400 0.0000 0.0000 0.0000
# 3 41.0175 60.1400 141.1319 0.0000 0.0000 0.0000
# 4 0.0000 0.0000 0.0000 23.3118 0.0000 0.0000
# 5 0.0000 0.0000 0.0000 0.0000 29.2328 0.0000
# 6 0.0000 0.0000 0.0000 0.0000 0.0000 15.0411
#
#
#
# Elastic Compliance Matrix: (Units=1/GPa)
#
#
# Indices 1 2 3 4 5 6 
#
# 1 0.046110 -0.009596 -0.009312 0.000000 0.000000 0.000000
# 2 -0.009596 0.019462 -0.005504 0.000000 0.000000 0.000000
# 3 -0.009312 -0.005504 0.012137 0.000000 0.000000 0.000000
# 4 0.000000 0.000000 0.000000 0.042897 0.000000 0.000000
# 5 0.000000 0.000000 0.000000 0.000000 0.034208 0.000000
# 6 0.000000 0.000000 0.000000 0.000000 0.000000 0.066485
#
#
# Mechanical properties :
#
#
# Convention : Reuss Voigt Hill
#
# Bulk Modulus (GPa) = 34.62063 57.91213 46.26638
# Shear Modulus (GPa) = 17.87295 22.15392 20.01343
#
# Velocity S-wave (km/s) = 3.41206 3.79878 3.61060
# Velocity P-wave (km/s) = 6.17043 7.54745 6.89341
#
# Compressibility (1/GPa) = 0.02888452
#
# Stress axis : x y z
#
# Youngs Moduli (GPa) = 21.68738 51.38099 82.38976
#
# Poissons Ratio (x) = 0.49308 0.76719
# Poissons Ratio (y) = 0.20812 0.45351
# Poissons Ratio (z) = 0.20195 0.28282
#
# Static dielectric constant tensor:
#      x y z
#    x 1.515350 0.000000 0.000000 
#    y 0.000000 1.501920 0.000000 
#    z 0.000000 0.000000 1.509570 
# 
# From -- ./inp_files/28596.got.cif
#   From: 2010.05.17/outbox.cif.g08.bks.cpg/sg51_15_cif.got.tgz:28596.got - 2010.06.03 11:52:47.
