data_PCOD9398680
_publ_section_title
;
Structure prediction by ZEFSAII (Michael W. Deem and Ramdas Pophale) SiO2 
 PCOD9398680
Probable space group: P M M A
;
_chemical_formula_sum "Si O2"
_cell_formula_units_Z 64
_cell_length_a 8.720347
_cell_length_b 27.402807
_cell_length_c 18.870428
_cell_angle_alpha 90.000000
_cell_angle_beta 90.000000
_cell_angle_gamma 90.000000
_cell_volume 4509.314948
_symmetry_space_group_name_H-M "P M M A"
_symmetry_group_IT_number 51
_symmetry_cell_setting 'orthorhombic'
loop_
_space_group_symop_operation_xyz
x,y,z
1/2-x,-y,z
1/2+x,-y,-z
-x,y,-z
-x,-y,-z
1/2+x,y,-z
1/2-x,y,z
x,-y,z
loop_
_atom_site_type_symbol
_atom_site_label
_atom_site_fract_x
_atom_site_fract_y
_atom_site_fract_z
Si Si1 0.065155 0.659648 0.420015
Si Si2 0.566303 0.053299 0.151001
Si Si3 0.567322 0.245776 0.345441
Si Si4 0.426163 0.202170 0.210117
Si Si5 0.565772 0.153338 0.077495
Si Si6 0.065186 0.447572 0.420233
Si Si7 0.925477 0.904058 0.713859
Si Si8 0.935209 0.149878 0.578002
O O1 0.250000 0.663498 0.422344
O O2 0.021631 0.605614 0.390705
O O3 0.000000 0.663305 0.500000
O O4 0.996631 0.703544 0.374912
O O5 0.750000 0.053151 0.146098
O O6 0.512167 0.099514 0.104842
O O7 0.521050 0.062927 0.232682
O O8 0.508035 0.000000 0.128309
O O9 0.750000 0.243961 0.350906
O O10 0.514587 0.236730 0.264662
O O11 0.497511 0.201388 0.392053
O O12 0.250000 0.217639 0.201551
O O13 0.505752 0.191935 0.135295
O O14 0.424850 0.149387 0.249230
O O15 0.750000 0.153753 0.076579
O O16 0.500000 0.162434 0.000000
O O17 0.250000 0.447588 0.423691
O O18 0.017663 0.500000 0.387422
O O19 0.000000 0.447759 0.500000
O O20 0.750000 0.921750 0.711251
O O21 0.981203 0.892132 0.634607
O O22 0.750000 0.151897 0.577622
O O23 0.000000 0.141494 0.500000
#
# Coordination Sequence:
#
# PCOD9398680 Si02
#       8
#     8   8   8   8   8   8   8   8
#     4  10  18  27  38  54  78 106 138 178 220 255
#     4   9  18  31  46  64  85 108 133 160 191 228
#     4  11  20  29  41  58  81 107 135 166 204 247
#     4   9  17  31  47  62  81 105 134 164 196 235
#     4  10  19  31  47  67  90 113 136 161 190 224
#     4   8  14  24  37  51  68  95 133 175 216 255
#     4   8  16  29  44  61  79 100 127 159 194 236
#     4  10  19  30  43  60  80 101 129 164 204 245
#
# _framework density 14.192842000000001
#
# number of rings (size 3 to 8) (size 9 to 14) (size 15 to 20)
#    0.000    2.625    0.000    3.750    0.000    5.000 
#    0.000    0.000    0.000    0.375    0.000    0.000 
#    0.000    0.000    0.000    0.000    0.000    0.625 
#
# Total GULP energy -356364.757985 kJ/mol
# GULP energy per Si atom -5568.199344 kJ/mol
# Density = 1.416054 g / cm^3
# Si number density = 14.192842 Si / 1000 Ang^3
#
#
#
# Elastic Constant Matrix: (Units=GPa)
#
#
# Indices 1 2 3 4 5 6 
#
# 1 48.9947 12.3157 23.0033 0.0000 0.0000 0.0000
# 2 12.3157 41.8659 20.1807 0.0000 0.0000 0.0000
# 3 23.0033 20.1807 94.5924 0.0000 0.0000 0.0000
# 4 0.0000 0.0000 0.0000 9.0493 0.0000 0.0000
# 5 0.0000 0.0000 0.0000 0.0000 22.4357 0.0000
# 6 0.0000 0.0000 0.0000 0.0000 0.0000 11.0526
#
#
#
# Elastic Compliance Matrix: (Units=1/GPa)
#
#
# Indices 1 2 3 4 5 6 
#
# 1 0.023844 -0.004703 -0.004795 0.000000 0.000000 0.000000
# 2 -0.004703 0.027551 -0.004734 0.000000 0.000000 0.000000
# 3 -0.004795 -0.004734 0.012748 0.000000 0.000000 0.000000
# 4 0.000000 0.000000 0.000000 0.110506 0.000000 0.000000
# 5 0.000000 0.000000 0.000000 0.000000 0.044572 0.000000
# 6 0.000000 0.000000 0.000000 0.000000 0.000000 0.090476
#
#
# Mechanical properties :
#
#
# Convention : Reuss Voigt Hill
#
# Bulk Modulus (GPa) = 28.02800 32.93917 30.48359
# Shear Modulus (GPa) = 14.28353 17.17108 15.72730
#
# Velocity S-wave (km/s) = 3.17581 3.48205 3.33245
# Velocity P-wave (km/s) = 5.76528 6.27893 6.02758
#
# Compressibility (1/GPa) = 0.03567861
#
# Stress axis : x y z
#
# Youngs Moduli (GPa) = 41.93961 36.29597 78.44491
#
# Poissons Ratio (x) = 0.17069 0.37615
# Poissons Ratio (y) = 0.19723 0.37138
# Poissons Ratio (z) = 0.20111 0.17184
#
# Static dielectric constant tensor:
#      x y z
#    x 1.484450 0.000000 0.000000 
#    y 0.000000 1.488190 0.000000 
#    z 0.000000 0.000000 1.454750 
# 
# From -- ./inp_files/28689.got.cif
#   From: 2010.05.17/outbox.cif.g08.bks.cpg/sg51_15_cif.got.tgz:28689.got - 2010.06.03 11:52:47.
