data_PCOD9398616
_publ_section_title
;
Structure prediction by ZEFSAII (Michael W. Deem and Ramdas Pophale) SiO2 
 PCOD9398616
Probable space group: P M M A
;
_chemical_formula_sum "Si O2"
_cell_formula_units_Z 64
_cell_length_a 14.878925
_cell_length_b 14.384617
_cell_length_c 19.057619
_cell_angle_alpha 90.000000
_cell_angle_beta 90.000000
_cell_angle_gamma 90.000000
_cell_volume 4078.857171
_symmetry_space_group_name_H-M "P M M A"
_symmetry_group_IT_number 51
_symmetry_cell_setting 'orthorhombic'
loop_
_space_group_symop_operation_xyz
x,y,z
1/2-x,-y,z
1/2+x,-y,-z
-x,y,-z
-x,-y,-z
1/2+x,y,-z
1/2-x,y,z
x,-y,z
loop_
_atom_site_type_symbol
_atom_site_label
_atom_site_fract_x
_atom_site_fract_y
_atom_site_fract_z
Si Si1 0.354485 0.112534 0.946732
Si Si2 0.525337 0.112373 0.184709
Si Si3 0.963833 0.213777 0.328639
Si Si4 0.648144 0.392241 0.346968
Si Si5 0.352385 0.112992 0.104160
Si Si6 0.392952 0.605348 0.490518
Si Si7 0.648121 0.784941 0.595405
Si Si8 0.857014 0.890868 0.451506
O O1 0.250000 0.136955 0.937334
O O2 0.413074 0.142826 0.880881
O O3 0.360422 0.000000 0.947328
O O4 0.381512 0.142490 0.025398
O O5 0.552817 0.157504 0.257621
O O6 0.424320 0.139778 0.162269
O O7 0.530132 0.000000 0.190450
O O8 0.924090 0.317541 0.321372
O O9 0.911668 0.166820 0.394034
O O10 0.069147 0.210355 0.348058
O O11 0.750000 0.371202 0.322964
O O12 0.627088 0.500000 0.329931
O O13 0.647160 0.385663 0.431787
O O14 0.250000 0.143464 0.116427
O O15 0.351626 0.000000 0.102955
O O16 0.500000 0.619643 0.500000
O O17 0.378093 0.500000 0.465602
O O18 0.355808 0.682640 0.439040
O O19 0.750000 0.805034 0.619493
O O20 0.625768 0.853066 0.529915
O O21 0.750000 0.878512 0.438938
O O22 0.878340 0.000000 0.446778
#
# Coordination Sequence:
#
# PCOD9398616 Si02
#       8
#     8   8   8   8   8   8   8   8
#     4   8  14  26  45  68  92 119 151 186 224 266
#     4  10  20  30  43  66  97 129 157 185 222 267
#     4  12  22  33  47  68  94 123 154 192 234 280
#     4  10  20  34  52  71  90 113 144 188 245 299
#     4   8  14  27  47  67  90 123 159 191 222 259
#     4  10  17  30  53  75  90 106 137 192 253 297
#     4  11  22  35  48  64  87 119 160 201 235 273
#     4  10  21  36  51  64  82 116 161 202 237 272
#
# _framework density 15.690668000000001
#
# number of rings (size 3 to 8) (size 9 to 14) (size 15 to 20)
#    0.000    2.125    2.500    2.625    0.000    5.250 
#    0.000    1.250    0.000    0.000    0.000    0.000 
#    0.000    2.000    0.000    2.750    0.000    0.250 
#
# Total GULP energy -356868.368768 kJ/mol
# GULP energy per Si atom -5576.068262 kJ/mol
# Density = 1.565496 g / cm^3
# Si number density = 15.690668 Si / 1000 Ang^3
#
#
#
# Elastic Constant Matrix: (Units=GPa)
#
#
# Indices 1 2 3 4 5 6 
#
# 1 62.5586 21.4594 22.0934 0.0000 0.0000 0.0000
# 2 21.4594 50.1199 12.8292 0.0000 0.0000 0.0000
# 3 22.0934 12.8292 33.4541 0.0000 0.0000 0.0000
# 4 0.0000 0.0000 0.0000 4.3212 0.0000 0.0000
# 5 0.0000 0.0000 0.0000 0.0000 3.5720 0.0000
# 6 0.0000 0.0000 0.0000 0.0000 0.0000 13.7116
#
#
#
# Elastic Compliance Matrix: (Units=1/GPa)
#
#
# Indices 1 2 3 4 5 6 
#
# 1 0.022606 -0.006495 -0.012438 0.000000 0.000000 0.000000
# 2 -0.006495 0.023990 -0.004910 0.000000 0.000000 0.000000
# 3 -0.012438 -0.004910 0.039989 0.000000 0.000000 0.000000
# 4 0.000000 0.000000 0.000000 0.231417 0.000000 0.000000
# 5 0.000000 0.000000 0.000000 0.000000 0.279956 0.000000
# 6 0.000000 0.000000 0.000000 0.000000 0.000000 0.072931
#
#
# Mechanical properties :
#
#
# Convention : Reuss Voigt Hill
#
# Bulk Modulus (GPa) = 25.70872 28.76630 27.23751
# Shear Modulus (GPa) = 6.83488 10.30434 8.56961
#
# Velocity S-wave (km/s) = 2.08937 2.56543 2.33954
# Velocity P-wave (km/s) = 4.71603 5.21042 4.96937
#
# Compressibility (1/GPa) = 0.03889731
#
# Stress axis : x y z
#
# Youngs Moduli (GPa) = 44.23651 41.68396 25.00680
#
# Poissons Ratio (x) = 0.27074 0.31104
# Poissons Ratio (y) = 0.28732 0.12279
# Poissons Ratio (z) = 0.55023 0.20469
#
# Static dielectric constant tensor:
#      x y z
#    x 1.579240 0.000000 0.000000 
#    y 0.000000 1.517730 0.000000 
#    z 0.000000 0.000000 1.497860 
# 
# From -- ./inp_files/29963.got.cif
#   From: 2010.05.17/outbox.cif.g08.bks.cpg/sg51_15_cif.got.tgz:29963.got - 2010.06.03 11:52:47.
