data_PCOD9398180
_publ_section_title
;
Structure prediction by ZEFSAII (Michael W. Deem and Ramdas Pophale) SiO2 
 PCOD9398180
Probable space group: P B A N
;
_chemical_formula_sum "Si O2"
_cell_formula_units_Z 56
_cell_length_a 11.423793
_cell_length_b 14.610990
_cell_length_c 14.349555
_cell_angle_alpha 90.000000
_cell_angle_beta 90.000000
_cell_angle_gamma 90.000000
_cell_volume 2395.126202
_symmetry_space_group_name_H-M "P B A N"
_symmetry_group_IT_number 50
_space_group.IT_coordinate_system_code '2'
_symmetry_cell_setting 'orthorhombic'
loop_
_space_group_symop_operation_xyz
x,y,z
1/2-x,1/2-y,z
x,1/2-y,-z
1/2-x,y,-z
-x,-y,-z
1/2+x,1/2+y,-z
-x,1/2+y,z
1/2+x,-y,z
loop_
_atom_site_type_symbol
_atom_site_label
_atom_site_fract_x
_atom_site_fract_y
_atom_site_fract_z
Si Si1 0.110683 0.316243 0.589473
Si Si2 0.265315 0.342239 0.216575
Si Si3 0.878224 0.221110 0.637025
Si Si4 0.456636 0.386768 0.086764
Si Si5 0.439668 0.075384 0.116810
Si Si6 0.875184 0.025151 0.547440
Si Si7 0.620092 0.222162 0.140976
O O1 0.139301 0.250000 0.500000
O O2 0.167597 0.302610 0.691626
O O3 0.149414 0.421454 0.580988
O O4 0.973616 0.293183 0.599547
O O5 0.250000 0.250000 0.156911
O O6 0.360016 0.403000 0.165355
O O7 0.140959 0.393263 0.204071
O O8 0.750000 0.250000 0.605001
O O9 0.902166 0.115364 0.609237
O O10 0.881124 0.230538 0.747721
O O11 0.549573 0.467333 0.105214
O O12 0.525194 0.292705 0.101367
O O13 0.398984 0.391952 0.985258
O O14 0.568611 0.121582 0.121978
O O15 0.750000 0.049261 0.500000
O O16 0.000000 0.000000 0.500000
O O17 0.750000 0.250000 0.108778
#
# Coordination Sequence:
#
# PCOD9398180 Si02
#       7
#     8   8   8   8   8   8   8
#     4  12  27  48  76 111 156 195 264 334 401 475
#     4  12  26  47  73 106 148 201 251 322 387 459
#     4  11  25  48  76 107 152 204 260 321 395 481
#     4  11  25  46  72 111 146 204 251 309 382 467
#     4  11  26  45  74 107 155 196 253 310 385 467
#     4  12  28  47  75 111 146 206 261 325 407 478
#     4  11  25  45  71 106 146 194 247 310 378 454
#
# _framework density 23.380814999999998
#
# number of rings (size 3 to 8) (size 9 to 14) (size 15 to 20)
#    0.000    0.571    4.286    1.714    6.000    4.000 
#    0.000    0.000    0.000    0.000    0.000    0.000 
#    0.000    0.000    0.000    0.000    0.000    0.000 
#
# Total GULP energy -311908.325960 kJ/mol
# GULP energy per Si atom -5569.791535 kJ/mol
# Density = 2.332760 g / cm^3
# Si number density = 23.380815 Si / 1000 Ang^3
#
#
#
# Elastic Constant Matrix: (Units=GPa)
#
#
# Indices 1 2 3 4 5 6 
#
# 1 138.3654 7.2048 35.8678 0.0000 0.0000 0.0000
# 2 7.2048 111.5897 10.5494 0.0000 0.0000 0.0000
# 3 35.8678 10.5494 85.1485 0.0000 0.0000 0.0000
# 4 0.0000 0.0000 0.0000 18.9794 0.0000 0.0000
# 5 0.0000 0.0000 0.0000 0.0000 66.8377 0.0000
# 6 0.0000 0.0000 0.0000 0.0000 0.0000 53.9134
#
#
#
# Elastic Compliance Matrix: (Units=1/GPa)
#
#
# Indices 1 2 3 4 5 6 
#
# 1 0.008118 -0.000203 -0.003394 0.000000 0.000000 0.000000
# 2 -0.000203 0.009073 -0.001038 0.000000 0.000000 0.000000
# 3 -0.003394 -0.001038 0.013303 0.000000 0.000000 0.000000
# 4 0.000000 0.000000 0.000000 0.052689 0.000000 0.000000
# 5 0.000000 0.000000 0.000000 0.000000 0.014962 0.000000
# 6 0.000000 0.000000 0.000000 0.000000 0.000000 0.018548
#
#
# Mechanical properties :
#
#
# Convention : Reuss Voigt Hill
#
# Bulk Modulus (GPa) = 47.12291 49.14971 48.13631
# Shear Modulus (GPa) = 37.58348 46.71156 42.14752
#
# Velocity S-wave (km/s) = 4.01365 4.47459 4.25037
# Velocity P-wave (km/s) = 6.45581 6.91108 6.68732
#
# Compressibility (1/GPa) = 0.02122110
#
# Stress axis : x y z
#
# Youngs Moduli (GPa) = 123.18741 110.22083 75.17298
#
# Poissons Ratio (x) = 0.02240 0.25516
# Poissons Ratio (y) = 0.02504 0.07806
# Poissons Ratio (z) = 0.41814 0.11446
#
# Static dielectric constant tensor:
#      x y z
#    x 1.986980 0.000000 0.000000 
#    y 0.000000 2.326200 0.000000 
#    z 0.000000 0.000000 1.953860 
# 
# From -- ./inp_files/25929.got.cif
#   From: 2010.05.17/outbox.cif.g08.bks.cpg/sg50_13_cif.got.tgz:25929.got - 2010.06.03 11:33:33.
