data_PCOD9398813
_publ_section_title
;
Structure prediction by ZEFSAII (Michael W. Deem and Ramdas Pophale) SiO2 
 PCOD9398813
Probable space group: P M M A
;
_chemical_formula_sum "Si O2"
_cell_formula_units_Z 52
_cell_length_a 8.076781
_cell_length_b 27.772581
_cell_length_c 14.217180
_cell_angle_alpha 90.000000
_cell_angle_beta 90.000000
_cell_angle_gamma 90.000000
_cell_volume 3189.099073
_symmetry_space_group_name_H-M "P M M A"
_symmetry_group_IT_number 51
_symmetry_cell_setting 'orthorhombic'
loop_
_space_group_symop_operation_xyz
x,y,z
1/2-x,-y,z
1/2+x,-y,-z
-x,y,-z
-x,-y,-z
1/2+x,y,-z
1/2-x,y,z
x,-y,z
loop_
_atom_site_type_symbol
_atom_site_label
_atom_site_fract_x
_atom_site_fract_y
_atom_site_fract_z
Si Si1 0.552465 0.104802 0.608948
Si Si2 0.950040 0.446107 0.107998
Si Si3 0.449095 0.253999 0.894054
Si Si4 0.952385 0.350762 0.209377
Si Si5 0.050825 0.702462 0.605669
Si Si6 0.449720 0.000000 0.390518
Si Si7 0.949394 0.201595 0.291126
O O1 0.500000 0.111430 0.500000
O O2 0.750000 0.103264 0.609317
O O3 0.498792 0.149734 0.671272
O O4 0.490095 0.052252 0.644489
O O5 0.750000 0.446386 0.112209
O O6 0.008426 0.500000 0.133823
O O7 0.010487 0.402346 0.172589
O O8 0.000000 0.437251 0.000000
O O9 0.250000 0.254256 0.890961
O O10 0.503861 0.307278 0.860096
O O11 0.506757 0.216717 0.813490
O O12 0.500000 0.243424 0.000000
O O13 0.750000 0.351466 0.208890
O O14 0.004999 0.334964 0.313956
O O15 0.250000 0.703154 0.608931
O O16 0.992749 0.755545 0.639136
O O17 0.000000 0.691552 0.500000
O O18 0.500000 0.000000 0.500000
O O19 0.250000 0.000000 0.382672
O O20 0.750000 0.203322 0.290570
#
# Coordination Sequence:
#
# PCOD9398813 Si02
#       7
#     8   8   8   8   8   4   8
#     4  10  18  28  43  62  86 114 141 170 203 241
#     4   9  16  26  42  63  84 106 133 165 202 244
#     4   9  17  29  44  61  84 111 137 168 205 246
#     4   8  15  28  43  59  82 111 137 163 201 246
#     4   9  17  29  43  58  80 109 139 170 202 238
#     4   8  16  28  40  58  83 110 139 168 201 240
#     4   9  18  30  42  60  85 111 138 169 206 245
#
# _framework density 16.305544999999999
#
# number of rings (size 3 to 8) (size 9 to 14) (size 15 to 20)
#    0.000    3.077    0.000    3.231    0.000    3.077 
#    0.000    3.077    0.000    0.462    0.000    0.538 
#    0.000    0.000    0.000    0.000    0.000    0.000 
#
# Total GULP energy -289544.150130 kJ/mol
# GULP energy per Si atom -5568.156733 kJ/mol
# Density = 1.626843 g / cm^3
# Si number density = 16.305545 Si / 1000 Ang^3
#
#
#
# Elastic Constant Matrix: (Units=GPa)
#
#
# Indices 1 2 3 4 5 6 
#
# 1 9.5196 13.4915 8.5815 0.0000 0.0000 0.0000
# 2 13.4915 174.6687 90.3533 0.0000 0.0000 0.0000
# 3 8.5815 90.3533 119.3130 0.0000 0.0000 0.0000
# 4 0.0000 0.0000 0.0000 21.1519 0.0000 0.0000
# 5 0.0000 0.0000 0.0000 0.0000 23.4938 0.0000
# 6 0.0000 0.0000 0.0000 0.0000 0.0000 13.3011
#
#
#
# Elastic Compliance Matrix: (Units=1/GPa)
#
#
# Indices 1 2 3 4 5 6 
#
# 1 0.118454 -0.007796 -0.002616 0.000000 0.000000 0.000000
# 2 -0.007796 0.009925 -0.006955 0.000000 0.000000 0.000000
# 3 -0.002616 -0.006955 0.013837 0.000000 0.000000 0.000000
# 4 0.000000 0.000000 0.000000 0.047277 0.000000 0.000000
# 5 0.000000 0.000000 0.000000 0.000000 0.042564 0.000000
# 6 0.000000 0.000000 0.000000 0.000000 0.000000 0.075182
#
#
# Mechanical properties :
#
#
# Convention : Reuss Voigt Hill
#
# Bulk Modulus (GPa) = 9.30398 58.70598 34.00498
# Shear Modulus (GPa) = 13.23447 24.32769 18.78108
#
# Velocity S-wave (km/s) = 2.85205 3.86682 3.39753
# Velocity P-wave (km/s) = 4.06988 7.48453 6.02421
#
# Compressibility (1/GPa) = 0.10748092
#
# Stress axis : x y z
#
# Youngs Moduli (GPa) = 8.44209 100.75304 72.27179
#
# Poissons Ratio (x) = 0.78551 0.18904
# Poissons Ratio (y) = 0.06582 0.50268
# Poissons Ratio (z) = 0.02208 0.70078
#
# Static dielectric constant tensor:
#      x y z
#    x 1.586280 0.000000 0.000000 
#    y 0.000000 1.580520 0.000000 
#    z 0.000000 0.000000 1.526340 
# 
# From -- ./inp_files/22113.got.cif
#   From: 2010.05.17/outbox.cif.g08.bks.cpg/sg51_12_cif.got.tgz:22113.got - 2010.06.03 11:52:47.
