data_PCOD9398497
_publ_section_title
;
Structure prediction by ZEFSAII (Michael W. Deem and Ramdas Pophale) SiO2 
 PCOD9398497
Probable space group: P M M A
;
_chemical_formula_sum "Si O2"
_cell_formula_units_Z 52
_cell_length_a 7.488807
_cell_length_b 14.221937
_cell_length_c 24.694023
_cell_angle_alpha 90.000000
_cell_angle_beta 90.000000
_cell_angle_gamma 90.000000
_cell_volume 2630.045349
_symmetry_space_group_name_H-M "P M M A"
_symmetry_group_IT_number 51
_symmetry_cell_setting 'orthorhombic'
loop_
_space_group_symop_operation_xyz
x,y,z
1/2-x,-y,z
1/2+x,-y,-z
-x,y,-z
-x,-y,-z
1/2+x,y,-z
1/2-x,y,z
x,-y,z
loop_
_atom_site_type_symbol
_atom_site_label
_atom_site_fract_x
_atom_site_fract_y
_atom_site_fract_z
Si Si1 0.467718 0.605350 0.641966
Si Si2 0.537697 0.783135 0.167153
Si Si3 0.532608 0.895483 0.268153
Si Si4 0.532746 0.807154 0.379509
Si Si5 0.039641 0.894848 0.062153
Si Si6 0.036561 0.000000 0.563490
Si Si7 0.467807 0.604171 0.768544
O O1 0.250000 0.604958 0.640797
O O2 0.525194 0.500000 0.624557
O O3 0.525879 0.699441 0.609800
O O4 0.519064 0.616737 0.705481
O O5 0.750000 0.778824 0.174170
O O6 0.470560 0.860681 0.209890
O O7 0.510766 0.817826 0.106447
O O8 0.468798 0.684295 0.190362
O O9 0.750000 0.897419 0.267646
O O10 0.484151 0.827981 0.317163
O O11 0.470705 0.000000 0.280283
O O12 0.750000 0.806927 0.383867
O O13 0.470234 0.900064 0.412006
O O14 0.250000 0.903437 0.066587
O O15 0.961481 0.000000 0.072807
O O16 0.000000 0.869836 0.000000
O O17 0.000000 0.000000 0.500000
O O18 0.250000 0.000000 0.573888
O O19 0.250000 0.606159 0.768096
O O20 0.523500 0.500000 0.785444
#
# Coordination Sequence:
#
# PCOD9398497 Si02
#       7
#     8   8   8   8   8   4   8
#     4   8  12  19  34  60  94 123 147 182 229 275
#     4  10  17  26  45  71  96 121 148 181 225 279
#     4   9  14  20  34  62  93 115 141 179 222 266
#     4   9  14  23  39  62  89 118 151 189 227 265
#     4  10  21  36  51  66  88 119 155 193 230 272
#     4  10  20  32  48  66  90 124 163 200 233 272
#     4   8  13  21  36  64 100 127 145 175 223 275
#
# _framework density 19.771522999999998
#
# number of rings (size 3 to 8) (size 9 to 14) (size 15 to 20)
#    0.000    2.923    2.308    1.846    0.000    1.538 
#    0.000    0.000    0.000    2.308    0.000    0.000 
#    0.000    0.000    0.000    0.000    0.000    0.000 
#
# Total GULP energy -289650.272824 kJ/mol
# GULP energy per Si atom -5570.197554 kJ/mol
# Density = 1.972652 g / cm^3
# Si number density = 19.771523 Si / 1000 Ang^3
#
#
#
# Elastic Constant Matrix: (Units=GPa)
#
#
# Indices 1 2 3 4 5 6 
#
# 1 50.6947 6.3849 -5.4753 0.0000 0.0000 0.0000
# 2 6.3849 193.8121 53.7540 0.0000 0.0000 0.0000
# 3 -5.4753 53.7540 62.0569 0.0000 0.0000 0.0000
# 4 0.0000 0.0000 0.0000 18.0875 0.0000 0.0000
# 5 0.0000 0.0000 0.0000 0.0000 0.7626 0.0000
# 6 0.0000 0.0000 0.0000 0.0000 0.0000 -7.4089
#
#
#
# Elastic Compliance Matrix: (Units=1/GPa)
#
#
# Indices 1 2 3 4 5 6 
#
# 1 0.020255 -0.001531 0.003113 0.000000 0.000000 0.000000
# 2 -0.001531 0.006907 -0.006118 0.000000 0.000000 0.000000
# 3 0.003113 -0.006118 0.021688 0.000000 0.000000 0.000000
# 4 0.000000 0.000000 0.000000 0.055287 0.000000 0.000000
# 5 0.000000 0.000000 0.000000 0.000000 1.311375 0.000000
# 6 0.000000 0.000000 0.000000 0.000000 0.000000 -0.134972
#
#
# Mechanical properties :
#
#
# Convention : Reuss Voigt Hill
#
# Bulk Modulus (GPa) = 25.13888 46.21009 35.67449
# Shear Modulus (GPa) = 3.83768 19.08157 11.45962
#
# Velocity S-wave (km/s) = 1.39471 3.10998 2.41011
# Velocity P-wave (km/s) = 3.91611 6.02651 5.08206
#
# Compressibility (1/GPa) = 0.03977901
#
# Stress axis : x y z
#
# Youngs Moduli (GPa) = 49.37064 144.78407 46.10808
#
# Poissons Ratio (x) = 0.22162 -0.14353
# Poissons Ratio (y) = 0.07557 0.28208
# Poissons Ratio (z) = -0.15369 0.88576
#
# Static dielectric constant tensor:
#      x y z
#    x 1.759600 0.000000 0.000000 
#    y 0.000000 1.764670 0.000000 
#    z 0.000000 0.000000 1.159540 
# 
# From -- ./inp_files/34735.got.cif
#   From: 2010.05.17/outbox.cif.g08.bks.cpg/sg51_18_cif.got.tgz:34735.got - 2010.06.03 11:52:47.
