data_PCOD9398758
_publ_section_title
;
Structure prediction by ZEFSAII (Michael W. Deem and Ramdas Pophale) SiO2 
 PCOD9398758
Probable space group: P M M A
;
_chemical_formula_sum "Si O2"
_cell_formula_units_Z 64
_cell_length_a 14.991053
_cell_length_b 7.363026
_cell_length_c 27.446052
_cell_angle_alpha 90.000000
_cell_angle_beta 90.000000
_cell_angle_gamma 90.000000
_cell_volume 3029.481854
_symmetry_space_group_name_H-M "P M M A"
_symmetry_group_IT_number 51
_symmetry_cell_setting 'orthorhombic'
loop_
_space_group_symop_operation_xyz
x,y,z
1/2-x,-y,z
1/2+x,-y,-z
-x,y,-z
-x,-y,-z
1/2+x,y,-z
1/2-x,y,z
x,-y,z
loop_
_atom_site_type_symbol
_atom_site_label
_atom_site_fract_x
_atom_site_fract_y
_atom_site_fract_z
Si Si1 0.012810 0.221450 0.923548
Si Si2 0.352722 0.778374 0.258164
Si Si3 0.990309 0.210017 0.553777
Si Si4 0.647491 0.778867 0.993053
Si Si5 0.999207 0.788460 0.185764
Si Si6 0.852601 0.718959 0.265451
Si Si7 0.646900 0.221316 0.632971
Si Si8 0.646952 0.280671 0.374187
O O1 0.017753 0.286096 0.868033
O O2 0.919682 0.274363 0.949431
O O3 0.015240 0.000000 0.924188
O O4 0.095456 0.277938 0.957759
O O5 0.250000 0.726258 0.250762
O O6 0.418349 0.710835 0.216474
O O7 0.380825 0.720700 0.312605
O O8 0.355311 0.000000 0.258155
O O9 0.082180 0.215064 0.583695
O O10 0.000000 0.290880 0.500000
O O11 0.916638 0.289301 0.590313
O O12 0.963458 0.000000 0.546418
O O13 0.750000 0.717412 0.989568
O O14 0.649808 0.000000 0.992912
O O15 0.915229 0.778815 0.221797
O O16 0.020643 0.000000 0.177868
O O17 0.750000 0.776476 0.258873
O O18 0.853542 0.500000 0.265856
O O19 0.881989 0.778850 0.319729
O O20 0.750000 0.271903 0.625774
O O21 0.643383 0.000000 0.633213
O O22 0.750000 0.226025 0.380863
O O23 0.644639 0.500000 0.374812
#
# Coordination Sequence:
#
# PCOD9398758 Si02
#       8
#     8   8   8   8   8   8   8   8
#     4   8  15  24  34  57  88 114 146 186 227 269
#     4   8  14  24  39  61  88 117 146 177 220 272
#     4  10  20  31  47  74 100 121 151 193 240 284
#     4   8  13  23  37  51  78 122 158 182 217 267
#     4  10  18  27  44  71  98 118 145 194 242 276
#     4   9  19  35  51  67  91 125 160 190 229 284
#     4   8  14  26  42  59  85 120 150 176 215 272
#     4   9  19  36  54  69  90 125 164 196 228 273
#
# _framework density 21.125724000000002
#
# number of rings (size 3 to 8) (size 9 to 14) (size 15 to 20)
#    0.000    3.250    0.000    3.000    0.000    3.750 
#    0.000    6.250    0.000    0.750    0.000    5.250 
#    0.000    1.000    0.000    0.000    0.000    0.000 
#
# Total GULP energy -357115.574869 kJ/mol
# GULP energy per Si atom -5579.930857 kJ/mol
# Density = 2.107764 g / cm^3
# Si number density = 21.125724 Si / 1000 Ang^3
#
#
#
# Elastic Constant Matrix: (Units=GPa)
#
#
# Indices 1 2 3 4 5 6 
#
# 1 112.1489 -8.8482 82.9863 0.0000 0.0000 0.0000
# 2 -8.8482 74.7344 -2.4251 0.0000 0.0000 0.0000
# 3 82.9863 -2.4251 192.2997 0.0000 0.0000 0.0000
# 4 0.0000 0.0000 0.0000 -0.9075 0.0000 0.0000
# 5 0.0000 0.0000 0.0000 0.0000 -167.4095 0.0000
# 6 0.0000 0.0000 0.0000 0.0000 0.0000 19.2769
#
#
#
# Elastic Compliance Matrix: (Units=1/GPa)
#
#
# Indices 1 2 3 4 5 6 
#
# 1 0.013241 0.001383 -0.005697 0.000000 0.000000 0.000000
# 2 0.001383 0.013531 -0.000426 0.000000 0.000000 0.000000
# 3 -0.005697 -0.000426 0.007653 0.000000 0.000000 0.000000
# 4 0.000000 0.000000 0.000000 -1.101886 0.000000 0.000000
# 5 0.000000 0.000000 0.000000 0.000000 -0.005973 0.000000
# 6 0.000000 0.000000 0.000000 0.000000 0.000000 0.051875
#
#
# Mechanical properties :
#
#
# Convention : Reuss Voigt Hill
#
# Bulk Modulus (GPa) = 40.08820 58.06767 49.07793
# Shear Modulus (GPa) = -4.98125 -9.31002 -7.14563
#
# Velocity S-wave (km/s) = -1.53721 -2.10155 -1.84113
# Velocity P-wave (km/s) = 3.98328 4.65378 4.33152
#
# Compressibility (1/GPa) = 0.02494500
#
# Stress axis : x y z
#
# Youngs Moduli (GPa) = 75.52161 73.90651 130.66310
#
# Poissons Ratio (x) = -0.10220 0.74436
# Poissons Ratio (y) = -0.10443 0.05568
# Poissons Ratio (z) = 0.43023 0.03149
#
# Static dielectric constant tensor:
#      x y z
#    x 1.726230 0.000000 0.000000 
#    y 0.000000 1.836700 0.000000 
#    z 0.000000 0.000000 1.747420 
# 
# From -- ./inp_files/35695.got.cif
#   From: 2010.05.17/outbox.cif.g08.bks.cpg/sg51_18_cif.got.tgz:35695.got - 2010.06.03 11:52:47.
