data_PCOD9398884
_publ_section_title
;
Structure prediction by ZEFSAII (Michael W. Deem and Ramdas Pophale) SiO2 
 PCOD9398884
Probable space group: P M M A
;
_chemical_formula_sum "Si O2"
_cell_formula_units_Z 64
_cell_length_a 17.672408
_cell_length_b 17.234510
_cell_length_c 12.765262
_cell_angle_alpha 90.000000
_cell_angle_beta 90.000000
_cell_angle_gamma 90.000000
_cell_volume 3887.983406
_symmetry_space_group_name_H-M "P M M A"
_symmetry_group_IT_number 51
_symmetry_cell_setting 'orthorhombic'
loop_
_space_group_symop_operation_xyz
x,y,z
1/2-x,-y,z
1/2+x,-y,-z
-x,y,-z
-x,-y,-z
1/2+x,y,-z
1/2-x,y,z
x,-y,z
loop_
_atom_site_type_symbol
_atom_site_label
_atom_site_fract_x
_atom_site_fract_y
_atom_site_fract_z
Si Si1 0.082741 0.089852 0.661263
Si Si2 0.566341 0.264409 0.922655
Si Si3 0.018492 0.586929 0.828452
Si Si4 0.663121 0.911058 0.558540
Si Si5 0.665007 0.240502 0.305022
Si Si6 0.567642 0.816462 0.705294
Si Si7 0.335243 0.338808 0.908776
Si Si8 0.976925 0.672418 0.385261
O O1 0.105074 0.096870 0.538398
O O2 0.138831 0.152310 0.712852
O O3 0.999143 0.120467 0.687627
O O4 0.092631 0.000000 0.690176
O O5 0.533461 0.345333 0.876169
O O6 0.578668 0.206681 0.826155
O O7 0.500000 0.234639 0.000000
O O8 0.637807 0.287674 0.992764
O O9 0.990507 0.500000 0.844693
O O10 0.099993 0.598248 0.884111
O O11 0.025347 0.607574 0.705195
O O12 0.750000 0.900182 0.522721
O O13 0.640070 0.850973 0.647590
O O14 0.656838 0.000000 0.596426
O O15 0.750000 0.244520 0.346430
O O16 0.662080 0.284536 0.194310
O O17 0.603720 0.282799 0.379014
O O18 0.536798 0.738635 0.649321
O O19 0.250000 0.368360 0.921409
O O20 0.000000 0.644677 0.500000
#
# Coordination Sequence:
#
# PCOD9398884 Si02
#       8
#     8   8   8   8   8   8   8   8
#     4  10  18  28  45  68  92 120 153 188 229 275
#     4   9  18  32  50  70  90 117 154 191 229 272
#     4   9  18  31  47  70  97 120 145 182 225 268
#     4  10  20  31  44  67  96 122 151 190 237 283
#     4   9  17  30  47  67  93 120 149 191 233 269
#     4  10  18  30  48  66  89 121 156 193 228 268
#     4   9  18  32  50  71  92 116 148 187 231 273
#     4   9  17  29  46  68  92 121 156 185 215 265
#
# _framework density 16.460975000000001
#
# number of rings (size 3 to 8) (size 9 to 14) (size 15 to 20)
#    0.000    2.625    0.000    4.875    0.000    5.000 
#    0.000    0.000    0.000    7.500    0.000    0.000 
#    0.000    0.000    0.000    0.000    0.000    0.000 
#
# Total GULP energy -356531.187991 kJ/mol
# GULP energy per Si atom -5570.799812 kJ/mol
# Density = 1.642351 g / cm^3
# Si number density = 16.460975 Si / 1000 Ang^3
#
#
#
# Elastic Constant Matrix: (Units=GPa)
#
#
# Indices 1 2 3 4 5 6 
#
# 1 59.3432 8.7631 22.9278 0.0000 0.0000 0.0000
# 2 8.7631 53.7438 8.7466 0.0000 0.0000 0.0000
# 3 22.9278 8.7466 72.3126 0.0000 0.0000 0.0000
# 4 0.0000 0.0000 0.0000 12.1432 0.0000 0.0000
# 5 0.0000 0.0000 0.0000 0.0000 20.3644 0.0000
# 6 0.0000 0.0000 0.0000 0.0000 0.0000 10.6616
#
#
#
# Elastic Compliance Matrix: (Units=1/GPa)
#
#
# Indices 1 2 3 4 5 6 
#
# 1 0.019458 -0.002212 -0.005902 0.000000 0.000000 0.000000
# 2 -0.002212 0.019232 -0.001625 0.000000 0.000000 0.000000
# 3 -0.005902 -0.001625 0.015897 0.000000 0.000000 0.000000
# 4 0.000000 0.000000 0.000000 0.082351 0.000000 0.000000
# 5 0.000000 0.000000 0.000000 0.000000 0.049105 0.000000
# 6 0.000000 0.000000 0.000000 0.000000 0.000000 0.093795
#
#
# Mechanical properties :
#
#
# Convention : Reuss Voigt Hill
#
# Bulk Modulus (GPa) = 28.48282 29.58606 29.03444
# Shear Modulus (GPa) = 16.07621 18.29796 17.18709
#
# Velocity S-wave (km/s) = 3.12849 3.33768 3.23478
# Velocity P-wave (km/s) = 5.51278 5.73288 5.62391
#
# Compressibility (1/GPa) = 0.03510889
#
# Stress axis : x y z
#
# Youngs Moduli (GPa) = 51.39255 51.99690 62.90629
#
# Poissons Ratio (x) = 0.11503 0.37127
# Poissons Ratio (y) = 0.11369 0.10221
# Poissons Ratio (z) = 0.30331 0.08448
#
# Static dielectric constant tensor:
#      x y z
#    x 1.573070 0.000000 0.000000 
#    y 0.000000 1.547180 0.000000 
#    z 0.000000 0.000000 1.563730 
# 
# From -- ./inp_files/17722.got.cif
#   From: 2010.05.17/outbox.cif.g08.bks.cpg/sg51_9_cif.got.tgz:17722.got - 2010.06.03 11:52:47.
