data_PCOD9398904
_publ_section_title
;
Structure prediction by ZEFSAII (Michael W. Deem and Ramdas Pophale) SiO2 
 PCOD9398904
Probable space group: P M M A
;
_chemical_formula_sum "Si O2"
_cell_formula_units_Z 64
_cell_length_a 22.150434
_cell_length_b 9.156553
_cell_length_c 19.466204
_cell_angle_alpha 90.000000
_cell_angle_beta 90.000000
_cell_angle_gamma 90.000000
_cell_volume 3948.167087
_symmetry_space_group_name_H-M "P M M A"
_symmetry_group_IT_number 51
_symmetry_cell_setting 'orthorhombic'
loop_
_space_group_symop_operation_xyz
x,y,z
1/2-x,-y,z
1/2+x,-y,-z
-x,y,-z
-x,-y,-z
1/2+x,y,-z
1/2-x,y,z
x,-y,z
loop_
_atom_site_type_symbol
_atom_site_label
_atom_site_fract_x
_atom_site_fract_y
_atom_site_fract_z
Si Si1 0.437403 0.669358 0.456032
Si Si2 0.318773 0.674950 0.976852
Si Si3 0.437196 0.826219 0.038680
Si Si4 0.124512 0.327239 0.831630
Si Si5 0.179960 0.834538 0.702524
Si Si6 0.112887 0.675133 0.595345
Si Si7 0.999590 0.827194 0.176584
Si Si8 0.004241 0.825931 0.336678
O O1 0.500000 0.676185 0.500000
O O2 0.428766 0.500000 0.436634
O O3 0.390119 0.713605 0.514768
O O4 0.444829 0.766686 0.388790
O O5 0.250000 0.723110 0.994194
O O6 0.321655 0.500000 0.987748
O O7 0.331906 0.700907 0.896029
O O8 0.375868 0.748448 0.014584
O O9 0.449016 0.803165 0.119839
O O10 0.431019 0.000000 0.025460
O O11 0.500000 0.780559 0.000000
O O12 0.122778 0.500000 0.818957
O O13 0.146325 0.243478 0.764550
O O14 0.057998 0.266426 0.846308
O O15 0.250000 0.839477 0.719474
O O16 0.169422 0.741811 0.634125
O O17 0.157178 0.000000 0.693496
O O18 0.108955 0.500000 0.600598
O O19 0.056197 0.745697 0.636218
O O20 0.014382 0.793136 0.256127
O O21 0.983773 0.000000 0.173610
O O22 0.997973 0.000000 0.344188
#
# Coordination Sequence:
#
# PCOD9398904 Si02
#       8
#     8   8   8   8   8   8   8   8
#     4   8  16  29  44  65  94 123 155 195 236 283
#     4  10  22  38  54  76 105 135 174 222 265 310
#     4  10  20  35  55  77 104 138 175 215 262 314
#     4  11  21  33  52  73  99 136 174 210 252 304
#     4  11  23  35  47  67  97 133 172 212 251 297
#     4  10  19  31  47  67  93 127 164 204 246 291
#     4  10  20  33  49  74 107 136 168 211 257 305
#     4  10  18  28  46  70  98 129 160 198 246 297
#
# _framework density 16.210054
#
# number of rings (size 3 to 8) (size 9 to 14) (size 15 to 20)
#    0.000    2.000    2.500    2.625    0.000    6.250 
#    0.000    0.000    0.000    0.000    0.000    0.875 
#    0.000    1.000    0.000    0.000    0.000    0.000 
#
# Total GULP energy -356700.839134 kJ/mol
# GULP energy per Si atom -5573.450611 kJ/mol
# Density = 1.617316 g / cm^3
# Si number density = 16.210054 Si / 1000 Ang^3
#
#
#
# Elastic Constant Matrix: (Units=GPa)
#
#
# Indices 1 2 3 4 5 6 
#
# 1 80.1352 35.6898 38.7008 0.0000 0.0000 0.0000
# 2 35.6898 55.0414 42.6238 0.0000 0.0000 0.0000
# 3 38.7008 42.6238 86.5117 0.0000 0.0000 0.0000
# 4 0.0000 0.0000 0.0000 25.3673 0.0000 0.0000
# 5 0.0000 0.0000 0.0000 0.0000 16.6400 0.0000
# 6 0.0000 0.0000 0.0000 0.0000 0.0000 19.7920
#
#
#
# Elastic Compliance Matrix: (Units=1/GPa)
#
#
# Indices 1 2 3 4 5 6 
#
# 1 0.018280 -0.008926 -0.003780 0.000000 0.000000 0.000000
# 2 -0.008926 0.033735 -0.012628 0.000000 0.000000 0.000000
# 3 -0.003780 -0.012628 0.019472 0.000000 0.000000 0.000000
# 4 0.000000 0.000000 0.000000 0.039421 0.000000 0.000000
# 5 0.000000 0.000000 0.000000 0.000000 0.060096 0.000000
# 6 0.000000 0.000000 0.000000 0.000000 0.000000 0.050525
#
#
# Mechanical properties :
#
#
# Convention : Reuss Voigt Hill
#
# Bulk Modulus (GPa) = 48.03267 50.63523 49.33395
# Shear Modulus (GPa) = 17.91246 19.33811 18.62529
#
# Velocity S-wave (km/s) = 3.32779 3.45769 3.39336
# Velocity P-wave (km/s) = 6.66793 6.87354 6.77152
#
# Compressibility (1/GPa) = 0.02081916
#
# Stress axis : x y z
#
# Youngs Moduli (GPa) = 54.70591 29.64294 51.35666
#
# Poissons Ratio (x) = 0.26459 0.19411
# Poissons Ratio (y) = 0.48830 0.64853
# Poissons Ratio (z) = 0.20677 0.37433
#
# Static dielectric constant tensor:
#      x y z
#    x 1.556420 0.000000 0.000000 
#    y 0.000000 1.545560 0.000000 
#    z 0.000000 0.000000 1.565560 
# 
# From -- ./inp_files/34103.got.cif
#   From: 2010.05.17/outbox.cif.g08.bks.cpg/sg51_18_cif.got.tgz:34103.got - 2010.06.03 11:52:47.
