data_PCOD9398440
_publ_section_title
;
Structure prediction by ZEFSAII (Michael W. Deem and Ramdas Pophale) SiO2 
 PCOD9398440
Probable space group: P M M A
;
_chemical_formula_sum "Si O2"
_cell_formula_units_Z 64
_cell_length_a 14.635682
_cell_length_b 7.488822
_cell_length_c 32.988982
_cell_angle_alpha 90.000000
_cell_angle_beta 90.000000
_cell_angle_gamma 90.000000
_cell_volume 3615.724955
_symmetry_space_group_name_H-M "P M M A"
_symmetry_group_IT_number 51
_symmetry_cell_setting 'orthorhombic'
loop_
_space_group_symop_operation_xyz
x,y,z
1/2-x,-y,z
1/2+x,-y,-z
-x,y,-z
-x,-y,-z
1/2+x,y,-z
1/2-x,y,z
x,-y,z
loop_
_atom_site_type_symbol
_atom_site_label
_atom_site_fract_x
_atom_site_fract_y
_atom_site_fract_z
Si Si1 0.853871 0.714084 0.359148
Si Si2 0.643924 0.782867 0.026724
Si Si3 0.036202 0.213175 0.560500
Si Si4 0.861116 0.294358 0.271104
Si Si5 0.353457 0.713491 0.816621
Si Si6 0.145834 0.218248 0.481298
Si Si7 0.030886 0.785484 0.895895
Si Si8 0.646224 0.782008 0.935924
O O1 0.750000 0.778666 0.367994
O O2 0.847443 0.500000 0.354857
O O3 0.922173 0.748546 0.395797
O O4 0.885034 0.784728 0.314985
O O5 0.750000 0.734093 0.031334
O O6 0.587887 0.718343 0.065259
O O7 0.638898 0.000000 0.026951
O O8 0.615178 0.728448 0.981394
O O9 0.105587 0.275141 0.525112
O O10 0.933229 0.275808 0.550325
O O11 0.032930 0.000000 0.556244
O O12 0.750000 0.296755 0.270874
O O13 0.893791 0.500000 0.271276
O O14 0.885895 0.215080 0.227290
O O15 0.250000 0.779650 0.825378
O O16 0.346386 0.500000 0.811659
O O17 0.420198 0.743998 0.853938
O O18 0.250000 0.278796 0.474765
O O19 0.148560 0.000000 0.480910
O O20 0.927325 0.723630 0.902955
O O21 0.030068 0.000000 0.898689
O O22 0.750000 0.721872 0.929583
O O23 0.648420 0.000000 0.936067
#
# Coordination Sequence:
#
# PCOD9398440 Si02
#       8
#     8   8   8   8   8   8   8   8
#     4   9  16  26  41  60  81 104 129 159 196 234
#     4   8  13  21  34  54  79 103 126 153 185 223
#     4   9  16  25  40  61  80 103 138 172 196 223
#     4   7  12  25  42  56  73 102 133 152 177 232
#     4   9  17  29  43  58  79 106 130 150 181 236
#     4   8  14  25  39  55  80 113 141 162 190 232
#     4  10  17  24  39  62  82  99 125 163 197 220
#     4   8  14  24  37  54  77 105 134 159 185 222
#
# _framework density 17.70046
#
# number of rings (size 3 to 8) (size 9 to 14) (size 15 to 20)
#    0.000    3.500    0.000    4.125    0.000    3.000 
#    0.000    1.875    0.000    5.250    0.000    2.625 
#    0.000    7.000    0.000    0.000    0.000    0.000 
#
# Total GULP energy -356371.049288 kJ/mol
# GULP energy per Si atom -5568.297645 kJ/mol
# Density = 1.766017 g / cm^3
# Si number density = 17.700460 Si / 1000 Ang^3
#
#
#
# Elastic Constant Matrix: (Units=GPa)
#
#
# Indices 1 2 3 4 5 6 
#
# 1 119.2933 6.0075 100.7005 0.0000 0.0000 0.0000
# 2 6.0075 46.0423 2.7075 0.0000 0.0000 0.0000
# 3 100.7005 2.7075 170.1704 0.0000 0.0000 0.0000
# 4 0.0000 0.0000 0.0000 14.8040 0.0000 0.0000
# 5 0.0000 0.0000 0.0000 0.0000 27.0886 0.0000
# 6 0.0000 0.0000 0.0000 0.0000 0.0000 9.3400
#
#
#
# Elastic Compliance Matrix: (Units=1/GPa)
#
#
# Indices 1 2 3 4 5 6 
#
# 1 0.016869 -0.001616 -0.009957 0.000000 0.000000 0.000000
# 2 -0.001616 0.021894 0.000608 0.000000 0.000000 0.000000
# 3 -0.009957 0.000608 0.011759 0.000000 0.000000 0.000000
# 4 0.000000 0.000000 0.000000 0.067549 0.000000 0.000000
# 5 0.000000 0.000000 0.000000 0.000000 0.036916 0.000000
# 6 0.000000 0.000000 0.000000 0.000000 0.000000 0.107067
#
#
# Mechanical properties :
#
#
# Convention : Reuss Voigt Hill
#
# Bulk Modulus (GPa) = 34.97381 61.59301 48.28341
# Shear Modulus (GPa) = 17.03497 25.31920 21.17708
#
# Velocity S-wave (km/s) = 3.10563 3.78620 3.46267
# Velocity P-wave (km/s) = 5.71502 7.34756 6.58210
#
# Compressibility (1/GPa) = 0.02859282
#
# Stress axis : x y z
#
# Youngs Moduli (GPa) = 59.28054 45.67411 85.04264
#
# Poissons Ratio (x) = 0.07379 0.84674
# Poissons Ratio (y) = 0.09577 -0.05168
# Poissons Ratio (z) = 0.59024 -0.02775
#
# Static dielectric constant tensor:
#      x y z
#    x 1.601310 0.000000 0.000000 
#    y 0.000000 1.700220 0.000000 
#    z 0.000000 0.000000 1.629980 
# 
# From -- ./inp_files/37821.got.cif
#   From: 2010.05.17/outbox.cif.g08.bks.cpg/sg51_19_cif.got.tgz:37821.got - 2010.06.03 11:52:47.
