data_PCOD9398455
_publ_section_title
;
Structure prediction by ZEFSAII (Michael W. Deem and Ramdas Pophale) SiO2 
 PCOD9398455
Probable space group: P M M A
;
_chemical_formula_sum "Si O2"
_cell_formula_units_Z 64
_cell_length_a 27.504115
_cell_length_b 8.708420
_cell_length_c 17.803707
_cell_angle_alpha 90.000000
_cell_angle_beta 90.000000
_cell_angle_gamma 90.000000
_cell_volume 4264.297347
_symmetry_space_group_name_H-M "P M M A"
_symmetry_group_IT_number 51
_symmetry_cell_setting 'orthorhombic'
loop_
_space_group_symop_operation_xyz
x,y,z
1/2-x,-y,z
1/2+x,-y,-z
-x,y,-z
-x,-y,-z
1/2+x,y,-z
1/2-x,y,z
x,-y,z
loop_
_atom_site_type_symbol
_atom_site_label
_atom_site_fract_x
_atom_site_fract_y
_atom_site_fract_z
Si Si1 0.964636 0.184252 0.325164
Si Si2 0.058388 0.822536 0.513999
Si Si3 0.379393 0.684889 0.210656
Si Si4 0.961379 0.181804 0.896340
Si Si5 0.392680 0.314458 0.980541
Si Si6 0.195232 0.686130 0.087185
Si Si7 0.560055 0.682419 0.167431
Si Si8 0.428917 0.317952 0.358775
O O1 0.936778 0.237257 0.400961
O O2 0.940319 0.237866 0.248222
O O3 0.020082 0.244938 0.330828
O O4 0.966912 0.000000 0.327816
O O5 0.081018 0.736022 0.443425
O O6 0.000000 0.818509 0.500000
O O7 0.073657 0.000000 0.511204
O O8 0.386715 0.500000 0.200768
O O9 0.421616 0.773031 0.166291
O O10 0.329767 0.724313 0.167229
O O11 0.387165 0.719622 0.298161
O O12 0.010075 0.269212 0.873395
O O13 0.970000 0.000000 0.898017
O O14 0.936836 0.238685 0.973298
O O15 0.397098 0.500000 0.987999
O O16 0.398177 0.276365 0.892822
O O17 0.342933 0.266742 0.022284
O O18 0.250000 0.745090 0.079283
O O19 0.197348 0.500000 0.083673
O O20 0.560390 0.500000 0.178788
O O21 0.435946 0.500000 0.358749
#
# Coordination Sequence:
#
# PCOD9398455 Si02
#       8
#     8   8   8   8   8   8   8   8
#     4  10  19  29  40  56  80 112 146 177 207 240
#     4   8  16  28  39  53  78 109 141 176 205 233
#     4   9  17  28  42  63  87 110 139 174 210 247
#     4  11  20  28  41  59  81 111 144 174 205 244
#     4   9  19  32  44  60  82 107 137 173 213 253
#     4   8  14  28  49  66  81 105 137 171 208 254
#     4  11  20  29  41  57  82 113 141 174 212 247
#     4  10  17  25  40  59  82 111 142 173 205 244
#
# _framework density 15.008335000000001
#
# number of rings (size 3 to 8) (size 9 to 14) (size 15 to 20)
#    0.000    2.500    1.250    4.125    0.000    5.750 
#    0.000    0.000    0.000    6.000    0.000    0.000 
#    0.000    1.000    0.000   12.500    0.000    2.000 
#
# Total GULP energy -356452.399934 kJ/mol
# GULP energy per Si atom -5569.568749 kJ/mol
# Density = 1.497418 g / cm^3
# Si number density = 15.008335 Si / 1000 Ang^3
#
#
#
# Elastic Constant Matrix: (Units=GPa)
#
#
# Indices 1 2 3 4 5 6 
#
# 1 51.2647 8.5195 42.1851 0.0000 0.0000 0.0000
# 2 8.5195 25.8444 28.6511 0.0000 0.0000 0.0000
# 3 42.1851 28.6511 148.7365 0.0000 0.0000 0.0000
# 4 0.0000 0.0000 0.0000 20.7333 0.0000 0.0000
# 5 0.0000 0.0000 0.0000 0.0000 9.8904 0.0000
# 6 0.0000 0.0000 0.0000 0.0000 0.0000 -9.5435
#
#
#
# Elastic Compliance Matrix: (Units=1/GPa)
#
#
# Indices 1 2 3 4 5 6 
#
# 1 0.025450 -0.000493 -0.007123 0.000000 0.000000 0.000000
# 2 -0.000493 0.049209 -0.009339 0.000000 0.000000 0.000000
# 3 -0.007123 -0.009339 0.010543 0.000000 0.000000 0.000000
# 4 0.000000 0.000000 0.000000 0.048231 0.000000 0.000000
# 5 0.000000 0.000000 0.000000 0.000000 0.101108 0.000000
# 6 0.000000 0.000000 0.000000 0.000000 0.000000 -0.104783
#
#
# Mechanical properties :
#
#
# Convention : Reuss Voigt Hill
#
# Bulk Modulus (GPa) = 19.49650 42.72857 31.11254
# Shear Modulus (GPa) = 27.65997 13.98204 20.82100
#
# Velocity S-wave (km/s) = 4.29764 3.05555 3.72868
# Velocity P-wave (km/s) = 6.13555 6.40158 6.26998
#
# Compressibility (1/GPa) = 0.05129126
#
# Stress axis : x y z
#
# Youngs Moduli (GPa) = 39.29242 20.32138 94.85230
#
# Poissons Ratio (x) = 0.01001 0.67567
# Poissons Ratio (y) = 0.01936 0.88587
# Poissons Ratio (z) = 0.27989 0.18979
#
# Static dielectric constant tensor:
#      x y z
#    x 1.475010 0.000000 0.000000 
#    y 0.000000 1.503780 0.000000 
#    z 0.000000 0.000000 1.548530 
# 
# From -- ./inp_files/30971.got.cif
#   From: 2010.05.17/outbox.cif.g08.bks.cpg/sg51_16_cif.got.tgz:30971.got - 2010.06.03 11:52:47.
