data_PCOD9398750
_publ_section_title
;
Structure prediction by ZEFSAII (Michael W. Deem and Ramdas Pophale) SiO2 
 PCOD9398750
Probable space group: P M M A
;
_chemical_formula_sum "Si O2"
_cell_formula_units_Z 52
_cell_length_a 16.157405
_cell_length_b 12.549538
_cell_length_c 16.186630
_cell_angle_alpha 90.000000
_cell_angle_beta 90.000000
_cell_angle_gamma 90.000000
_cell_volume 3282.130074
_symmetry_space_group_name_H-M "P M M A"
_symmetry_group_IT_number 51
_symmetry_cell_setting 'orthorhombic'
loop_
_space_group_symop_operation_xyz
x,y,z
1/2-x,-y,z
1/2+x,-y,-z
-x,y,-z
-x,-y,-z
1/2+x,y,-z
1/2-x,y,z
x,-y,z
loop_
_atom_site_type_symbol
_atom_site_label
_atom_site_fract_x
_atom_site_fract_y
_atom_site_fract_z
Si Si1 0.913323 0.375066 0.220035
Si Si2 0.750000 0.124124 0.608011
Si Si3 0.750000 0.691935 0.741678
Si Si4 0.152290 0.375853 0.605502
Si Si5 0.424826 0.380989 0.318404
Si Si6 0.583928 0.780135 0.533475
Si Si7 0.910954 0.370467 0.035416
Si Si8 0.750000 0.628912 0.925662
O O1 0.889681 0.500000 0.215745
O O2 0.867359 0.334581 0.301978
O O3 0.897923 0.330114 0.129242
O O4 0.010128 0.368965 0.243882
O O5 0.750000 0.197732 0.690260
O O6 0.834122 0.153130 0.557543
O O7 0.750000 0.000000 0.627852
O O8 0.832104 0.630858 0.713485
O O9 0.750000 0.692939 0.840274
O O10 0.250000 0.373911 0.591727
O O11 0.125175 0.500000 0.600248
O O12 0.110456 0.303937 0.536700
O O13 0.436523 0.500000 0.353299
O O14 0.438352 0.290269 0.386062
O O15 0.500000 0.835606 0.500000
O O16 0.915138 0.500000 0.039662
O O17 0.832644 0.346166 0.977870
O O18 0.000000 0.334951 0.000000
O O19 0.750000 0.500000 0.908855
#
# Coordination Sequence:
#
# PCOD9398750 Si02
#       8
#     8   4   4   8   8   8   8   4
#     4   9  17  27  40  61  95 138 172 193 219 257
#     4  10  24  42  55  71  93 116 153 211 259 301
#     4  10  20  32  48  68  90 120 160 196 242 294
#     4  10  19  29  44  68 103 140 170 197 225 265
#     4  10  18  27  43  68 102 135 161 192 224 266
#     4  11  20  33  52  74  96 128 166 199 239 287
#     4   9  17  27  39  58  90 131 167 192 219 259
#     4  10  18  28  45  67  95 126 157 193 227 273
#
# _framework density 15.84337
#
# number of rings (size 3 to 8) (size 9 to 14) (size 15 to 20)
#    0.000    2.154    2.308    2.077    1.077    3.385 
#    0.000    0.000    0.000    0.000    0.000    0.000 
#    0.000   17.846    0.000    0.000    0.000    0.000 
#
# Total GULP energy -289662.404396 kJ/mol
# GULP energy per Si atom -5570.430854 kJ/mol
# Density = 1.580731 g / cm^3
# Si number density = 15.843370 Si / 1000 Ang^3
#
#
#
# Elastic Constant Matrix: (Units=GPa)
#
#
# Indices 1 2 3 4 5 6 
#
# 1 89.1381 19.3681 23.6843 0.0000 0.0000 0.0000
# 2 19.3681 38.5326 13.2435 0.0000 0.0000 0.0000
# 3 23.6843 13.2435 96.3114 0.0000 0.0000 0.0000
# 4 0.0000 0.0000 0.0000 2.9646 0.0000 0.0000
# 5 0.0000 0.0000 0.0000 0.0000 16.4809 0.0000
# 6 0.0000 0.0000 0.0000 0.0000 0.0000 5.0867
#
#
#
# Elastic Compliance Matrix: (Units=1/GPa)
#
#
# Indices 1 2 3 4 5 6 
#
# 1 0.013116 -0.005756 -0.002434 0.000000 0.000000 0.000000
# 2 -0.005756 0.029766 -0.002677 0.000000 0.000000 0.000000
# 3 -0.002434 -0.002677 0.011350 0.000000 0.000000 0.000000
# 4 0.000000 0.000000 0.000000 0.337308 0.000000 0.000000
# 5 0.000000 0.000000 0.000000 0.000000 0.060676 0.000000
# 6 0.000000 0.000000 0.000000 0.000000 0.000000 0.196589
#
#
# Mechanical properties :
#
#
# Convention : Reuss Voigt Hill
#
# Bulk Modulus (GPa) = 30.77280 37.39710 34.08495
# Shear Modulus (GPa) = 7.33814 16.08554 11.71184
#
# Velocity S-wave (km/s) = 2.15447 3.18981 2.72182
# Velocity P-wave (km/s) = 5.06501 6.10099 5.60697
#
# Compressibility (1/GPa) = 0.03249623
#
# Stress axis : x y z
#
# Youngs Moduli (GPa) = 76.24314 33.59593 88.10816
#
# Poissons Ratio (x) = 0.19338 0.21444
# Poissons Ratio (y) = 0.43886 0.23591
# Poissons Ratio (z) = 0.18557 0.08995
#
# Static dielectric constant tensor:
#      x y z
#    x 1.571020 0.000000 0.000000 
#    y 0.000000 1.485980 0.000000 
#    z 0.000000 0.000000 1.548270 
# 
# From -- ./inp_files/25140.got.cif
#   From: 2010.05.17/outbox.cif.g08.bks.cpg/sg51_13_cif.got.tgz:25140.got - 2010.06.03 11:52:47.
