data_PCOD9398274
_publ_section_title
;
Structure prediction by ZEFSAII (Michael W. Deem and Ramdas Pophale) SiO2 
 PCOD9398274
Probable space group: P B A N
;
_chemical_formula_sum "Si O2"
_cell_formula_units_Z 30
_cell_length_a 20.375996
_cell_length_b 11.994466
_cell_length_c 5.025285
_cell_angle_alpha 90.000000
_cell_angle_beta 90.000000
_cell_angle_gamma 90.000000
_cell_volume 1228.175590
_symmetry_space_group_name_H-M "P B A N"
_symmetry_group_IT_number 50
_space_group.IT_coordinate_system_code '2'
_symmetry_cell_setting 'orthorhombic'
loop_
_space_group_symop_operation_xyz
x,y,z
1/2-x,1/2-y,z
x,1/2-y,-z
1/2-x,y,-z
-x,-y,-z
1/2+x,1/2+y,-z
-x,1/2+y,z
1/2+x,-y,z
loop_
_atom_site_type_symbol
_atom_site_label
_atom_site_fract_x
_atom_site_fract_y
_atom_site_fract_z
Si Si1 0.001998 0.417170 0.248746
Si Si2 0.295408 0.909878 0.265064
Si Si3 0.250000 0.250000 0.000000
Si Si4 0.351613 0.357828 0.676336
Si Si5 0.900622 0.250000 0.000000
O O1 0.946152 0.325688 0.193083
O O2 0.000000 0.500000 0.500000
O O3 0.071923 0.355565 0.266262
O O4 0.000000 0.500000 0.000000
O O5 0.250000 0.865453 0.500000
O O6 0.329147 0.019131 0.404774
O O7 0.250000 0.925225 0.000000
O O8 0.354317 0.831077 0.170181
O O9 0.305628 0.340600 0.926355
O O10 0.332186 0.250000 0.500000
#
# Coordination Sequence:
#
# PCOD9398274 Si02
#       5
#     8   8   2   8   4
#     4  12  31  55  86 123 169 230 287 356 433 521
#     4  12  29  53  83 124 173 226 287 353 440 517
#     4  12  24  48  80 118 164 232 268 360 422 504
#     4  12  28  49  83 120 173 222 291 347 431 507
#     4  12  30  58  88 124 178 228 294 368 440 524
#
# _framework density 24.426473999999999
#
# number of rings (size 3 to 8) (size 9 to 14) (size 15 to 20)
#    0.000    0.000    4.000    3.200   11.200    4.267 
#    0.000    0.000    0.000    0.000    0.000    0.000 
#    0.000    0.000    0.000    0.000    0.000    0.000 
#
# Total GULP energy -167559.512612 kJ/mol
# GULP energy per Si atom -5585.317087 kJ/mol
# Density = 2.437088 g / cm^3
# Si number density = 24.426474 Si / 1000 Ang^3
#
#
#
# Elastic Constant Matrix: (Units=GPa)
#
#
# Indices 1 2 3 4 5 6 
#
# 1 200.7920 82.9936 37.9093 0.0000 0.0000 0.0000
# 2 82.9936 183.1110 44.7880 0.0000 0.0000 0.0000
# 3 37.9093 44.7880 117.7970 0.0000 0.0000 0.0000
# 4 0.0000 0.0000 0.0000 -14.3349 0.0000 0.0000
# 5 0.0000 0.0000 0.0000 0.0000 49.1480 0.0000
# 6 0.0000 0.0000 0.0000 0.0000 0.0000 48.9690
#
#
#
# Elastic Compliance Matrix: (Units=1/GPa)
#
#
# Indices 1 2 3 4 5 6 
#
# 1 0.006239 -0.002576 -0.001028 0.000000 0.000000 0.000000
# 2 -0.002576 0.007085 -0.001865 0.000000 0.000000 0.000000
# 3 -0.001028 -0.001865 0.009529 0.000000 0.000000 0.000000
# 4 0.000000 0.000000 0.000000 -0.069760 0.000000 0.000000
# 5 0.000000 0.000000 0.000000 0.000000 0.020347 0.000000
# 6 0.000000 0.000000 0.000000 0.000000 0.000000 0.020421
#
#
# Mechanical properties :
#
#
# Convention : Reuss Voigt Hill
#
# Bulk Modulus (GPa) = 83.93085 92.56464 88.24775
# Shear Modulus (GPa) = 570.01203 39.15703 304.58453
#
# Velocity S-wave (km/s) = 15.29264 4.00816 11.17878
# Velocity P-wave (km/s) = 18.60793 7.70701 14.24172
#
# Compressibility (1/GPa) = 0.01191457
#
# Stress axis : x y z
#
# Youngs Moduli (GPa) = 160.27342 141.14342 104.94166
#
# Poissons Ratio (x) = 0.36364 0.10792
# Poissons Ratio (y) = 0.41293 0.19568
# Poissons Ratio (z) = 0.16482 0.26319
#
# Static dielectric constant tensor:
#      x y z
#    x 1.882770 0.000000 0.000000 
#    y 0.000000 2.059410 0.000000 
#    z 0.000000 0.000000 1.834970 
# 
# From -- ./inp_files/4952.got.cif
#   From: 2010.05.17/outbox.cif.g08.bks.cpg/sg50_3_cif.got.tgz:4952.got - 2010.06.03 11:33:33.
