data_PCOD9398050
_publ_section_title
;
Structure prediction by ZEFSAII (Michael W. Deem and Ramdas Pophale) SiO2 
 PCOD9398050
Probable space group: P B A N
;
_chemical_formula_sum "Si O2"
_cell_formula_units_Z 48
_cell_length_a 8.607307
_cell_length_b 14.407471
_cell_length_c 15.584182
_cell_angle_alpha 90.000000
_cell_angle_beta 90.000000
_cell_angle_gamma 90.000000
_cell_volume 1932.587023
_symmetry_space_group_name_H-M "P B A N"
_symmetry_group_IT_number 50
_space_group.IT_coordinate_system_code '2'
_symmetry_cell_setting 'orthorhombic'
loop_
_space_group_symop_operation_xyz
x,y,z
1/2-x,1/2-y,z
x,1/2-y,-z
1/2-x,y,-z
-x,-y,-z
1/2+x,1/2+y,-z
-x,1/2+y,z
1/2+x,-y,z
loop_
_atom_site_type_symbol
_atom_site_label
_atom_site_fract_x
_atom_site_fract_y
_atom_site_fract_z
Si Si1 0.299811 0.604942 0.408691
Si Si2 0.678856 0.605602 0.407309
Si Si3 0.955442 0.209095 0.863787
Si Si4 0.250000 0.750000 0.715451
Si Si5 0.212200 0.405181 0.215693
Si Si6 0.455775 0.931713 0.145799
Si Si7 0.750000 0.095470 0.000000
O O1 0.250000 0.641462 0.500000
O O2 0.489238 0.610899 0.404219
O O3 0.243831 0.499427 0.404505
O O4 0.196601 0.667788 0.345028
O O5 0.750000 0.641599 0.500000
O O6 0.732318 0.638007 0.311075
O O7 0.867539 0.193291 0.774415
O O8 0.941070 0.320100 0.865983
O O9 0.862758 0.157525 0.939015
O O10 0.122513 0.166602 0.846412
O O11 0.115345 0.501250 0.218259
O O12 0.365738 0.437572 0.167585
O O13 0.366468 0.962935 0.059768
#
# Coordination Sequence:
#
# PCOD9398050 Si02
#       7
#     8   8   8   4   8   8   4
#     4  11  23  42  70 103 140 188 240 295 362 434
#     4  11  23  43  69 103 142 186 237 293 358 435
#     4  12  25  48  74 103 143 191 239 301 367 437
#     4  12  23  43  74 100 142 184 238 299 363 440
#     4  12  27  46  75 113 141 196 245 296 374 434
#     4  12  26  46  75 104 148 187 243 304 357 448
#     4  12  27  50  76 106 143 198 243 304 378 424
#
# _framework density 24.837174000000001
#
# number of rings (size 3 to 8) (size 9 to 14) (size 15 to 20)
#    0.000    0.333    3.333    6.750    0.000    4.667 
#    0.000    1.667    0.000    1.000    0.000    0.000 
#    0.000    0.000    0.000    0.000    0.000    0.000 
#
# Total GULP energy -267618.108747 kJ/mol
# GULP energy per Si atom -5575.377266 kJ/mol
# Density = 2.478064 g / cm^3
# Si number density = 24.837174 Si / 1000 Ang^3
#
#
#
# Elastic Constant Matrix: (Units=GPa)
#
#
# Indices 1 2 3 4 5 6 
#
# 1 135.3997 14.2191 50.4865 0.0000 0.0000 0.0000
# 2 14.2191 83.8875 26.2302 0.0000 0.0000 0.0000
# 3 50.4865 26.2302 146.5823 0.0000 0.0000 0.0000
# 4 0.0000 0.0000 0.0000 -102.5435 0.0000 0.0000
# 5 0.0000 0.0000 0.0000 0.0000 25.0708 0.0000
# 6 0.0000 0.0000 0.0000 0.0000 0.0000 34.0176
#
#
#
# Elastic Compliance Matrix: (Units=1/GPa)
#
#
# Indices 1 2 3 4 5 6 
#
# 1 0.008498 -0.000556 -0.002827 0.000000 0.000000 0.000000
# 2 -0.000556 0.012664 -0.002074 0.000000 0.000000 0.000000
# 3 -0.002827 -0.002074 0.008167 0.000000 0.000000 0.000000
# 4 0.000000 0.000000 0.000000 -0.009752 0.000000 0.000000
# 5 0.000000 0.000000 0.000000 0.000000 0.039887 0.000000
# 6 0.000000 0.000000 0.000000 0.000000 0.000000 0.029397
#
#
# Mechanical properties :
#
#
# Convention : Reuss Voigt Hill
#
# Bulk Modulus (GPa) = 54.31094 60.86013 57.58553
# Shear Modulus (GPa) = 47.20777 9.63790 28.42284
#
# Velocity S-wave (km/s) = 4.36442 1.97202 3.38652
# Velocity P-wave (km/s) = 6.87836 5.45362 6.20700
#
# Compressibility (1/GPa) = 0.01841250
#
# Stress axis : x y z
#
# Youngs Moduli (GPa) = 117.67146 78.96598 122.44157
#
# Poissons Ratio (x) = 0.04394 0.34620
# Poissons Ratio (y) = 0.06547 0.25400
# Poissons Ratio (z) = 0.33271 0.16381
#
# Static dielectric constant tensor:
#      x y z
#    x 1.983090 0.000000 0.000000 
#    y 0.000000 1.994710 0.000000 
#    z 0.000000 0.000000 2.083840 
# 
# From -- ./inp_files/25038.got.cif
#   From: 2010.05.17/outbox.cif.g08.bks.cpg/sg50_13_cif.got.tgz:25038.got - 2010.06.03 11:33:33.
