data_PCOD9398782
_publ_section_title
;
Structure prediction by ZEFSAII (Michael W. Deem and Ramdas Pophale) SiO2 
 PCOD9398782
Probable space group: P M M A
;
_chemical_formula_sum "Si O2"
_cell_formula_units_Z 64
_cell_length_a 9.203253
_cell_length_b 18.664970
_cell_length_c 26.285056
_cell_angle_alpha 90.000000
_cell_angle_beta 90.000000
_cell_angle_gamma 90.000000
_cell_volume 4515.205945
_symmetry_space_group_name_H-M "P M M A"
_symmetry_group_IT_number 51
_symmetry_cell_setting 'orthorhombic'
loop_
_space_group_symop_operation_xyz
x,y,z
1/2-x,-y,z
1/2+x,-y,-z
-x,y,-z
-x,-y,-z
1/2+x,y,-z
1/2-x,y,z
x,-y,z
loop_
_atom_site_type_symbol
_atom_site_label
_atom_site_fract_x
_atom_site_fract_y
_atom_site_fract_z
Si Si1 0.076721 0.083454 0.360763
Si Si2 0.423147 0.583090 0.340880
Si Si3 0.923219 0.155017 0.748822
Si Si4 0.417858 0.912772 0.051166
Si Si5 0.920059 0.913581 0.154626
Si Si6 0.416266 0.786937 0.593232
Si Si7 0.922668 0.653283 0.549984
Si Si8 0.583828 0.713062 0.294988
O O1 0.250000 0.092323 0.368875
O O2 0.047578 0.109061 0.302666
O O3 0.989853 0.136175 0.398040
O O4 0.039611 0.000000 0.366567
O O5 0.250000 0.592777 0.332967
O O6 0.459521 0.500000 0.333888
O O7 0.452187 0.607096 0.399239
O O8 0.510527 0.636462 0.304478
O O9 0.750000 0.157718 0.755527
O O10 0.999666 0.119334 0.796935
O O11 0.988939 0.233689 0.739182
O O12 0.250000 0.889844 0.051778
O O13 0.502224 0.891115 0.102193
O O14 0.418080 0.000000 0.050565
O O15 0.500000 0.889317 0.000000
O O16 0.750000 0.894398 0.154165
O O17 0.929814 0.000000 0.157726
O O18 0.250000 0.791852 0.575082
O O19 0.510846 0.732099 0.560215
O O20 0.413967 0.750725 0.649343
O O21 0.750000 0.657230 0.542900
O O22 0.000000 0.623100 0.500000
O O23 0.750000 0.707738 0.277258
#
# Coordination Sequence:
#
# PCOD9398782 Si02
#       8
#     8   8   8   8   8   8   8   8
#     4   9  17  28  42  60  81 104 130 162 201 243
#     4   9  18  32  48  66  88 112 136 161 190 227
#     4  10  18  28  42  59  81 109 139 170 206 248
#     4   9  16  26  39  53  71  99 137 179 221 263
#     4  10  19  28  38  55  80 108 140 181 224 259
#     4   9  17  29  44  61  80 103 132 162 192 232
#     4  10  19  31  47  65  85 108 132 159 192 230
#     4   9  17  29  44  62  83 107 135 165 197 235
#
# _framework density 14.174326000000001
#
# number of rings (size 3 to 8) (size 9 to 14) (size 15 to 20)
#    0.000    2.625    0.000    2.625    0.000    7.500 
#    0.000    0.000    0.000    0.375    0.000    0.000 
#    0.000    0.000    0.000    0.000    0.000    0.625 
#
# Total GULP energy -356739.504998 kJ/mol
# GULP energy per Si atom -5574.054766 kJ/mol
# Density = 1.414206 g / cm^3
# Si number density = 14.174326 Si / 1000 Ang^3
#
#
#
# Elastic Constant Matrix: (Units=GPa)
#
#
# Indices 1 2 3 4 5 6 
#
# 1 74.5136 28.4473 18.5380 0.0000 0.0000 0.0000
# 2 28.4473 71.3784 -0.9109 0.0000 0.0000 0.0000
# 3 18.5380 -0.9109 22.4566 0.0000 0.0000 0.0000
# 4 0.0000 0.0000 0.0000 8.3926 0.0000 0.0000
# 5 0.0000 0.0000 0.0000 0.0000 23.6083 0.0000
# 6 0.0000 0.0000 0.0000 0.0000 0.0000 19.0531
#
#
#
# Elastic Compliance Matrix: (Units=1/GPa)
#
#
# Indices 1 2 3 4 5 6 
#
# 1 0.021160 -0.008660 -0.017819 0.000000 0.000000 0.000000
# 2 -0.008660 0.017562 0.007862 0.000000 0.000000 0.000000
# 3 -0.017819 0.007862 0.059559 0.000000 0.000000 0.000000
# 4 0.000000 0.000000 0.000000 0.119152 0.000000 0.000000
# 5 0.000000 0.000000 0.000000 0.000000 0.042358 0.000000
# 6 0.000000 0.000000 0.000000 0.000000 0.000000 0.052485
#
#
# Mechanical properties :
#
#
# Convention : Reuss Voigt Hill
#
# Bulk Modulus (GPa) = 16.38138 28.94418 22.66278
# Shear Modulus (GPa) = 13.51867 18.36241 15.94054
#
# Velocity S-wave (km/s) = 3.09162 3.60317 3.35715
# Velocity P-wave (km/s) = 4.93218 6.14613 5.57231
#
# Compressibility (1/GPa) = 0.06104491
#
# Stress axis : x y z
#
# Youngs Moduli (GPa) = 47.25944 56.94200 16.79014
#
# Poissons Ratio (x) = 0.49314 0.29918
# Poissons Ratio (y) = 0.40929 -0.13200
# Poissons Ratio (z) = 0.84211 -0.44765
#
# Static dielectric constant tensor:
#      x y z
#    x 1.475800 0.000000 0.000000 
#    y 0.000000 1.447400 0.000000 
#    z 0.000000 0.000000 1.452140 
# 
# From -- ./inp_files/35096.got.cif
#   From: 2010.05.17/outbox.cif.g08.bks.cpg/sg51_18_cif.got.tgz:35096.got - 2010.06.03 11:52:47.
