data_PCOD9398723
_publ_section_title
;
Structure prediction by ZEFSAII (Michael W. Deem and Ramdas Pophale) SiO2 
 PCOD9398723
Probable space group: P M M A
;
_chemical_formula_sum "Si O2"
_cell_formula_units_Z 64
_cell_length_a 21.598862
_cell_length_b 7.610609
_cell_length_c 21.285451
_cell_angle_alpha 90.000000
_cell_angle_beta 90.000000
_cell_angle_gamma 90.000000
_cell_volume 3498.912940
_symmetry_space_group_name_H-M "P M M A"
_symmetry_group_IT_number 51
_symmetry_cell_setting 'orthorhombic'
loop_
_space_group_symop_operation_xyz
x,y,z
1/2-x,-y,z
1/2+x,-y,-z
-x,y,-z
-x,-y,-z
1/2+x,y,-z
1/2-x,y,z
x,-y,z
loop_
_atom_site_type_symbol
_atom_site_label
_atom_site_fract_x
_atom_site_fract_y
_atom_site_fract_z
Si Si1 0.316756 0.292340 0.076425
Si Si2 0.556792 0.790108 0.457916
Si Si3 0.647953 0.792753 0.786318
Si Si4 0.356986 0.290299 0.349327
Si Si5 0.001590 0.287885 0.327774
Si Si6 0.490930 0.698551 0.193697
Si Si7 0.457330 0.284302 0.058619
Si Si8 0.316659 0.205774 0.486444
O O1 0.250000 0.220772 0.052991
O O2 0.317035 0.500000 0.062450
O O3 0.316872 0.267631 0.151816
O O4 0.385063 0.225300 0.055396
O O5 0.500000 0.719280 0.500000
O O6 0.542360 0.759166 0.385162
O O7 0.622314 0.717057 0.481193
O O8 0.558199 0.000000 0.468568
O O9 0.673828 0.757187 0.717189
O O10 0.582239 0.694256 0.789794
O O11 0.636894 0.000000 0.792157
O O12 0.357285 0.500000 0.355164
O O13 0.428682 0.226550 0.345181
O O14 0.326220 0.216686 0.411545
O O15 0.004292 0.500000 0.323136
O O16 0.982625 0.221291 0.258207
O O17 0.515541 0.500000 0.187523
O O18 0.488924 0.777953 0.123968
O O19 0.455538 0.500000 0.061808
O O20 0.500000 0.235009 0.000000
O O21 0.250000 0.284523 0.502805
O O22 0.314673 0.000000 0.503531
#
# Coordination Sequence:
#
# PCOD9398723 Si02
#       8
#     8   8   8   8   8   8   8   8
#     4   9  17  29  43  60  86 118 151 185 218 257
#     4  10  19  31  48  68  87 110 146 189 230 268
#     4  10  18  27  42  62  86 117 152 185 216 253
#     4  10  19  31  46  64  88 118 151 183 219 262
#     4   9  17  28  45  67  89 115 147 186 223 262
#     4   8  15  28  43  65  94 119 147 181 220 264
#     4   8  13  24  45  69  90 115 147 181 216 256
#     4  10  21  35  47  62  87 115 144 184 232 276
#
# _framework density 18.291395000000001
#
# number of rings (size 3 to 8) (size 9 to 14) (size 15 to 20)
#    0.000    2.750    1.250    3.000    0.000    3.750 
#    0.000    0.000    0.000    6.000    0.000    0.875 
#    0.000    3.000    0.000    0.125    0.000    0.000 
#
# Total GULP energy -356439.622366 kJ/mol
# GULP energy per Si atom -5569.369099 kJ/mol
# Density = 1.824976 g / cm^3
# Si number density = 18.291395 Si / 1000 Ang^3
#
#
#
# Elastic Constant Matrix: (Units=GPa)
#
#
# Indices 1 2 3 4 5 6 
#
# 1 122.7732 2.9820 74.9720 0.0000 0.0000 0.0000
# 2 2.9820 44.7337 -8.7586 0.0000 0.0000 0.0000
# 3 74.9720 -8.7586 122.2503 0.0000 0.0000 0.0000
# 4 0.0000 0.0000 0.0000 31.1565 0.0000 0.0000
# 5 0.0000 0.0000 0.0000 0.0000 57.8628 0.0000
# 6 0.0000 0.0000 0.0000 0.0000 0.0000 15.5278
#
#
#
# Elastic Compliance Matrix: (Units=1/GPa)
#
#
# Indices 1 2 3 4 5 6 
#
# 1 0.013296 -0.002518 -0.008334 0.000000 0.000000 0.000000
# 2 -0.002518 0.023149 0.003203 0.000000 0.000000 0.000000
# 3 -0.008334 0.003203 0.013520 0.000000 0.000000 0.000000
# 4 0.000000 0.000000 0.000000 0.032096 0.000000 0.000000
# 5 0.000000 0.000000 0.000000 0.000000 0.017282 0.000000
# 6 0.000000 0.000000 0.000000 0.000000 0.000000 0.064401
#
#
# Mechanical properties :
#
#
# Convention : Reuss Voigt Hill
#
# Bulk Modulus (GPa) = 28.84617 47.57199 38.20908
# Shear Modulus (GPa) = 26.23312 35.61355 30.92333
#
# Velocity S-wave (km/s) = 3.79116 4.41728 4.11614
# Velocity P-wave (km/s) = 5.91342 7.21670 6.59732
#
# Compressibility (1/GPa) = 0.03466664
#
# Stress axis : x y z
#
# Youngs Moduli (GPa) = 75.21331 43.19757 73.96217
#
# Poissons Ratio (x) = 0.10877 0.61641
# Poissons Ratio (y) = 0.18939 -0.23689
# Poissons Ratio (z) = 0.62684 -0.13835
#
# Static dielectric constant tensor:
#      x y z
#    x 1.654800 0.000000 0.000000 
#    y 0.000000 1.678560 0.000000 
#    z 0.000000 0.000000 1.652420 
# 
# From -- ./inp_files/34079.got.cif
#   From: 2010.05.17/outbox.cif.g08.bks.cpg/sg51_18_cif.got.tgz:34079.got - 2010.06.03 11:52:47.
