data_PCOD9398472
_publ_section_title
;
Structure prediction by ZEFSAII (Michael W. Deem and Ramdas Pophale) SiO2 
 PCOD9398472
Probable space group: P M M A
;
_chemical_formula_sum "Si O2"
_cell_formula_units_Z 36
_cell_length_a 8.615954
_cell_length_b 24.942050
_cell_length_c 8.891600
_cell_angle_alpha 90.000000
_cell_angle_beta 90.000000
_cell_angle_gamma 90.000000
_cell_volume 1910.800887
_symmetry_space_group_name_H-M "P M M A"
_symmetry_group_IT_number 51
_symmetry_cell_setting 'orthorhombic'
loop_
_space_group_symop_operation_xyz
x,y,z
1/2-x,-y,z
1/2+x,-y,-z
-x,y,-z
-x,-y,-z
1/2+x,y,-z
1/2-x,y,z
x,-y,z
loop_
_atom_site_type_symbol
_atom_site_label
_atom_site_fract_x
_atom_site_fract_y
_atom_site_fract_z
Si Si1 0.434879 0.221105 0.330968
Si Si2 0.437017 0.116440 0.830146
Si Si3 0.563262 0.000000 0.170457
Si Si4 0.063980 0.441410 0.328621
Si Si5 0.065081 0.668454 0.671765
O O1 0.500000 0.218575 0.500000
O O2 0.250000 0.224349 0.333754
O O3 0.490855 0.167390 0.250832
O O4 0.501611 0.276166 0.260073
O O5 0.250000 0.120606 0.829142
O O6 0.482306 0.057817 0.762500
O O7 0.500000 0.116731 0.000000
O O8 0.750000 0.000000 0.163130
O O9 0.500000 0.000000 0.000000
O O10 0.250000 0.436435 0.334186
O O11 0.024852 0.500000 0.261299
O O12 0.000000 0.442990 0.500000
O O13 0.993471 0.387490 0.258236
O O14 0.250000 0.669335 0.666821
O O15 0.000000 0.668219 0.500000
#
# Coordination Sequence:
#
# PCOD9398472 Si02
#       5
#     8   8   4   8   8
#     4  11  21  34  50  70  97 131 166 203 245 292
#     4  10  19  34  54  78 102 128 161 198 240 286
#     4   8  16  30  51  74  99 126 156 194 236 284
#     4   9  15  22  33  51  77 110 148 189 231 277
#     4  10  17  26  40  58  83 117 154 193 236 286
#
# _framework density 18.840266
#
# number of rings (size 3 to 8) (size 9 to 14) (size 15 to 20)
#    0.000    2.222    0.000    8.000    0.000    2.222 
#    0.000    0.556    0.000    0.000    0.000    0.000 
#    0.000    0.889    0.000    3.333    0.000   12.889 
#
# Total GULP energy -200566.462150 kJ/mol
# GULP energy per Si atom -5571.290615 kJ/mol
# Density = 1.879739 g / cm^3
# Si number density = 18.840266 Si / 1000 Ang^3
#
#
#
# Elastic Constant Matrix: (Units=GPa)
#
#
# Indices 1 2 3 4 5 6 
#
# 1 138.7669 84.9446 9.6268 0.0000 0.0000 0.0000
# 2 84.9446 257.6107 31.0949 0.0000 0.0000 0.0000
# 3 9.6268 31.0949 7.8118 0.0000 0.0000 0.0000
# 4 0.0000 0.0000 0.0000 99.4956 0.0000 0.0000
# 5 0.0000 0.0000 0.0000 0.0000 15.1536 0.0000
# 6 0.0000 0.0000 0.0000 0.0000 0.0000 29.7861
#
#
#
# Elastic Compliance Matrix: (Units=1/GPa)
#
#
# Indices 1 2 3 4 5 6 
#
# 1 0.009037 -0.003148 0.001395 0.000000 0.000000 0.000000
# 2 -0.003148 0.008568 -0.030227 0.000000 0.000000 0.000000
# 3 0.001395 -0.030227 0.246613 0.000000 0.000000 0.000000
# 4 0.000000 0.000000 0.000000 0.010051 0.000000 0.000000
# 5 0.000000 0.000000 0.000000 0.000000 0.065991 0.000000
# 6 0.000000 0.000000 0.000000 0.000000 0.000000 0.033573
#
#
# Mechanical properties :
#
#
# Convention : Reuss Voigt Hill
#
# Bulk Modulus (GPa) = 4.99359 72.83580 38.91469
# Shear Modulus (GPa) = 9.90990 47.45526 28.68258
#
# Velocity S-wave (km/s) = 2.29595 5.02423 3.90604
# Velocity P-wave (km/s) = 3.11203 8.50886 6.40646
#
# Compressibility (1/GPa) = 0.20025666
#
# Stress axis : x y z
#
# Youngs Moduli (GPa) = 110.66058 116.70682 4.05494
#
# Poissons Ratio (x) = 0.36740 -0.00566
# Poissons Ratio (y) = 0.34837 0.12257
# Poissons Ratio (z) = -0.15434 3.52774
#
# Static dielectric constant tensor:
#      x y z
#    x 1.628450 0.000000 0.000000 
#    y 0.000000 1.766690 0.000000 
#    z 0.000000 0.000000 1.643710 
# 
# From -- ./inp_files/14156.got.cif
#   From: 2010.05.17/outbox.cif.g08.bks.cpg/sg51_8_cif.got.tgz:14156.got - 2010.06.03 11:52:47.
