data_PCOD9398381
_publ_section_title
;
Structure prediction by ZEFSAII (Michael W. Deem and Ramdas Pophale) SiO2 
 PCOD9398381
Probable space group: P M M A
;
_chemical_formula_sum "Si O2"
_cell_formula_units_Z 40
_cell_length_a 8.682857
_cell_length_b 21.456270
_cell_length_c 14.559790
_cell_angle_alpha 90.000000
_cell_angle_beta 90.000000
_cell_angle_gamma 90.000000
_cell_volume 2712.513980
_symmetry_space_group_name_H-M "P M M A"
_symmetry_group_IT_number 51
_symmetry_cell_setting 'orthorhombic'
loop_
_space_group_symop_operation_xyz
x,y,z
1/2-x,-y,z
1/2+x,-y,-z
-x,y,-z
-x,-y,-z
1/2+x,y,-z
1/2-x,y,z
x,-y,z
loop_
_atom_site_type_symbol
_atom_site_label
_atom_site_fract_x
_atom_site_fract_y
_atom_site_fract_z
Si Si1 0.433755 0.000000 0.397491
Si Si2 0.934711 0.757471 0.396951
Si Si3 0.434229 0.073394 0.099396
Si Si4 0.434220 0.627972 0.395795
Si Si5 0.065626 0.500000 0.604598
Si Si6 0.565919 0.882752 0.286582
O O1 0.500000 0.000000 0.500000
O O2 0.491714 0.060987 0.344035
O O3 0.250000 0.000000 0.400141
O O4 0.750000 0.750257 0.403153
O O5 0.971219 0.817321 0.335202
O O6 0.000000 0.767220 0.500000
O O7 0.007418 0.693810 0.357198
O O8 0.250000 0.078510 0.099559
O O9 0.504947 0.111751 0.183091
O O10 0.473771 0.000000 0.114131
O O11 0.500000 0.091194 0.000000
O O12 0.500000 0.629497 0.500000
O O13 0.250000 0.625020 0.397989
O O14 0.502560 0.564481 0.353363
O O15 0.250000 0.500000 0.601658
O O16 0.000000 0.500000 0.500000
O O17 0.750000 0.890359 0.287422
#
# Coordination Sequence:
#
# PCOD9398381 Si02
#       6
#     4   8   8   8   4   8
#     4  12  24  36  49  66  89 118 154 192 230 268
#     4  10  20  32  45  63  87 120 155 188 226 267
#     4  10  20  34  53  74  93 115 142 182 230 280
#     4  10  17  26  40  58  81 111 147 186 223 262
#     4  10  16  24  38  56  80 108 143 186 223 260
#     4  11  22  35  51  69  91 118 150 189 230 275
#
# _framework density 14.746468
#
# number of rings (size 3 to 8) (size 9 to 14) (size 15 to 20)
#    0.000    1.600    1.000    8.400    0.000    5.600 
#    0.000    0.000    0.000    0.000    0.000    0.000 
#    0.000    0.000    0.000    0.900    0.000   12.100 
#
# Total GULP energy -223217.087099 kJ/mol
# GULP energy per Si atom -5580.427177 kJ/mol
# Density = 1.471290 g / cm^3
# Si number density = 14.746468 Si / 1000 Ang^3
#
#
#
# Elastic Constant Matrix: (Units=GPa)
#
#
# Indices 1 2 3 4 5 6 
#
# 1 106.6390 73.6436 38.1977 0.0000 0.0000 0.0000
# 2 73.6436 144.9392 55.1237 0.0000 0.0000 0.0000
# 3 38.1977 55.1237 81.7102 0.0000 0.0000 0.0000
# 4 0.0000 0.0000 0.0000 0.7035 0.0000 0.0000
# 5 0.0000 0.0000 0.0000 0.0000 21.0756 0.0000
# 6 0.0000 0.0000 0.0000 0.0000 0.0000 24.6311
#
#
#
# Elastic Compliance Matrix: (Units=1/GPa)
#
#
# Indices 1 2 3 4 5 6 
#
# 1 0.014812 -0.006581 -0.002485 0.000000 0.000000 0.000000
# 2 -0.006581 0.012205 -0.005157 0.000000 0.000000 0.000000
# 3 -0.002485 -0.005157 0.016879 0.000000 0.000000 0.000000
# 4 0.000000 0.000000 0.000000 1.421404 0.000000 0.000000
# 5 0.000000 0.000000 0.000000 0.000000 0.047448 0.000000
# 6 0.000000 0.000000 0.000000 0.000000 0.000000 0.040599
#
#
# Mechanical properties :
#
#
# Convention : Reuss Voigt Hill
#
# Bulk Modulus (GPa) = 64.72366 74.13539 69.42952
# Shear Modulus (GPa) = 3.15071 20.37027 11.76049
#
# Velocity S-wave (km/s) = 1.46329 3.72071 2.82709
# Velocity P-wave (km/s) = 6.84406 8.29703 7.60532
#
# Compressibility (1/GPa) = 0.01545030
#
# Stress axis : x y z
#
# Youngs Moduli (GPa) = 67.51156 81.93580 59.24541
#
# Poissons Ratio (x) = 0.53923 0.14720
# Poissons Ratio (y) = 0.44430 0.30553
# Poissons Ratio (z) = 0.16774 0.42255
#
# Static dielectric constant tensor:
#      x y z
#    x 1.491060 0.000000 0.000000 
#    y 0.000000 1.531690 0.000000 
#    z 0.000000 0.000000 1.454550 
# 
# From -- ./inp_files/21327.got.cif
#   From: 2010.05.17/outbox.cif.g08.bks.cpg/sg51_11_cif.got.tgz:21327.got - 2010.06.03 11:52:47.
