data_PCOD9398774
_publ_section_title
;
Structure prediction by ZEFSAII (Michael W. Deem and Ramdas Pophale) SiO2 
 PCOD9398774
Probable space group: P M M A
;
_chemical_formula_sum "Si O2"
_cell_formula_units_Z 64
_cell_length_a 27.348897
_cell_length_b 7.746259
_cell_length_c 18.002580
_cell_angle_alpha 90.000000
_cell_angle_beta 90.000000
_cell_angle_gamma 90.000000
_cell_volume 3813.876089
_symmetry_space_group_name_H-M "P M M A"
_symmetry_group_IT_number 51
_symmetry_cell_setting 'orthorhombic'
loop_
_space_group_symop_operation_xyz
x,y,z
1/2-x,-y,z
1/2+x,-y,-z
-x,y,-z
-x,-y,-z
1/2+x,y,-z
1/2-x,y,z
x,-y,z
loop_
_atom_site_type_symbol
_atom_site_label
_atom_site_fract_x
_atom_site_fract_y
_atom_site_fract_z
Si Si1 0.463094 0.703976 0.890862
Si Si2 0.304580 0.794787 0.916779
Si Si3 0.965935 0.704567 0.671888
Si Si4 0.372318 0.291861 0.787284
Si Si5 0.441505 0.299987 0.483575
Si Si6 0.066431 0.803519 0.167790
Si Si7 0.393205 0.210119 0.019628
Si Si8 0.423359 0.287774 0.643582
O O1 0.471673 0.500000 0.879499
O O2 0.419893 0.761147 0.835250
O O3 0.512933 0.796621 0.870298
O O4 0.440384 0.733762 0.971835
O O5 0.250000 0.723356 0.925210
O O6 0.325849 0.768232 0.834042
O O7 0.302266 0.000000 0.929290
O O8 0.345475 0.727569 0.974577
O O9 0.969935 0.500000 0.658561
O O10 0.938191 0.777083 0.599091
O O11 0.940205 0.727001 0.750620
O O12 0.022411 0.766874 0.671927
O O13 0.371181 0.500000 0.787782
O O14 0.382934 0.233781 0.703437
O O15 0.500000 0.300062 0.500000
O O16 0.425191 0.500000 0.480160
O O17 0.417966 0.225993 0.558673
O O18 0.101513 0.726970 0.104178
O O19 0.081549 0.000000 0.179375
O O20 0.393102 0.000000 0.020180
O O21 0.423421 0.500000 0.642469
#
# Coordination Sequence:
#
# PCOD9398774 Si02
#       8
#     8   8   8   8   8   8   8   8
#     4  10  18  28  41  58  79 105 137 168 196 229
#     4   9  18  33  49  60  74  99 131 167 205 246
#     4   9  15  25  39  56  78 107 143 172 191 220
#     4   9  16  26  42  63  84 104 129 164 201 237
#     4   7  11  19  36  56  74 102 137 168 191 214
#     4  11  20  27  37  54  81 112 136 163 202 240
#     4   9  19  32  42  56  77 102 132 164 204 248
#     4   8  12  22  38  58  81 104 134 167 195 224
#
# _framework density 16.780828
#
# number of rings (size 3 to 8) (size 9 to 14) (size 15 to 20)
#    0.000    3.000    1.250    2.625    0.000    3.250 
#    0.000    0.000    0.000    4.125    0.000    0.000 
#    0.000    1.000    0.000    7.000    0.000    1.250 
#
# Total GULP energy -356274.565755 kJ/mol
# GULP energy per Si atom -5566.790090 kJ/mol
# Density = 1.674263 g / cm^3
# Si number density = 16.780828 Si / 1000 Ang^3
#
#
#
# Elastic Constant Matrix: (Units=GPa)
#
#
# Indices 1 2 3 4 5 6 
#
# 1 56.3440 0.4311 40.6204 0.0000 0.0000 0.0000
# 2 0.4311 21.0492 0.9507 0.0000 0.0000 0.0000
# 3 40.6204 0.9507 152.3775 0.0000 0.0000 0.0000
# 4 0.0000 0.0000 0.0000 49.6309 0.0000 0.0000
# 5 0.0000 0.0000 0.0000 0.0000 11.4867 0.0000
# 6 0.0000 0.0000 0.0000 0.0000 0.0000 5.5227
#
#
#
# Elastic Compliance Matrix: (Units=1/GPa)
#
#
# Indices 1 2 3 4 5 6 
#
# 1 0.021971 -0.000186 -0.005856 0.000000 0.000000 0.000000
# 2 -0.000186 0.047523 -0.000247 0.000000 0.000000 0.000000
# 3 -0.005856 -0.000247 0.008125 0.000000 0.000000 0.000000
# 4 0.000000 0.000000 0.000000 0.020149 0.000000 0.000000
# 5 0.000000 0.000000 0.000000 0.000000 0.087057 0.000000
# 6 0.000000 0.000000 0.000000 0.000000 0.000000 0.181071
#
#
# Mechanical properties :
#
#
# Convention : Reuss Voigt Hill
#
# Bulk Modulus (GPa) = 15.37459 34.86388 25.11923
# Shear Modulus (GPa) = 12.49518 25.84595 19.17056
#
# Velocity S-wave (km/s) = 2.73172 3.92880 3.38362
# Velocity P-wave (km/s) = 4.37397 6.43442 5.50152
#
# Compressibility (1/GPa) = 0.06504240
#
# Stress axis : x y z
#
# Youngs Moduli (GPa) = 45.51403 21.04253 123.07338
#
# Poissons Ratio (x) = 0.00390 0.72070
# Poissons Ratio (y) = 0.00844 0.03040
# Poissons Ratio (z) = 0.26652 0.00520
#
# Static dielectric constant tensor:
#      x y z
#    x 1.540490 0.000000 0.000000 
#    y 0.000000 1.634740 0.000000 
#    z 0.000000 0.000000 1.637660 
# 
# From -- ./inp_files/30973.got.cif
#   From: 2010.05.17/outbox.cif.g08.bks.cpg/sg51_16_cif.got.tgz:30973.got - 2010.06.03 11:52:47.
