data_PCOD9398733
_publ_section_title
;
Structure prediction by ZEFSAII (Michael W. Deem and Ramdas Pophale) SiO2 
 PCOD9398733
Probable space group: P M M A
;
_chemical_formula_sum "Si O2"
_cell_formula_units_Z 48
_cell_length_a 8.664264
_cell_length_b 25.039932
_cell_length_c 13.971079
_cell_angle_alpha 90.000000
_cell_angle_beta 90.000000
_cell_angle_gamma 90.000000
_cell_volume 3031.061654
_symmetry_space_group_name_H-M "P M M A"
_symmetry_group_IT_number 51
_symmetry_cell_setting 'orthorhombic'
loop_
_space_group_symop_operation_xyz
x,y,z
1/2-x,-y,z
1/2+x,-y,-z
-x,y,-z
-x,-y,-z
1/2+x,y,-z
1/2-x,y,z
x,-y,z
loop_
_atom_site_type_symbol
_atom_site_label
_atom_site_fract_x
_atom_site_fract_y
_atom_site_fract_z
Si Si1 0.563823 0.442629 0.391820
Si Si2 0.065451 0.886885 0.395129
Si Si3 0.565196 0.222177 0.711047
Si Si4 0.935647 0.325396 0.391784
Si Si5 0.936180 0.940554 0.208999
Si Si6 0.935109 0.166789 0.104406
O O1 0.500000 0.442878 0.500000
O O2 0.750000 0.442670 0.395198
O O3 0.515235 0.500000 0.347785
O O4 0.518335 0.384439 0.352548
O O5 0.250000 0.890815 0.396394
O O6 0.022785 0.826878 0.360121
O O7 0.000000 0.897406 0.500000
O O8 0.999058 0.925811 0.313886
O O9 0.750000 0.224270 0.716170
O O10 0.500309 0.277225 0.670618
O O11 0.497581 0.206326 0.814039
O O12 0.750000 0.322324 0.395385
O O13 0.000000 0.320737 0.500000
O O14 0.750000 0.939650 0.212729
O O15 0.985195 0.892811 0.138476
O O16 0.986210 0.000000 0.180318
O O17 0.750000 0.168586 0.103309
O O18 0.000000 0.178493 0.000000
#
# Coordination Sequence:
#
# PCOD9398733 Si02
#       6
#     8   8   8   8   8   8
#     4   8  14  24  37  55  83 120 159 194 225 259
#     4  10  20  32  47  66  89 120 153 185 222 263
#     4  10  20  33  48  67  91 118 152 191 229 270
#     4  10  18  27  42  65  93 126 161 194 229 267
#     4   9  19  35  52  70  92 117 146 180 217 261
#     4  10  20  35  54  73  93 116 143 178 224 274
#
# _framework density 15.836035000000001
#
# number of rings (size 3 to 8) (size 9 to 14) (size 15 to 20)
#    0.000    2.500    0.000    2.500    0.000    5.667 
#    0.000    0.000    0.000    0.000    0.000    0.000 
#    0.000    0.667    0.000    1.833    0.000    3.000 
#
# Total GULP energy -267511.618178 kJ/mol
# GULP energy per Si atom -5573.158712 kJ/mol
# Density = 1.579999 g / cm^3
# Si number density = 15.836035 Si / 1000 Ang^3
#
#
#
# Elastic Constant Matrix: (Units=GPa)
#
#
# Indices 1 2 3 4 5 6 
#
# 1 27.3699 24.5567 15.8069 0.0000 0.0000 0.0000
# 2 24.5567 129.1717 31.5583 0.0000 0.0000 0.0000
# 3 15.8069 31.5583 69.9633 0.0000 0.0000 0.0000
# 4 0.0000 0.0000 0.0000 7.7319 0.0000 0.0000
# 5 0.0000 0.0000 0.0000 0.0000 20.6033 0.0000
# 6 0.0000 0.0000 0.0000 0.0000 0.0000 18.3922
#
#
#
# Elastic Compliance Matrix: (Units=1/GPa)
#
#
# Indices 1 2 3 4 5 6 
#
# 1 0.047267 -0.007167 -0.007446 0.000000 0.000000 0.000000
# 2 -0.007167 0.009787 -0.002795 0.000000 0.000000 0.000000
# 3 -0.007446 -0.002795 0.017237 0.000000 0.000000 0.000000
# 4 0.000000 0.000000 0.000000 0.129335 0.000000 0.000000
# 5 0.000000 0.000000 0.000000 0.000000 0.048536 0.000000
# 6 0.000000 0.000000 0.000000 0.000000 0.000000 0.054371
#
#
# Mechanical properties :
#
#
# Convention : Reuss Voigt Hill
#
# Bulk Modulus (GPa) = 25.33340 41.14984 33.24162
# Shear Modulus (GPa) = 14.10407 19.65099 16.87753
#
# Velocity S-wave (km/s) = 2.98758 3.52647 3.26815
# Velocity P-wave (km/s) = 5.28516 6.52860 5.93951
#
# Compressibility (1/GPa) = 0.03947358
#
# Stress axis : x y z
#
# Youngs Moduli (GPa) = 21.15635 102.17591 58.01629
#
# Poissons Ratio (x) = 0.73226 0.43202
# Poissons Ratio (y) = 0.15162 0.16218
# Poissons Ratio (z) = 0.15754 0.28563
#
# Static dielectric constant tensor:
#      x y z
#    x 1.533090 0.000000 0.000000 
#    y 0.000000 1.573090 0.000000 
#    z 0.000000 0.000000 1.484640 
# 
# From -- ./inp_files/14397.got.cif
#   From: 2010.05.17/outbox.cif.g08.bks.cpg/sg51_8_cif.got.tgz:14397.got - 2010.06.03 11:52:47.
