data_PCOD9398540
_publ_section_title
;
Structure prediction by ZEFSAII (Michael W. Deem and Ramdas Pophale) SiO2 
 PCOD9398540
Probable space group: P M M A
;
_chemical_formula_sum "Si O2"
_cell_formula_units_Z 56
_cell_length_a 17.679913
_cell_length_b 14.839512
_cell_length_c 14.129734
_cell_angle_alpha 90.000000
_cell_angle_beta 90.000000
_cell_angle_gamma 90.000000
_cell_volume 3707.095114
_symmetry_space_group_name_H-M "P M M A"
_symmetry_group_IT_number 51
_symmetry_cell_setting 'orthorhombic'
loop_
_space_group_symop_operation_xyz
x,y,z
1/2-x,-y,z
1/2+x,-y,-z
-x,y,-z
-x,-y,-z
1/2+x,y,-z
1/2-x,y,z
x,-y,z
loop_
_atom_site_type_symbol
_atom_site_label
_atom_site_fract_x
_atom_site_fract_y
_atom_site_fract_z
Si Si1 0.159572 0.209956 0.923174
Si Si2 0.034487 0.107050 0.397736
Si Si3 0.658036 0.400278 0.000362
Si Si4 0.837327 0.787709 0.698491
Si Si5 0.951543 0.894776 0.203414
Si Si6 0.158044 0.600162 0.219322
Si Si7 0.384046 0.893276 0.115358
O O1 0.250000 0.207298 0.910429
O O2 0.134600 0.313275 0.940896
O O3 0.114515 0.166208 0.837142
O O4 0.139126 0.153650 0.017878
O O5 0.109634 0.162750 0.375974
O O6 0.000000 0.126221 0.500000
O O7 0.977809 0.126218 0.310269
O O8 0.051263 0.000000 0.391981
O O9 0.750000 0.400461 0.000671
O O10 0.633094 0.500000 0.032224
O O11 0.635150 0.388537 0.890504
O O12 0.750000 0.784673 0.669608
O O13 0.865790 0.686541 0.720900
O O14 0.843766 0.843450 0.796934
O O15 0.026511 0.884027 0.138096
O O16 0.929748 0.000000 0.199031
O O17 0.250000 0.601580 0.219539
O O18 0.134406 0.500000 0.251020
O O19 0.366590 0.000000 0.114012
#
# Coordination Sequence:
#
# PCOD9398540 Si02
#       7
#     8   8   8   8   8   8   8
#     4  11  19  27  43  67  92 122 156 187 214 249
#     4   9  19  36  53  66  87 121 153 183 233 290
#     4   8  14  25  40  60  90 126 157 183 217 260
#     4  10  17  27  47  75  94 111 149 196 230 260
#     4   9  19  33  46  61  86 122 155 182 221 276
#     4   8  13  23  40  64  95 123 146 180 228 274
#     4  10  19  29  41  61  94 129 151 174 220 273
#
# _framework density 15.106168
#
# number of rings (size 3 to 8) (size 9 to 14) (size 15 to 20)
#    0.000    2.714    1.429    3.429    0.000    4.000 
#    0.000    0.714    0.000    8.143    0.000    0.000 
#    0.000    4.571    0.000    0.000    0.000    0.000 
#
# Total GULP energy -311999.907886 kJ/mol
# GULP energy per Si atom -5571.426927 kJ/mol
# Density = 1.507179 g / cm^3
# Si number density = 15.106168 Si / 1000 Ang^3
#
#
#
# Elastic Constant Matrix: (Units=GPa)
#
#
# Indices 1 2 3 4 5 6 
#
# 1 49.2710 52.3433 43.2387 0.0000 0.0000 0.0000
# 2 52.3433 115.3870 53.5027 0.0000 0.0000 0.0000
# 3 43.2387 53.5027 65.1744 0.0000 0.0000 0.0000
# 4 0.0000 0.0000 0.0000 16.6777 0.0000 0.0000
# 5 0.0000 0.0000 0.0000 0.0000 15.5542 0.0000
# 6 0.0000 0.0000 0.0000 0.0000 0.0000 -97.7436
#
#
#
# Elastic Compliance Matrix: (Units=1/GPa)
#
#
# Indices 1 2 3 4 5 6 
#
# 1 0.060193 -0.014190 -0.028285 0.000000 0.000000 0.000000
# 2 -0.014190 0.017338 -0.004819 0.000000 0.000000 0.000000
# 3 -0.028285 -0.004819 0.038064 0.000000 0.000000 0.000000
# 4 0.000000 0.000000 0.000000 0.059960 0.000000 0.000000
# 5 0.000000 0.000000 0.000000 0.000000 0.064291 0.000000
# 6 0.000000 0.000000 0.000000 0.000000 0.000000 -0.010231
#
#
# Mechanical properties :
#
#
# Convention : Reuss Voigt Hill
#
# Bulk Modulus (GPa) = 47.60212 58.66686 53.13449
# Shear Modulus (GPa) = 15.09628 -7.71917 3.68855
#
# Velocity S-wave (km/s) = 3.16467 -2.26297 1.56431
# Velocity P-wave (km/s) = 6.70326 5.66503 6.20590
#
# Compressibility (1/GPa) = 0.02100747
#
# Stress axis : x y z
#
# Youngs Moduli (GPa) = 16.61316 57.67648 26.27129
#
# Poissons Ratio (x) = 0.81845 0.74308
# Poissons Ratio (y) = 0.23575 0.12659
# Poissons Ratio (z) = 0.46990 0.27793
#
# Static dielectric constant tensor:
#      x y z
#    x 1.504840 0.000000 0.000000 
#    y 0.000000 1.525540 0.000000 
#    z 0.000000 0.000000 1.474440 
# 
# From -- ./inp_files/24331.got.cif
#   From: 2010.05.17/outbox.cif.g08.bks.cpg/sg51_13_cif.got.tgz:24331.got - 2010.06.03 11:52:47.
