data_PCOD9398211
_publ_section_title
;
Structure prediction by ZEFSAII (Michael W. Deem and Ramdas Pophale) SiO2 
 PCOD9398211
Probable space group: P B A N
;
_chemical_formula_sum "Si O2"
_cell_formula_units_Z 30
_cell_length_a 10.360566
_cell_length_b 20.951186
_cell_length_c 5.074076
_cell_angle_alpha 90.000000
_cell_angle_beta 90.000000
_cell_angle_gamma 90.000000
_cell_volume 1101.410118
_symmetry_space_group_name_H-M "P B A N"
_symmetry_group_IT_number 50
_space_group.IT_coordinate_system_code '2'
_symmetry_cell_setting 'orthorhombic'
loop_
_space_group_symop_operation_xyz
x,y,z
1/2-x,1/2-y,z
x,1/2-y,-z
1/2-x,y,-z
-x,-y,-z
1/2+x,1/2+y,-z
-x,1/2+y,z
1/2+x,-y,z
loop_
_atom_site_type_symbol
_atom_site_label
_atom_site_fract_x
_atom_site_fract_y
_atom_site_fract_z
Si Si1 0.365661 0.856097 0.180458
Si Si2 0.250000 0.107452 0.500000
Si Si3 0.889863 0.679690 0.878464
Si Si4 0.750000 0.250000 0.500000
Si Si5 0.405221 0.997504 0.251026
O O1 0.355903 0.802582 0.400955
O O2 0.338767 0.928423 0.259262
O O3 0.250000 0.831585 0.000000
O O4 0.494159 0.858548 0.007096
O O5 0.364738 0.159315 0.427221
O O6 0.300566 0.053760 0.287950
O O7 0.913502 0.750000 0.000000
O O8 0.750000 0.663724 0.000000
O O9 0.500000 0.000000 0.500000
O O10 0.500000 0.000000 0.000000
#
# Coordination Sequence:
#
# PCOD9398211 Si02
#       5
#     8   4   8   2   8
#     4  12  28  52  84 127 176 235 310 379 470 560
#     4  12  27  47  82 117 175 226 306 382 462 543
#     4  11  26  47  77 117 172 232 301 376 464 552
#     4  12  28  48  88 128 182 244 310 400 466 580
#     4  12  29  50  86 125 175 238 303 376 464 554
#
# _framework density 27.237808999999999
#
# number of rings (size 3 to 8) (size 9 to 14) (size 15 to 20)
#    0.000    0.267    2.667    4.400    7.467    8.533 
#    0.000    0.000    0.000    0.000    0.000    0.000 
#    0.000    0.000    0.000    0.000    0.000    0.000 
#
# Total GULP energy -167224.690665 kJ/mol
# GULP energy per Si atom -5574.156356 kJ/mol
# Density = 2.717581 g / cm^3
# Si number density = 27.237809 Si / 1000 Ang^3
#
#
#
# Elastic Constant Matrix: (Units=GPa)
#
#
# Indices 1 2 3 4 5 6 
#
# 1 112.5183 -3.1154 32.6479 0.0000 0.0000 0.0000
# 2 -3.1154 232.4242 28.4428 0.0000 0.0000 0.0000
# 3 32.6479 28.4428 123.5595 0.0000 0.0000 0.0000
# 4 0.0000 0.0000 0.0000 204.2168 0.0000 0.0000
# 5 0.0000 0.0000 0.0000 0.0000 63.3305 0.0000
# 6 0.0000 0.0000 0.0000 0.0000 0.0000 448.7301
#
#
#
# Elastic Compliance Matrix: (Units=1/GPa)
#
#
# Indices 1 2 3 4 5 6 
#
# 1 0.009672 0.000455 -0.002660 0.000000 0.000000 0.000000
# 2 0.000455 0.004449 -0.001144 0.000000 0.000000 0.000000
# 3 -0.002660 -0.001144 0.009060 0.000000 0.000000 0.000000
# 4 0.000000 0.000000 0.000000 0.004897 0.000000 0.000000
# 5 0.000000 0.000000 0.000000 0.000000 0.015790 0.000000
# 6 0.000000 0.000000 0.000000 0.000000 0.000000 0.002229
#
#
# Mechanical properties :
#
#
# Convention : Reuss Voigt Hill
#
# Bulk Modulus (GPa) = 60.67520 64.93918 62.80719
# Shear Modulus (GPa) = 85.78028 170.62392 128.20210
#
# Velocity S-wave (km/s) = 5.61796 7.92328 6.86803
# Velocity P-wave (km/s) = 8.02536 10.37293 9.27373
#
# Compressibility (1/GPa) = 0.01648120
#
# Stress axis : x y z
#
# Youngs Moduli (GPa) = 103.39143 224.78893 110.37966
#
# Poissons Ratio (x) = -0.10233 0.29365
# Poissons Ratio (y) = -0.04706 0.12631
# Poissons Ratio (z) = 0.27506 0.25723
#
# Static dielectric constant tensor:
#      x y z
#    x 2.188110 0.000000 0.000000 
#    y 0.000000 1.855150 0.000000 
#    z 0.000000 0.000000 2.855640 
# 
# From -- ./inp_files/1926.got.cif
#   From: 2010.05.17/outbox.cif.g08.bks.cpg/sg50_1_cif.got.tgz:1926.got - 2010.06.03 11:33:33.
