data_PCOD9398556
_publ_section_title
;
Structure prediction by ZEFSAII (Michael W. Deem and Ramdas Pophale) SiO2 
 PCOD9398556
Probable space group: P M M A
;
_chemical_formula_sum "Si O2"
_cell_formula_units_Z 64
_cell_length_a 7.546335
_cell_length_b 20.861465
_cell_length_c 20.547230
_cell_angle_alpha 90.000000
_cell_angle_beta 90.000000
_cell_angle_gamma 90.000000
_cell_volume 3234.701177
_symmetry_space_group_name_H-M "P M M A"
_symmetry_group_IT_number 51
_symmetry_cell_setting 'orthorhombic'
loop_
_space_group_symop_operation_xyz
x,y,z
1/2-x,-y,z
1/2+x,-y,-z
-x,y,-z
-x,-y,-z
1/2+x,y,-z
1/2-x,y,z
x,-y,z
loop_
_atom_site_type_symbol
_atom_site_label
_atom_site_fract_x
_atom_site_fract_y
_atom_site_fract_z
Si Si1 0.042833 0.099248 0.739189
Si Si2 0.533719 0.069206 0.115432
Si Si3 0.465307 0.245490 0.289449
Si Si4 0.539219 0.208067 0.073123
Si Si5 0.036972 0.426963 0.073699
Si Si6 0.455288 0.679643 0.170267
Si Si7 0.037902 0.790689 0.429388
Si Si8 0.045948 0.068538 0.404652
O O1 0.250000 0.083112 0.733701
O O2 0.979953 0.074269 0.808712
O O3 0.021018 0.175989 0.737599
O O4 0.954040 0.073444 0.673932
O O5 0.750000 0.069874 0.113905
O O6 0.473555 0.134842 0.081793
O O7 0.475489 0.000000 0.088876
O O8 0.250000 0.246889 0.288211
O O9 0.531845 0.299544 0.239950
O O10 0.524157 0.246143 0.364772
O O11 0.750000 0.208166 0.083827
O O12 0.460779 0.257113 0.125053
O O13 0.500000 0.229546 0.000000
O O14 0.250000 0.428703 0.079572
O O15 0.970622 0.500000 0.080345
O O16 0.966010 0.377966 0.127650
O O17 0.000000 0.404902 0.000000
O O18 0.250000 0.662856 0.181888
O O19 0.250000 0.795852 0.422682
O O20 0.964650 0.863908 0.427014
O O21 0.000000 0.762426 0.500000
O O22 0.250000 0.067811 0.426777
O O23 0.964159 0.000000 0.423084
#
# Coordination Sequence:
#
# PCOD9398556 Si02
#       8
#     8   8   8   8   8   8   8   8
#     4  10  17  28  46  67  87 110 145 190 239 286
#     4   9  18  31  45  61  84 112 144 191 246 288
#     4   9  18  32  49  68  93 120 151 189 235 280
#     4  11  22  35  49  67  91 120 156 199 242 286
#     4   9  18  32  50  75 106 138 167 193 226 270
#     4  10  19  33  54  75  97 127 160 196 233 276
#     4   9  18  31  45  63  88 119 149 187 234 286
#     4   9  18  31  44  60  85 115 146 184 234 291
#
# _framework density 19.785443999999998
#
# number of rings (size 3 to 8) (size 9 to 14) (size 15 to 20)
#    0.000    2.500    1.250    2.250    0.000    4.750 
#    0.000    0.000    0.000    3.375    0.000    0.000 
#    0.000    0.500    0.000    0.375    0.000    0.750 
#
# Total GULP energy -357166.868103 kJ/mol
# GULP energy per Si atom -5580.732314 kJ/mol
# Density = 1.974041 g / cm^3
# Si number density = 19.785444 Si / 1000 Ang^3
#
#
#
# Elastic Constant Matrix: (Units=GPa)
#
#
# Indices 1 2 3 4 5 6 
#
# 1 54.9973 1.6990 -1.1949 0.0000 0.0000 0.0000
# 2 1.6990 86.7632 55.3781 0.0000 0.0000 0.0000
# 3 -1.1949 55.3781 133.8768 0.0000 0.0000 0.0000
# 4 0.0000 0.0000 0.0000 24.0760 0.0000 0.0000
# 5 0.0000 0.0000 0.0000 0.0000 15.8990 0.0000
# 6 0.0000 0.0000 0.0000 0.0000 0.0000 7.3459
#
#
#
# Elastic Compliance Matrix: (Units=1/GPa)
#
#
# Indices 1 2 3 4 5 6 
#
# 1 0.018211 -0.000625 0.000421 0.000000 0.000000 0.000000
# 2 -0.000625 0.015682 -0.006492 0.000000 0.000000 0.000000
# 3 0.000421 -0.006492 0.010159 0.000000 0.000000 0.000000
# 4 0.000000 0.000000 0.000000 0.041535 0.000000 0.000000
# 5 0.000000 0.000000 0.000000 0.000000 0.062897 0.000000
# 6 0.000000 0.000000 0.000000 0.000000 0.000000 0.136130
#
#
# Mechanical properties :
#
#
# Convention : Reuss Voigt Hill
#
# Bulk Modulus (GPa) = 32.61719 43.04463 37.83091
# Shear Modulus (GPa) = 16.22180 24.11451 20.16816
#
# Velocity S-wave (km/s) = 2.86647 3.49492 3.19618
# Velocity P-wave (km/s) = 5.24183 6.17162 5.72563
#
# Compressibility (1/GPa) = 0.03065868
#
# Stress axis : x y z
#
# Youngs Moduli (GPa) = 54.91132 63.76855 98.43628
#
# Poissons Ratio (x) = 0.03989 -0.04147
# Poissons Ratio (y) = 0.03435 0.63908
# Poissons Ratio (z) = -0.02313 0.41401
#
# Static dielectric constant tensor:
#      x y z
#    x 1.805180 0.000000 0.000000 
#    y 0.000000 1.702670 0.000000 
#    z 0.000000 0.000000 1.717080 
# 
# From -- ./inp_files/32376.got.cif
#   From: 2010.05.17/outbox.cif.g08.bks.cpg/sg51_17_cif.got.tgz:32376.got - 2010.06.03 11:52:47.
