data_PCOD9398539
_publ_section_title
;
Structure prediction by ZEFSAII (Michael W. Deem and Ramdas Pophale) SiO2 
 PCOD9398539
Probable space group: P M M A
;
_chemical_formula_sum "Si O2"
_cell_formula_units_Z 44
_cell_length_a 8.804736
_cell_length_b 17.523055
_cell_length_c 15.753776
_cell_angle_alpha 90.000000
_cell_angle_beta 90.000000
_cell_angle_gamma 90.000000
_cell_volume 2430.585086
_symmetry_space_group_name_H-M "P M M A"
_symmetry_group_IT_number 51
_symmetry_cell_setting 'orthorhombic'
loop_
_space_group_symop_operation_xyz
x,y,z
1/2-x,-y,z
1/2+x,-y,-z
-x,y,-z
-x,-y,-z
1/2+x,y,-z
1/2-x,y,z
x,-y,z
loop_
_atom_site_type_symbol
_atom_site_label
_atom_site_fract_x
_atom_site_fract_y
_atom_site_fract_z
Si Si1 0.068603 0.290386 0.416937
Si Si2 0.568984 0.587308 0.091329
Si Si3 0.569116 0.119829 0.412365
Si Si4 0.430705 0.699012 0.228005
Si Si5 0.432706 0.000000 0.094180
Si Si6 0.433099 0.122277 0.234391
O O1 0.250000 0.278310 0.426102
O O2 0.041513 0.326851 0.325196
O O3 0.000000 0.330147 0.500000
O O4 0.985479 0.208352 0.412513
O O5 0.750000 0.588661 0.085369
O O6 0.520714 0.500000 0.111174
O O7 0.514184 0.646028 0.161753
O O8 0.500000 0.607416 0.000000
O O9 0.500000 0.087439 0.500000
O O10 0.750000 0.113821 0.415035
O O11 0.505982 0.091743 0.321863
O O12 0.250000 0.695251 0.212882
O O13 0.474229 0.788604 0.222137
O O14 0.476015 0.927310 0.152440
O O15 0.250000 0.000000 0.086796
O O16 0.500000 0.000000 0.000000
O O17 0.250000 0.118534 0.244736
#
# Coordination Sequence:
#
# PCOD9398539 Si02
#       6
#     8   8   8   8   4   8
#     4   9  16  27  45  72 105 138 171 207 247 294
#     4  10  21  36  54  76 102 132 166 206 255 309
#     4  10  17  27  47  74 103 135 168 207 253 302
#     4   9  18  32  52  78 106 134 168 209 251 298
#     4  10  22  40  59  74  99 136 171 214 262 306
#     4   9  19  36  54  76 104 135 172 212 254 299
#
# _framework density 18.102637000000001
#
# number of rings (size 3 to 8) (size 9 to 14) (size 15 to 20)
#    0.000    2.545    0.000    4.909    0.000    6.182 
#    0.000    2.273    0.000    0.545    0.000    0.000 
#    0.000    0.000    0.000    0.000    0.000    0.000 
#
# Total GULP energy -245310.231015 kJ/mol
# GULP energy per Si atom -5575.232523 kJ/mol
# Density = 1.806143 g / cm^3
# Si number density = 18.102637 Si / 1000 Ang^3
#
#
#
# Elastic Constant Matrix: (Units=GPa)
#
#
# Indices 1 2 3 4 5 6 
#
# 1 69.4044 36.9476 75.0640 0.0000 0.0000 0.0000
# 2 36.9476 61.7790 77.3350 0.0000 0.0000 0.0000
# 3 75.0640 77.3350 203.0178 0.0000 0.0000 0.0000
# 4 0.0000 0.0000 0.0000 147.0499 0.0000 0.0000
# 5 0.0000 0.0000 0.0000 0.0000 41.7597 0.0000
# 6 0.0000 0.0000 0.0000 0.0000 0.0000 11.7258
#
#
#
# Elastic Compliance Matrix: (Units=1/GPa)
#
#
# Indices 1 2 3 4 5 6 
#
# 1 0.025322 -0.006545 -0.006870 0.000000 0.000000 0.000000
# 2 -0.006545 0.032632 -0.010011 0.000000 0.000000 0.000000
# 3 -0.006870 -0.010011 0.011279 0.000000 0.000000 0.000000
# 4 0.000000 0.000000 0.000000 0.006800 0.000000 0.000000
# 5 0.000000 0.000000 0.000000 0.000000 0.023947 0.000000
# 6 0.000000 0.000000 0.000000 0.000000 0.000000 0.085282
#
#
# Mechanical properties :
#
#
# Convention : Reuss Voigt Hill
#
# Bulk Modulus (GPa) = 44.67619 79.21048 61.94334
# Shear Modulus (GPa) = 20.87043 49.76404 35.31724
#
# Velocity S-wave (km/s) = 3.39911 5.24877 4.42174
# Velocity P-wave (km/s) = 6.33548 8.97687 7.76925
#
# Compressibility (1/GPa) = 0.02238329
#
# Stress axis : x y z
#
# Youngs Moduli (GPa) = 39.49103 30.64460 88.66109
#
# Poissons Ratio (x) = 0.20057 0.60906
# Poissons Ratio (y) = 0.25847 0.88755
# Poissons Ratio (z) = 0.27128 0.30677
#
# Static dielectric constant tensor:
#      x y z
#    x 1.619750 0.000000 0.000000 
#    y 0.000000 1.625340 0.000000 
#    z 0.000000 0.000000 1.642660 
# 
# From -- ./inp_files/20966.got.cif
#   From: 2010.05.17/outbox.cif.g08.bks.cpg/sg51_11_cif.got.tgz:20966.got - 2010.06.03 11:52:47.
