data_PCOD9398432
_publ_section_title
;
Structure prediction by ZEFSAII (Michael W. Deem and Ramdas Pophale) SiO2 
 PCOD9398432
Probable space group: P M M A
;
_chemical_formula_sum "Si O2"
_cell_formula_units_Z 56
_cell_length_a 22.549126
_cell_length_b 8.355944
_cell_length_c 18.528415
_cell_angle_alpha 90.000000
_cell_angle_beta 90.000000
_cell_angle_gamma 90.000000
_cell_volume 3491.109763
_symmetry_space_group_name_H-M "P M M A"
_symmetry_group_IT_number 51
_symmetry_cell_setting 'orthorhombic'
loop_
_space_group_symop_operation_xyz
x,y,z
1/2-x,-y,z
1/2+x,-y,-z
-x,y,-z
-x,-y,-z
1/2+x,y,-z
1/2-x,y,z
x,-y,z
loop_
_atom_site_type_symbol
_atom_site_label
_atom_site_fract_x
_atom_site_fract_y
_atom_site_fract_z
Si Si1 0.964606 0.809329 0.237700
Si Si2 0.912299 0.693055 0.545917
Si Si3 0.918410 0.812443 0.944640
Si Si4 0.817547 0.806910 0.657369
Si Si5 0.548320 0.313699 0.088676
Si Si6 0.600924 0.804738 0.788732
Si Si7 0.540684 0.306857 0.393693
O O1 0.931870 0.732359 0.168971
O O2 0.941977 0.760800 0.316287
O O3 0.033962 0.755187 0.232762
O O4 0.963303 0.000000 0.229897
O O5 0.911038 0.500000 0.547496
O O6 0.856166 0.757985 0.588383
O O7 0.919660 0.742168 0.462377
O O8 0.973153 0.743307 0.586435
O O9 0.886723 0.754069 0.871360
O O10 0.988072 0.787064 0.924927
O O11 0.906912 0.000000 0.954317
O O12 0.909662 0.725875 0.020965
O O13 0.750000 0.748874 0.654773
O O14 0.852681 0.749860 0.728782
O O15 0.816412 0.000000 0.660625
O O16 0.532658 0.500000 0.085997
O O17 0.600869 0.000000 0.789248
O O18 0.541099 0.500000 0.390272
#
# Coordination Sequence:
#
# PCOD9398432 Si02
#       7
#     8   8   8   8   8   8   8
#     4  10  17  26  41  60  84 113 145 176 211 260
#     4   9  18  31  45  62  86 113 144 180 225 271
#     4   9  15  25  38  52  76 108 144 176 205 247
#     4  10  19  31  46  64  87 115 151 189 220 254
#     4  10  17  24  35  55  82 109 139 170 208 250
#     4   8  15  26  39  57  80 109 143 178 215 250
#     4   9  17  29  44  63  86 113 143 181 222 267
#
# _framework density 16.040745000000001
#
# number of rings (size 3 to 8) (size 9 to 14) (size 15 to 20)
#    0.000    2.714    1.429    4.714    0.000    0.857 
#    0.000    2.143    0.000    0.000    0.000    0.000 
#    0.000    1.143    0.000    6.000    0.000    3.286 
#
# Total GULP energy -311811.470918 kJ/mol
# GULP energy per Si atom -5568.061981 kJ/mol
# Density = 1.600424 g / cm^3
# Si number density = 16.040745 Si / 1000 Ang^3
#
#
#
# Elastic Constant Matrix: (Units=GPa)
#
#
# Indices 1 2 3 4 5 6 
#
# 1 50.7753 5.9232 41.9292 0.0000 0.0000 0.0000
# 2 5.9232 18.2112 18.9475 0.0000 0.0000 0.0000
# 3 41.9292 18.9475 170.6777 0.0000 0.0000 0.0000
# 4 0.0000 0.0000 0.0000 -30.4732 0.0000 0.0000
# 5 0.0000 0.0000 0.0000 0.0000 11.2628 0.0000
# 6 0.0000 0.0000 0.0000 0.0000 0.0000 10.8846
#
#
#
# Elastic Compliance Matrix: (Units=1/GPa)
#
#
# Indices 1 2 3 4 5 6 
#
# 1 0.024768 -0.001950 -0.005868 0.000000 0.000000 0.000000
# 2 -0.001950 0.062235 -0.006430 0.000000 0.000000 0.000000
# 3 -0.005868 -0.006430 0.008014 0.000000 0.000000 0.000000
# 4 0.000000 0.000000 0.000000 -0.032816 0.000000 0.000000
# 5 0.000000 0.000000 0.000000 0.000000 0.088788 0.000000
# 6 0.000000 0.000000 0.000000 0.000000 0.000000 0.091873
#
#
# Mechanical properties :
#
#
# Convention : Reuss Voigt Hill
#
# Bulk Modulus (GPa) = 15.03285 41.47377 28.25331
# Shear Modulus (GPa) = 17.03390 9.85915 13.44652
#
# Velocity S-wave (km/s) = 3.26224 2.48187 2.89844
# Velocity P-wave (km/s) = 4.85609 5.84160 5.37149
#
# Compressibility (1/GPa) = 0.06652101
#
# Stress axis : x y z
#
# Youngs Moduli (GPa) = 40.37497 16.06805 124.77631
#
# Poissons Ratio (x) = 0.03134 0.73219
# Poissons Ratio (y) = 0.07875 0.80229
# Poissons Ratio (z) = 0.23692 0.10331
#
# Static dielectric constant tensor:
#      x y z
#    x 1.503350 0.000000 0.000000 
#    y 0.000000 1.551080 0.000000 
#    z 0.000000 0.000000 1.596870 
# 
# From -- ./inp_files/30778.got.cif
#   From: 2010.05.17/outbox.cif.g08.bks.cpg/sg51_16_cif.got.tgz:30778.got - 2010.06.03 11:52:47.
