data_PCOD9398804
_publ_section_title
;
Structure prediction by ZEFSAII (Michael W. Deem and Ramdas Pophale) SiO2 
 PCOD9398804
Probable space group: P M M A
;
_chemical_formula_sum "Si O2"
_cell_formula_units_Z 56
_cell_length_a 8.887561
_cell_length_b 22.189971
_cell_length_c 16.010684
_cell_angle_alpha 90.000000
_cell_angle_beta 90.000000
_cell_angle_gamma 90.000000
_cell_volume 3157.542576
_symmetry_space_group_name_H-M "P M M A"
_symmetry_group_IT_number 51
_symmetry_cell_setting 'orthorhombic'
loop_
_space_group_symop_operation_xyz
x,y,z
1/2-x,-y,z
1/2+x,-y,-z
-x,y,-z
-x,-y,-z
1/2+x,y,-z
1/2-x,y,z
x,-y,z
loop_
_atom_site_type_symbol
_atom_site_label
_atom_site_fract_x
_atom_site_fract_y
_atom_site_fract_z
Si Si1 0.429334 0.128112 0.415779
Si Si2 0.070465 0.641633 0.912072
Si Si3 0.576276 0.426598 0.413671
Si Si4 0.580001 0.000000 0.401325
Si Si5 0.430580 0.773791 0.087282
Si Si6 0.430211 0.126428 0.225042
Si Si7 0.924886 0.572632 0.760023
Si Si8 0.917070 0.000000 0.202698
O O1 0.500000 0.157166 0.500000
O O2 0.250000 0.133403 0.421504
O O3 0.483537 0.058940 0.418904
O O4 0.477469 0.144331 0.320329
O O5 0.250000 0.643933 0.919010
O O6 0.003770 0.708484 0.897921
O O7 0.019003 0.600678 0.835220
O O8 0.000000 0.619982 0.000000
O O9 0.500000 0.406381 0.500000
O O10 0.750000 0.407931 0.409944
O O11 0.573583 0.500000 0.414757
O O12 0.488549 0.407948 0.330263
O O13 0.750000 0.000000 0.437791
O O14 0.599294 0.000000 0.302389
O O15 0.250000 0.767467 0.079758
O O16 0.464454 0.819777 0.161654
O O17 0.500000 0.796284 0.000000
O O18 0.250000 0.117741 0.228988
O O19 0.499127 0.063787 0.190067
O O20 0.750000 0.589876 0.767976
O O21 0.934309 0.500000 0.763391
O O22 0.750000 0.000000 0.164166
#
# Coordination Sequence:
#
# PCOD9398804 Si02
#       8
#     8   8   8   4   8   8   8   4
#     4  10  18  28  42  64  93 127 162 196 236 286
#     4  11  22  37  57  80 106 136 171 213 259 311
#     4   9  16  27  45  71 104 142 182 221 260 304
#     4   9  16  26  39  60  90 126 162 198 237 281
#     4  10  20  37  59  80  99 126 167 212 256 305
#     4   9  19  34  52  72 100 134 165 201 251 305
#     4  10  20  34  53  79 111 145 179 217 262 309
#     4   9  17  28  47  74 102 128 162 206 249 295
#
# _framework density 17.735312
#
# number of rings (size 3 to 8) (size 9 to 14) (size 15 to 20)
#    0.000    2.286    0.000    4.500    0.000    6.286 
#    0.000    0.357    0.000    0.857    0.000    4.000 
#    0.000    0.000    0.000    0.000    0.000    0.000 
#
# Total GULP energy -311994.287276 kJ/mol
# GULP energy per Si atom -5571.326558 kJ/mol
# Density = 1.769495 g / cm^3
# Si number density = 17.735312 Si / 1000 Ang^3
#
#
#
# Elastic Constant Matrix: (Units=GPa)
#
#
# Indices 1 2 3 4 5 6 
#
# 1 102.5502 26.2867 60.1315 0.0000 0.0000 0.0000
# 2 26.2867 19.3227 40.1334 0.0000 0.0000 0.0000
# 3 60.1315 40.1334 139.2145 0.0000 0.0000 0.0000
# 4 0.0000 0.0000 0.0000 -45.7278 0.0000 0.0000
# 5 0.0000 0.0000 0.0000 0.0000 32.5716 0.0000
# 6 0.0000 0.0000 0.0000 0.0000 0.0000 19.7239
#
#
#
# Elastic Compliance Matrix: (Units=1/GPa)
#
#
# Indices 1 2 3 4 5 6 
#
# 1 0.015096 -0.017431 -0.001496 0.000000 0.000000 0.000000
# 2 -0.017431 0.149110 -0.035457 0.000000 0.000000 0.000000
# 3 -0.001496 -0.035457 0.018051 0.000000 0.000000 0.000000
# 4 0.000000 0.000000 0.000000 -0.021869 0.000000 0.000000
# 5 0.000000 0.000000 0.000000 0.000000 0.030702 0.000000
# 6 0.000000 0.000000 0.000000 0.000000 0.000000 0.050700
#
#
# Mechanical properties :
#
#
# Convention : Reuss Voigt Hill
#
# Bulk Modulus (GPa) = 13.60724 57.13228 35.36976
# Shear Modulus (GPa) = 13.33142 10.28260 11.80701
#
# Velocity S-wave (km/s) = 2.74467 2.41048 2.58298
# Velocity P-wave (km/s) = 4.21109 6.32700 5.37421
#
# Compressibility (1/GPa) = 0.07349029
#
# Stress axis : x y z
#
# Youngs Moduli (GPa) = 66.24151 6.70646 55.39875
#
# Poissons Ratio (x) = 0.11690 0.08286
# Poissons Ratio (y) = 1.15463 1.96429
# Poissons Ratio (z) = 0.09907 0.23779
#
# Static dielectric constant tensor:
#      x y z
#    x 1.622810 0.000000 0.000000 
#    y 0.000000 1.582800 0.000000 
#    z 0.000000 0.000000 1.638390 
# 
# From -- ./inp_files/21939.got.cif
#   From: 2010.05.17/outbox.cif.g08.bks.cpg/sg51_11_cif.got.tgz:21939.got - 2010.06.03 11:52:47.
