data_PCOD9398928
_publ_section_title
;
Structure prediction by ZEFSAII (Michael W. Deem and Ramdas Pophale) SiO2 
 PCOD9398928
Probable space group: P M M A
;
_chemical_formula_sum "Si O2"
_cell_formula_units_Z 56
_cell_length_a 22.614007
_cell_length_b 13.839026
_cell_length_c 10.190115
_cell_angle_alpha 90.000000
_cell_angle_beta 90.000000
_cell_angle_gamma 90.000000
_cell_volume 3189.055906
_symmetry_space_group_name_H-M "P M M A"
_symmetry_group_IT_number 51
_symmetry_cell_setting 'orthorhombic'
loop_
_space_group_symop_operation_xyz
x,y,z
1/2-x,-y,z
1/2+x,-y,-z
-x,y,-z
-x,-y,-z
1/2+x,y,-z
1/2-x,y,z
x,-y,z
loop_
_atom_site_type_symbol
_atom_site_label
_atom_site_fract_x
_atom_site_fract_y
_atom_site_fract_z
Si Si1 0.319368 0.614781 0.447266
Si Si2 0.814580 0.110916 0.494833
Si Si3 0.872588 0.740548 0.330846
Si Si4 0.521228 0.110845 0.348802
Si Si5 0.892087 0.111340 0.751979
Si Si6 0.818782 0.284946 0.835145
Si Si7 0.179738 0.387769 0.893027
O O1 0.250000 0.631993 0.486013
O O2 0.327753 0.500000 0.444010
O O3 0.363916 0.664965 0.549142
O O4 0.327368 0.660194 0.303129
O O5 0.750000 0.129578 0.554729
O O6 0.824696 0.178787 0.371934
O O7 0.863514 0.125889 0.606645
O O8 0.817459 0.000000 0.455220
O O9 0.932375 0.803405 0.325398
O O10 0.856676 0.682635 0.200953
O O11 0.500000 0.115017 0.500000
O O12 0.462280 0.122553 0.261960
O O13 0.544243 0.000000 0.328755
O O14 0.860904 0.191910 0.839361
O O15 0.879029 0.000000 0.789029
O O16 0.750000 0.254579 0.841456
O O17 0.829189 0.356273 0.956605
O O18 0.250000 0.377864 0.863616
O O19 0.164192 0.500000 0.872658
#
# Coordination Sequence:
#
# PCOD9398928 Si02
#       7
#     8   8   8   8   8   8   8
#     4  10  19  31  52  81 108 136 181 236 280 326
#     4  10  18  28  48  81 114 138 167 216 277 331
#     4  12  20  32  54  81 112 143 187 225 271 322
#     4  10  19  34  55  80 111 150 189 225 269 326
#     4  10  19  33  55  82 110 141 182 226 272 326
#     4  10  19  35  58  83 110 143 182 226 282 337
#     4  10  22  39  58  81 113 150 183 223 281 342
#
# _framework density 17.560054000000001
#
# number of rings (size 3 to 8) (size 9 to 14) (size 15 to 20)
#    0.000    1.714    2.857    3.000    0.000    3.714 
#    0.000    2.143    0.000   13.714    0.000    0.000 
#    0.000    0.000    0.000    0.000    0.000    0.000 
#
# Total GULP energy -312339.025150 kJ/mol
# GULP energy per Si atom -5577.482592 kJ/mol
# Density = 1.752009 g / cm^3
# Si number density = 17.560054 Si / 1000 Ang^3
#
#
#
# Elastic Constant Matrix: (Units=GPa)
#
#
# Indices 1 2 3 4 5 6 
#
# 1 87.2570 59.1830 26.4448 0.0000 0.0000 0.0000
# 2 59.1830 145.7701 35.0433 0.0000 0.0000 0.0000
# 3 26.4448 35.0433 54.5810 0.0000 0.0000 0.0000
# 4 0.0000 0.0000 0.0000 27.4705 0.0000 0.0000
# 5 0.0000 0.0000 0.0000 0.0000 16.2307 0.0000
# 6 0.0000 0.0000 0.0000 0.0000 0.0000 35.3908
#
#
#
# Elastic Compliance Matrix: (Units=1/GPa)
#
#
# Indices 1 2 3 4 5 6 
#
# 1 0.016668 -0.005707 -0.004412 0.000000 0.000000 0.000000
# 2 -0.005707 0.010066 -0.003698 0.000000 0.000000 0.000000
# 3 -0.004412 -0.003698 0.022833 0.000000 0.000000 0.000000
# 4 0.000000 0.000000 0.000000 0.036403 0.000000 0.000000
# 5 0.000000 0.000000 0.000000 0.000000 0.061612 0.000000
# 6 0.000000 0.000000 0.000000 0.000000 0.000000 0.028256
#
#
# Mechanical properties :
#
#
# Convention : Reuss Voigt Hill
#
# Bulk Modulus (GPa) = 45.59043 58.77225 52.18134
# Shear Modulus (GPa) = 23.72120 26.94752 25.33436
#
# Velocity S-wave (km/s) = 3.67939 3.92164 3.80244
# Velocity P-wave (km/s) = 6.63849 7.35171 7.00418
#
# Compressibility (1/GPa) = 0.02193443
#
# Stress axis : x y z
#
# Youngs Moduli (GPa) = 59.99476 99.34411 43.79597
#
# Poissons Ratio (x) = 0.56693 0.19322
# Poissons Ratio (y) = 0.34237 0.16195
# Poissons Ratio (z) = 0.26469 0.36736
#
# Static dielectric constant tensor:
#      x y z
#    x 1.618570 0.000000 0.000000 
#    y 0.000000 1.614080 0.000000 
#    z 0.000000 0.000000 1.598260 
# 
# From -- ./inp_files/10951.got.cif
#   From: 2010.05.17/outbox.cif.g08.bks.cpg/sg51_6_cif.got.tgz:10951.got - 2010.06.03 11:52:47.
