data_PCOD9398985
_publ_section_title
;
Structure prediction by ZEFSAII (Michael W. Deem and Ramdas Pophale) SiO2 
 PCOD9398985
Probable space group: P M M A
;
_chemical_formula_sum "Si O2"
_cell_formula_units_Z 52
_cell_length_a 8.613237
_cell_length_b 27.535491
_cell_length_c 14.069707
_cell_angle_alpha 90.000000
_cell_angle_beta 90.000000
_cell_angle_gamma 90.000000
_cell_volume 3336.908327
_symmetry_space_group_name_H-M "P M M A"
_symmetry_group_IT_number 51
_symmetry_cell_setting 'orthorhombic'
loop_
_space_group_symop_operation_xyz
x,y,z
1/2-x,-y,z
1/2+x,-y,-z
-x,y,-z
-x,-y,-z
1/2+x,y,-z
1/2-x,y,z
x,-y,z
loop_
_atom_site_type_symbol
_atom_site_label
_atom_site_fract_x
_atom_site_fract_y
_atom_site_fract_z
Si Si1 0.563509 0.800127 0.286218
Si Si2 0.936916 0.893310 0.608066
Si Si3 0.062492 0.445717 0.893592
Si Si4 0.936668 0.000000 0.607043
Si Si5 0.936251 0.703224 0.396257
Si Si6 0.564760 0.747318 0.895524
Si Si7 0.938246 0.652245 0.205833
O O1 0.750000 0.800496 0.281024
O O2 0.502328 0.850549 0.327110
O O3 0.516532 0.756649 0.358497
O O4 0.496888 0.784735 0.184012
O O5 0.750000 0.890422 0.604823
O O6 0.983502 0.947169 0.646064
O O7 0.000000 0.888302 0.500000
O O8 0.250000 0.445070 0.896798
O O9 0.013978 0.500000 0.862439
O O10 0.012308 0.400955 0.828127
O O11 0.000000 0.438249 0.000000
O O12 0.000000 0.000000 0.500000
O O13 0.750000 0.000000 0.604714
O O14 0.750000 0.702647 0.400644
O O15 0.984757 0.666042 0.313216
O O16 0.000000 0.693029 0.500000
O O17 0.750000 0.747581 0.896674
O O18 0.505035 0.694299 0.861743
O O19 0.500000 0.757865 0.000000
O O20 0.750000 0.655213 0.200746
#
# Coordination Sequence:
#
# PCOD9398985 Si02
#       7
#     8   8   8   4   8   8   8
#     4  10  20  33  47  67  93 121 154 192 231 274
#     4  10  18  29  45  67  95 128 161 195 233 273
#     4   9  17  29  46  67  90 116 146 182 226 273
#     4   8  16  28  42  62  91 124 159 194 230 272
#     4   9  18  30  44  62  87 117 149 185 222 262
#     4  11  21  33  49  69  93 121 151 184 225 274
#     4   9  18  32  47  66  92 120 151 186 224 269
#
# _framework density 15.583287
#
# number of rings (size 3 to 8) (size 9 to 14) (size 15 to 20)
#    0.000    2.462    0.000    4.154    0.000    6.769 
#    0.000    0.000    0.000    0.462    0.000    0.538 
#    0.000    0.000    0.000    0.000    0.000    0.308 
#
# Total GULP energy -289845.014829 kJ/mol
# GULP energy per Si atom -5573.942593 kJ/mol
# Density = 1.554782 g / cm^3
# Si number density = 15.583287 Si / 1000 Ang^3
#
#
#
# Elastic Constant Matrix: (Units=GPa)
#
#
# Indices 1 2 3 4 5 6 
#
# 1 39.6230 36.2693 30.5499 0.0000 0.0000 0.0000
# 2 36.2693 164.2415 81.8128 0.0000 0.0000 0.0000
# 3 30.5499 81.8128 111.1027 0.0000 0.0000 0.0000
# 4 0.0000 0.0000 0.0000 22.8358 0.0000 0.0000
# 5 0.0000 0.0000 0.0000 0.0000 26.8591 0.0000
# 6 0.0000 0.0000 0.0000 0.0000 0.0000 40.3615
#
#
#
# Elastic Compliance Matrix: (Units=1/GPa)
#
#
# Indices 1 2 3 4 5 6 
#
# 1 0.034015 -0.004505 -0.006036 0.000000 0.000000 0.000000
# 2 -0.004505 0.010212 -0.006281 0.000000 0.000000 0.000000
# 3 -0.006036 -0.006281 0.015286 0.000000 0.000000 0.000000
# 4 0.000000 0.000000 0.000000 0.043791 0.000000 0.000000
# 5 0.000000 0.000000 0.000000 0.000000 0.037231 0.000000
# 6 0.000000 0.000000 0.000000 0.000000 0.000000 0.024776
#
#
# Mechanical properties :
#
#
# Convention : Reuss Voigt Hill
#
# Bulk Modulus (GPa) = 38.65620 68.02568 53.34094
# Shear Modulus (GPa) = 24.08724 29.10031 26.59378
#
# Velocity S-wave (km/s) = 3.93582 4.32604 4.13553
# Velocity P-wave (km/s) = 6.74642 8.28858 7.55694
#
# Compressibility (1/GPa) = 0.02586907
#
# Stress axis : x y z
#
# Youngs Moduli (GPa) = 29.39854 97.92121 65.42053
#
# Poissons Ratio (x) = 0.44113 0.39487
# Poissons Ratio (y) = 0.13244 0.41093
# Poissons Ratio (z) = 0.17745 0.61507
#
# Static dielectric constant tensor:
#      x y z
#    x 1.527720 0.000000 0.000000 
#    y 0.000000 1.539220 0.000000 
#    z 0.000000 0.000000 1.491000 
# 
# From -- ./inp_files/14636.got.cif
#   From: 2010.05.17/outbox.cif.g08.bks.cpg/sg51_8_cif.got.tgz:14636.got - 2010.06.03 11:52:47.
