data_PCOD9398217
_publ_section_title
;
Structure prediction by ZEFSAII (Michael W. Deem and Ramdas Pophale) SiO2 
 PCOD9398217
Probable space group: P B A N
;
_chemical_formula_sum "Si O2"
_cell_formula_units_Z 24
_cell_length_a 10.520971
_cell_length_b 15.699520
_cell_length_c 5.640454
_cell_angle_alpha 90.000000
_cell_angle_beta 90.000000
_cell_angle_gamma 90.000000
_cell_volume 931.657447
_symmetry_space_group_name_H-M "P B A N"
_symmetry_group_IT_number 50
_space_group.IT_coordinate_system_code '2'
_symmetry_cell_setting 'orthorhombic'
loop_
_space_group_symop_operation_xyz
x,y,z
1/2-x,1/2-y,z
x,1/2-y,-z
1/2-x,y,-z
-x,-y,-z
1/2+x,1/2+y,-z
-x,1/2+y,z
1/2+x,-y,z
loop_
_atom_site_type_symbol
_atom_site_label
_atom_site_fract_x
_atom_site_fract_y
_atom_site_fract_z
Si Si1 0.882134 0.036852 0.354169
Si Si2 0.563572 0.273635 0.249519
Si Si3 0.177905 0.354575 0.241058
O O1 0.750000 0.053724 0.500000
O O2 0.936576 0.123900 0.246350
O O3 0.855242 0.953822 0.198120
O O4 0.000000 0.000000 0.500000
O O5 0.623458 0.250000 0.500000
O O6 0.438393 0.212055 0.257440
O O7 0.622499 0.250000 0.000000
O O8 0.250000 0.351539 0.500000
O O9 0.250000 0.333485 0.000000
#
# Coordination Sequence:
#
# PCOD9398217 Si02
#       3
#     8   8   8
#     4  11  27  54  86 124 173 227 286 352 436 517
#     4  12  27  48  82 121 165 213 290 349 428 495
#     4  11  26  50  82 117 164 226 286 346 422 521
#
# _framework density 25.760539999999999
#
# number of rings (size 3 to 8) (size 9 to 14) (size 15 to 20)
#    0.000    0.667    3.333    2.000    4.667   12.667 
#    0.000    1.667    0.000    0.000    0.000    0.000 
#    0.000    0.000    0.000    0.000    0.000    0.000 
#
# Total GULP energy -133970.787438 kJ/mol
# GULP energy per Si atom -5582.116143 kJ/mol
# Density = 2.570191 g / cm^3
# Si number density = 25.760540 Si / 1000 Ang^3
#
#
#
# Elastic Constant Matrix: (Units=GPa)
#
#
# Indices 1 2 3 4 5 6 
#
# 1 172.3093 76.6449 77.3607 0.0000 0.0000 0.0000
# 2 76.6449 326.3835 80.3595 0.0000 0.0000 0.0000
# 3 77.3607 80.3595 222.5147 0.0000 0.0000 0.0000
# 4 0.0000 0.0000 0.0000 52.1944 0.0000 0.0000
# 5 0.0000 0.0000 0.0000 0.0000 -74.3328 0.0000
# 6 0.0000 0.0000 0.0000 0.0000 0.0000 -19.3122
#
#
#
# Elastic Compliance Matrix: (Units=1/GPa)
#
#
# Indices 1 2 3 4 5 6 
#
# 1 0.007276 -0.001192 -0.002099 0.000000 0.000000 0.000000
# 2 -0.001192 0.003558 -0.000871 0.000000 0.000000 0.000000
# 3 -0.002099 -0.000871 0.005538 0.000000 0.000000 0.000000
# 4 0.000000 0.000000 0.000000 0.019159 0.000000 0.000000
# 5 0.000000 0.000000 0.000000 0.000000 -0.013453 0.000000
# 6 0.000000 0.000000 0.000000 0.000000 0.000000 -0.051781
#
#
# Mechanical properties :
#
#
# Convention : Reuss Voigt Hill
#
# Bulk Modulus (GPa) = 124.23573 132.21529 128.22551
# Shear Modulus (GPa) = -267.44150 24.16604 -121.63773
#
# Velocity S-wave (km/s) = -10.20018 3.06617 -6.87904
# Velocity P-wave (km/s) = 9.50753 7.99821 3.63467
#
# Compressibility (1/GPa) = 0.00804921
#
# Stress axis : x y z
#
# Youngs Moduli (GPa) = 137.43569 281.04788 180.55927
#
# Poissons Ratio (x) = 0.33495 0.37904
# Poissons Ratio (y) = 0.16380 0.15720
# Poissons Ratio (z) = 0.28851 0.24469
#
# Static dielectric constant tensor:
#      x y z
#    x 2.121680 0.000000 0.000000 
#    y 0.000000 1.960120 0.000000 
#    z 0.000000 0.000000 2.005720 
# 
# From -- ./inp_files/1561.got.cif
#   From: 2010.05.17/outbox.cif.g08.bks.cpg/sg50_1_cif.got.tgz:1561.got - 2010.06.03 11:33:33.
