data_PCOD9398093
_publ_section_title
;
Structure prediction by ZEFSAII (Michael W. Deem and Ramdas Pophale) SiO2 
 PCOD9398093
Probable space group: P B A N
;
_chemical_formula_sum "Si O2"
_cell_formula_units_Z 40
_cell_length_a 10.587591
_cell_length_b 9.179908
_cell_length_c 19.730092
_cell_angle_alpha 90.000000
_cell_angle_beta 90.000000
_cell_angle_gamma 90.000000
_cell_volume 1917.629028
_symmetry_space_group_name_H-M "P B A N"
_symmetry_group_IT_number 50
_space_group.IT_coordinate_system_code '2'
_symmetry_cell_setting 'orthorhombic'
loop_
_space_group_symop_operation_xyz
x,y,z
1/2-x,1/2-y,z
x,1/2-y,-z
1/2-x,y,-z
-x,-y,-z
1/2+x,1/2+y,-z
-x,1/2+y,z
1/2+x,-y,z
loop_
_atom_site_type_symbol
_atom_site_label
_atom_site_fract_x
_atom_site_fract_y
_atom_site_fract_z
Si Si1 0.123638 0.817542 0.075909
Si Si2 0.229239 0.576850 0.577572
Si Si3 0.974520 0.996341 0.341597
Si Si4 0.129159 0.155623 0.117320
Si Si5 0.889457 0.740735 0.269712
O O1 0.250000 0.750000 0.109446
O O2 0.995849 0.749199 0.103904
O O3 0.125690 0.993379 0.084851
O O4 0.124676 0.750000 0.000000
O O5 0.250000 0.750000 0.579313
O O6 0.250000 0.528050 0.500000
O O7 0.091313 0.550102 0.610246
O O8 0.342496 0.504363 0.619728
O O9 0.950205 0.900398 0.273559
O O10 0.015803 0.152770 0.316008
O O11 0.250000 0.250000 0.093125
O O12 0.133083 0.157208 0.199084
O O13 0.750000 0.750000 0.300317
#
# Coordination Sequence:
#
# PCOD9398093 Si02
#       5
#     8   8   8   8   8
#     4  11  24  44  69 103 139 177 223 276 338 399
#     4  11  24  41  64  96 130 172 225 281 341 400
#     4  12  22  43  64  93 129 175 219 279 335 400
#     4  11  24  44  68 101 137 181 228 278 331 407
#     4  11  24  41  65  95 133 168 221 270 333 394
#
# _framework density 20.859092
#
# number of rings (size 3 to 8) (size 9 to 14) (size 15 to 20)
#    0.000    0.800    4.000    3.600    0.000    3.600 
#    3.600    1.000    0.000    0.000    0.000    0.000 
#    0.000    0.000    0.000    0.000    0.000    0.000 
#
# Total GULP energy -222988.152412 kJ/mol
# GULP energy per Si atom -5574.703810 kJ/mol
# Density = 2.081162 g / cm^3
# Si number density = 20.859092 Si / 1000 Ang^3
#
#
#
# Elastic Constant Matrix: (Units=GPa)
#
#
# Indices 1 2 3 4 5 6 
#
# 1 159.4351 71.5821 19.1476 0.0000 0.0000 0.0000
# 2 71.5821 134.2797 33.0733 0.0000 0.0000 0.0000
# 3 19.1476 33.0733 61.1539 0.0000 0.0000 0.0000
# 4 0.0000 0.0000 0.0000 25.3314 0.0000 0.0000
# 5 0.0000 0.0000 0.0000 0.0000 30.3335 0.0000
# 6 0.0000 0.0000 0.0000 0.0000 0.0000 37.5835
#
#
#
# Elastic Compliance Matrix: (Units=1/GPa)
#
#
# Indices 1 2 3 4 5 6 
#
# 1 0.008249 -0.004339 -0.000236 0.000000 0.000000 0.000000
# 2 -0.004339 0.010874 -0.004522 0.000000 0.000000 0.000000
# 3 -0.000236 -0.004522 0.018872 0.000000 0.000000 0.000000
# 4 0.000000 0.000000 0.000000 0.039477 0.000000 0.000000
# 5 0.000000 0.000000 0.000000 0.000000 0.032967 0.000000
# 6 0.000000 0.000000 0.000000 0.000000 0.000000 0.026607
#
#
# Mechanical properties :
#
#
# Convention : Reuss Voigt Hill
#
# Bulk Modulus (GPa) = 50.50585 66.94164 58.72374
# Shear Modulus (GPa) = 30.89467 34.05407 32.47437
#
# Velocity S-wave (km/s) = 3.85270 4.04490 3.94997
# Velocity P-wave (km/s) = 6.63751 7.34690 7.00119
#
# Compressibility (1/GPa) = 0.01979969
#
# Stress axis : x y z
#
# Youngs Moduli (GPa) = 121.23249 91.96183 52.98896
#
# Poissons Ratio (x) = 0.39903 0.01251
# Poissons Ratio (y) = 0.52603 0.23963
# Poissons Ratio (z) = 0.02861 0.41588
#
# Static dielectric constant tensor:
#      x y z
#    x 1.788860 0.000000 0.000000 
#    y 0.000000 1.732720 0.000000 
#    z 0.000000 0.000000 2.004530 
# 
# From -- ./inp_files/31572.got.cif
#   From: 2010.05.17/outbox.cif.g08.bks.cpg/sg50_16_cif.got.tgz:31572.got - 2010.06.03 11:33:33.
