data_PCOD9398506
_publ_section_title
;
Structure prediction by ZEFSAII (Michael W. Deem and Ramdas Pophale) SiO2 
 PCOD9398506
Probable space group: P M M A
;
_chemical_formula_sum "Si O2"
_cell_formula_units_Z 56
_cell_length_a 29.788969
_cell_length_b 7.424191
_cell_length_c 13.875626
_cell_angle_alpha 90.000000
_cell_angle_beta 90.000000
_cell_angle_gamma 90.000000
_cell_volume 3068.719509
_symmetry_space_group_name_H-M "P M M A"
_symmetry_group_IT_number 51
_symmetry_cell_setting 'orthorhombic'
loop_
_space_group_symop_operation_xyz
x,y,z
1/2-x,-y,z
1/2+x,-y,-z
-x,y,-z
-x,-y,-z
1/2+x,y,-z
1/2-x,y,z
x,-y,z
loop_
_atom_site_type_symbol
_atom_site_label
_atom_site_fract_x
_atom_site_fract_y
_atom_site_fract_z
Si Si1 0.972122 0.282247 0.701714
Si Si2 0.800619 0.280013 0.495656
Si Si3 0.935743 0.789481 0.391628
Si Si4 0.480354 0.720621 0.897753
Si Si5 0.390295 0.706296 0.809660
Si Si6 0.699474 0.720139 0.272579
Si Si7 0.889413 0.706388 0.589611
O O1 0.970433 0.500000 0.702370
O O2 0.923873 0.213360 0.666905
O O3 0.011248 0.231769 0.626397
O O4 0.989114 0.223403 0.806857
O O5 0.750000 0.226690 0.522677
O O6 0.801938 0.500000 0.495754
O O7 0.808328 0.226188 0.384130
O O8 0.840934 0.214451 0.563018
O O9 0.911977 0.707122 0.297525
O O10 0.916986 0.706449 0.489149
O O11 0.924896 0.000000 0.393885
O O12 0.479369 0.500000 0.896197
O O13 0.429554 0.784406 0.876342
O O14 0.500000 0.776617 0.000000
O O15 0.384079 0.500000 0.841179
O O16 0.340921 0.785909 0.794602
O O17 0.750000 0.773887 0.245674
O O18 0.698186 0.500000 0.272066
O O19 0.881171 0.500000 0.619266
#
# Coordination Sequence:
#
# PCOD9398506 Si02
#       7
#     8   8   8   8   8   8   8
#     4   9  18  29  42  58  75 101 136 167 193 230
#     4   8  13  21  36  57  77  98 128 164 192 217
#     4  11  20  27  37  56  84 111 131 157 194 232
#     4   8  14  25  41  60  78  95 124 165 202 232
#     4   9  15  26  43  59  77 105 136 164 194 231
#     4   8  12  19  35  58  78  97 128 165 192 220
#     4  10  17  27  42  57  76 104 137 164 185 221
#
# _framework density 18.248653000000001
#
# number of rings (size 3 to 8) (size 9 to 14) (size 15 to 20)
#    0.000    3.000    1.429    3.429    0.000    2.286 
#    0.000    0.000    0.000    8.571    0.000    1.000 
#    0.000    8.000    0.000    0.000    0.000    8.571 
#
# Total GULP energy -312126.835252 kJ/mol
# GULP energy per Si atom -5573.693487 kJ/mol
# Density = 1.820712 g / cm^3
# Si number density = 18.248653 Si / 1000 Ang^3
#
#
#
# Elastic Constant Matrix: (Units=GPa)
#
#
# Indices 1 2 3 4 5 6 
#
# 1 193.4630 1.7543 65.6325 0.0000 0.0000 0.0000
# 2 1.7543 65.9330 -2.1746 0.0000 0.0000 0.0000
# 3 65.6325 -2.1746 61.0468 0.0000 0.0000 0.0000
# 4 0.0000 0.0000 0.0000 -25.1714 0.0000 0.0000
# 5 0.0000 0.0000 0.0000 0.0000 24.9262 0.0000
# 6 0.0000 0.0000 0.0000 0.0000 0.0000 -20.7315
#
#
#
# Elastic Compliance Matrix: (Units=1/GPa)
#
#
# Indices 1 2 3 4 5 6 
#
# 1 0.008154 -0.000507 -0.008784 0.000000 0.000000 0.000000
# 2 -0.000507 0.015216 0.001087 0.000000 0.000000 0.000000
# 3 -0.008784 0.001087 0.025864 0.000000 0.000000 0.000000
# 4 0.000000 0.000000 0.000000 -0.039728 0.000000 0.000000
# 5 0.000000 0.000000 0.000000 0.000000 0.040118 0.000000
# 6 0.000000 0.000000 0.000000 0.000000 0.000000 -0.048236
#
#
# Mechanical properties :
#
#
# Convention : Reuss Voigt Hill
#
# Bulk Modulus (GPa) = 30.46425 50.09634 40.28030
# Shear Modulus (GPa) = 173.98463 12.82002 93.40233
#
# Velocity S-wave (km/s) = 9.77487 2.65338 7.16200
# Velocity P-wave (km/s) = 12.00532 6.07445 9.51385
#
# Compressibility (1/GPa) = 0.03282536
#
# Stress axis : x y z
#
# Youngs Moduli (GPa) = 122.64588 65.71923 38.66446
#
# Poissons Ratio (x) = 0.03330 0.33963
# Poissons Ratio (y) = 0.06214 -0.04202
# Poissons Ratio (z) = 1.07733 -0.07142
#
# Static dielectric constant tensor:
#      x y z
#    x 1.676640 0.000000 0.000000 
#    y 0.000000 1.672610 0.000000 
#    z 0.000000 0.000000 1.584100 
# 
# From -- ./inp_files/26511.got.cif
#   From: 2010.05.17/outbox.cif.g08.bks.cpg/sg51_14_cif.got.tgz:26511.got - 2010.06.03 11:52:47.
