data_PCOD9398179
_publ_section_title
;
Structure prediction by ZEFSAII (Michael W. Deem and Ramdas Pophale) SiO2 
 PCOD9398179
Probable space group: P B A N
;
_chemical_formula_sum "Si O2"
_cell_formula_units_Z 34
_cell_length_a 9.089812
_cell_length_b 20.472938
_cell_length_c 8.294634
_cell_angle_alpha 90.000000
_cell_angle_beta 90.000000
_cell_angle_gamma 90.000000
_cell_volume 1543.591221
_symmetry_space_group_name_H-M "P B A N"
_symmetry_group_IT_number 50
_space_group.IT_coordinate_system_code '2'
_symmetry_cell_setting 'orthorhombic'
loop_
_space_group_symop_operation_xyz
x,y,z
1/2-x,1/2-y,z
x,1/2-y,-z
1/2-x,y,-z
-x,-y,-z
1/2+x,1/2+y,-z
-x,1/2+y,z
1/2+x,-y,z
loop_
_atom_site_type_symbol
_atom_site_label
_atom_site_fract_x
_atom_site_fract_y
_atom_site_fract_z
Si Si1 0.250000 0.750000 0.500000
Si Si2 0.756823 0.672519 0.184869
Si Si3 0.763143 0.472148 0.186449
Si Si4 0.935923 0.366154 0.659013
Si Si5 0.442872 0.072919 0.338350
O O1 0.147272 0.699459 0.399929
O O2 0.750000 0.750000 0.191287
O O3 0.620062 0.642175 0.280129
O O4 0.911002 0.650728 0.258300
O O5 0.750000 0.650690 0.000000
O O6 0.670299 0.406779 0.223673
O O7 0.696680 0.525929 0.308667
O O8 0.931415 0.457308 0.226348
O O9 0.750000 0.491845 0.000000
O O10 0.979968 0.413187 0.508760
#
# Coordination Sequence:
#
# PCOD9398179 Si02
#       5
#     2   8   8   8   8
#     4  12  24  48  72 108 144 188 250 300 364 424
#     4  11  25  45  71 103 142 188 242 300 362 424
#     4  12  25  44  71 105 147 187 237 299 361 426
#     4  12  25  45  71 102 142 188 242 294 358 434
#     4  12  24  45  69 108 141 191 238 294 363 430
#
# _framework density 22.026555999999999
#
# number of rings (size 3 to 8) (size 9 to 14) (size 15 to 20)
#    0.000    0.235    2.353    7.059    0.000    2.824 
#    0.000    0.000    0.000    0.000    0.000    0.000 
#    0.000    0.000    0.000    0.000    0.000    0.000 
#
# Total GULP energy -190426.990301 kJ/mol
# GULP energy per Si atom -5600.793832 kJ/mol
# Density = 2.197642 g / cm^3
# Si number density = 22.026556 Si / 1000 Ang^3
#
#
#
# Elastic Constant Matrix: (Units=GPa)
#
#
# Indices 1 2 3 4 5 6 
#
# 1 121.9518 30.7661 28.3557 0.0000 0.0000 0.0000
# 2 30.7661 112.1428 31.3430 0.0000 0.0000 0.0000
# 3 28.3557 31.3430 83.3153 0.0000 0.0000 0.0000
# 4 0.0000 0.0000 0.0000 42.3882 0.0000 0.0000
# 5 0.0000 0.0000 0.0000 0.0000 42.3250 0.0000
# 6 0.0000 0.0000 0.0000 0.0000 0.0000 29.7808
#
#
#
# Elastic Compliance Matrix: (Units=1/GPa)
#
#
# Indices 1 2 3 4 5 6 
#
# 1 0.009236 -0.001850 -0.002447 0.000000 0.000000 0.000000
# 2 -0.001850 0.010335 -0.003259 0.000000 0.000000 0.000000
# 3 -0.002447 -0.003259 0.014061 0.000000 0.000000 0.000000
# 4 0.000000 0.000000 0.000000 0.023591 0.000000 0.000000
# 5 0.000000 0.000000 0.000000 0.000000 0.023627 0.000000
# 6 0.000000 0.000000 0.000000 0.000000 0.000000 0.033579
#
#
# Mechanical properties :
#
#
# Convention : Reuss Voigt Hill
#
# Bulk Modulus (GPa) = 53.99278 55.37102 54.68190
# Shear Modulus (GPa) = 36.84198 38.02845 37.43522
#
# Velocity S-wave (km/s) = 4.09420 4.15960 4.12703
# Velocity P-wave (km/s) = 6.84951 6.94713 6.89849
#
# Compressibility (1/GPa) = 0.01852099
#
# Stress axis : x y z
#
# Youngs Moduli (GPa) = 108.27573 96.75452 71.11647
#
# Poissons Ratio (x) = 0.17897 0.17405
# Poissons Ratio (y) = 0.20028 0.23174
# Poissons Ratio (z) = 0.26500 0.31529
#
# Static dielectric constant tensor:
#      x y z
#    x 1.820250 0.000000 0.000000 
#    y 0.000000 1.818030 0.000000 
#    z 0.000000 0.000000 1.814010 
# 
# From -- ./inp_files/9220.got.cif
#   From: 2010.05.17/outbox.cif.g08.bks.cpg/sg50_5_cif.got.tgz:9220.got - 2010.06.03 11:33:33.
