data_PCOD9398987
_publ_section_title
;
Structure prediction by ZEFSAII (Michael W. Deem and Ramdas Pophale) SiO2 
 PCOD9398987
Probable space group: P M M A
;
_chemical_formula_sum "Si O2"
_cell_formula_units_Z 52
_cell_length_a 9.038361
_cell_length_b 26.558254
_cell_length_c 13.240563
_cell_angle_alpha 90.000000
_cell_angle_beta 90.000000
_cell_angle_gamma 90.000000
_cell_volume 3178.305619
_symmetry_space_group_name_H-M "P M M A"
_symmetry_group_IT_number 51
_symmetry_cell_setting 'orthorhombic'
loop_
_space_group_symop_operation_xyz
x,y,z
1/2-x,-y,z
1/2+x,-y,-z
-x,y,-z
-x,-y,-z
1/2+x,y,-z
1/2-x,y,z
x,-y,z
loop_
_atom_site_type_symbol
_atom_site_label
_atom_site_fract_x
_atom_site_fract_y
_atom_site_fract_z
Si Si1 0.413935 0.725034 0.411202
Si Si2 0.925871 0.000000 0.391304
Si Si3 0.575107 0.559610 0.608458
Si Si4 0.425699 0.645816 0.716928
Si Si5 0.928762 0.887616 0.386608
Si Si6 0.917662 0.192086 0.760713
Si Si7 0.427579 0.273409 0.891959
O O1 0.500000 0.752430 0.500000
O O2 0.250000 0.708820 0.441212
O O3 0.514190 0.679072 0.376040
O O4 0.402383 0.763034 0.319830
O O5 0.962680 0.055116 0.348727
O O6 0.000000 0.000000 0.500000
O O7 0.750000 0.000000 0.403530
O O8 0.500000 0.571269 0.500000
O O9 0.750000 0.569830 0.601725
O O10 0.553651 0.500000 0.626130
O O11 0.504463 0.592718 0.697890
O O12 0.250000 0.640006 0.713192
O O13 0.462156 0.679975 0.815332
O O14 0.750000 0.881041 0.394997
O O15 0.000000 0.881503 0.500000
O O16 0.996529 0.850509 0.302624
O O17 0.750000 0.176654 0.790492
O O18 0.007271 0.220615 0.848931
O O19 0.250000 0.269842 0.897872
O O20 0.500000 0.283267 0.000000
#
# Coordination Sequence:
#
# PCOD9398987 Si02
#       7
#     8   4   8   8   8   8   8
#     4  10  19  29  42  62  92 126 157 190 229 277
#     4   8  16  28  42  62  91 130 171 206 240 280
#     4  10  20  33  50  73 102 135 167 198 233 275
#     4  10  20  33  50  71  95 124 158 195 236 282
#     4  10  18  29  45  67  98 134 170 206 243 285
#     4  10  20  32  47  69  95 125 160 198 241 289
#     4  10  21  37  56  76  97 123 156 198 247 296
#
# _framework density 16.360918999999999
#
# number of rings (size 3 to 8) (size 9 to 14) (size 15 to 20)
#    0.000    2.154    0.000    3.692    0.000    6.462 
#    0.000    0.000    0.000    0.462    0.000    0.538 
#    0.000    0.000    0.000    0.000    0.000    0.000 
#
# Total GULP energy -289544.372869 kJ/mol
# GULP energy per Si atom -5568.161017 kJ/mol
# Density = 1.632368 g / cm^3
# Si number density = 16.360919 Si / 1000 Ang^3
#
#
#
# Elastic Constant Matrix: (Units=GPa)
#
#
# Indices 1 2 3 4 5 6 
#
# 1 99.9716 61.5118 57.6227 0.0000 0.0000 0.0000
# 2 61.5118 107.3272 38.5697 0.0000 0.0000 0.0000
# 3 57.6227 38.5697 74.8268 0.0000 0.0000 0.0000
# 4 0.0000 0.0000 0.0000 16.6674 0.0000 0.0000
# 5 0.0000 0.0000 0.0000 0.0000 24.2584 0.0000
# 6 0.0000 0.0000 0.0000 0.0000 0.0000 -86.2752
#
#
#
# Elastic Compliance Matrix: (Units=1/GPa)
#
#
# Indices 1 2 3 4 5 6 
#
# 1 0.022714 -0.008262 -0.013233 0.000000 0.000000 0.000000
# 2 -0.008262 0.014441 -0.001081 0.000000 0.000000 0.000000
# 3 -0.013233 -0.001081 0.024111 0.000000 0.000000 0.000000
# 4 0.000000 0.000000 0.000000 0.059997 0.000000 0.000000
# 5 0.000000 0.000000 0.000000 0.000000 0.041223 0.000000
# 6 0.000000 0.000000 0.000000 0.000000 0.000000 -0.011591
#
#
# Mechanical properties :
#
#
# Convention : Reuss Voigt Hill
#
# Bulk Modulus (GPa) = 62.05592 66.39266 64.22429
# Shear Modulus (GPa) = 24.82383 -0.77512 12.02436
#
# Velocity S-wave (km/s) = 3.89943 -0.68905 2.71393
# Velocity P-wave (km/s) = 7.63451 6.32733 7.01145
#
# Compressibility (1/GPa) = 0.01611450
#
# Stress axis : x y z
#
# Youngs Moduli (GPa) = 44.02615 69.24635 41.47403
#
# Poissons Ratio (x) = 0.57215 0.54881
# Poissons Ratio (y) = 0.36377 0.04483
# Poissons Ratio (z) = 0.58258 0.07485
#
# Static dielectric constant tensor:
#      x y z
#    x 1.576820 0.000000 0.000000 
#    y 0.000000 1.588660 0.000000 
#    z 0.000000 0.000000 1.550230 
# 
# From -- ./inp_files/14592.got.cif
#   From: 2010.05.17/outbox.cif.g08.bks.cpg/sg51_8_cif.got.tgz:14592.got - 2010.06.03 11:52:47.
