data_PCOD9398049
_publ_section_title
;
Structure prediction by ZEFSAII (Michael W. Deem and Ramdas Pophale) SiO2 
 PCOD9398049
Probable space group: P B A N
;
_chemical_formula_sum "Si O2"
_cell_formula_units_Z 26
_cell_length_a 7.706291
_cell_length_b 16.832850
_cell_length_c 7.614716
_cell_angle_alpha 90.000000
_cell_angle_beta 90.000000
_cell_angle_gamma 90.000000
_cell_volume 987.772130
_symmetry_space_group_name_H-M "P B A N"
_symmetry_group_IT_number 50
_space_group.IT_coordinate_system_code '2'
_symmetry_cell_setting 'orthorhombic'
loop_
_space_group_symop_operation_xyz
x,y,z
1/2-x,1/2-y,z
x,1/2-y,-z
1/2-x,y,-z
-x,-y,-z
1/2+x,1/2+y,-z
-x,1/2+y,z
1/2+x,-y,z
loop_
_atom_site_type_symbol
_atom_site_label
_atom_site_fract_x
_atom_site_fract_y
_atom_site_fract_z
Si Si1 0.125412 0.079452 0.157180
Si Si2 0.539537 0.156069 0.503991
Si Si3 0.250000 0.750000 0.000000
Si Si4 0.399265 0.903862 0.834730
O O1 0.061680 0.126635 0.325588
O O2 0.177909 0.990522 0.213571
O O3 0.250000 0.111923 0.000000
O O4 0.954101 0.077704 0.034364
O O5 0.518381 0.250000 0.500000
O O6 0.750000 0.138280 0.500000
O O7 0.470950 0.112220 0.328449
O O8 0.334722 0.686849 0.134556
#
# Coordination Sequence:
#
# PCOD9398049 Si02
#       4
#     8   8   2   8
#     4  11  25  44  67 108 152 194 245 319 398 457
#     4  11  24  44  74 108 143 196 263 317 377 469
#     4  12  20  44  76 104 144 208 264 318 386 480
#     4  11  23  42  70 102 145 190 248 312 382 464
#
# _framework density 26.321860999999998
#
# number of rings (size 3 to 8) (size 9 to 14) (size 15 to 20)
#    0.000    0.923    1.538    6.462    4.308    1.231 
#    0.000    8.462    0.000    0.000    0.000    0.000 
#    0.000    0.000    0.000    0.000    0.000    0.000 
#
# Total GULP energy -144748.661809 kJ/mol
# GULP energy per Si atom -5567.256223 kJ/mol
# Density = 2.626195 g / cm^3
# Si number density = 26.321861 Si / 1000 Ang^3
#
#
#
# Elastic Constant Matrix: (Units=GPa)
#
#
# Indices 1 2 3 4 5 6 
#
# 1 72.0844 83.9166 43.8162 0.0000 0.0000 0.0000
# 2 83.9166 193.3934 98.9528 0.0000 0.0000 0.0000
# 3 43.8162 98.9528 260.0062 0.0000 0.0000 0.0000
# 4 0.0000 0.0000 0.0000 55.0224 0.0000 0.0000
# 5 0.0000 0.0000 0.0000 0.0000 39.4641 0.0000
# 6 0.0000 0.0000 0.0000 0.0000 0.0000 22.0706
#
#
#
# Elastic Compliance Matrix: (Units=1/GPa)
#
#
# Indices 1 2 3 4 5 6 
#
# 1 0.028036 -0.012105 -0.000118 0.000000 0.000000 0.000000
# 2 -0.012105 0.011648 -0.002393 0.000000 0.000000 0.000000
# 3 -0.000118 -0.002393 0.004777 0.000000 0.000000 0.000000
# 4 0.000000 0.000000 0.000000 0.018174 0.000000 0.000000
# 5 0.000000 0.000000 0.000000 0.000000 0.025339 0.000000
# 6 0.000000 0.000000 0.000000 0.000000 0.000000 0.045309
#
#
# Mechanical properties :
#
#
# Convention : Reuss Voigt Hill
#
# Bulk Modulus (GPa) = 65.66379 108.76170 87.21274
# Shear Modulus (GPa) = 29.83434 43.23130 36.53282
#
# Velocity S-wave (km/s) = 3.37032 4.05706 3.72953
# Velocity P-wave (km/s) = 6.33609 7.95965 7.19382
#
# Compressibility (1/GPa) = 0.01522909
#
# Stress axis : x y z
#
# Youngs Moduli (GPa) = 35.66791 85.85265 209.35374
#
# Poissons Ratio (x) = 1.03927 0.02464
# Poissons Ratio (y) = 0.43177 0.50097
# Poissons Ratio (z) = 0.00420 0.20544
#
# Static dielectric constant tensor:
#      x y z
#    x 2.957860 0.000000 0.000000 
#    y 0.000000 2.005320 0.000000 
#    z 0.000000 0.000000 2.152740 
# 
# From -- ./inp_files/8713.got.cif
#   From: 2010.05.17/outbox.cif.g08.bks.cpg/sg50_5_cif.got.tgz:8713.got - 2010.06.03 11:33:33.
