data_PCOD9398119
_publ_section_title
;
Structure prediction by ZEFSAII (Michael W. Deem and Ramdas Pophale) SiO2 
 PCOD9398119
Probable space group: P B A N
;
_chemical_formula_sum "Si O2"
_cell_formula_units_Z 34
_cell_length_a 17.468016
_cell_length_b 18.057866
_cell_length_c 4.984697
_cell_angle_alpha 90.000000
_cell_angle_beta 90.000000
_cell_angle_gamma 90.000000
_cell_volume 1572.348358
_symmetry_space_group_name_H-M "P B A N"
_symmetry_group_IT_number 50
_space_group.IT_coordinate_system_code '2'
_symmetry_cell_setting 'orthorhombic'
loop_
_space_group_symop_operation_xyz
x,y,z
1/2-x,1/2-y,z
x,1/2-y,-z
1/2-x,y,-z
-x,-y,-z
1/2+x,1/2+y,-z
-x,1/2+y,z
1/2+x,-y,z
loop_
_atom_site_type_symbol
_atom_site_label
_atom_site_fract_x
_atom_site_fract_y
_atom_site_fract_z
Si Si1 0.455226 0.578251 0.520111
Si Si2 0.000482 0.332513 0.029854
Si Si3 0.170455 0.143890 0.148103
Si Si4 0.250000 0.250000 0.500000
Si Si5 0.802573 0.024313 0.754193
O O1 0.500000 0.500000 0.500000
O O2 0.459444 0.610169 0.821980
O O3 0.372379 0.568895 0.379244
O O4 0.495371 0.637781 0.330287
O O5 0.089988 0.330898 0.962088
O O6 0.967854 0.250000 0.000000
O O7 0.186264 0.187383 0.418704
O O8 0.166937 0.055275 0.149079
O O9 0.250000 0.165811 0.000000
O O10 0.750000 0.007141 0.500000
O O11 0.750000 0.055074 0.000000
#
# Coordination Sequence:
#
# PCOD9398119 Si02
#       5
#     8   8   8   2   8
#     4  12  26  45  71 102 140 182 235 291 341 413
#     4  12  27  44  69 101 145 185 228 289 355 410
#     4  11  25  37  62  94 145 184 226 259 331 424
#     4  12  22  40  56  98 144 192 218 252 330 436
#     4  11  24  43  69  98 132 177 231 282 339 403
#
# _framework density 21.623709000000002
#
# number of rings (size 3 to 8) (size 9 to 14) (size 15 to 20)
#    0.000    0.471    3.529    4.588   13.176    0.000 
#    0.000    0.000    0.000   10.588    0.000    0.000 
#    0.000    0.000    0.000    0.000    0.000    0.000 
#
# Total GULP energy -189594.322043 kJ/mol
# GULP energy per Si atom -5576.303589 kJ/mol
# Density = 2.157449 g / cm^3
# Si number density = 21.623709 Si / 1000 Ang^3
#
#
#
# Elastic Constant Matrix: (Units=GPa)
#
#
# Indices 1 2 3 4 5 6 
#
# 1 78.4151 0.7122 -9.7226 0.0000 0.0000 0.0000
# 2 0.7122 66.4692 -11.5679 0.0000 0.0000 0.0000
# 3 -9.7226 -11.5679 52.5869 0.0000 0.0000 0.0000
# 4 0.0000 0.0000 0.0000 62.2936 0.0000 0.0000
# 5 0.0000 0.0000 0.0000 0.0000 38.2440 0.0000
# 6 0.0000 0.0000 0.0000 0.0000 0.0000 28.3995
#
#
#
# Elastic Compliance Matrix: (Units=1/GPa)
#
#
# Indices 1 2 3 4 5 6 
#
# 1 0.013057 0.000291 0.002478 0.000000 0.000000 0.000000
# 2 0.000291 0.015650 0.003496 0.000000 0.000000 0.000000
# 3 0.002478 0.003496 0.020243 0.000000 0.000000 0.000000
# 4 0.000000 0.000000 0.000000 0.016053 0.000000 0.000000
# 5 0.000000 0.000000 0.000000 0.000000 0.026148 0.000000
# 6 0.000000 0.000000 0.000000 0.000000 0.000000 0.035212
#
#
# Mechanical properties :
#
#
# Convention : Reuss Voigt Hill
#
# Bulk Modulus (GPa) = 16.26470 17.36830 16.81650
# Shear Modulus (GPa) = 37.22299 40.32405 38.77352
#
# Velocity S-wave (km/s) = 4.15347 4.32303 4.23910
# Velocity P-wave (km/s) = 5.52628 5.74174 5.63504
#
# Compressibility (1/GPa) = 0.06148283
#
# Stress axis : x y z
#
# Youngs Moduli (GPa) = 76.58567 63.89801 49.39866
#
# Poissons Ratio (x) = -0.01862 -0.12242
# Poissons Ratio (y) = -0.02232 -0.17272
# Poissons Ratio (z) = -0.18979 -0.22342
#
# Static dielectric constant tensor:
#      x y z
#    x 1.836520 0.000000 0.000000 
#    y 0.000000 1.785510 0.000000 
#    z 0.000000 0.000000 1.923300 
# 
# From -- ./inp_files/3239.got.cif
#   From: 2010.05.17/outbox.cif.g08.bks.cpg/sg50_2_cif.got.tgz:3239.got - 2010.06.03 11:33:33.
