data_PCOD9398582
_publ_section_title
;
Structure prediction by ZEFSAII (Michael W. Deem and Ramdas Pophale) SiO2 
 PCOD9398582
Probable space group: P M M A
;
_chemical_formula_sum "Si O2"
_cell_formula_units_Z 64
_cell_length_a 8.910728
_cell_length_b 20.970528
_cell_length_c 20.394840
_cell_angle_alpha 90.000000
_cell_angle_beta 90.000000
_cell_angle_gamma 90.000000
_cell_volume 3811.034278
_symmetry_space_group_name_H-M "P M M A"
_symmetry_group_IT_number 51
_symmetry_cell_setting 'orthorhombic'
loop_
_space_group_symop_operation_xyz
x,y,z
1/2-x,-y,z
1/2+x,-y,-z
-x,y,-z
-x,-y,-z
1/2+x,y,-z
1/2-x,y,z
x,-y,z
loop_
_atom_site_type_symbol
_atom_site_label
_atom_site_fract_x
_atom_site_fract_y
_atom_site_fract_z
Si Si1 0.069337 0.687350 0.163823
Si Si2 0.430796 0.192112 0.071748
Si Si3 0.575691 0.895674 0.432129
Si Si4 0.932307 0.069278 0.846652
Si Si5 0.569674 0.885063 0.703702
Si Si6 0.069364 0.426504 0.070053
Si Si7 0.923034 0.259754 0.434078
Si Si8 0.931255 0.256239 0.291333
O O1 0.250000 0.687512 0.173868
O O2 0.032916 0.746181 0.115437
O O3 0.025455 0.622454 0.126921
O O4 0.987972 0.700781 0.232064
O O5 0.250000 0.189436 0.066334
O O6 0.484211 0.128859 0.110203
O O7 0.500000 0.196231 0.000000
O O8 0.500000 0.917813 0.500000
O O9 0.750000 0.913803 0.430686
O O10 0.495012 0.913261 0.364056
O O11 0.567661 0.817872 0.433118
O O12 0.750000 0.070485 0.849110
O O13 0.970854 0.077844 0.770080
O O14 0.983715 0.000000 0.870408
O O15 0.750000 0.881593 0.698545
O O16 0.503624 0.814065 0.714296
O O17 0.250000 0.423767 0.064334
O O18 0.026187 0.500000 0.083296
O O19 0.000000 0.407816 0.000000
O O20 0.750000 0.276967 0.438170
O O21 0.980647 0.281174 0.363134
O O22 0.000000 0.282623 0.500000
O O23 0.750000 0.250202 0.291250
#
# Coordination Sequence:
#
# PCOD9398582 Si02
#       8
#     8   8   8   8   8   8   8   8
#     4  10  19  32  49  71  98 128 163 195 234 285
#     4  10  20  34  50  71  93 118 152 192 236 286
#     4   9  16  26  41  65  93 121 154 192 236 285
#     4   9  18  33  51  68  89 119 155 194 240 294
#     4  10  17  29  48  67  90 121 156 195 242 290
#     4   9  18  32  50  72 100 132 165 200 237 283
#     4   8  15  25  37  58  88 121 152 185 224 273
#     4  10  19  29  44  68  97 125 159 199 240 281
#
# _framework density 16.793343
#
# number of rings (size 3 to 8) (size 9 to 14) (size 15 to 20)
#    0.000    2.625    1.250    2.250    0.000    4.750 
#    0.000    0.000    0.000    3.375    0.000    0.000 
#    0.000    0.500    0.000    1.125    0.000    1.875 
#
# Total GULP energy -356754.226986 kJ/mol
# GULP energy per Si atom -5574.284797 kJ/mol
# Density = 1.675512 g / cm^3
# Si number density = 16.793343 Si / 1000 Ang^3
#
#
#
# Elastic Constant Matrix: (Units=GPa)
#
#
# Indices 1 2 3 4 5 6 
#
# 1 34.9862 18.7864 40.5832 0.0000 0.0000 0.0000
# 2 18.7864 60.9058 48.6997 0.0000 0.0000 0.0000
# 3 40.5832 48.6997 146.9768 0.0000 0.0000 0.0000
# 4 0.0000 0.0000 0.0000 -4.6757 0.0000 0.0000
# 5 0.0000 0.0000 0.0000 0.0000 34.1628 0.0000
# 6 0.0000 0.0000 0.0000 0.0000 0.0000 -11.8709
#
#
#
# Elastic Compliance Matrix: (Units=1/GPa)
#
#
# Indices 1 2 3 4 5 6 
#
# 1 0.043209 -0.005153 -0.010223 0.000000 0.000000 0.000000
# 2 -0.005153 0.022951 -0.006182 0.000000 0.000000 0.000000
# 3 -0.010223 -0.006182 0.011675 0.000000 0.000000 0.000000
# 4 0.000000 0.000000 0.000000 -0.213870 0.000000 0.000000
# 5 0.000000 0.000000 0.000000 0.000000 0.029272 0.000000
# 6 0.000000 0.000000 0.000000 0.000000 0.000000 -0.084240
#
#
# Mechanical properties :
#
#
# Convention : Reuss Voigt Hill
#
# Bulk Modulus (GPa) = 28.80342 51.00082 39.90212
# Shear Modulus (GPa) = -36.67998 12.50986 -12.08506
#
# Velocity S-wave (km/s) = -4.67861 2.73230 -2.68551
# Velocity P-wave (km/s) = 3.46366 6.35528 3.76780
#
# Compressibility (1/GPa) = 0.03471810
#
# Stress axis : x y z
#
# Youngs Moduli (GPa) = 23.14352 43.57060 85.65360
#
# Poissons Ratio (x) = 0.22453 0.87566
# Poissons Ratio (y) = 0.11927 0.52949
# Poissons Ratio (z) = 0.23660 0.26935
#
# Static dielectric constant tensor:
#      x y z
#    x 1.556050 0.000000 0.000000 
#    y 0.000000 1.566270 0.000000 
#    z 0.000000 0.000000 1.573590 
# 
# From -- ./inp_files/28484.got.cif
#   From: 2010.05.17/outbox.cif.g08.bks.cpg/sg51_15_cif.got.tgz:28484.got - 2010.06.03 11:52:47.
