data_PCOD9398356
_publ_section_title
;
Structure prediction by ZEFSAII (Michael W. Deem and Ramdas Pophale) SiO2 
 PCOD9398356
Probable space group: P M M A
;
_chemical_formula_sum "Si O2"
_cell_formula_units_Z 44
_cell_length_a 8.724875
_cell_length_b 28.969708
_cell_length_c 10.225479
_cell_angle_alpha 90.000000
_cell_angle_beta 90.000000
_cell_angle_gamma 90.000000
_cell_volume 2584.562225
_symmetry_space_group_name_H-M "P M M A"
_symmetry_group_IT_number 51
_symmetry_cell_setting 'orthorhombic'
loop_
_space_group_symop_operation_xyz
x,y,z
1/2-x,-y,z
1/2+x,-y,-z
-x,y,-z
-x,-y,-z
1/2+x,y,-z
1/2-x,y,z
x,-y,z
loop_
_atom_site_type_symbol
_atom_site_label
_atom_site_fract_x
_atom_site_fract_y
_atom_site_fract_z
Si Si1 0.066530 0.946534 0.643198
Si Si2 0.066388 0.406327 0.352642
Si Si3 0.933749 0.877584 0.857041
Si Si4 0.432764 0.500000 0.648624
Si Si5 0.934621 0.303805 0.646235
Si Si6 0.434856 0.771061 0.142732
O O1 0.250000 0.942870 0.640050
O O2 0.000000 0.935928 0.500000
O O3 0.999075 0.912132 0.749844
O O4 0.026227 0.000000 0.673220
O O5 0.250000 0.411697 0.356988
O O6 0.028345 0.355301 0.299995
O O7 0.000000 0.404641 0.500000
O O8 0.993523 0.452179 0.290207
O O9 0.750000 0.880417 0.860144
O O10 0.977406 0.824243 0.827850
O O11 0.000000 0.888739 0.000000
O O12 0.250000 0.500000 0.642418
O O13 0.500000 0.500000 0.500000
O O14 0.750000 0.301565 0.636050
O O15 0.987476 0.264203 0.745365
O O16 0.000000 0.298488 0.500000
O O17 0.250000 0.768882 0.136694
O O18 0.500000 0.759344 0.000000
#
# Coordination Sequence:
#
# PCOD9398356 Si02
#       6
#     8   8   8   4   8   8
#     4  10  21  37  56  78 105 136 169 205 247 295
#     4   9  15  24  38  57  84 117 150 187 230 277
#     4  10  20  35  55  77 103 133 168 209 249 293
#     4  10  16  22  34  54  83 116 149 186 228 278
#     4   9  18  31  47  69  97 125 158 198 239 285
#     4   9  19  35  52  73  99 129 164 201 242 289
#
# _framework density 17.024160999999999
#
# number of rings (size 3 to 8) (size 9 to 14) (size 15 to 20)
#    0.000    2.545    0.000    3.545    0.000    4.364 
#    0.000    1.818    0.000    0.000    0.000    0.636 
#    0.000    0.000    0.000    0.000    0.000    0.000 
#
# Total GULP energy -245208.607781 kJ/mol
# GULP energy per Si atom -5572.922904 kJ/mol
# Density = 1.698541 g / cm^3
# Si number density = 17.024161 Si / 1000 Ang^3
#
#
#
# Elastic Constant Matrix: (Units=GPa)
#
#
# Indices 1 2 3 4 5 6 
#
# 1 55.6531 53.2444 36.6073 0.0000 0.0000 0.0000
# 2 53.2444 155.8737 107.4888 0.0000 0.0000 0.0000
# 3 36.6073 107.4888 94.6105 0.0000 0.0000 0.0000
# 4 0.0000 0.0000 0.0000 -29.8051 0.0000 0.0000
# 5 0.0000 0.0000 0.0000 0.0000 25.1026 0.0000
# 6 0.0000 0.0000 0.0000 0.0000 0.0000 12.0382
#
#
#
# Elastic Compliance Matrix: (Units=1/GPa)
#
#
# Indices 1 2 3 4 5 6 
#
# 1 0.026692 -0.009216 0.000143 0.000000 0.000000 0.000000
# 2 -0.009216 0.032809 -0.033709 0.000000 0.000000 0.000000
# 3 0.000143 -0.033709 0.048811 0.000000 0.000000 0.000000
# 4 0.000000 0.000000 0.000000 -0.033551 0.000000 0.000000
# 5 0.000000 0.000000 0.000000 0.000000 0.039836 0.000000
# 6 0.000000 0.000000 0.000000 0.000000 0.000000 0.083069
#
#
# Mechanical properties :
#
#
# Convention : Reuss Voigt Hill
#
# Bulk Modulus (GPa) = 43.95986 77.86869 60.91427
# Shear Modulus (GPa) = 17.19325 8.72025 12.95675
#
# Velocity S-wave (km/s) = 3.18139 2.26570 2.76176
# Velocity P-wave (km/s) = 6.27480 7.25837 6.78443
#
# Compressibility (1/GPa) = 0.02274803
#
# Stress axis : x y z
#
# Youngs Moduli (GPa) = 37.46487 30.47990 20.48704
#
# Poissons Ratio (x) = 0.28090 -0.00292
# Poissons Ratio (y) = 0.34527 0.69059
# Poissons Ratio (z) = -0.00535 1.02743
#
# Static dielectric constant tensor:
#      x y z
#    x 1.571550 0.000000 0.000000 
#    y 0.000000 1.627730 0.000000 
#    z 0.000000 0.000000 1.531220 
# 
# From -- ./inp_files/5814.got.cif
#   From: 2010.05.17/outbox.cif.g08.bks.cpg/sg51_3_cif.got.tgz:5814.got - 2010.06.03 11:52:47.
