data_PCOD9398499
_publ_section_title
;
Structure prediction by ZEFSAII (Michael W. Deem and Ramdas Pophale) SiO2 
 PCOD9398499
Probable space group: P M M A
;
_chemical_formula_sum "Si O2"
_cell_formula_units_Z 64
_cell_length_a 14.923839
_cell_length_b 22.739990
_cell_length_c 9.591281
_cell_angle_alpha 90.000000
_cell_angle_beta 90.000000
_cell_angle_gamma 90.000000
_cell_volume 3254.973367
_symmetry_space_group_name_H-M "P M M A"
_symmetry_group_IT_number 51
_symmetry_cell_setting 'orthorhombic'
loop_
_space_group_symop_operation_xyz
x,y,z
1/2-x,-y,z
1/2+x,-y,-z
-x,y,-z
-x,-y,-z
1/2+x,y,-z
1/2-x,y,z
x,-y,z
loop_
_atom_site_type_symbol
_atom_site_label
_atom_site_fract_x
_atom_site_fract_y
_atom_site_fract_z
Si Si1 0.401803 0.564480 0.575373
Si Si2 0.641020 0.933352 0.132141
Si Si3 0.599038 0.172974 0.328564
Si Si4 0.388826 0.198515 0.369456
Si Si5 0.026705 0.378821 0.846096
Si Si6 0.351640 0.839022 0.076680
Si Si7 0.411806 0.669661 0.401570
Si Si8 0.852716 0.734737 0.099807
O O1 0.500000 0.561232 0.500000
O O2 0.360329 0.500000 0.559510
O O3 0.419297 0.579428 0.737838
O O4 0.360791 0.620169 0.492837
O O5 0.750000 0.936268 0.136864
O O6 0.609261 0.889272 0.252885
O O7 0.607708 0.000000 0.139756
O O8 0.612104 0.898136 0.992160
O O9 0.495562 0.191771 0.344169
O O10 0.636885 0.171875 0.483110
O O11 0.644115 0.223358 0.235291
O O12 0.349762 0.163825 0.240348
O O13 0.366745 0.267819 0.374044
O O14 0.087092 0.321805 0.876664
O O15 0.944777 0.357055 0.746319
O O16 0.000000 0.402472 0.000000
O O17 0.250000 0.835053 0.022691
O O18 0.392296 0.778138 0.019415
O O19 0.500000 0.682995 0.500000
O O20 0.750000 0.717204 0.069417
#
# Coordination Sequence:
#
# PCOD9398499 Si02
#       8
#     8   8   8   8   8   8   8   8
#     4   8  16  29  45  67  97 128 163 207 244 291
#     4   9  19  38  56  69  94 135 175 204 243 299
#     4  10  19  31  51  75  99 133 163 206 251 303
#     4  11  18  31  49  77 107 130 161 204 264 302
#     4  10  17  26  46  72  94 125 163 208 253 297
#     4   9  20  33  49  73 100 131 167 209 251 299
#     4   9  15  28  45  67  99 131 161 186 249 306
#     4  10  19  31  46  71 102 131 167 206 251 310
#
# _framework density 19.662220000000001
#
# number of rings (size 3 to 8) (size 9 to 14) (size 15 to 20)
#    0.000    2.750    2.500    2.625    0.000    2.750 
#    0.000    3.125    0.000    1.875    0.000    0.000 
#    0.000    5.000    0.000    0.000    0.000    0.000 
#
# Total GULP energy -356526.741905 kJ/mol
# GULP energy per Si atom -5570.730342 kJ/mol
# Density = 1.961747 g / cm^3
# Si number density = 19.662220 Si / 1000 Ang^3
#
#
#
# Elastic Constant Matrix: (Units=GPa)
#
#
# Indices 1 2 3 4 5 6 
#
# 1 40.6061 7.0096 -1.2577 0.0000 0.0000 0.0000
# 2 7.0096 137.4866 35.3273 0.0000 0.0000 0.0000
# 3 -1.2577 35.3273 133.2519 0.0000 0.0000 0.0000
# 4 0.0000 0.0000 0.0000 11.0012 0.0000 0.0000
# 5 0.0000 0.0000 0.0000 0.0000 12.6836 0.0000
# 6 0.0000 0.0000 0.0000 0.0000 0.0000 1.2143
#
#
#
# Elastic Compliance Matrix: (Units=1/GPa)
#
#
# Indices 1 2 3 4 5 6 
#
# 1 0.024892 -0.001427 0.000613 0.000000 0.000000 0.000000
# 2 -0.001427 0.007887 -0.002104 0.000000 0.000000 0.000000
# 3 0.000613 -0.002104 0.008068 0.000000 0.000000 0.000000
# 4 0.000000 0.000000 0.000000 0.090899 0.000000 0.000000
# 5 0.000000 0.000000 0.000000 0.000000 0.078842 0.000000
# 6 0.000000 0.000000 0.000000 0.000000 0.000000 0.823516
#
#
# Mechanical properties :
#
#
# Convention : Reuss Voigt Hill
#
# Bulk Modulus (GPa) = 28.56205 43.72257 36.14231
# Shear Modulus (GPa) = 4.75461 22.99752 13.87607
#
# Velocity S-wave (km/s) = 1.55673 3.42370 2.65943
# Velocity P-wave (km/s) = 4.21771 6.15744 5.27746
#
# Compressibility (1/GPa) = 0.03501150
#
# Stress axis : x y z
#
# Youngs Moduli (GPa) = 40.17341 126.79251 123.94204
#
# Poissons Ratio (x) = 0.18089 -0.07600
# Poissons Ratio (y) = 0.05731 0.26083
# Poissons Ratio (z) = -0.02463 0.26682
#
# Static dielectric constant tensor:
#      x y z
#    x 1.754200 0.000000 0.000000 
#    y 0.000000 1.704030 0.000000 
#    z 0.000000 0.000000 1.717260 
# 
# From -- ./inp_files/10101.got.cif
#   From: 2010.05.17/outbox.cif.g08.bks.cpg/sg51_6_cif.got.tgz:10101.got - 2010.06.03 11:52:47.
