data_PCOD9398951
_publ_section_title
;
Structure prediction by ZEFSAII (Michael W. Deem and Ramdas Pophale) SiO2 
 PCOD9398951
Probable space group: P M M A
;
_chemical_formula_sum "Si O2"
_cell_formula_units_Z 64
_cell_length_a 19.721282
_cell_length_b 7.430657
_cell_length_c 21.416205
_cell_angle_alpha 90.000000
_cell_angle_beta 90.000000
_cell_angle_gamma 90.000000
_cell_volume 3138.375272
_symmetry_space_group_name_H-M "P M M A"
_symmetry_group_IT_number 51
_symmetry_cell_setting 'orthorhombic'
loop_
_space_group_symop_operation_xyz
x,y,z
1/2-x,-y,z
1/2+x,-y,-z
-x,y,-z
-x,-y,-z
1/2+x,y,-z
1/2-x,y,z
x,-y,z
loop_
_atom_site_type_symbol
_atom_site_label
_atom_site_fract_x
_atom_site_fract_y
_atom_site_fract_z
Si Si1 0.332642 0.289374 0.045743
Si Si2 0.827258 0.786234 0.225084
Si Si3 0.085404 0.786545 0.303795
Si Si4 0.566521 0.220658 0.327248
Si Si5 0.671945 0.283423 0.087915
Si Si6 0.827616 0.779818 0.578174
Si Si7 0.928225 0.780778 0.470375
Si Si8 0.827523 0.283267 0.818068
O O1 0.250000 0.281698 0.044037
O O2 0.351912 0.500000 0.046611
O O3 0.351023 0.214248 0.113697
O O4 0.356655 0.216246 0.978560
O O5 0.750000 0.712986 0.226969
O O6 0.876328 0.716653 0.278998
O O7 0.857660 0.759756 0.155548
O O8 0.822029 0.000000 0.234037
O O9 0.131268 0.717523 0.360849
O O10 0.123086 0.759421 0.238493
O O11 0.008546 0.718884 0.306852
O O12 0.080308 0.000000 0.314141
O O13 0.578633 0.276036 0.398759
O O14 0.567352 0.000000 0.326242
O O15 0.750000 0.218127 0.091292
O O16 0.673739 0.500000 0.083483
O O17 0.750000 0.720704 0.579374
O O18 0.868051 0.724667 0.516276
O O19 0.827130 0.000000 0.578962
O O20 0.000000 0.724197 0.500000
O O21 0.928967 0.000000 0.470084
O O22 0.750000 0.220676 0.806010
O O23 0.824162 0.500000 0.822769
#
# Coordination Sequence:
#
# PCOD9398951 Si02
#       8
#     8   8   8   8   8   8   8   8
#     4   7  11  22  41  63  85 111 144 180 218 259
#     4   9  17  28  42  64  92 116 142 182 228 269
#     4  10  18  29  44  63  90 121 150 181 219 264
#     4   9  17  28  43  61  87 123 152 177 219 271
#     4   8  13  24  44  66  86 111 144 181 221 264
#     4   9  16  24  38  63  89 110 140 186 227 255
#     4   9  14  24  40  58  82 114 147 176 213 261
#     4   9  17  29  45  66  92 119 147 182 222 262
#
# _framework density 20.392717999999999
#
# number of rings (size 3 to 8) (size 9 to 14) (size 15 to 20)
#    0.000    3.250    1.250    1.875    0.000    1.250 
#    0.000    3.750    0.000    3.000    0.000    7.875 
#    0.000    2.000    0.000    0.000    0.000    0.000 
#
# Total GULP energy -356680.089933 kJ/mol
# GULP energy per Si atom -5573.126405 kJ/mol
# Density = 2.034630 g / cm^3
# Si number density = 20.392718 Si / 1000 Ang^3
#
#
#
# Elastic Constant Matrix: (Units=GPa)
#
#
# Indices 1 2 3 4 5 6 
#
# 1 115.4834 6.5860 104.2738 0.0000 0.0000 0.0000
# 2 6.5860 62.4160 0.0569 0.0000 0.0000 0.0000
# 3 104.2738 0.0569 241.3847 0.0000 0.0000 0.0000
# 4 0.0000 0.0000 0.0000 15.7829 0.0000 0.0000
# 5 0.0000 0.0000 0.0000 0.0000 16.5535 0.0000
# 6 0.0000 0.0000 0.0000 0.0000 0.0000 -0.2098
#
#
#
# Elastic Compliance Matrix: (Units=1/GPa)
#
#
# Indices 1 2 3 4 5 6 
#
# 1 0.014337 -0.001507 -0.006193 0.000000 0.000000 0.000000
# 2 -0.001507 0.016180 0.000647 0.000000 0.000000 0.000000
# 3 -0.006193 0.000647 0.006818 0.000000 0.000000 0.000000
# 4 0.000000 0.000000 0.000000 0.063360 0.000000 0.000000
# 5 0.000000 0.000000 0.000000 0.000000 0.060410 0.000000
# 6 0.000000 0.000000 0.000000 0.000000 0.000000 -4.765311
#
#
# Mechanical properties :
#
#
# Convention : Reuss Voigt Hill
#
# Bulk Modulus (GPa) = 43.04949 71.23529 57.14239
# Shear Modulus (GPa) = -1.09114 26.98314 12.94600
#
# Velocity S-wave (km/s) = -0.73227 3.64149 2.52233
# Velocity P-wave (km/s) = 4.52118 7.25866 6.04687
#
# Compressibility (1/GPa) = 0.02322908
#
# Stress axis : x y z
#
# Youngs Moduli (GPa) = 69.74923 61.80481 146.67329
#
# Poissons Ratio (x) = 0.09315 0.90835
# Poissons Ratio (y) = 0.10512 -0.09493
# Poissons Ratio (z) = 0.43196 -0.04000
#
# Static dielectric constant tensor:
#      x y z
#    x 1.687110 0.000000 0.000000 
#    y 0.000000 1.782580 0.000000 
#    z 0.000000 0.000000 1.746230 
# 
# From -- ./inp_files/33954.got.cif
#   From: 2010.05.17/outbox.cif.g08.bks.cpg/sg51_17_cif.got.tgz:33954.got - 2010.06.03 11:52:47.
