data_PCOD9398008
_publ_section_title
;
Structure prediction by ZEFSAII (Michael W. Deem and Ramdas Pophale) SiO2 
 PCOD9398008
Probable space group: P B A N
;
_chemical_formula_sum "Si O2"
_cell_formula_units_Z 54
_cell_length_a 13.649554
_cell_length_b 12.718531
_cell_length_c 14.645281
_cell_angle_alpha 90.000000
_cell_angle_beta 90.000000
_cell_angle_gamma 90.000000
_cell_volume 2542.454110
_symmetry_space_group_name_H-M "P B A N"
_symmetry_group_IT_number 50
_space_group.IT_coordinate_system_code '2'
_symmetry_cell_setting 'orthorhombic'
loop_
_space_group_symop_operation_xyz
x,y,z
1/2-x,1/2-y,z
x,1/2-y,-z
1/2-x,y,-z
-x,-y,-z
1/2+x,1/2+y,-z
-x,1/2+y,z
1/2+x,-y,z
loop_
_atom_site_type_symbol
_atom_site_label
_atom_site_fract_x
_atom_site_fract_y
_atom_site_fract_z
Si Si1 0.361598 0.779306 0.240897
Si Si2 0.119263 0.182219 0.408046
Si Si3 0.750000 0.750000 0.000000
Si Si4 0.587560 0.145610 0.952949
Si Si5 0.581874 0.060361 0.607559
Si Si6 0.460059 0.145644 0.280806
Si Si7 0.250000 0.470203 0.500000
Si Si8 0.101176 0.090158 0.923649
O O1 0.250000 0.750000 0.217777
O O2 0.420122 0.820286 0.152113
O O3 0.364197 0.869862 0.316133
O O4 0.427291 0.683789 0.277902
O O5 0.127132 0.250000 0.500000
O O6 0.104381 0.256166 0.319455
O O7 0.211340 0.103296 0.416394
O O8 0.018053 0.118541 0.416875
O O9 0.814723 0.673864 0.938873
O O10 0.634027 0.028924 0.948264
O O11 0.633089 0.250000 0.000000
O O12 0.486988 0.123600 0.007885
O O13 0.554522 0.948265 0.649205
O O14 0.658205 0.040105 0.527693
O O15 0.433703 0.102623 0.180475
#
# Coordination Sequence:
#
# PCOD9398008 Si02
#       8
#     8   8   2   8   8   8   4   8
#     4  11  25  43  66 104 138 180 235 284 347 423
#     4  11  25  43  70  98 135 176 229 288 346 412
#     4  12  24  44  66 104 132 176 248 266 344 424
#     4  11  22  46  67  96 140 189 227 284 356 413
#     4  11  26  43  70  98 140 179 230 281 361 413
#     4  11  23  46  67  96 144 176 226 290 354 413
#     4  12  25  44  69 102 132 188 237 286 349 436
#     4  11  24  43  70 100 140 187 228 291 354 417
#
# _framework density 21.239322999999999
#
# number of rings (size 3 to 8) (size 9 to 14) (size 15 to 20)
#    0.000    0.889    5.185    0.667    2.074    3.852 
#    0.000    0.000    0.000    0.000    0.000    0.000 
#    0.000    0.000    0.000    0.000    0.000    0.000 
#
# Total GULP energy -301631.769009 kJ/mol
# GULP energy per Si atom -5585.773500 kJ/mol
# Density = 2.119098 g / cm^3
# Si number density = 21.239323 Si / 1000 Ang^3
#
#
#
# Elastic Constant Matrix: (Units=GPa)
#
#
# Indices 1 2 3 4 5 6 
#
# 1 68.7062 34.6280 19.8219 0.0000 0.0000 0.0000
# 2 34.6280 135.7701 21.7633 0.0000 0.0000 0.0000
# 3 19.8219 21.7633 72.5863 0.0000 0.0000 0.0000
# 4 0.0000 0.0000 0.0000 29.4825 0.0000 0.0000
# 5 0.0000 0.0000 0.0000 0.0000 11.7457 0.0000
# 6 0.0000 0.0000 0.0000 0.0000 0.0000 30.0879
#
#
#
# Elastic Compliance Matrix: (Units=1/GPa)
#
#
# Indices 1 2 3 4 5 6 
#
# 1 0.017566 -0.003899 -0.003628 0.000000 0.000000 0.000000
# 2 -0.003899 0.008603 -0.001515 0.000000 0.000000 0.000000
# 3 -0.003628 -0.001515 0.015222 0.000000 0.000000 0.000000
# 4 0.000000 0.000000 0.000000 0.033918 0.000000 0.000000
# 5 0.000000 0.000000 0.000000 0.000000 0.085138 0.000000
# 6 0.000000 0.000000 0.000000 0.000000 0.000000 0.033236
#
#
# Mechanical properties :
#
#
# Convention : Reuss Voigt Hill
#
# Bulk Modulus (GPa) = 42.90435 47.72102 45.31268
# Shear Modulus (GPa) = 22.77547 27.65319 25.21433
#
# Velocity S-wave (km/s) = 3.27819 3.61221 3.44925
# Velocity P-wave (km/s) = 5.87988 6.31779 6.10276
#
# Compressibility (1/GPa) = 0.02330766
#
# Stress axis : x y z
#
# Youngs Moduli (GPa) = 56.92687 116.24479 65.69611
#
# Poissons Ratio (x) = 0.45321 0.23835
# Poissons Ratio (y) = 0.22194 0.09950
# Poissons Ratio (z) = 0.20654 0.17607
#
# Static dielectric constant tensor:
#      x y z
#    x 1.761240 0.000000 0.000000 
#    y 0.000000 1.799330 0.000000 
#    z 0.000000 0.000000 1.797070 
# 
# From -- ./inp_files/26518.got.cif
#   From: 2010.05.17/outbox.cif.g08.bks.cpg/sg50_14_cif.got.tgz:26518.got - 2010.06.03 11:33:33.
