data_PCOD9398660
_publ_section_title
;
Structure prediction by ZEFSAII (Michael W. Deem and Ramdas Pophale) SiO2 
 PCOD9398660
Probable space group: P M M A
;
_chemical_formula_sum "Si O2"
_cell_formula_units_Z 56
_cell_length_a 25.533711
_cell_length_b 7.518208
_cell_length_c 16.857606
_cell_angle_alpha 90.000000
_cell_angle_beta 90.000000
_cell_angle_gamma 90.000000
_cell_volume 3236.116699
_symmetry_space_group_name_H-M "P M M A"
_symmetry_group_IT_number 51
_symmetry_cell_setting 'orthorhombic'
loop_
_space_group_symop_operation_xyz
x,y,z
1/2-x,-y,z
1/2+x,-y,-z
-x,y,-z
-x,-y,-z
1/2+x,y,-z
1/2-x,y,z
x,-y,z
loop_
_atom_site_type_symbol
_atom_site_label
_atom_site_fract_x
_atom_site_fract_y
_atom_site_fract_z
Si Si1 0.808182 0.212386 0.916001
Si Si2 0.083395 0.217118 0.018758
Si Si3 0.987655 0.782516 0.127038
Si Si4 0.406634 0.709078 0.369558
Si Si5 0.020476 0.205897 0.695781
Si Si6 0.943587 0.214793 0.466174
Si Si7 0.808497 0.285875 0.730342
O O1 0.750000 0.283634 0.934566
O O2 0.858063 0.280994 0.964310
O O3 0.817913 0.242793 0.822543
O O4 0.806365 0.000000 0.928257
O O5 0.043180 0.271399 0.088524
O O6 0.084073 0.000000 0.019275
O O7 0.057037 0.270298 0.935729
O O8 0.979002 0.716152 0.216127
O O9 0.988571 0.000000 0.128893
O O10 0.411074 0.500000 0.352839
O O11 0.460688 0.790714 0.336694
O O12 0.403822 0.732388 0.464686
O O13 0.355783 0.780279 0.324194
O O14 0.056506 0.280596 0.624523
O O15 0.036000 0.000000 0.704552
O O16 0.000000 0.274402 0.500000
O O17 0.943851 0.000000 0.463729
O O18 0.750000 0.220255 0.709886
O O19 0.807529 0.500000 0.723039
#
# Coordination Sequence:
#
# PCOD9398660 Si02
#       7
#     8   8   8   8   8   8   8
#     4   9  16  25  39  59  79  98 123 157 192 221
#     4   8  13  21  34  55  79  98 122 155 184 214
#     4   8  13  21  35  54  75 101 128 151 178 215
#     4  10  18  26  39  57  76 100 126 155 191 224
#     4   9  16  26  40  57  77 102 129 153 182 223
#     4   8  15  26  38  54  76 100 125 152 182 220
#     4   9  18  30  40  53  76 103 129 154 183 225
#
# _framework density 17.304690999999998
#
# number of rings (size 3 to 8) (size 9 to 14) (size 15 to 20)
#    0.000    3.286    0.000    3.000    0.000    4.857 
#    0.000    0.000    0.000    0.857    0.000    5.000 
#    0.000    3.429    0.000    0.000    0.000    0.143 
#
# Total GULP energy -311822.076637 kJ/mol
# GULP energy per Si atom -5568.251369 kJ/mol
# Density = 1.726530 g / cm^3
# Si number density = 17.304691 Si / 1000 Ang^3
#
#
#
# Elastic Constant Matrix: (Units=GPa)
#
#
# Indices 1 2 3 4 5 6 
#
# 1 110.9979 -2.5318 60.8801 0.0000 0.0000 0.0000
# 2 -2.5318 43.6162 -2.9945 0.0000 0.0000 0.0000
# 3 60.8801 -2.9945 127.2729 0.0000 0.0000 0.0000
# 4 0.0000 0.0000 0.0000 55.1697 0.0000 0.0000
# 5 0.0000 0.0000 0.0000 0.0000 24.1127 0.0000
# 6 0.0000 0.0000 0.0000 0.0000 0.0000 3.1493
#
#
#
# Elastic Compliance Matrix: (Units=1/GPa)
#
#
# Indices 1 2 3 4 5 6 
#
# 1 0.012218 0.000308 -0.005837 0.000000 0.000000 0.000000
# 2 0.000308 0.022972 0.000393 0.000000 0.000000 0.000000
# 3 -0.005837 0.000393 0.010658 0.000000 0.000000 0.000000
# 4 0.000000 0.000000 0.000000 0.018126 0.000000 0.000000
# 5 0.000000 0.000000 0.000000 0.000000 0.041472 0.000000
# 6 0.000000 0.000000 0.000000 0.000000 0.000000 0.317534
#
#
# Mechanical properties :
#
#
# Convention : Reuss Voigt Hill
#
# Bulk Modulus (GPa) = 28.10796 43.62161 35.86478
# Shear Modulus (GPa) = 11.23317 31.58855 21.41086
#
# Velocity S-wave (km/s) = 2.55059 4.27714 3.52132
# Velocity P-wave (km/s) = 4.99522 7.04660 6.10765
#
# Compressibility (1/GPa) = 0.03557711
#
# Stress axis : x y z
#
# Youngs Moduli (GPa) = 81.84859 43.53101 93.82220
#
# Poissons Ratio (x) = -0.01343 0.54764
# Poissons Ratio (y) = -0.02525 -0.03687
# Poissons Ratio (z) = 0.47775 -0.01711
#
# Static dielectric constant tensor:
#      x y z
#    x 1.587060 0.000000 0.000000 
#    y 0.000000 1.632620 0.000000 
#    z 0.000000 0.000000 1.608840 
# 
# From -- ./inp_files/30775.got.cif
#   From: 2010.05.17/outbox.cif.g08.bks.cpg/sg51_16_cif.got.tgz:30775.got - 2010.06.03 11:52:47.
