data_PCOD9398333
_publ_section_title
;
Structure prediction by ZEFSAII (Michael W. Deem and Ramdas Pophale) SiO2 
 PCOD9398333
Probable space group: P B A N
;
_chemical_formula_sum "Si O2"
_cell_formula_units_Z 58
_cell_length_a 27.000000
_cell_length_b 9.000000
_cell_length_c 12.000000
_cell_angle_alpha 90.000000
_cell_angle_beta 90.000000
_cell_angle_gamma 90.000000
_cell_volume 2916.000000
_symmetry_space_group_name_H-M "P B A N"
_symmetry_group_IT_number 50
_space_group.IT_coordinate_system_code '2'
_symmetry_cell_setting 'orthorhombic'
loop_
_space_group_symop_operation_xyz
x,y,z
1/2-x,1/2-y,z
x,1/2-y,-z
1/2-x,y,-z
-x,-y,-z
1/2+x,1/2+y,-z
-x,1/2+y,z
1/2+x,-y,z
loop_
_atom_site_type_symbol
_atom_site_label
_atom_site_fract_x
_atom_site_fract_y
_atom_site_fract_z
Si Si1 0.410399 0.420066 0.979051
Si Si2 0.891072 0.618083 0.586668
Si Si3 0.432349 0.910013 0.780947
Si Si4 0.825456 0.676720 0.807496
Si Si5 0.344388 0.893413 0.590663
Si Si6 0.537459 0.439623 0.237402
Si Si7 0.250000 0.750000 0.000000
Si Si8 0.277810 0.994884 0.803664
O O1 0.358115 0.389848 0.911051
O O2 0.443793 0.491719 0.880903
O O3 0.428210 0.250000 0.000000
O O4 0.412940 0.519967 0.096209
O O5 0.909715 0.750000 0.500000
O O6 0.857531 0.675817 0.691850
O O7 0.857509 0.520643 0.500796
O O8 0.931755 0.515562 0.656933
O O9 0.390397 0.899529 0.682029
O O10 0.452387 0.737904 0.779338
O O11 0.479443 0.015340 0.750423
O O12 0.777770 0.566796 0.792956
O O13 0.809212 0.850610 0.828024
O O14 0.339454 0.750000 0.500000
O O15 0.299347 0.926102 0.683745
O O16 0.224327 0.630817 0.906876
#
# Coordination Sequence:
#
# PCOD9398333 Si02
#       8
#     8   8   8   8   8   8   2   8
#     4  11  24  44  75 105 146 194 250 311 373 451
#     4  11  24  48  76 107 144 194 253 306 369 444
#     4  12  26  45  73 108 150 202 246 313 375 449
#     4  10  25  49  77 109 141 200 248 307 369 446
#     4  12  27  50  72 109 152 195 251 310 377 440
#     4  11  26  46  72 109 150 194 253 306 379 446
#     4  12  32  46  74 112 144 190 244 306 380 442
#     4  11  27  51  75 108 149 191 249 305 376 447
#
# _framework density 19.890260999999999
#
# number of rings (size 3 to 8) (size 9 to 14) (size 15 to 20)
#    0.000    0.828    2.759    2.483    9.655    2.207 
#    0.000    0.000    0.000    0.000    0.000    0.000 
#    0.000    0.000    0.000    0.000    0.000    0.000 
#
# Total GULP energy -322884.560245 kJ/mol
# GULP energy per Si atom -5566.975177 kJ/mol
# Density = 1.984499 g / cm^3
# Si number density = 19.890261 Si / 1000 Ang^3
#
#
#
# Elastic Constant Matrix: (Units=GPa)
#
#
# Indices 1 2 3 4 5 6 
#
# 1 103.2943 30.8626 45.3232 0.0000 0.0000 0.0000
# 2 30.8626 151.2218 56.9654 0.0000 0.0000 0.0000
# 3 45.3232 56.9654 188.4360 0.0000 0.0000 0.0000
# 4 0.0000 0.0000 0.0000 67.1100 0.0000 0.0000
# 5 0.0000 0.0000 0.0000 0.0000 48.2869 0.0000
# 6 0.0000 0.0000 0.0000 0.0000 0.0000 39.6614
#
#
#
# Elastic Compliance Matrix: (Units=1/GPa)
#
#
# Indices 1 2 3 4 5 6 
#
# 1 0.011087 -0.001420 -0.002237 0.000000 0.000000 0.000000
# 2 -0.001420 0.007644 -0.001969 0.000000 0.000000 0.000000
# 3 -0.002237 -0.001969 0.006440 0.000000 0.000000 0.000000
# 4 0.000000 0.000000 0.000000 0.014901 0.000000 0.000000
# 5 0.000000 0.000000 0.000000 0.000000 0.020710 0.000000
# 6 0.000000 0.000000 0.000000 0.000000 0.000000 0.025213
#
#
# Mechanical properties :
#
#
# Convention : Reuss Voigt Hill
#
# Bulk Modulus (GPa) = 71.84771 78.80604 75.32688
# Shear Modulus (GPa) = 49.07307 51.66505 50.36906
#
# Velocity S-wave (km/s) = 4.97247 5.10210 5.03770
# Velocity P-wave (km/s) = 8.31672 8.62641 8.47298
#
# Compressibility (1/GPa) = 0.01391833
#
# Stress axis : x y z
#
# Youngs Moduli (GPa) = 90.19522 130.81329 155.27033
#
# Poissons Ratio (x) = 0.18574 0.34741
# Poissons Ratio (y) = 0.12807 0.30580
# Poissons Ratio (z) = 0.20181 0.25763
#
# Static dielectric constant tensor:
#      x y z
#    x 1.778710 0.000000 0.000000 
#    y 0.000000 1.762840 0.000000 
#    z 0.000000 0.000000 1.710270 
# 
# From -- ./inp_files/23176.got.cif
#   From: 2010.05.17/outbox.ucp.g08.bks.cvg/sg50_12_cif.got.tgz:23176.got - 2010.06.11 16:26:39.
