data_PCOD9398895
_publ_section_title
;
Structure prediction by ZEFSAII (Michael W. Deem and Ramdas Pophale) SiO2 
 PCOD9398895
Probable space group: P M M A
;
_chemical_formula_sum "Si O2"
_cell_formula_units_Z 64
_cell_length_a 14.355092
_cell_length_b 9.012906
_cell_length_c 32.530502
_cell_angle_alpha 90.000000
_cell_angle_beta 90.000000
_cell_angle_gamma 90.000000
_cell_volume 4208.831964
_symmetry_space_group_name_H-M "P M M A"
_symmetry_group_IT_number 51
_symmetry_cell_setting 'orthorhombic'
loop_
_space_group_symop_operation_xyz
x,y,z
1/2-x,-y,z
1/2+x,-y,-z
-x,y,-z
-x,-y,-z
1/2+x,y,-z
1/2-x,y,z
x,-y,z
loop_
_atom_site_type_symbol
_atom_site_label
_atom_site_fract_x
_atom_site_fract_y
_atom_site_fract_z
Si Si1 0.025239 0.178981 0.395773
Si Si2 0.859459 0.676975 0.858489
Si Si3 0.142419 0.181080 0.316839
Si Si4 0.639200 0.825524 0.522871
Si Si5 0.540730 0.179260 0.935464
Si Si6 0.136962 0.170931 0.226083
Si Si7 0.641423 0.323377 0.436780
Si Si8 0.855396 0.819764 0.019584
O O1 0.077453 0.227722 0.354384
O O2 0.086385 0.219751 0.435861
O O3 0.924906 0.249112 0.403367
O O4 0.018748 0.000000 0.395001
O O5 0.750000 0.719203 0.864073
O O6 0.865395 0.500000 0.860180
O O7 0.920107 0.749239 0.894348
O O8 0.889547 0.734708 0.813561
O O9 0.250000 0.228021 0.323169
O O10 0.108758 0.226846 0.271354
O O11 0.143663 0.000000 0.316251
O O12 0.750000 0.809192 0.529450
O O13 0.613690 0.736682 0.481940
O O14 0.620063 0.000000 0.515345
O O15 0.435740 0.225094 0.948258
O O16 0.542593 0.000000 0.931941
O O17 0.606710 0.220141 0.974226
O O18 0.250000 0.169709 0.227668
O O19 0.106630 0.000000 0.220801
O O20 0.750000 0.283860 0.430928
O O21 0.632428 0.500000 0.435867
O O22 0.750000 0.766690 0.026689
O O23 0.853640 0.000000 0.020547
#
# Coordination Sequence:
#
# PCOD9398895 Si02
#       8
#     8   8   8   8   8   8   8   8
#     4  10  18  28  46  69  88 108 136 170 208 249
#     4  10  19  28  39  59  88 117 143 175 212 245
#     4   8  14  26  45  69  93 112 132 162 202 250
#     4   9  17  29  45  65  88 112 137 166 203 248
#     4   9  16  26  43  64  83 110 147 180 211 251
#     4   8  14  26  44  63  84 112 141 166 198 247
#     4  10  21  34  44  56  80 114 148 180 210 239
#     4   8  14  25  41  62  87 112 141 179 217 250
#
# _framework density 15.20612
#
# number of rings (size 3 to 8) (size 9 to 14) (size 15 to 20)
#    0.000    3.000    0.000    3.375    0.000    5.500 
#    0.000    1.875    0.000    3.000    0.000    0.875 
#    0.000    3.000    0.000    0.000    0.000    0.000 
#
# Total GULP energy -356518.293825 kJ/mol
# GULP energy per Si atom -5570.598341 kJ/mol
# Density = 1.517151 g / cm^3
# Si number density = 15.206120 Si / 1000 Ang^3
#
#
#
# Elastic Constant Matrix: (Units=GPa)
#
#
# Indices 1 2 3 4 5 6 
#
# 1 91.8696 27.1466 74.5699 0.0000 0.0000 0.0000
# 2 27.1466 16.6417 36.4982 0.0000 0.0000 0.0000
# 3 74.5699 36.4982 142.3631 0.0000 0.0000 0.0000
# 4 0.0000 0.0000 0.0000 -12.2480 0.0000 0.0000
# 5 0.0000 0.0000 0.0000 0.0000 24.6928 0.0000
# 6 0.0000 0.0000 0.0000 0.0000 0.0000 14.3021
#
#
#
# Elastic Compliance Matrix: (Units=1/GPa)
#
#
# Indices 1 2 3 4 5 6 
#
# 1 0.022748 -0.025072 -0.005487 0.000000 0.000000 0.000000
# 2 -0.025072 0.164912 -0.029146 0.000000 0.000000 0.000000
# 3 -0.005487 -0.029146 0.017371 0.000000 0.000000 0.000000
# 4 0.000000 0.000000 0.000000 -0.081646 0.000000 0.000000
# 5 0.000000 0.000000 0.000000 0.000000 0.040498 0.000000
# 6 0.000000 0.000000 0.000000 0.000000 0.000000 0.069920
#
#
# Mechanical properties :
#
#
# Convention : Reuss Voigt Hill
#
# Bulk Modulus (GPa) = 11.67967 58.58931 35.13449
# Shear Modulus (GPa) = 13.09748 12.86003 12.97876
#
# Velocity S-wave (km/s) = 2.93803 2.91127 2.92468
# Velocity P-wave (km/s) = 4.38257 7.06501 5.87883
#
# Compressibility (1/GPa) = 0.08561888
#
# Stress axis : x y z
#
# Youngs Moduli (GPa) = 43.96073 6.06385 57.56717
#
# Poissons Ratio (x) = 0.15203 0.31590
# Poissons Ratio (y) = 1.10218 1.67788
# Poissons Ratio (z) = 0.24123 0.17674
#
# Static dielectric constant tensor:
#      x y z
#    x 1.510270 0.000000 0.000000 
#    y 0.000000 1.502300 0.000000 
#    z 0.000000 0.000000 1.499420 
# 
# From -- ./inp_files/37833.got.cif
#   From: 2010.05.17/outbox.cif.g08.bks.cpg/sg51_19_cif.got.tgz:37833.got - 2010.06.03 11:52:47.
