data_PCOD9398006
_publ_section_title
;
Structure prediction by ZEFSAII (Michael W. Deem and Ramdas Pophale) SiO2 
 PCOD9398006
Probable space group: P B A N
;
_chemical_formula_sum "Si O2"
_cell_formula_units_Z 40
_cell_length_a 12.247614
_cell_length_b 15.986558
_cell_length_c 8.600188
_cell_angle_alpha 90.000000
_cell_angle_beta 90.000000
_cell_angle_gamma 90.000000
_cell_volume 1683.892657
_symmetry_space_group_name_H-M "P B A N"
_symmetry_group_IT_number 50
_space_group.IT_coordinate_system_code '2'
_symmetry_cell_setting 'orthorhombic'
loop_
_space_group_symop_operation_xyz
x,y,z
1/2-x,1/2-y,z
x,1/2-y,-z
1/2-x,y,-z
-x,-y,-z
1/2+x,1/2+y,-z
-x,1/2+y,z
1/2+x,-y,z
loop_
_atom_site_type_symbol
_atom_site_label
_atom_site_fract_x
_atom_site_fract_y
_atom_site_fract_z
Si Si1 0.716099 0.581323 0.180299
Si Si2 0.479588 0.356670 0.645341
Si Si3 0.406595 0.840708 0.079586
Si Si4 0.799550 0.099555 0.776057
Si Si5 0.913066 0.663443 0.310972
O O1 0.590506 0.595867 0.223375
O O2 0.754454 0.492735 0.248470
O O3 0.787844 0.651602 0.267199
O O4 0.750000 0.585274 0.000000
O O5 0.608298 0.372024 0.657188
O O6 0.452002 0.259058 0.672009
O O7 0.437909 0.380162 0.474372
O O8 0.194973 0.659331 0.199716
O O9 0.512837 0.870559 0.170078
O O10 0.422876 0.750000 0.000000
O O11 0.364051 0.898930 0.941216
#
# Coordination Sequence:
#
# PCOD9398006 Si02
#       5
#     8   8   8   8   8
#     4  12  26  43  70 102 138 181 233 289 347 412
#     4  11  26  48  67 101 140 185 233 282 348 419
#     4  11  22  44  72 104 134 179 232 286 336 404
#     4  11  24  43  71 101 139 175 227 290 345 409
#     4  11  26  45  73  98 138 184 232 288 342 417
#
# _framework density 23.754484999999999
#
# number of rings (size 3 to 8) (size 9 to 14) (size 15 to 20)
#    0.000    0.800    4.000    3.600    2.800    5.600 
#    3.600    2.000    0.000    0.000    0.000    0.000 
#    0.000    0.000    0.000    0.000    0.000    0.000 
#
# Total GULP energy -223877.737984 kJ/mol
# GULP energy per Si atom -5596.943450 kJ/mol
# Density = 2.370042 g / cm^3
# Si number density = 23.754485 Si / 1000 Ang^3
#
#
#
# Elastic Constant Matrix: (Units=GPa)
#
#
# Indices 1 2 3 4 5 6 
#
# 1 104.4207 -7.5496 13.2619 0.0000 0.0000 0.0000
# 2 -7.5496 50.2352 1.7185 0.0000 0.0000 0.0000
# 3 13.2619 1.7185 61.7232 0.0000 0.0000 0.0000
# 4 0.0000 0.0000 0.0000 10.8046 0.0000 0.0000
# 5 0.0000 0.0000 0.0000 0.0000 31.1509 0.0000
# 6 0.0000 0.0000 0.0000 0.0000 0.0000 20.5325
#
#
#
# Elastic Compliance Matrix: (Units=1/GPa)
#
#
# Indices 1 2 3 4 5 6 
#
# 1 0.009968 0.001573 -0.002186 0.000000 0.000000 0.000000
# 2 0.001573 0.020174 -0.000900 0.000000 0.000000 0.000000
# 3 -0.002186 -0.000900 0.016696 0.000000 0.000000 0.000000
# 4 0.000000 0.000000 0.000000 0.092554 0.000000 0.000000
# 5 0.000000 0.000000 0.000000 0.000000 0.032102 0.000000
# 6 0.000000 0.000000 0.000000 0.000000 0.000000 0.048703
#
#
# Mechanical properties :
#
#
# Convention : Reuss Voigt Hill
#
# Bulk Modulus (GPa) = 22.82438 25.69340 24.25889
# Shear Modulus (GPa) = 21.02387 26.42748 23.72567
#
# Velocity S-wave (km/s) = 2.97820 3.33907 3.16379
# Velocity P-wave (km/s) = 4.63202 5.07007 4.85598
#
# Compressibility (1/GPa) = 0.04381280
#
# Stress axis : x y z
#
# Youngs Moduli (GPa) = 100.32174 49.56992 59.89457
#
# Poissons Ratio (x) = -0.07796 0.13090
# Poissons Ratio (y) = -0.15779 0.05388
# Poissons Ratio (z) = 0.21925 0.04459
#
# Static dielectric constant tensor:
#      x y z
#    x 1.875730 0.000000 0.000000 
#    y 0.000000 1.921630 0.000000 
#    z 0.000000 0.000000 1.939450 
# 
# From -- ./inp_files/12542.got.cif
#   From: 2010.05.17/outbox.cif.g08.bks.cpg/sg50_7_cif.got.tgz:12542.got - 2010.06.03 11:33:33.
