data_PCOD9398153
_publ_section_title
;
Structure prediction by ZEFSAII (Michael W. Deem and Ramdas Pophale) SiO2 
 PCOD9398153
Probable space group: P B A N
;
_chemical_formula_sum "Si O2"
_cell_formula_units_Z 38
_cell_length_a 9.510711
_cell_length_b 10.903379
_cell_length_c 18.051182
_cell_angle_alpha 90.000000
_cell_angle_beta 90.000000
_cell_angle_gamma 90.000000
_cell_volume 1871.887475
_symmetry_space_group_name_H-M "P B A N"
_symmetry_group_IT_number 50
_space_group.IT_coordinate_system_code '2'
_symmetry_cell_setting 'orthorhombic'
loop_
_space_group_symop_operation_xyz
x,y,z
1/2-x,1/2-y,z
x,1/2-y,-z
1/2-x,y,-z
-x,-y,-z
1/2+x,1/2+y,-z
-x,1/2+y,z
1/2+x,-y,z
loop_
_atom_site_type_symbol
_atom_site_label
_atom_site_fract_x
_atom_site_fract_y
_atom_site_fract_z
Si Si1 0.491138 0.403352 0.432557
Si Si2 0.092462 0.113925 0.970564
Si Si3 0.404088 0.545695 0.287627
Si Si4 0.821191 0.617531 0.799320
Si Si5 0.250000 0.250000 0.500000
Si Si6 0.750000 0.250000 0.384222
O O1 0.500000 0.500000 0.500000
O O2 0.467237 0.458872 0.351603
O O3 0.351559 0.328057 0.449133
O O4 0.629176 0.319579 0.429714
O O5 0.117393 0.105852 0.882487
O O6 0.042930 0.250000 0.000000
O O7 0.250000 0.100314 0.000000
O O8 0.000000 0.000000 0.000000
O O9 0.540306 0.603372 0.249774
O O10 0.298239 0.477848 0.230136
O O11 0.320237 0.648840 0.331994
O O12 0.750000 0.750000 0.793111
#
# Coordination Sequence:
#
# PCOD9398153 Si02
#       6
#     8   8   8   8   2   4
#     4  12  27  49  70 105 144 197 251 313 372 453
#     4  11  24  47  75 111 149 198 251 308 380 460
#     4  12  27  46  73 111 147 197 250 306 387 443
#     4  12  26  47  76 107 154 191 247 315 373 455
#     4  12  28  42  76  94 136 194 246 308 382 422
#     4  12  26  49  70 104 149 188 256 304 379 454
#
# _framework density 20.300364999999999
#
# number of rings (size 3 to 8) (size 9 to 14) (size 15 to 20)
#    0.000    0.211    4.211    5.053    4.421    3.368 
#    0.000    0.000    0.000    0.000    0.000    0.000 
#    0.000    0.000    0.000    0.000    0.000    0.000 
#
# Total GULP energy -212492.058458 kJ/mol
# GULP energy per Si atom -5591.896275 kJ/mol
# Density = 2.025416 g / cm^3
# Si number density = 20.300365 Si / 1000 Ang^3
#
#
#
# Elastic Constant Matrix: (Units=GPa)
#
#
# Indices 1 2 3 4 5 6 
#
# 1 168.3655 98.1011 76.1436 0.0000 0.0000 0.0000
# 2 98.1011 159.8596 77.7725 0.0000 0.0000 0.0000
# 3 76.1436 77.7725 165.4097 0.0000 0.0000 0.0000
# 4 0.0000 0.0000 0.0000 46.9752 0.0000 0.0000
# 5 0.0000 0.0000 0.0000 0.0000 -57.3689 0.0000
# 6 0.0000 0.0000 0.0000 0.0000 0.0000 71.4128
#
#
#
# Elastic Compliance Matrix: (Units=1/GPa)
#
#
# Indices 1 2 3 4 5 6 
#
# 1 0.009820 -0.004962 -0.002187 0.000000 0.000000 0.000000
# 2 -0.004962 0.010618 -0.002708 0.000000 0.000000 0.000000
# 3 -0.002187 -0.002708 0.008326 0.000000 0.000000 0.000000
# 4 0.000000 0.000000 0.000000 0.021288 0.000000 0.000000
# 5 0.000000 0.000000 0.000000 0.000000 -0.017431 0.000000
# 6 0.000000 0.000000 0.000000 0.000000 0.000000 0.014003
#
#
# Mechanical properties :
#
#
# Convention : Reuss Voigt Hill
#
# Bulk Modulus (GPa) = 110.51430 110.85213 110.68322
# Shear Modulus (GPa) = 72.09251 28.31165 50.20208
#
# Velocity S-wave (km/s) = 5.96574 3.73854 4.97829
# Velocity P-wave (km/s) = 10.10005 8.56505 9.36406
#
# Compressibility (1/GPa) = 0.00904860
#
# Stress axis : x y z
#
# Youngs Moduli (GPa) = 101.83387 94.17870 120.10719
#
# Poissons Ratio (x) = 0.46732 0.26272
# Poissons Ratio (y) = 0.50530 0.32528
# Poissons Ratio (z) = 0.22275 0.25506
#
# Static dielectric constant tensor:
#      x y z
#    x 1.639830 0.000000 0.000000 
#    y 0.000000 1.631170 0.000000 
#    z 0.000000 0.000000 5.083890 
# 
# From -- ./inp_files/28530.got.cif
#   From: 2010.05.17/outbox.cif.g08.bks.cpg/sg50_15_cif.got.tgz:28530.got - 2010.06.03 11:33:33.
