data_PCOD9398003
_publ_section_title
;
Structure prediction by ZEFSAII (Michael W. Deem and Ramdas Pophale) SiO2 
 PCOD9398003
Probable space group: P B A N
;
_chemical_formula_sum "Si O2"
_cell_formula_units_Z 34
_cell_length_a 13.897918
_cell_length_b 9.075787
_cell_length_c 10.618279
_cell_angle_alpha 90.000000
_cell_angle_beta 90.000000
_cell_angle_gamma 90.000000
_cell_volume 1339.331775
_symmetry_space_group_name_H-M "P B A N"
_symmetry_group_IT_number 50
_space_group.IT_coordinate_system_code '2'
_symmetry_cell_setting 'orthorhombic'
loop_
_space_group_symop_operation_xyz
x,y,z
1/2-x,1/2-y,z
x,1/2-y,-z
1/2-x,y,-z
-x,-y,-z
1/2+x,1/2+y,-z
-x,1/2+y,z
1/2+x,-y,z
loop_
_atom_site_type_symbol
_atom_site_label
_atom_site_fract_x
_atom_site_fract_y
_atom_site_fract_z
Si Si1 0.750000 0.750000 0.500000
Si Si2 0.420793 0.410831 0.350050
Si Si3 0.611526 0.248254 0.636413
Si Si4 0.359032 0.204674 0.140891
Si Si5 0.845622 0.370890 0.908239
O O1 0.673450 0.645151 0.573340
O O2 0.524071 0.362945 0.401128
O O3 0.415807 0.583676 0.330230
O O4 0.422232 0.309337 0.225869
O O5 0.660823 0.250000 0.500000
O O6 0.660423 0.193635 0.766230
O O7 0.250000 0.250000 0.180552
O O8 0.381466 0.032350 0.131590
O O9 0.367267 0.250000 0.000000
O O10 0.897371 0.250000 0.000000
O O11 0.750000 0.399385 0.000000
#
# Coordination Sequence:
#
# PCOD9398003 Si02
#       5
#     2   8   8   8   8
#     4  12  28  44  80 108 160 210 270 318 396 496
#     4  12  27  50  79 119 161 218 269 335 417 492
#     4  12  28  50  82 117 169 214 272 340 416 493
#     4  11  22  43  74 108 153 209 266 333 399 479
#     4  11  25  46  77 115 160 209 277 336 402 488
#
# _framework density 25.385795999999999
#
# number of rings (size 3 to 8) (size 9 to 14) (size 15 to 20)
#    0.000    0.471    4.706    3.529    6.588    0.941 
#    0.000    4.706    0.000    0.000    0.000    0.000 
#    0.000    0.000    0.000    0.000    0.000    0.000 
#
# Total GULP energy -189510.813638 kJ/mol
# GULP energy per Si atom -5573.847460 kJ/mol
# Density = 2.532802 g / cm^3
# Si number density = 25.385796 Si / 1000 Ang^3
#
#
#
# Elastic Constant Matrix: (Units=GPa)
#
#
# Indices 1 2 3 4 5 6 
#
# 1 95.9222 1.5830 6.7576 0.0000 0.0000 0.0000
# 2 1.5830 222.2497 28.7747 0.0000 0.0000 0.0000
# 3 6.7576 28.7747 163.3522 0.0000 0.0000 0.0000
# 4 0.0000 0.0000 0.0000 118.2428 0.0000 0.0000
# 5 0.0000 0.0000 0.0000 0.0000 29.4896 0.0000
# 6 0.0000 0.0000 0.0000 0.0000 0.0000 -170.4774
#
#
#
# Elastic Compliance Matrix: (Units=1/GPa)
#
#
# Indices 1 2 3 4 5 6 
#
# 1 0.010456 -0.000019 -0.000429 0.000000 0.000000 0.000000
# 2 -0.000019 0.004604 -0.000810 0.000000 0.000000 0.000000
# 3 -0.000429 -0.000810 0.006282 0.000000 0.000000 0.000000
# 4 0.000000 0.000000 0.000000 0.008457 0.000000 0.000000
# 5 0.000000 0.000000 0.000000 0.000000 0.033910 0.000000
# 6 0.000000 0.000000 0.000000 0.000000 0.000000 -0.005866
#
#
# Mechanical properties :
#
#
# Convention : Reuss Voigt Hill
#
# Bulk Modulus (GPa) = 53.11927 61.75053 57.43490
# Shear Modulus (GPa) = 75.03462 25.07825 50.05644
#
# Velocity S-wave (km/s) = 5.44260 3.14647 4.44534
# Velocity P-wave (km/s) = 7.77599 6.13009 7.00158
#
# Compressibility (1/GPa) = 0.01882556
#
# Stress axis : x y z
#
# Youngs Moduli (GPa) = 95.64195 217.17936 159.17904
#
# Poissons Ratio (x) = 0.00411 0.06832
# Poissons Ratio (y) = 0.00181 0.12898
# Poissons Ratio (z) = 0.04105 0.17598
#
# Static dielectric constant tensor:
#      x y z
#    x 2.394980 0.000000 0.000000 
#    y 0.000000 1.928220 0.000000 
#    z 0.000000 0.000000 1.733160 
# 
# From -- ./inp_files/20804.got.cif
#   From: 2010.05.17/outbox.cif.g08.bks.cpg/sg50_11_cif.got.tgz:20804.got - 2010.06.03 11:33:33.
