data_PCOD9398705
_publ_section_title
;
Structure prediction by ZEFSAII (Michael W. Deem and Ramdas Pophale) SiO2 
 PCOD9398705
Probable space group: P M M A
;
_chemical_formula_sum "Si O2"
_cell_formula_units_Z 64
_cell_length_a 26.751394
_cell_length_b 9.029810
_cell_length_c 18.608957
_cell_angle_alpha 90.000000
_cell_angle_beta 90.000000
_cell_angle_gamma 90.000000
_cell_volume 4495.179747
_symmetry_space_group_name_H-M "P M M A"
_symmetry_group_IT_number 51
_symmetry_cell_setting 'orthorhombic'
loop_
_space_group_symop_operation_xyz
x,y,z
1/2-x,-y,z
1/2+x,-y,-z
-x,y,-z
-x,-y,-z
1/2+x,y,-z
1/2-x,y,z
x,-y,z
loop_
_atom_site_type_symbol
_atom_site_label
_atom_site_fract_x
_atom_site_fract_y
_atom_site_fract_z
Si Si1 0.691662 0.323293 0.818117
Si Si2 0.395531 0.675876 0.076166
Si Si3 0.447224 0.169425 0.543060
Si Si4 0.512419 0.178120 0.672844
Si Si5 0.994408 0.675496 0.827571
Si Si6 0.949519 0.829755 0.048583
Si Si7 0.808959 0.824150 0.665187
Si Si8 0.897077 0.676174 0.583553
O O1 0.750000 0.297622 0.834930
O O2 0.684932 0.500000 0.805348
O O3 0.654777 0.280415 0.882368
O O4 0.679389 0.237380 0.744894
O O5 0.394156 0.500000 0.061235
O O6 0.441707 0.700680 0.131152
O O7 0.407510 0.761413 0.002997
O O8 0.500000 0.168767 0.500000
O O9 0.464266 0.213840 0.622846
O O10 0.411128 0.272502 0.497008
O O11 0.428549 0.000000 0.542985
O O12 0.506190 0.238405 0.752739
O O13 0.560602 0.252791 0.635551
O O14 0.518590 0.000000 0.671399
O O15 0.999508 0.500000 0.815882
O O16 0.037057 0.735555 0.881157
O O17 0.939229 0.000000 0.067010
O O18 0.000000 0.826230 0.000000
O O19 0.750000 0.796694 0.652523
O O20 0.844468 0.741109 0.609511
O O21 0.817815 0.000000 0.662497
O O22 0.898375 0.500000 0.589847
#
# Coordination Sequence:
#
# PCOD9398705 Si02
#       8
#     8   8   8   8   8   8   8   8
#     4   9  17  29  44  62  85 111 140 176 214 249
#     4   9  17  28  41  58  81 110 141 171 207 247
#     4   8  16  30  44  59  82 111 140 172 208 245
#     4  10  19  30  44  62  86 114 143 174 207 247
#     4  10  18  27  41  61  85 111 140 174 209 247
#     4   9  17  28  41  57  78 106 139 173 208 246
#     4  10  20  32  45  61  83 112 145 180 215 250
#     4  11  20  29  44  63  84 112 144 177 212 250
#
# _framework density 14.237473
#
# number of rings (size 3 to 8) (size 9 to 14) (size 15 to 20)
#    0.000    2.500    0.000    4.125    0.000    7.000 
#    0.000    0.000    0.000    0.000    0.000    0.000 
#    0.000    1.000    0.000    6.500    0.000    3.625 
#
# Total GULP energy -356746.297029 kJ/mol
# GULP energy per Si atom -5574.160891 kJ/mol
# Density = 1.420507 g / cm^3
# Si number density = 14.237473 Si / 1000 Ang^3
#
#
#
# Elastic Constant Matrix: (Units=GPa)
#
#
# Indices 1 2 3 4 5 6 
#
# 1 51.1259 40.1289 27.8055 0.0000 0.0000 0.0000
# 2 40.1289 75.7729 44.4178 0.0000 0.0000 0.0000
# 3 27.8055 44.4178 64.7714 0.0000 0.0000 0.0000
# 4 0.0000 0.0000 0.0000 25.8599 0.0000 0.0000
# 5 0.0000 0.0000 0.0000 0.0000 25.9523 0.0000
# 6 0.0000 0.0000 0.0000 0.0000 0.0000 16.6812
#
#
#
# Elastic Compliance Matrix: (Units=1/GPa)
#
#
# Indices 1 2 3 4 5 6 
#
# 1 0.034013 -0.015809 -0.003760 0.000000 0.000000 0.000000
# 2 -0.015809 0.029417 -0.013386 0.000000 0.000000 0.000000
# 3 -0.003760 -0.013386 0.026233 0.000000 0.000000 0.000000
# 4 0.000000 0.000000 0.000000 0.038670 0.000000 0.000000
# 5 0.000000 0.000000 0.000000 0.000000 0.038532 0.000000
# 6 0.000000 0.000000 0.000000 0.000000 0.000000 0.059948
#
#
# Mechanical properties :
#
#
# Convention : Reuss Voigt Hill
#
# Bulk Modulus (GPa) = 42.10196 46.26384 44.18290
# Shear Modulus (GPa) = 16.63116 18.98655 17.80885
#
# Velocity S-wave (km/s) = 3.42149 3.65576 3.54056
# Velocity P-wave (km/s) = 6.72638 7.09820 6.91479
#
# Compressibility (1/GPa) = 0.02375187
#
# Stress axis : x y z
#
# Youngs Moduli (GPa) = 29.40051 33.99440 38.12003
#
# Poissons Ratio (x) = 0.53741 0.14334
# Poissons Ratio (y) = 0.46479 0.51029
# Poissons Ratio (z) = 0.11055 0.45506
#
# Static dielectric constant tensor:
#      x y z
#    x 1.458440 0.000000 0.000000 
#    y 0.000000 1.476080 0.000000 
#    z 0.000000 0.000000 1.462530 
# 
# From -- ./inp_files/30978.got.cif
#   From: 2010.05.17/outbox.cif.g08.bks.cpg/sg51_16_cif.got.tgz:30978.got - 2010.06.03 11:52:47.
