data_PCOD9398105
_publ_section_title
;
Structure prediction by ZEFSAII (Michael W. Deem and Ramdas Pophale) SiO2 
 PCOD9398105
Probable space group: P B A N
;
_chemical_formula_sum "Si O2"
_cell_formula_units_Z 40
_cell_length_a 10.149469
_cell_length_b 9.227261
_cell_length_c 19.485575
_cell_angle_alpha 90.000000
_cell_angle_beta 90.000000
_cell_angle_gamma 90.000000
_cell_volume 1824.859163
_symmetry_space_group_name_H-M "P B A N"
_symmetry_group_IT_number 50
_space_group.IT_coordinate_system_code '2'
_symmetry_cell_setting 'orthorhombic'
loop_
_space_group_symop_operation_xyz
x,y,z
1/2-x,1/2-y,z
x,1/2-y,-z
1/2-x,y,-z
-x,-y,-z
1/2+x,1/2+y,-z
-x,1/2+y,z
1/2+x,-y,z
loop_
_atom_site_type_symbol
_atom_site_label
_atom_site_fract_x
_atom_site_fract_y
_atom_site_fract_z
Si Si1 0.860308 0.139909 0.886679
Si Si2 0.903800 0.793201 0.423256
Si Si3 0.991434 0.454867 0.660838
Si Si4 0.109449 0.311646 0.923053
Si Si5 0.260444 0.915689 0.734325
O O1 0.750000 0.250000 0.916880
O O2 0.805241 0.089381 0.812938
O O3 0.990797 0.238769 0.880839
O O4 0.888642 0.986892 0.924121
O O5 0.750000 0.750000 0.416894
O O6 0.943734 0.750000 0.500000
O O7 0.984986 0.705971 0.366136
O O8 0.934499 0.957606 0.404158
O O9 0.884602 0.476885 0.720733
O O10 0.131604 0.505687 0.688763
O O11 0.250000 0.250000 0.897989
O O12 0.092086 0.250000 0.000000
O O13 0.250000 0.750000 0.711329
#
# Coordination Sequence:
#
# PCOD9398105 Si02
#       5
#     8   8   8   8   8
#     4  11  26  46  71 109 143 187 236 290 349 425
#     4  11  24  42  66  99 134 178 230 286 347 412
#     4  12  23  45  66  98 136 180 226 287 343 411
#     4  11  25  46  73 106 144 187 236 288 351 410
#     4  11  26  42  68 102 141 177 231 277 352 410
#
# _framework density 21.919499999999999
#
# number of rings (size 3 to 8) (size 9 to 14) (size 15 to 20)
#    0.000    0.800    4.000    2.400    8.400    2.000 
#    0.000    1.000    0.000    0.000    0.000    0.000 
#    0.000    0.000    0.000    0.000    0.000    0.000 
#
# Total GULP energy -223521.896946 kJ/mol
# GULP energy per Si atom -5588.047424 kJ/mol
# Density = 2.186961 g / cm^3
# Si number density = 21.919500 Si / 1000 Ang^3
#
#
#
# Elastic Constant Matrix: (Units=GPa)
#
#
# Indices 1 2 3 4 5 6 
#
# 1 113.7202 25.8551 23.8472 0.0000 0.0000 0.0000
# 2 25.8551 115.2095 7.6265 0.0000 0.0000 0.0000
# 3 23.8472 7.6265 76.8000 0.0000 0.0000 0.0000
# 4 0.0000 0.0000 0.0000 27.6991 0.0000 0.0000
# 5 0.0000 0.0000 0.0000 0.0000 25.3640 0.0000
# 6 0.0000 0.0000 0.0000 0.0000 0.0000 22.7300
#
#
#
# Elastic Compliance Matrix: (Units=1/GPa)
#
#
# Indices 1 2 3 4 5 6 
#
# 1 0.009853 -0.002022 -0.002859 0.000000 0.000000 0.000000
# 2 -0.002022 0.009152 -0.000281 0.000000 0.000000 0.000000
# 3 -0.002859 -0.000281 0.013936 0.000000 0.000000 0.000000
# 4 0.000000 0.000000 0.000000 0.036102 0.000000 0.000000
# 5 0.000000 0.000000 0.000000 0.000000 0.039426 0.000000
# 6 0.000000 0.000000 0.000000 0.000000 0.000000 0.043995
#
#
# Mechanical properties :
#
#
# Convention : Reuss Voigt Hill
#
# Bulk Modulus (GPa) = 44.21212 46.70970 45.46091
# Shear Modulus (GPa) = 29.35539 31.71868 30.53704
#
# Velocity S-wave (km/s) = 3.66353 3.80814 3.73653
# Velocity P-wave (km/s) = 6.17327 6.37902 6.27699
#
# Compressibility (1/GPa) = 0.02261823
#
# Stress axis : x y z
#
# Youngs Moduli (GPa) = 101.49564 109.26343 71.75477
#
# Poissons Ratio (x) = 0.22092 0.20512
# Poissons Ratio (y) = 0.20521 0.02017
# Poissons Ratio (z) = 0.29013 0.03071
#
# Static dielectric constant tensor:
#      x y z
#    x 1.809260 0.000000 0.000000 
#    y 0.000000 1.792700 0.000000 
#    z 0.000000 0.000000 1.789140 
# 
# From -- ./inp_files/31563.got.cif
#   From: 2010.05.17/outbox.cif.g08.bks.cpg/sg50_16_cif.got.tgz:31563.got - 2010.06.03 11:33:33.
