data_PCOD9398314
_publ_section_title
;
Structure prediction by ZEFSAII (Michael W. Deem and Ramdas Pophale) SiO2 
 PCOD9398314
Probable space group: P B A N
;
_chemical_formula_sum "Si O2"
_cell_formula_units_Z 64
_cell_length_a 9.000000
_cell_length_b 21.000000
_cell_length_c 18.000000
_cell_angle_alpha 90.000000
_cell_angle_beta 90.000000
_cell_angle_gamma 90.000000
_cell_volume 3402.000000
_symmetry_space_group_name_H-M "P B A N"
_symmetry_group_IT_number 50
_space_group.IT_coordinate_system_code '2'
_symmetry_cell_setting 'orthorhombic'
loop_
_space_group_symop_operation_xyz
x,y,z
1/2-x,1/2-y,z
x,1/2-y,-z
1/2-x,y,-z
-x,-y,-z
1/2+x,1/2+y,-z
-x,1/2+y,z
1/2+x,-y,z
loop_
_atom_site_type_symbol
_atom_site_label
_atom_site_fract_x
_atom_site_fract_y
_atom_site_fract_z
Si Si1 0.137485 0.427129 0.238067
Si Si2 0.082179 0.394139 0.965273
Si Si3 0.888753 0.950921 0.407457
Si Si4 0.050400 0.360573 0.724059
Si Si5 0.422857 0.229164 0.855611
Si Si6 0.628349 0.060317 0.841232
Si Si7 0.075677 0.861849 0.118402
Si Si8 0.546142 0.917652 0.432910
O O1 0.070495 0.437946 0.321113
O O2 0.285884 0.387109 0.255136
O O3 0.175771 0.490960 0.190199
O O4 0.025316 0.389626 0.185072
O O5 0.077884 0.329241 0.915216
O O6 0.998307 0.442276 0.906958
O O7 0.250000 0.406520 0.000000
O O8 0.982521 0.385188 0.038378
O O9 0.711921 0.943121 0.415457
O O10 0.953948 0.907969 0.476565
O O11 0.934609 0.023728 0.421508
O O12 0.037830 0.295703 0.772229
O O13 0.024486 0.365986 0.634494
O O14 0.940087 0.407519 0.767540
O O15 0.250000 0.250000 0.855075
O O16 0.536645 0.285854 0.878203
O O17 0.761061 0.107087 0.869074
#
# Coordination Sequence:
#
# PCOD9398314 Si02
#       8
#     8   8   8   8   8   8   8   8
#     4  11  21  38  59  85 125 163 195 246 307 383
#     4  11  23  41  64  82 114 157 205 258 306 363
#     4   9  18  30  55  83 122 152 197 232 291 361
#     4  10  20  36  59  85 123 158 196 251 305 360
#     4  11  21  41  65  87 108 155 210 248 300 363
#     4  11  24  38  57  91 123 152 200 255 317 359
#     4  12  24  38  63  87 114 159 207 259 298 366
#     4   9  17  32  53  88 117 157 189 243 289 352
#
# _framework density 18.812463000000001
#
# number of rings (size 3 to 8) (size 9 to 14) (size 15 to 20)
#    0.000    1.500    3.750    2.250    1.750    2.500 
#    0.000    5.000    0.000    0.750    0.000    0.000 
#    0.000    4.000    0.000    0.000    0.000    0.000 
#
# Total GULP energy -356658.721933 kJ/mol
# GULP energy per Si atom -5572.792530 kJ/mol
# Density = 1.876965 g / cm^3
# Si number density = 18.812463 Si / 1000 Ang^3
#
#
#
# Elastic Constant Matrix: (Units=GPa)
#
#
# Indices 1 2 3 4 5 6 
#
# 1 50.6665 0.7358 19.8981 0.0000 0.0000 0.0000
# 2 0.7358 28.1704 21.5076 0.0000 0.0000 0.0000
# 3 19.8981 21.5076 163.4864 0.0000 0.0000 0.0000
# 4 0.0000 0.0000 0.0000 30.5405 0.0000 0.0000
# 5 0.0000 0.0000 0.0000 0.0000 28.9720 0.0000
# 6 0.0000 0.0000 0.0000 0.0000 0.0000 22.4469
#
#
#
# Elastic Compliance Matrix: (Units=1/GPa)
#
#
# Indices 1 2 3 4 5 6 
#
# 1 0.020788 0.001544 -0.002733 0.000000 0.000000 0.000000
# 2 0.001544 0.039576 -0.005394 0.000000 0.000000 0.000000
# 3 -0.002733 -0.005394 0.007159 0.000000 0.000000 0.000000
# 4 0.000000 0.000000 0.000000 0.032743 0.000000 0.000000
# 5 0.000000 0.000000 0.000000 0.000000 0.034516 0.000000
# 6 0.000000 0.000000 0.000000 0.000000 0.000000 0.044550
#
#
# Mechanical properties :
#
#
# Convention : Reuss Voigt Hill
#
# Bulk Modulus (GPa) = 18.39734 36.28960 27.34347
# Shear Modulus (GPa) = 23.73958 29.73733 26.73845
#
# Velocity S-wave (km/s) = 3.55619 3.98015 3.77412
# Velocity P-wave (km/s) = 5.16358 6.36036 5.79296
#
# Compressibility (1/GPa) = 0.05435569
#
# Stress axis : x y z
#
# Youngs Moduli (GPa) = 48.10496 25.26757 139.68338
#
# Poissons Ratio (x) = -0.03901 0.38178
# Poissons Ratio (y) = -0.07426 0.75351
# Poissons Ratio (z) = 0.13148 0.13630
#
# Static dielectric constant tensor:
#      x y z
#    x 1.675640 0.000000 0.000000 
#    y 0.000000 1.700560 0.000000 
#    z 0.000000 0.000000 1.680920 
# 
# From -- ./inp_files/28958.got.cif
#   From: 2010.05.17/outbox.ucp.g08.bks.cvg/sg50_15_cif.got.tgz:28958.got - 2010.06.11 16:26:39.
