data_PCOD9398213
_publ_section_title
;
Structure prediction by ZEFSAII (Michael W. Deem and Ramdas Pophale) SiO2 
 PCOD9398213
Probable space group: P B A N
;
_chemical_formula_sum "Si O2"
_cell_formula_units_Z 26
_cell_length_a 11.306674
_cell_length_b 7.688556
_cell_length_c 13.045882
_cell_angle_alpha 90.000000
_cell_angle_beta 90.000000
_cell_angle_gamma 90.000000
_cell_volume 1134.104565
_symmetry_space_group_name_H-M "P B A N"
_symmetry_group_IT_number 50
_space_group.IT_coordinate_system_code '2'
_symmetry_cell_setting 'orthorhombic'
loop_
_space_group_symop_operation_xyz
x,y,z
1/2-x,1/2-y,z
x,1/2-y,-z
1/2-x,y,-z
-x,-y,-z
1/2+x,1/2+y,-z
-x,1/2+y,z
1/2+x,-y,z
loop_
_atom_site_type_symbol
_atom_site_label
_atom_site_fract_x
_atom_site_fract_y
_atom_site_fract_z
Si Si1 0.750000 0.250000 0.000000
Si Si2 0.124466 0.676266 0.385679
Si Si3 0.892147 0.927510 0.064281
Si Si4 0.616180 0.680495 0.295364
O O1 0.812811 0.396409 0.929863
O O2 0.250000 0.750000 0.341564
O O3 0.117007 0.750000 0.500000
O O4 0.132135 0.470251 0.378940
O O5 0.999588 0.714635 0.330493
O O6 0.916390 0.878434 0.180460
O O7 0.861598 0.750000 0.000000
O O8 0.000000 0.000000 0.000000
O O9 0.750000 0.750000 0.284187
#
# Coordination Sequence:
#
# PCOD9398213 Si02
#       4
#     2   8   8   8
#     4  12  26  44  76 100 162 200 250 316 378 450
#     4  11  26  48  74 110 149 196 257 321 390 461
#     4  12  26  48  73 113 156 203 257 315 385 466
#     4  12  26  47  78 111 154 201 258 318 390 465
#
# _framework density 22.925574999999998
#
# number of rings (size 3 to 8) (size 9 to 14) (size 15 to 20)
#    0.000    0.308    1.538    6.923    2.154    3.077 
#    0.000    0.000    0.000    0.000    0.000    0.000 
#    0.000    0.000    0.000    0.000    0.000    0.000 
#
# Total GULP energy -144826.220026 kJ/mol
# GULP energy per Si atom -5570.239232 kJ/mol
# Density = 2.287340 g / cm^3
# Si number density = 22.925575 Si / 1000 Ang^3
#
#
#
# Elastic Constant Matrix: (Units=GPa)
#
#
# Indices 1 2 3 4 5 6 
#
# 1 165.7194 21.4273 27.7524 0.0000 0.0000 0.0000
# 2 21.4273 110.8066 21.6813 0.0000 0.0000 0.0000
# 3 27.7524 21.6813 126.7851 0.0000 0.0000 0.0000
# 4 0.0000 0.0000 0.0000 38.4041 0.0000 0.0000
# 5 0.0000 0.0000 0.0000 0.0000 14.2368 0.0000
# 6 0.0000 0.0000 0.0000 0.0000 0.0000 39.2487
#
#
#
# Elastic Compliance Matrix: (Units=1/GPa)
#
#
# Indices 1 2 3 4 5 6 
#
# 1 0.006368 -0.000992 -0.001224 0.000000 0.000000 0.000000
# 2 -0.000992 0.009492 -0.001406 0.000000 0.000000 0.000000
# 3 -0.001224 -0.001406 0.008396 0.000000 0.000000 0.000000
# 4 0.000000 0.000000 0.000000 0.026039 0.000000 0.000000
# 5 0.000000 0.000000 0.000000 0.000000 0.070241 0.000000
# 6 0.000000 0.000000 0.000000 0.000000 0.000000 0.025479
#
#
# Mechanical properties :
#
#
# Convention : Reuss Voigt Hill
#
# Bulk Modulus (GPa) = 58.78596 60.55923 59.67259
# Shear Modulus (GPa) = 31.46091 40.54127 36.00109
#
# Velocity S-wave (km/s) = 3.70848 4.20978 3.96706
# Velocity P-wave (km/s) = 6.63588 7.07832 6.86067
#
# Compressibility (1/GPa) = 0.01701086
#
# Stress axis : x y z
#
# Youngs Moduli (GPa) = 157.04639 105.35590 119.10747
#
# Poissons Ratio (x) = 0.10449 0.14581
# Poissons Ratio (y) = 0.15576 0.16747
# Poissons Ratio (z) = 0.19226 0.14814
#
# Static dielectric constant tensor:
#      x y z
#    x 1.839410 0.000000 0.000000 
#    y 0.000000 1.892080 0.000000 
#    z 0.000000 0.000000 1.694010 
# 
# From -- ./inp_files/19642.got.cif
#   From: 2010.05.17/outbox.cif.g08.bks.cpg/sg50_10_cif.got.tgz:19642.got - 2010.06.03 11:33:33.
