data_PCOD9398116
_publ_section_title
;
Structure prediction by ZEFSAII (Michael W. Deem and Ramdas Pophale) SiO2 
 PCOD9398116
Probable space group: P B A N
;
_chemical_formula_sum "Si O2"
_cell_formula_units_Z 20
_cell_length_a 9.329574
_cell_length_b 14.673104
_cell_length_c 6.651727
_cell_angle_alpha 90.000000
_cell_angle_beta 90.000000
_cell_angle_gamma 90.000000
_cell_volume 910.580249
_symmetry_space_group_name_H-M "P B A N"
_symmetry_group_IT_number 50
_space_group.IT_coordinate_system_code '2'
_symmetry_cell_setting 'orthorhombic'
loop_
_space_group_symop_operation_xyz
x,y,z
1/2-x,1/2-y,z
x,1/2-y,-z
1/2-x,y,-z
-x,-y,-z
1/2+x,1/2+y,-z
-x,1/2+y,z
1/2+x,-y,z
loop_
_atom_site_type_symbol
_atom_site_label
_atom_site_fract_x
_atom_site_fract_y
_atom_site_fract_z
Si Si1 0.250000 0.487841 0.000000
Si Si2 0.661814 0.660643 0.302380
Si Si3 0.897456 0.073911 0.619776
O O1 0.336798 0.418392 0.860194
O O2 0.152708 0.542346 0.842335
O O3 0.750000 0.750000 0.236754
O O4 0.750000 0.631256 0.500000
O O5 0.495993 0.664048 0.362237
O O6 0.750000 0.087155 0.500000
O O7 0.000000 0.000000 0.500000
#
# Coordination Sequence:
#
# PCOD9398116 Si02
#       3
#     4   8   8
#     4  12  21  40  76 100 139 180 250 286 361 432
#     4  11  24  43  67  99 145 188 226 293 369 425
#     4  12  23  42  70 107 138 184 245 297 350 434
#
# _framework density 21.964016999999998
#
# number of rings (size 3 to 8) (size 9 to 14) (size 15 to 20)
#    0.000    0.400    8.000    1.800    0.000    0.000 
#    0.000    4.000    0.000    0.000    0.000    0.000 
#    0.000    0.000    0.000    0.000    0.000    0.000 
#
# Total GULP energy -111500.192812 kJ/mol
# GULP energy per Si atom -5575.009641 kJ/mol
# Density = 2.191403 g / cm^3
# Si number density = 21.964017 Si / 1000 Ang^3
#
#
#
# Elastic Constant Matrix: (Units=GPa)
#
#
# Indices 1 2 3 4 5 6 
#
# 1 220.6966 76.2635 68.9369 0.0000 0.0000 0.0000
# 2 76.2635 89.7678 43.9067 0.0000 0.0000 0.0000
# 3 68.9369 43.9067 171.9696 0.0000 0.0000 0.0000
# 4 0.0000 0.0000 0.0000 13.4966 0.0000 0.0000
# 5 0.0000 0.0000 0.0000 0.0000 33.8129 0.0000
# 6 0.0000 0.0000 0.0000 0.0000 0.0000 12.0510
#
#
#
# Elastic Compliance Matrix: (Units=1/GPa)
#
#
# Indices 1 2 3 4 5 6 
#
# 1 0.006700 -0.005003 -0.001408 0.000000 0.000000 0.000000
# 2 -0.005003 0.016466 -0.002198 0.000000 0.000000 0.000000
# 3 -0.001408 -0.002198 0.006941 0.000000 0.000000 0.000000
# 4 0.000000 0.000000 0.000000 0.074093 0.000000 0.000000
# 5 0.000000 0.000000 0.000000 0.000000 0.029575 0.000000
# 6 0.000000 0.000000 0.000000 0.000000 0.000000 0.082981
#
#
# Mechanical properties :
#
#
# Convention : Reuss Voigt Hill
#
# Bulk Modulus (GPa) = 77.60010 95.62757 86.61383
# Shear Modulus (GPa) = 20.98464 31.42722 26.20593
#
# Velocity S-wave (km/s) = 3.09432 3.78676 3.45792
# Velocity P-wave (km/s) = 6.94073 7.92163 7.44735
#
# Compressibility (1/GPa) = 0.01288658
#
# Stress axis : x y z
#
# Youngs Moduli (GPa) = 149.25583 60.73276 144.07495
#
# Poissons Ratio (x) = 0.30385 0.20291
# Poissons Ratio (y) = 0.74675 0.31673
# Poissons Ratio (z) = 0.21021 0.13351
#
# Static dielectric constant tensor:
#      x y z
#    x 1.884870 0.000000 0.000000 
#    y 0.000000 1.896690 0.000000 
#    z 0.000000 0.000000 1.878900 
# 
# From -- ./inp_files/685.got.cif
#   From: 2010.05.17/outbox.cif.g08.bks.cpg/sg50_1_cif.got.tgz:685.got - 2010.06.03 11:33:33.
