data_PCOD9398874
_publ_section_title
;
Structure prediction by ZEFSAII (Michael W. Deem and Ramdas Pophale) SiO2 
 PCOD9398874
Probable space group: P M M A
;
_chemical_formula_sum "Si O2"
_cell_formula_units_Z 64
_cell_length_a 31.014461
_cell_length_b 7.849671
_cell_length_c 15.362881
_cell_angle_alpha 90.000000
_cell_angle_beta 90.000000
_cell_angle_gamma 90.000000
_cell_volume 3740.144309
_symmetry_space_group_name_H-M "P M M A"
_symmetry_group_IT_number 51
_symmetry_cell_setting 'orthorhombic'
loop_
_space_group_symop_operation_xyz
x,y,z
1/2-x,-y,z
1/2+x,-y,-z
-x,y,-z
-x,-y,-z
1/2+x,y,-z
1/2-x,y,z
x,-y,z
loop_
_atom_site_type_symbol
_atom_site_label
_atom_site_fract_x
_atom_site_fract_y
_atom_site_fract_z
Si Si1 0.441318 0.708350 0.138146
Si Si2 0.298157 0.698496 0.002137
Si Si3 0.118982 0.701790 0.295102
Si Si4 0.608651 0.290866 0.037709
Si Si5 0.062444 0.204636 0.448380
Si Si6 0.537647 0.702751 0.172213
Si Si7 0.702155 0.199543 0.802477
Si Si8 0.028992 0.793964 0.629634
O O1 0.442250 0.500000 0.139087
O O2 0.415883 0.767345 0.224228
O O3 0.490806 0.768572 0.140928
O O4 0.414888 0.758712 0.052420
O O5 0.250000 0.772999 0.986575
O O6 0.295846 0.500000 0.977116
O O7 0.341834 0.770985 0.960108
O O8 0.306109 0.706676 0.106272
O O9 0.120108 0.500000 0.285423
O O10 0.103012 0.743958 0.391299
O O11 0.165330 0.768581 0.267136
O O12 0.610366 0.500000 0.037749
O O13 0.577912 0.232625 0.116145
O O14 0.058780 0.261776 0.548472
O O15 0.019260 0.263855 0.397467
O O16 0.060372 0.000000 0.449969
O O17 0.536551 0.500000 0.157262
O O18 0.541321 0.732727 0.275089
O O19 0.750000 0.248430 0.771757
O O20 0.702303 0.000000 0.824120
O O21 0.028741 0.000000 0.631851
#
# Coordination Sequence:
#
# PCOD9398874 Si02
#       8
#     8   8   8   8   8   8   8   8
#     4   9  16  26  40  63  91 120 152 184 220 264
#     4   9  16  28  46  66  88 116 154 196 231 266
#     4  11  19  29  48  71  93 120 155 191 229 271
#     4   9  16  27  43  64  90 122 155 188 230 276
#     4   9  18  32  48  65  89 122 152 184 232 282
#     4  10  18  28  45  65  89 122 159 195 227 267
#     4  10  20  32  46  66  93 124 155 187 227 275
#     4   9  18  32  47  64  90 121 152 188 232 277
#
# _framework density 17.111637999999999
#
# number of rings (size 3 to 8) (size 9 to 14) (size 15 to 20)
#    0.000    2.500    2.500    1.875    0.000    2.750 
#    0.000    1.875    0.000    0.750    0.000    0.875 
#    0.000    3.000    0.000    0.000    0.000    0.000 
#
# Total GULP energy -356772.783861 kJ/mol
# GULP energy per Si atom -5574.574748 kJ/mol
# Density = 1.707269 g / cm^3
# Si number density = 17.111638 Si / 1000 Ang^3
#
#
#
# Elastic Constant Matrix: (Units=GPa)
#
#
# Indices 1 2 3 4 5 6 
#
# 1 151.2756 7.1074 63.3439 0.0000 0.0000 0.0000
# 2 7.1074 17.7585 -3.1648 0.0000 0.0000 0.0000
# 3 63.3439 -3.1648 76.0256 0.0000 0.0000 0.0000
# 4 0.0000 0.0000 0.0000 27.3046 0.0000 0.0000
# 5 0.0000 0.0000 0.0000 0.0000 19.2354 0.0000
# 6 0.0000 0.0000 0.0000 0.0000 0.0000 9.8968
#
#
#
# Elastic Compliance Matrix: (Units=1/GPa)
#
#
# Indices 1 2 3 4 5 6 
#
# 1 0.010740 -0.005937 -0.009196 0.000000 0.000000 0.000000
# 2 -0.005937 0.060014 0.007445 0.000000 0.000000 0.000000
# 3 -0.009196 0.007445 0.021125 0.000000 0.000000 0.000000
# 4 0.000000 0.000000 0.000000 0.036624 0.000000 0.000000
# 5 0.000000 0.000000 0.000000 0.000000 0.051988 0.000000
# 6 0.000000 0.000000 0.000000 0.000000 0.000000 0.101043
#
#
# Mechanical properties :
#
#
# Convention : Reuss Voigt Hill
#
# Bulk Modulus (GPa) = 13.07127 42.18141 27.62634
# Shear Modulus (GPa) = 15.50823 23.13890 19.32356
#
# Velocity S-wave (km/s) = 3.01374 3.68126 3.36410
# Velocity P-wave (km/s) = 4.44585 6.54012 5.59190
#
# Compressibility (1/GPa) = 0.07650366
#
# Stress axis : x y z
#
# Youngs Moduli (GPa) = 93.11120 16.66279 47.33728
#
# Poissons Ratio (x) = 0.09893 0.43529
# Poissons Ratio (y) = 0.55281 -0.35243
# Poissons Ratio (z) = 0.85620 -0.12406
#
# Static dielectric constant tensor:
#      x y z
#    x 1.609920 0.000000 0.000000 
#    y 0.000000 1.629770 0.000000 
#    z 0.000000 0.000000 1.563910 
# 
# From -- ./inp_files/26608.got.cif
#   From: 2010.05.17/outbox.cif.g08.bks.cpg/sg51_14_cif.got.tgz:26608.got - 2010.06.03 11:52:47.
