data_PCOD9398819
_publ_section_title
;
Structure prediction by ZEFSAII (Michael W. Deem and Ramdas Pophale) SiO2 
 PCOD9398819
Probable space group: P M M A
;
_chemical_formula_sum "Si O2"
_cell_formula_units_Z 56
_cell_length_a 8.694762
_cell_length_b 19.011958
_cell_length_c 21.691261
_cell_angle_alpha 90.000000
_cell_angle_beta 90.000000
_cell_angle_gamma 90.000000
_cell_volume 3585.661969
_symmetry_space_group_name_H-M "P M M A"
_symmetry_group_IT_number 51
_symmetry_cell_setting 'orthorhombic'
loop_
_space_group_symop_operation_xyz
x,y,z
1/2-x,-y,z
1/2+x,-y,-z
-x,y,-z
-x,-y,-z
1/2+x,y,-z
1/2-x,y,z
x,-y,z
loop_
_atom_site_type_symbol
_atom_site_label
_atom_site_fract_x
_atom_site_fract_y
_atom_site_fract_z
Si Si1 0.073438 0.787842 0.619771
Si Si2 0.936939 0.919186 0.311901
Si Si3 0.435269 0.918281 0.065591
Si Si4 0.926323 0.709817 0.246892
Si Si5 0.566297 0.419388 0.688698
Si Si6 0.565729 0.156178 0.809054
Si Si7 0.935669 0.352957 0.435190
O O1 0.250000 0.798642 0.599745
O O2 0.006258 0.864351 0.635531
O O3 0.075164 0.749420 0.686567
O O4 0.005671 0.727761 0.575851
O O5 0.750000 0.914896 0.310830
O O6 0.997087 0.891097 0.246252
O O7 0.981019 0.000000 0.321929
O O8 0.250000 0.916536 0.063047
O O9 0.484835 0.873858 0.124913
O O10 0.482459 0.000000 0.073915
O O11 0.500000 0.893741 0.000000
O O12 0.750000 0.700344 0.227980
O O13 0.005700 0.635749 0.260771
O O14 0.011840 0.764036 0.202371
O O15 0.750000 0.412788 0.683678
O O16 0.527111 0.500000 0.703024
O O17 0.493181 0.397597 0.623046
O O18 0.750000 0.152325 0.805294
O O19 0.750000 0.352518 0.434967
O O20 0.000000 0.379181 0.500000
#
# Coordination Sequence:
#
# PCOD9398819 Si02
#       7
#     8   8   8   8   8   8   8
#     4   7  13  26  41  58  79 104 136 175 217 258
#     4   9  16  26  42  63  84 108 142 184 229 274
#     4   9  18  30  42  59  87 124 162 197 232 267
#     4   9  17  30  47  66  88 115 147 179 215 261
#     4  10  20  33  49  70  95 119 142 172 215 264
#     4  10  18  28  43  63  89 118 150 189 228 265
#     4  10  19  31  47  64  85 115 151 186 218 259
#
# _framework density 15.617758
#
# number of rings (size 3 to 8) (size 9 to 14) (size 15 to 20)
#    0.000    2.857    0.000    3.857    0.000    3.429 
#    0.000    2.143    0.000    0.429    0.000    0.000 
#    0.000    0.571    0.000    1.857    0.000    2.714 
#
# Total GULP energy -311805.344505 kJ/mol
# GULP energy per Si atom -5567.952580 kJ/mol
# Density = 1.558221 g / cm^3
# Si number density = 15.617758 Si / 1000 Ang^3
#
#
#
# Elastic Constant Matrix: (Units=GPa)
#
#
# Indices 1 2 3 4 5 6 
#
# 1 31.8444 25.9066 6.2681 0.0000 0.0000 0.0000
# 2 25.9066 110.7744 15.9685 0.0000 0.0000 0.0000
# 3 6.2681 15.9685 31.2955 0.0000 0.0000 0.0000
# 4 0.0000 0.0000 0.0000 17.5546 0.0000 0.0000
# 5 0.0000 0.0000 0.0000 0.0000 16.8536 0.0000
# 6 0.0000 0.0000 0.0000 0.0000 0.0000 20.8573
#
#
#
# Elastic Compliance Matrix: (Units=1/GPa)
#
#
# Indices 1 2 3 4 5 6 
#
# 1 0.039117 -0.008655 -0.003418 0.000000 0.000000 0.000000
# 2 -0.008655 0.011659 -0.004216 0.000000 0.000000 0.000000
# 3 -0.003418 -0.004216 0.034789 0.000000 0.000000 0.000000
# 4 0.000000 0.000000 0.000000 0.056965 0.000000 0.000000
# 5 0.000000 0.000000 0.000000 0.000000 0.059335 0.000000
# 6 0.000000 0.000000 0.000000 0.000000 0.000000 0.047945
#
#
# Mechanical properties :
#
#
# Convention : Reuss Voigt Hill
#
# Bulk Modulus (GPa) = 18.87260 30.02230 24.44745
# Shear Modulus (GPa) = 16.66384 19.43783 18.05083
#
# Velocity S-wave (km/s) = 3.27001 3.53171 3.40338
# Velocity P-wave (km/s) = 5.13494 5.99129 5.57957
#
# Compressibility (1/GPa) = 0.05298686
#
# Stress axis : x y z
#
# Youngs Moduli (GPa) = 25.56430 85.76867 28.74469
#
# Poissons Ratio (x) = 0.74237 0.09826
# Poissons Ratio (y) = 0.22127 0.12117
# Poissons Ratio (z) = 0.08739 0.36156
#
# Static dielectric constant tensor:
#      x y z
#    x 1.533000 0.000000 0.000000 
#    y 0.000000 1.549860 0.000000 
#    z 0.000000 0.000000 1.499100 
# 
# From -- ./inp_files/32248.got.cif
#   From: 2010.05.17/outbox.cif.g08.bks.cpg/sg51_17_cif.got.tgz:32248.got - 2010.06.03 11:52:47.
