data_PCOD9398550
_publ_section_title
;
Structure prediction by ZEFSAII (Michael W. Deem and Ramdas Pophale) SiO2 
 PCOD9398550
Probable space group: P M M A
;
_chemical_formula_sum "Si O2"
_cell_formula_units_Z 64
_cell_length_a 22.569343
_cell_length_b 7.385292
_cell_length_c 20.055187
_cell_angle_alpha 90.000000
_cell_angle_beta 90.000000
_cell_angle_gamma 90.000000
_cell_volume 3342.822401
_symmetry_space_group_name_H-M "P M M A"
_symmetry_group_IT_number 51
_symmetry_cell_setting 'orthorhombic'
loop_
_space_group_symop_operation_xyz
x,y,z
1/2-x,-y,z
1/2+x,-y,-z
-x,y,-z
-x,-y,-z
1/2+x,y,-z
1/2-x,y,z
x,-y,z
loop_
_atom_site_type_symbol
_atom_site_label
_atom_site_fract_x
_atom_site_fract_y
_atom_site_fract_z
Si Si1 0.984789 0.221566 0.679863
Si Si2 0.684814 0.288876 0.219647
Si Si3 0.484797 0.221469 0.168603
Si Si4 0.060442 0.219970 0.460278
Si Si5 0.391668 0.218247 0.899070
Si Si6 0.885005 0.204219 0.343715
Si Si7 0.065370 0.787770 0.034109
Si Si8 0.183082 0.779562 0.531134
O O1 0.971979 0.279578 0.755810
O O2 0.944203 0.272682 0.617466
O O3 0.050372 0.288333 0.659431
O O4 0.985807 0.000000 0.682298
O O5 0.750000 0.214711 0.230344
O O6 0.684228 0.500000 0.236794
O O7 0.664665 0.269116 0.143901
O O8 0.638851 0.198468 0.269132
O O9 0.550306 0.277361 0.143189
O O10 0.441210 0.283965 0.109043
O O11 0.484466 0.000000 0.168133
O O12 0.123937 0.277246 0.490508
O O13 0.000000 0.277038 0.500000
O O14 0.059630 0.000000 0.463422
O O15 0.395236 0.000000 0.902147
O O16 0.394085 0.287397 0.974898
O O17 0.835004 0.275831 0.393351
O O18 0.895751 0.000000 0.368497
O O19 0.079999 0.000000 0.041571
O O20 0.000000 0.778355 0.000000
O O21 0.250000 0.716668 0.514164
O O22 0.185990 0.000000 0.526587
#
# Coordination Sequence:
#
# PCOD9398550 Si02
#       8
#     8   8   8   8   8   8   8   8
#     4   9  14  20  36  61  84 107 135 170 211 252
#     4  11  23  33  39  54  84 117 143 170 210 255
#     4   8  12  20  36  61  86 101 126 165 204 245
#     4   9  14  21  32  52  85 113 136 172 216 254
#     4   9  15  26  44  61  77 103 140 175 201 234
#     4  10  17  28  45  62  79 105 145 183 209 241
#     4   7  11  19  35  59  81  99 122 160 202 236
#     4   9  16  24  36  56  81 109 141 178 215 249
#
# _framework density 19.145498
#
# number of rings (size 3 to 8) (size 9 to 14) (size 15 to 20)
#    0.000    3.000    2.500    2.250    0.000    1.500 
#    0.000    0.000    0.000    3.375    0.000    2.625 
#    0.000    5.000    0.000    0.000    0.000    0.500 
#
# Total GULP energy -356375.386729 kJ/mol
# GULP energy per Si atom -5568.365418 kJ/mol
# Density = 1.910192 g / cm^3
# Si number density = 19.145498 Si / 1000 Ang^3
#
#
#
# Elastic Constant Matrix: (Units=GPa)
#
#
# Indices 1 2 3 4 5 6 
#
# 1 89.3552 0.8566 54.1453 0.0000 0.0000 0.0000
# 2 0.8566 65.2560 3.3745 0.0000 0.0000 0.0000
# 3 54.1453 3.3745 141.2226 0.0000 0.0000 0.0000
# 4 0.0000 0.0000 0.0000 -37.8963 0.0000 0.0000
# 5 0.0000 0.0000 0.0000 0.0000 21.2851 0.0000
# 6 0.0000 0.0000 0.0000 0.0000 0.0000 5.1571
#
#
#
# Elastic Compliance Matrix: (Units=1/GPa)
#
#
# Indices 1 2 3 4 5 6 
#
# 1 0.014579 0.000098 -0.005592 0.000000 0.000000 0.000000
# 2 0.000098 0.015344 -0.000404 0.000000 0.000000 0.000000
# 3 -0.005592 -0.000404 0.009235 0.000000 0.000000 0.000000
# 4 0.000000 0.000000 0.000000 -0.026388 0.000000 0.000000
# 5 0.000000 0.000000 0.000000 0.000000 0.046981 0.000000
# 6 0.000000 0.000000 0.000000 0.000000 0.000000 0.193906
#
#
# Mechanical properties :
#
#
# Convention : Reuss Voigt Hill
#
# Bulk Modulus (GPa) = 36.54860 45.84294 41.19577
# Shear Modulus (GPa) = 18.21004 13.53968 15.87486
#
# Velocity S-wave (km/s) = 3.08740 2.66221 2.88265
# Velocity P-wave (km/s) = 5.64276 5.78328 5.71345
#
# Compressibility (1/GPa) = 0.02736083
#
# Stress axis : x y z
#
# Youngs Moduli (GPa) = 68.59267 65.17259 108.28787
#
# Poissons Ratio (x) = -0.00637 0.60554
# Poissons Ratio (y) = -0.00671 0.04376
# Poissons Ratio (z) = 0.38356 0.02634
#
# Static dielectric constant tensor:
#      x y z
#    x 1.650980 0.000000 0.000000 
#    y 0.000000 1.744130 0.000000 
#    z 0.000000 0.000000 1.699270 
# 
# From -- ./inp_files/34154.got.cif
#   From: 2010.05.17/outbox.cif.g08.bks.cpg/sg51_18_cif.got.tgz:34154.got - 2010.06.03 11:52:47.
