data_PCOD9398349
_publ_section_title
;
Structure prediction by ZEFSAII (Michael W. Deem and Ramdas Pophale) SiO2 
 PCOD9398349
Probable space group: P M M A
;
_chemical_formula_sum "Si O2"
_cell_formula_units_Z 40
_cell_length_a 8.562297
_cell_length_b 27.430997
_cell_length_c 9.184148
_cell_angle_alpha 90.000000
_cell_angle_beta 90.000000
_cell_angle_gamma 90.000000
_cell_volume 2157.102362
_symmetry_space_group_name_H-M "P M M A"
_symmetry_group_IT_number 51
_symmetry_cell_setting 'orthorhombic'
loop_
_space_group_symop_operation_xyz
x,y,z
1/2-x,-y,z
1/2+x,-y,-z
-x,y,-z
-x,-y,-z
1/2+x,y,-z
1/2-x,y,z
x,-y,z
loop_
_atom_site_type_symbol
_atom_site_label
_atom_site_fract_x
_atom_site_fract_y
_atom_site_fract_z
Si Si1 0.438906 0.096345 0.162983
Si Si2 0.564073 0.600718 0.333279
Si Si3 0.561579 0.808119 0.664644
Si Si4 0.436141 0.500000 0.333282
Si Si5 0.561390 0.000000 0.663176
Si Si6 0.437358 0.701089 0.333826
O O1 0.250000 0.096632 0.161161
O O2 0.492463 0.146188 0.240513
O O3 0.489983 0.048790 0.253061
O O4 0.500000 0.093579 0.000000
O O5 0.500000 0.601660 0.500000
O O6 0.750000 0.598717 0.337836
O O7 0.497768 0.550655 0.266670
O O8 0.508090 0.651955 0.265925
O O9 0.500000 0.812626 0.500000
O O10 0.750000 0.809225 0.658097
O O11 0.518404 0.754487 0.726256
O O12 0.250000 0.500000 0.337320
O O13 0.500000 0.500000 0.500000
O O14 0.500000 0.000000 0.500000
O O15 0.750000 0.000000 0.660460
O O16 0.500000 0.702784 0.500000
O O17 0.250000 0.696530 0.335982
#
# Coordination Sequence:
#
# PCOD9398349 Si02
#       6
#     8   8   8   4   4   8
#     4  10  21  36  52  75 103 133 165 202 243 291
#     4  10  16  22  31  46  69  99 137 181 225 274
#     4   9  18  31  48  69  94 122 160 202 243 289
#     4  10  16  22  30  42  64  98 139 180 223 274
#     4  10  21  36  56  80 106 132 167 206 244 288
#     4   9  15  24  37  54  76 105 140 184 230 276
#
# _framework density 18.543395
#
# number of rings (size 3 to 8) (size 9 to 14) (size 15 to 20)
#    0.000    2.400    0.000    6.600    0.000    2.400 
#    0.000    0.000    0.000    0.000    0.000    0.000 
#    0.000    0.000    0.000    0.900    0.000   11.800 
#
# Total GULP energy -222935.666460 kJ/mol
# GULP energy per Si atom -5573.391661 kJ/mol
# Density = 1.850119 g / cm^3
# Si number density = 18.543395 Si / 1000 Ang^3
#
#
#
# Elastic Constant Matrix: (Units=GPa)
#
#
# Indices 1 2 3 4 5 6 
#
# 1 76.8593 56.6120 12.7419 0.0000 0.0000 0.0000
# 2 56.6120 244.7845 65.6649 0.0000 0.0000 0.0000
# 3 12.7419 65.6649 58.5089 0.0000 0.0000 0.0000
# 4 0.0000 0.0000 0.0000 -4.2802 0.0000 0.0000
# 5 0.0000 0.0000 0.0000 0.0000 16.6919 0.0000
# 6 0.0000 0.0000 0.0000 0.0000 0.0000 27.2019
#
#
#
# Elastic Compliance Matrix: (Units=1/GPa)
#
#
# Indices 1 2 3 4 5 6 
#
# 1 0.015718 -0.003887 0.000940 0.000000 0.000000 0.000000
# 2 -0.003887 0.006806 -0.006792 0.000000 0.000000 0.000000
# 3 0.000940 -0.006792 0.024510 0.000000 0.000000 0.000000
# 4 0.000000 0.000000 0.000000 -0.233636 0.000000 0.000000
# 5 0.000000 0.000000 0.000000 0.000000 0.059909 0.000000
# 6 0.000000 0.000000 0.000000 0.000000 0.000000 0.036762
#
#
# Mechanical properties :
#
#
# Convention : Reuss Voigt Hill
#
# Bulk Modulus (GPa) = 36.29158 72.24337 54.26748
# Shear Modulus (GPa) = -81.61123 24.26499 -28.67312
#
# Velocity S-wave (km/s) = -6.64127 3.62132 -3.93653
# Velocity P-wave (km/s) = 6.26059 7.51857 2.94397
#
# Compressibility (1/GPa) = 0.02755460
#
# Stress axis : x y z
#
# Youngs Moduli (GPa) = 63.62036 146.92294 40.80012
#
# Poissons Ratio (x) = 0.57113 -0.03834
# Poissons Ratio (y) = 0.24731 0.27712
# Poissons Ratio (z) = -0.05978 0.99793
#
# Static dielectric constant tensor:
#      x y z
#    x 1.618660 0.000000 0.000000 
#    y 0.000000 1.735070 0.000000 
#    z 0.000000 0.000000 1.581020 
# 
# From -- ./inp_files/5578.got.cif
#   From: 2010.05.17/outbox.cif.g08.bks.cpg/sg51_3_cif.got.tgz:5578.got - 2010.06.03 11:52:47.
