data_PCOD9398826
_publ_section_title
;
Structure prediction by ZEFSAII (Michael W. Deem and Ramdas Pophale) SiO2 
 PCOD9398826
Probable space group: P M M A
;
_chemical_formula_sum "Si O2"
_cell_formula_units_Z 64
_cell_length_a 24.035183
_cell_length_b 8.576182
_cell_length_c 17.327548
_cell_angle_alpha 90.000000
_cell_angle_beta 90.000000
_cell_angle_gamma 90.000000
_cell_volume 3571.729268
_symmetry_space_group_name_H-M "P M M A"
_symmetry_group_IT_number 51
_symmetry_cell_setting 'orthorhombic'
loop_
_space_group_symop_operation_xyz
x,y,z
1/2-x,-y,z
1/2+x,-y,-z
-x,y,-z
-x,-y,-z
1/2+x,y,-z
1/2-x,y,z
x,-y,z
loop_
_atom_site_type_symbol
_atom_site_label
_atom_site_fract_x
_atom_site_fract_y
_atom_site_fract_z
Si Si1 0.811954 0.810629 0.807769
Si Si2 0.094152 0.188177 0.295036
Si Si3 0.491743 0.189642 0.413447
Si Si4 0.103208 0.813933 0.056769
Si Si5 0.428402 0.814683 0.726709
Si Si6 0.486510 0.684297 0.160769
Si Si7 0.311392 0.313307 0.755499
Si Si8 0.312028 0.313468 0.938831
O O1 0.750000 0.748355 0.814171
O O2 0.843514 0.768966 0.728569
O O3 0.852054 0.762559 0.877565
O O4 0.809329 0.000000 0.811159
O O5 0.054937 0.261586 0.229481
O O6 0.068124 0.231323 0.376843
O O7 0.089116 0.000000 0.287162
O O8 0.500000 0.248506 0.500000
O O9 0.536790 0.239489 0.348824
O O10 0.494872 0.000000 0.416380
O O11 0.043258 0.749259 0.083634
O O12 0.099183 0.000000 0.057556
O O13 0.134279 0.759114 0.979815
O O14 0.455015 0.745955 0.805669
O O15 0.364506 0.767791 0.718989
O O16 0.434752 0.000000 0.731434
O O17 0.489240 0.500000 0.154697
O O18 0.250000 0.263658 0.727943
O O19 0.315707 0.500000 0.745504
O O20 0.313539 0.283074 0.847498
O O21 0.250000 0.258781 0.966957
O O22 0.313813 0.500000 0.950194
#
# Coordination Sequence:
#
# PCOD9398826 Si02
#       8
#     8   8   8   8   8   8   8   8
#     4   8  13  21  35  57  84 114 148 185 224 265
#     4   8  14  25  41  62  88 117 152 191 227 271
#     4   8  14  26  46  71  97 123 148 181 232 285
#     4  10  18  28  43  65  93 123 160 204 245 285
#     4  10  19  32  52  76  99 123 157 200 240 285
#     4  10  18  29  46  66  92 126 159 193 239 290
#     4   9  19  36  55  73  96 128 163 198 239 287
#     4   9  18  32  48  67  93 125 162 204 248 291
#
# _framework density 17.918492000000001
#
# number of rings (size 3 to 8) (size 9 to 14) (size 15 to 20)
#    0.000    3.000    0.000    4.500    0.000    1.500 
#    0.000    1.875    0.000   17.250    0.000    3.500 
#    0.000    0.000    0.000    0.000    0.000    0.000 
#
# Total GULP energy -356304.255814 kJ/mol
# GULP energy per Si atom -5567.253997 kJ/mol
# Density = 1.787771 g / cm^3
# Si number density = 17.918492 Si / 1000 Ang^3
#
#
#
# Elastic Constant Matrix: (Units=GPa)
#
#
# Indices 1 2 3 4 5 6 
#
# 1 74.6443 11.0615 14.6458 0.0000 0.0000 0.0000
# 2 11.0615 25.6162 12.5009 0.0000 0.0000 0.0000
# 3 14.6458 12.5009 39.9297 0.0000 0.0000 0.0000
# 4 0.0000 0.0000 0.0000 34.2749 0.0000 0.0000
# 5 0.0000 0.0000 0.0000 0.0000 12.6166 0.0000
# 6 0.0000 0.0000 0.0000 0.0000 0.0000 22.8762
#
#
#
# Elastic Compliance Matrix: (Units=1/GPa)
#
#
# Indices 1 2 3 4 5 6 
#
# 1 0.014850 -0.004431 -0.004059 0.000000 0.000000 0.000000
# 2 -0.004431 0.047400 -0.013214 0.000000 0.000000 0.000000
# 3 -0.004059 -0.013214 0.030670 0.000000 0.000000 0.000000
# 4 0.000000 0.000000 0.000000 0.029176 0.000000 0.000000
# 5 0.000000 0.000000 0.000000 0.000000 0.079261 0.000000
# 6 0.000000 0.000000 0.000000 0.000000 0.000000 0.043713
#
#
# Mechanical properties :
#
#
# Convention : Reuss Voigt Hill
#
# Bulk Modulus (GPa) = 20.19805 24.06741 22.13273
# Shear Modulus (GPa) = 16.39432 20.75235 18.57334
#
# Velocity S-wave (km/s) = 3.02808 3.40686 3.22304
# Velocity P-wave (km/s) = 4.84998 5.37925 5.12146
#
# Compressibility (1/GPa) = 0.04950974
#
# Stress axis : x y z
#
# Youngs Moduli (GPa) = 67.33974 21.09706 32.60520
#
# Poissons Ratio (x) = 0.09349 0.13236
# Poissons Ratio (y) = 0.29841 0.43085
# Poissons Ratio (z) = 0.27336 0.27878
#
# Static dielectric constant tensor:
#      x y z
#    x 1.690730 0.000000 0.000000 
#    y 0.000000 1.605500 0.000000 
#    z 0.000000 0.000000 1.630390 
# 
# From -- ./inp_files/30848.got.cif
#   From: 2010.05.17/outbox.cif.g08.bks.cpg/sg51_16_cif.got.tgz:30848.got - 2010.06.03 11:52:47.
