data_PCOD9398876
_publ_section_title
;
Structure prediction by ZEFSAII (Michael W. Deem and Ramdas Pophale) SiO2 
 PCOD9398876
Probable space group: P M M A
;
_chemical_formula_sum "Si O2"
_cell_formula_units_Z 48
_cell_length_a 14.498337
_cell_length_b 7.339516
_cell_length_c 21.495989
_cell_angle_alpha 90.000000
_cell_angle_beta 90.000000
_cell_angle_gamma 90.000000
_cell_volume 2287.404879
_symmetry_space_group_name_H-M "P M M A"
_symmetry_group_IT_number 51
_symmetry_cell_setting 'orthorhombic'
loop_
_space_group_symop_operation_xyz
x,y,z
1/2-x,-y,z
1/2+x,-y,-z
-x,y,-z
-x,-y,-z
1/2+x,y,-z
1/2-x,y,z
x,-y,z
loop_
_atom_site_type_symbol
_atom_site_label
_atom_site_fract_x
_atom_site_fract_y
_atom_site_fract_z
Si Si1 0.038815 0.778051 0.404942
Si Si2 0.039062 0.280611 0.157473
Si Si3 0.357246 0.279158 0.034436
Si Si4 0.354609 0.722085 0.894407
Si Si5 0.145658 0.214863 0.284529
Si Si6 0.354961 0.778336 0.530419
O O1 0.082542 0.712721 0.340558
O O2 0.105164 0.727024 0.462555
O O3 0.934377 0.719992 0.421099
O O4 0.036333 0.000000 0.404337
O O5 0.039265 0.500000 0.154932
O O6 0.087018 0.214374 0.093973
O O7 0.095515 0.232530 0.218528
O O8 0.932741 0.220395 0.153827
O O9 0.250000 0.232829 0.042540
O O10 0.364477 0.500000 0.034157
O O11 0.383499 0.222111 0.964614
O O12 0.250000 0.782732 0.882805
O O13 0.352336 0.500000 0.894813
O O14 0.250000 0.289308 0.283051
O O15 0.154105 0.000000 0.296827
O O16 0.250000 0.716321 0.540401
O O17 0.352937 0.000000 0.531583
#
# Coordination Sequence:
#
# PCOD9398876 Si02
#       6
#     8   8   8   8   8   8
#     4   8  14  24  38  58  84 112 139 168 208 255
#     4  10  18  28  45  67  88 111 144 183 214 246
#     4   8  13  22  39  64  88 106 132 177 225 258
#     4   8  14  25  42  64  87 110 139 178 223 262
#     4  10  20  32  44  60  88 122 146 167 208 266
#     4   8  12  20  38  62  83 103 135 180 217 241
#
# _framework density 20.984480000000001
#
# number of rings (size 3 to 8) (size 9 to 14) (size 15 to 20)
#    0.000    3.333    0.000    3.500    0.000    5.000 
#    0.000    0.833    0.000    3.500    0.000    4.667 
#    0.000    1.333    0.000    0.000    0.000    0.000 
#
# Total GULP energy -267750.828003 kJ/mol
# GULP energy per Si atom -5578.142250 kJ/mol
# Density = 2.093672 g / cm^3
# Si number density = 20.984480 Si / 1000 Ang^3
#
#
#
# Elastic Constant Matrix: (Units=GPa)
#
#
# Indices 1 2 3 4 5 6 
#
# 1 207.6185 4.9096 115.4653 0.0000 0.0000 0.0000
# 2 4.9096 77.6054 -1.1763 0.0000 0.0000 0.0000
# 3 115.4653 -1.1763 101.1502 0.0000 0.0000 0.0000
# 4 0.0000 0.0000 0.0000 10.9944 0.0000 0.0000
# 5 0.0000 0.0000 0.0000 0.0000 26.8545 0.0000
# 6 0.0000 0.0000 0.0000 0.0000 0.0000 -3.6501
#
#
#
# Elastic Compliance Matrix: (Units=1/GPa)
#
#
# Indices 1 2 3 4 5 6 
#
# 1 0.013279 -0.001070 -0.015170 0.000000 0.000000 0.000000
# 2 -0.001070 0.012974 0.001372 0.000000 0.000000 0.000000
# 3 -0.015170 0.001372 0.027220 0.000000 0.000000 0.000000
# 4 0.000000 0.000000 0.000000 0.090956 0.000000 0.000000
# 5 0.000000 0.000000 0.000000 0.000000 0.037238 0.000000
# 6 0.000000 0.000000 0.000000 0.000000 0.000000 -0.273967
#
#
# Mechanical properties :
#
#
# Convention : Reuss Voigt Hill
#
# Bulk Modulus (GPa) = 42.12950 69.41902 55.77426
# Shear Modulus (GPa) = -91.48605 24.65146 -33.41729
#
# Velocity S-wave (km/s) = -6.60997 3.43118 -3.99491
# Velocity P-wave (km/s) = 6.17539 6.98929 2.31461
#
# Compressibility (1/GPa) = 0.02373634
#
# Stress axis : x y z
#
# Youngs Moduli (GPa) = 75.30850 77.07606 36.73825
#
# Poissons Ratio (x) = 0.08247 0.55733
# Poissons Ratio (y) = 0.08058 -0.05042
# Poissons Ratio (z) = 1.14246 -0.10577
#
# Static dielectric constant tensor:
#      x y z
#    x 1.760250 0.000000 0.000000 
#    y 0.000000 1.861480 0.000000 
#    z 0.000000 0.000000 1.708360 
# 
# From -- ./inp_files/29720.got.cif
#   From: 2010.05.17/outbox.cif.g08.bks.cpg/sg51_15_cif.got.tgz:29720.got - 2010.06.03 11:52:47.
