data_PCOD9398627
_publ_section_title
;
Structure prediction by ZEFSAII (Michael W. Deem and Ramdas Pophale) SiO2 
 PCOD9398627
Probable space group: P M M A
;
_chemical_formula_sum "Si O2"
_cell_formula_units_Z 40
_cell_length_a 14.847143
_cell_length_b 13.414799
_cell_length_c 10.512984
_cell_angle_alpha 90.000000
_cell_angle_beta 90.000000
_cell_angle_gamma 90.000000
_cell_volume 2093.886152
_symmetry_space_group_name_H-M "P M M A"
_symmetry_group_IT_number 51
_symmetry_cell_setting 'orthorhombic'
loop_
_space_group_symop_operation_xyz
x,y,z
1/2-x,-y,z
1/2+x,-y,-z
-x,y,-z
-x,-y,-z
1/2+x,y,-z
1/2-x,y,z
x,-y,z
loop_
_atom_site_type_symbol
_atom_site_label
_atom_site_fract_x
_atom_site_fract_y
_atom_site_fract_z
Si Si1 0.853247 0.297467 0.460991
Si Si2 0.094127 0.749058 0.043243
Si Si3 0.250000 0.117495 0.462218
Si Si4 0.859140 0.382163 0.725882
Si Si5 0.750000 0.117522 0.844734
Si Si6 0.141502 0.386400 0.802484
O O1 0.750000 0.338665 0.463334
O O2 0.834877 0.179073 0.479377
O O3 0.892513 0.341299 0.590111
O O4 0.891534 0.333756 0.327643
O O5 0.123461 0.681633 0.924157
O O6 0.089275 0.673332 0.161820
O O7 0.164686 0.830862 0.089548
O O8 0.000000 0.794731 0.000000
O O9 0.250000 0.133442 0.309092
O O10 0.250000 0.000000 0.488104
O O11 0.750000 0.361938 0.741192
O O12 0.870113 0.500000 0.732379
O O13 0.750000 0.000000 0.864906
O O14 0.250000 0.392347 0.794916
O O15 0.107074 0.500000 0.813878
#
# Coordination Sequence:
#
# PCOD9398627 Si02
#       6
#     8   8   4   8   4   8
#     4   8  15  30  51  82 112 146 198 237 291 340
#     4  12  23  38  58  87 119 153 195 239 286 339
#     4   9  16  31  60  87 107 141 197 249 298 343
#     4  10  17  31  55  80 112 154 201 238 279 343
#     4  11  22  43  66  85 111 149 197 243 294 341
#     4  10  19  33  55  84 123 161 189 231 290 346
#
# _framework density 19.103234
#
# number of rings (size 3 to 8) (size 9 to 14) (size 15 to 20)
#    0.600    1.400    4.000    1.200    0.000    6.000 
#    0.000    3.000    0.000    2.400    0.000    2.800 
#    0.000    0.000    0.000    0.000    0.000    0.000 
#
# Total GULP energy -222956.658074 kJ/mol
# GULP energy per Si atom -5573.916452 kJ/mol
# Density = 1.905975 g / cm^3
# Si number density = 19.103234 Si / 1000 Ang^3
#
#
#
# Elastic Constant Matrix: (Units=GPa)
#
#
# Indices 1 2 3 4 5 6 
#
# 1 29.3584 14.9207 5.2530 0.0000 0.0000 0.0000
# 2 14.9207 144.0383 48.7063 0.0000 0.0000 0.0000
# 3 5.2530 48.7063 142.6445 0.0000 0.0000 0.0000
# 4 0.0000 0.0000 0.0000 9.9644 0.0000 0.0000
# 5 0.0000 0.0000 0.0000 0.0000 4.0492 0.0000
# 6 0.0000 0.0000 0.0000 0.0000 0.0000 -2.9753
#
#
#
# Elastic Compliance Matrix: (Units=1/GPa)
#
#
# Indices 1 2 3 4 5 6 
#
# 1 0.035955 -0.003705 -0.000059 0.000000 0.000000 0.000000
# 2 -0.003705 0.008231 -0.002674 0.000000 0.000000 0.000000
# 3 -0.000059 -0.002674 0.007926 0.000000 0.000000 0.000000
# 4 0.000000 0.000000 0.000000 0.100357 0.000000 0.000000
# 5 0.000000 0.000000 0.000000 0.000000 0.246960 0.000000
# 6 0.000000 0.000000 0.000000 0.000000 0.000000 -0.336102
#
#
# Mechanical properties :
#
#
# Convention : Reuss Voigt Hill
#
# Bulk Modulus (GPa) = 25.48677 50.42239 37.95458
# Shear Modulus (GPa) = 56.00275 18.68507 37.34391
#
# Velocity S-wave (km/s) = 5.42028 3.13087 4.42616
# Velocity P-wave (km/s) = 7.24867 6.28663 6.78472
#
# Compressibility (1/GPa) = 0.03923604
#
# Stress axis : x y z
#
# Youngs Moduli (GPa) = 27.81246 121.49889 126.17302
#
# Poissons Ratio (x) = 0.45010 0.00746
# Poissons Ratio (y) = 0.10303 0.33738
# Poissons Ratio (z) = 0.00165 0.32488
#
# Static dielectric constant tensor:
#      x y z
#    x 1.697350 0.000000 0.000000 
#    y 0.000000 1.636780 0.000000 
#    z 0.000000 0.000000 1.668460 
# 
# From -- ./inp_files/8002.got.cif
#   From: 2010.05.17/outbox.cif.g08.bks.cpg/sg51_5_cif.got.tgz:8002.got - 2010.06.03 11:52:47.
