data_PCOD9398388
_publ_section_title
;
Structure prediction by ZEFSAII (Michael W. Deem and Ramdas Pophale) SiO2 
 PCOD9398388
Probable space group: P M M A
;
_chemical_formula_sum "Si O2"
_cell_formula_units_Z 40
_cell_length_a 8.535407
_cell_length_b 28.137542
_cell_length_c 7.804700
_cell_angle_alpha 90.000000
_cell_angle_beta 90.000000
_cell_angle_gamma 90.000000
_cell_volume 1874.418686
_symmetry_space_group_name_H-M "P M M A"
_symmetry_group_IT_number 51
_symmetry_cell_setting 'orthorhombic'
loop_
_space_group_symop_operation_xyz
x,y,z
1/2-x,-y,z
1/2+x,-y,-z
-x,y,-z
-x,-y,-z
1/2+x,y,-z
1/2-x,y,z
x,-y,z
loop_
_atom_site_type_symbol
_atom_site_label
_atom_site_fract_x
_atom_site_fract_y
_atom_site_fract_z
Si Si1 0.438021 0.897542 0.802858
Si Si2 0.062751 0.800435 0.191712
Si Si3 0.563297 0.401627 0.302837
Si Si4 0.063162 0.500000 0.303131
Si Si5 0.437953 0.695900 0.307715
Si Si6 0.060755 0.000000 0.803806
O O1 0.250000 0.894856 0.806480
O O2 0.501172 0.848795 0.720919
O O3 0.487750 0.948897 0.726988
O O4 0.500000 0.898962 0.000000
O O5 0.250000 0.801509 0.197431
O O6 0.009869 0.748148 0.248950
O O7 0.000000 0.803728 0.000000
O O8 0.500000 0.401707 0.500000
O O9 0.750000 0.402586 0.307007
O O10 0.498779 0.450664 0.224756
O O11 0.505302 0.351959 0.222055
O O12 0.250000 0.500000 0.306453
O O13 0.000000 0.500000 0.500000
O O14 0.500000 0.693653 0.500000
O O15 0.250000 0.693583 0.300843
O O16 0.250000 0.000000 0.808207
O O17 0.000000 0.000000 0.000000
#
# Coordination Sequence:
#
# PCOD9398388 Si02
#       6
#     8   8   8   4   8   4
#     4   9  15  24  39  59  86 116 147 182 224 268
#     4  10  20  32  47  68  94 122 155 190 227 271
#     4  10  17  26  41  62  88 117 149 185 226 271
#     4  10  16  24  38  58  87 118 147 182 225 270
#     4  10  20  33  48  68  93 122 155 191 229 272
#     4   8  14  22  34  56  83 112 143 178 220 268
#
# _framework density 21.339950000000002
#
# number of rings (size 3 to 8) (size 9 to 14) (size 15 to 20)
#    0.000    2.400    0.000    8.100    0.000    4.000 
#    0.000    0.000    0.000    0.000    0.000    1.400 
#    0.000    0.000    0.000    0.000    0.000    0.000 
#
# Total GULP energy -222845.985773 kJ/mol
# GULP energy per Si atom -5571.149644 kJ/mol
# Density = 2.129138 g / cm^3
# Si number density = 21.339950 Si / 1000 Ang^3
#
#
#
# Elastic Constant Matrix: (Units=GPa)
#
#
# Indices 1 2 3 4 5 6 
#
# 1 97.7503 69.7548 -1.5908 0.0000 0.0000 0.0000
# 2 69.7548 310.5578 21.4414 0.0000 0.0000 0.0000
# 3 -1.5908 21.4414 19.7866 0.0000 0.0000 0.0000
# 4 0.0000 0.0000 0.0000 13.3314 0.0000 0.0000
# 5 0.0000 0.0000 0.0000 0.0000 3.9648 0.0000
# 6 0.0000 0.0000 0.0000 0.0000 0.0000 39.4368
#
#
#
# Elastic Compliance Matrix: (Units=1/GPa)
#
#
# Indices 1 2 3 4 5 6 
#
# 1 0.012525 -0.003116 0.004383 0.000000 0.000000 0.000000
# 2 -0.003116 0.004256 -0.004862 0.000000 0.000000 0.000000
# 3 0.004383 -0.004862 0.056160 0.000000 0.000000 0.000000
# 4 0.000000 0.000000 0.000000 0.075011 0.000000 0.000000
# 5 0.000000 0.000000 0.000000 0.000000 0.252219 0.000000
# 6 0.000000 0.000000 0.000000 0.000000 0.000000 0.025357
#
#
# Mechanical properties :
#
#
# Convention : Reuss Voigt Hill
#
# Bulk Modulus (GPa) = 15.20863 67.47839 41.34351
# Shear Modulus (GPa) = 10.99786 33.91256 22.45521
#
# Velocity S-wave (km/s) = 2.27263 3.99075 3.24738
# Velocity P-wave (km/s) = 3.74550 7.27490 5.78588
#
# Compressibility (1/GPa) = 0.06575215
#
# Stress axis : x y z
#
# Youngs Moduli (GPa) = 79.84039 234.98681 17.80614
#
# Poissons Ratio (x) = 0.73219 -0.07805
# Poissons Ratio (y) = 0.24877 0.08657
# Poissons Ratio (z) = -0.34998 1.14250
#
# Static dielectric constant tensor:
#      x y z
#    x 1.714000 0.000000 0.000000 
#    y 0.000000 1.956490 0.000000 
#    z 0.000000 0.000000 1.807520 
# 
# From -- ./inp_files/14274.got.cif
#   From: 2010.05.17/outbox.cif.g08.bks.cpg/sg51_8_cif.got.tgz:14274.got - 2010.06.03 11:52:47.
