data_PCOD9398704
_publ_section_title
;
Structure prediction by ZEFSAII (Michael W. Deem and Ramdas Pophale) SiO2 
 PCOD9398704
Probable space group: P M M A
;
_chemical_formula_sum "Si O2"
_cell_formula_units_Z 64
_cell_length_a 29.529681
_cell_length_b 22.444775
_cell_length_c 5.260528
_cell_angle_alpha 90.000000
_cell_angle_beta 90.000000
_cell_angle_gamma 90.000000
_cell_volume 3486.609813
_symmetry_space_group_name_H-M "P M M A"
_symmetry_group_IT_number 51
_symmetry_cell_setting 'orthorhombic'
loop_
_space_group_symop_operation_xyz
x,y,z
1/2-x,-y,z
1/2+x,-y,-z
-x,y,-z
-x,-y,-z
1/2+x,y,-z
1/2-x,y,z
x,-y,z
loop_
_atom_site_type_symbol
_atom_site_label
_atom_site_fract_x
_atom_site_fract_y
_atom_site_fract_z
Si Si1 0.380029 0.268963 0.956469
Si Si2 0.833212 0.745573 0.543256
Si Si3 0.696168 0.606071 0.536195
Si Si4 0.642499 0.409030 0.032224
Si Si5 0.528229 0.305616 0.260243
Si Si6 0.194674 0.930820 0.800991
Si Si7 0.302120 0.869284 0.299942
Si Si8 0.543975 0.436817 0.183367
O O1 0.346496 0.241201 0.747590
O O2 0.366808 0.338422 0.964482
O O3 0.428735 0.267407 0.824270
O O4 0.374356 0.251208 0.250260
O O5 0.812837 0.678469 0.547518
O O6 0.802839 0.799082 0.645996
O O7 0.750000 0.596425 0.530302
O O8 0.671065 0.580107 0.288069
O O9 0.672217 0.578668 0.784306
O O10 0.592057 0.435650 0.036846
O O11 0.500000 0.282884 0.500000
O O12 0.543182 0.373879 0.330933
O O13 0.500000 0.310340 0.000000
O O14 0.250000 0.927350 0.791302
O O15 0.177049 0.904034 0.537566
O O16 0.183228 0.000000 0.834938
O O17 0.177858 0.890801 0.034517
O O18 0.250000 0.888317 0.287966
O O19 0.543066 0.500000 0.328937
O O20 0.500000 0.436691 0.000000
#
# Coordination Sequence:
#
# PCOD9398704 Si02
#       8
#     8   8   8   8   8   8   8   8
#     4   9  18  30  44  64  92 121 147 181 227 279
#     4  10  18  29  44  66  92 117 152 195 238 270
#     4  10  19  33  52  70  93 126 162 199 238 280
#     4   9  19  33  50  72  96 123 155 192 235 290
#     4  10  19  32  50  71  94 121 154 181 211 272
#     4   9  17  28  40  55  80 116 156 194 228 265
#     4  10  18  27  41  61  84 113 155 199 230 259
#     4   9  19  35  55  78 101 124 152 194 245 288
#
# _framework density 18.355937999999998
#
# number of rings (size 3 to 8) (size 9 to 14) (size 15 to 20)
#    0.000    2.500    0.000    2.625    0.000    7.750 
#    0.000    6.875    0.000    2.250    0.000    0.000 
#    0.000    0.000    0.000    0.000    0.000  157.500 
#
# Total GULP energy -356352.811682 kJ/mol
# GULP energy per Si atom -5568.012683 kJ/mol
# Density = 1.831416 g / cm^3
# Si number density = 18.355938 Si / 1000 Ang^3
#
#
#
# Elastic Constant Matrix: (Units=GPa)
#
#
# Indices 1 2 3 4 5 6 
#
# 1 88.3530 3.7329 32.0000 0.0000 0.0000 0.0000
# 2 3.7329 35.2736 18.9552 0.0000 0.0000 0.0000
# 3 32.0000 18.9552 108.9256 0.0000 0.0000 0.0000
# 4 0.0000 0.0000 0.0000 -29.9954 0.0000 0.0000
# 5 0.0000 0.0000 0.0000 0.0000 23.4267 0.0000
# 6 0.0000 0.0000 0.0000 0.0000 0.0000 22.1539
#
#
#
# Elastic Compliance Matrix: (Units=1/GPa)
#
#
# Indices 1 2 3 4 5 6 
#
# 1 0.012683 0.000728 -0.003853 0.000000 0.000000 0.000000
# 2 0.000728 0.031316 -0.005664 0.000000 0.000000 0.000000
# 3 -0.003853 -0.005664 0.011298 0.000000 0.000000 0.000000
# 4 0.000000 0.000000 0.000000 -0.033338 0.000000 0.000000
# 5 0.000000 0.000000 0.000000 0.000000 0.042686 0.000000
# 6 0.000000 0.000000 0.000000 0.000000 0.000000 0.045139
#
#
# Mechanical properties :
#
#
# Convention : Reuss Voigt Hill
#
# Bulk Modulus (GPa) = 26.51048 37.99201 32.25125
# Shear Modulus (GPa) = 35.73125 14.97464 25.35294
#
# Velocity S-wave (km/s) = 4.41679 2.85931 3.72046
# Velocity P-wave (km/s) = 6.36274 5.62523 6.00532
#
# Compressibility (1/GPa) = 0.03772094
#
# Stress axis : x y z
#
# Youngs Moduli (GPa) = 78.84665 31.93233 88.51141
#
# Poissons Ratio (x) = -0.02325 0.34100
# Poissons Ratio (y) = -0.05741 0.50129
# Poissons Ratio (z) = 0.30377 0.18085
#
# Static dielectric constant tensor:
#      x y z
#    x 1.663220 0.000000 0.000000 
#    y 0.000000 1.642550 0.000000 
#    z 0.000000 0.000000 1.713000 
# 
# From -- ./inp_files/3687.got.cif
#   From: 2010.05.17/outbox.cif.g08.bks.cpg/sg51_2_cif.got.tgz:3687.got - 2010.06.03 11:52:47.
