data_PCOD9398922
_publ_section_title
;
Structure prediction by ZEFSAII (Michael W. Deem and Ramdas Pophale) SiO2 
 PCOD9398922
Probable space group: P M M A
;
_chemical_formula_sum "Si O2"
_cell_formula_units_Z 56
_cell_length_a 7.789114
_cell_length_b 15.066425
_cell_length_c 24.131223
_cell_angle_alpha 90.000000
_cell_angle_beta 90.000000
_cell_angle_gamma 90.000000
_cell_volume 2831.898003
_symmetry_space_group_name_H-M "P M M A"
_symmetry_group_IT_number 51
_symmetry_cell_setting 'orthorhombic'
loop_
_space_group_symop_operation_xyz
x,y,z
1/2-x,-y,z
1/2+x,-y,-z
-x,y,-z
-x,-y,-z
1/2+x,y,-z
1/2-x,y,z
x,-y,z
loop_
_atom_site_type_symbol
_atom_site_label
_atom_site_fract_x
_atom_site_fract_y
_atom_site_fract_z
Si Si1 0.540892 0.897940 0.234014
Si Si2 0.540652 0.397036 0.837408
Si Si3 0.456661 0.900618 0.891675
Si Si4 0.956583 0.600498 0.712850
Si Si5 0.456699 0.898874 0.562946
Si Si6 0.544026 0.780544 0.335903
Si Si7 0.548294 0.282083 0.938976
O O1 0.750000 0.894357 0.233407
O O2 0.483033 0.879070 0.171173
O O3 0.477841 0.831349 0.280980
O O4 0.494983 0.000000 0.247220
O O5 0.750000 0.392028 0.836503
O O6 0.496913 0.500000 0.847463
O O7 0.481894 0.373991 0.775085
O O8 0.472405 0.335506 0.886675
O O9 0.250000 0.903618 0.890185
O O10 0.507300 0.821506 0.931578
O O11 0.517465 0.000000 0.906157
O O12 0.750000 0.597395 0.714898
O O13 0.016658 0.500000 0.700881
O O14 0.005708 0.676961 0.670342
O O15 0.500000 0.873807 0.500000
O O16 0.250000 0.901754 0.567040
O O17 0.520754 0.830628 0.609333
O O18 0.519727 0.000000 0.572603
O O19 0.750000 0.790113 0.335686
O O20 0.750000 0.292558 0.934708
O O21 0.500000 0.314037 0.000000
#
# Coordination Sequence:
#
# PCOD9398922 Si02
#       7
#     8   8   8   8   8   8   8
#     4   8  14  26  46  72  99 124 150 185 235 291
#     4   8  16  33  54  73  95 124 155 188 234 291
#     4   9  18  33  51  69  92 123 156 191 233 282
#     4   9  18  33  52  73  98 128 159 192 236 291
#     4   9  18  32  49  71 102 139 174 204 236 277
#     4  10  18  28  48  76 102 128 160 200 241 281
#     4  11  22  34  50  70  92 120 155 196 237 279
#
# _framework density 19.774725
#
# number of rings (size 3 to 8) (size 9 to 14) (size 15 to 20)
#    0.000    2.857    0.000    3.429    0.000    3.429 
#    0.000    0.714    0.000    5.571    0.000    0.000 
#    0.000    0.000    0.000    0.000    0.000    0.000 
#
# Total GULP energy -312394.220177 kJ/mol
# GULP energy per Si atom -5578.468217 kJ/mol
# Density = 1.972972 g / cm^3
# Si number density = 19.774725 Si / 1000 Ang^3
#
#
#
# Elastic Constant Matrix: (Units=GPa)
#
#
# Indices 1 2 3 4 5 6 
#
# 1 24.7978 -0.1303 5.2117 0.0000 0.0000 0.0000
# 2 -0.1303 96.9805 76.6256 0.0000 0.0000 0.0000
# 3 5.2117 76.6256 95.2706 0.0000 0.0000 0.0000
# 4 0.0000 0.0000 0.0000 27.3813 0.0000 0.0000
# 5 0.0000 0.0000 0.0000 0.0000 13.9964 0.0000
# 6 0.0000 0.0000 0.0000 0.0000 0.0000 15.6015
#
#
#
# Elastic Compliance Matrix: (Units=1/GPa)
#
#
# Indices 1 2 3 4 5 6 
#
# 1 0.041694 0.005098 -0.006381 0.000000 0.000000 0.000000
# 2 0.005098 0.028911 -0.023532 0.000000 0.000000 0.000000
# 3 -0.006381 -0.023532 0.029772 0.000000 0.000000 0.000000
# 4 0.000000 0.000000 0.000000 0.036521 0.000000 0.000000
# 5 0.000000 0.000000 0.000000 0.000000 0.071447 0.000000
# 6 0.000000 0.000000 0.000000 0.000000 0.000000 0.064096
#
#
# Mechanical properties :
#
#
# Convention : Reuss Voigt Hill
#
# Bulk Modulus (GPa) = 19.70565 42.27367 30.98966
# Shear Modulus (GPa) = 14.74981 20.41863 17.58422
#
# Velocity S-wave (km/s) = 2.73407 3.21684 2.98523
# Velocity P-wave (km/s) = 4.46694 5.93476 5.25238
#
# Compressibility (1/GPa) = 0.05074687
#
# Stress axis : x y z
#
# Youngs Moduli (GPa) = 23.98429 34.58888 33.58861
#
# Poissons Ratio (x) = -0.17632 0.21432
# Poissons Ratio (y) = -0.12226 0.79040
# Poissons Ratio (z) = 0.15304 0.81394
#
# Static dielectric constant tensor:
#      x y z
#    x 1.732670 0.000000 0.000000 
#    y 0.000000 1.706210 0.000000 
#    z 0.000000 0.000000 1.706500 
# 
# From -- ./inp_files/32033.got.cif
#   From: 2010.05.17/outbox.cif.g08.bks.cpg/sg51_17_cif.got.tgz:32033.got - 2010.06.03 11:52:47.
