data_PCOD9398302
_publ_section_title
;
Structure prediction by ZEFSAII (Michael W. Deem and Ramdas Pophale) SiO2 
 PCOD9398302
Probable space group: P B A N
;
_chemical_formula_sum "Si O2"
_cell_formula_units_Z 18
_cell_length_a 6.809404
_cell_length_b 10.363781
_cell_length_c 7.890967
_cell_angle_alpha 90.000000
_cell_angle_beta 90.000000
_cell_angle_gamma 90.000000
_cell_volume 556.874788
_symmetry_space_group_name_H-M "P B A N"
_symmetry_group_IT_number 50
_space_group.IT_coordinate_system_code '2'
_symmetry_cell_setting 'orthorhombic'
loop_
_space_group_symop_operation_xyz
x,y,z
1/2-x,1/2-y,z
x,1/2-y,-z
1/2-x,y,-z
-x,-y,-z
1/2+x,1/2+y,-z
-x,1/2+y,z
1/2+x,-y,z
loop_
_atom_site_type_symbol
_atom_site_label
_atom_site_fract_x
_atom_site_fract_y
_atom_site_fract_z
Si Si1 0.032197 0.626511 0.612785
Si Si2 0.609028 0.083701 0.838217
Si Si3 0.250000 0.250000 0.000000
O O1 0.965047 0.750000 0.500000
O O2 0.931303 0.564291 0.782543
O O3 0.000000 0.000000 0.500000
O O4 0.246848 0.868122 0.684956
O O5 0.750000 0.090578 0.000000
O O6 0.585989 0.831685 0.118301
#
# Coordination Sequence:
#
# PCOD9398302 Si02
#       3
#     8   8   2
#     4  12  33  64 107 162 229 290 369 465 576 672
#     4  12  32  65 111 166 223 308 382 473 565 691
#     4  12  34  60 122 162 230 288 404 462 564 678
#
# _framework density 32.323245
#
# number of rings (size 3 to 8) (size 9 to 14) (size 15 to 20)
#    0.000    0.000    0.000    3.333   21.778    5.333 
#    0.000    5.556    0.000    0.000    0.000    0.000 
#    0.000    0.000    0.000    0.000    0.000    0.000 
#
# Total GULP energy -100457.998276 kJ/mol
# GULP energy per Si atom -5580.999904 kJ/mol
# Density = 3.224968 g / cm^3
# Si number density = 32.323245 Si / 1000 Ang^3
#
#
#
# Elastic Constant Matrix: (Units=GPa)
#
#
# Indices 1 2 3 4 5 6 
#
# 1 335.2366 152.0828 139.2112 0.0000 0.0000 0.0000
# 2 152.0828 373.7664 125.7253 0.0000 0.0000 0.0000
# 3 139.2112 125.7253 240.2341 0.0000 0.0000 0.0000
# 4 0.0000 0.0000 0.0000 71.3457 0.0000 0.0000
# 5 0.0000 0.0000 0.0000 0.0000 92.5019 0.0000
# 6 0.0000 0.0000 0.0000 0.0000 0.0000 41.6267
#
#
#
# Elastic Compliance Matrix: (Units=1/GPa)
#
#
# Indices 1 2 3 4 5 6 
#
# 1 0.004270 -0.001099 -0.001900 0.000000 0.000000 0.000000
# 2 -0.001099 0.003530 -0.001211 0.000000 0.000000 0.000000
# 3 -0.001900 -0.001211 0.005897 0.000000 0.000000 0.000000
# 4 0.000000 0.000000 0.000000 0.014016 0.000000 0.000000
# 5 0.000000 0.000000 0.000000 0.000000 0.010811 0.000000
# 6 0.000000 0.000000 0.000000 0.000000 0.000000 0.024023
#
#
# Mechanical properties :
#
#
# Convention : Reuss Voigt Hill
#
# Bulk Modulus (GPa) = 189.41967 198.14175 193.78071
# Shear Modulus (GPa) = 68.75315 76.57604 72.66460
#
# Velocity S-wave (km/s) = 4.61700 4.87259 4.74651
# Velocity P-wave (km/s) = 9.33548 9.64828 9.49317
#
# Compressibility (1/GPa) = 0.00527928
#
# Stress axis : x y z
#
# Youngs Moduli (GPa) = 234.18438 283.31120 169.57883
#
# Poissons Ratio (x) = 0.31122 0.32212
# Poissons Ratio (y) = 0.25726 0.20530
# Poissons Ratio (z) = 0.44485 0.34300
#
# Static dielectric constant tensor:
#      x y z
#    x 2.632090 0.000000 0.000000 
#    y 0.000000 3.008990 0.000000 
#    z 0.000000 0.000000 2.776630 
# 
# From -- ./inp_files/10201.got.cif
#   From: 2010.05.17/outbox.cif.g08.bks.cpg/sg50_6_cif.got.tgz:10201.got - 2010.06.03 11:33:33.
