data_PCOD9398144
_publ_section_title
;
Structure prediction by ZEFSAII (Michael W. Deem and Ramdas Pophale) SiO2 
 PCOD9398144
Probable space group: P B A N
;
_chemical_formula_sum "Si O2"
_cell_formula_units_Z 38
_cell_length_a 22.940499
_cell_length_b 12.305753
_cell_length_c 6.235234
_cell_angle_alpha 90.000000
_cell_angle_beta 90.000000
_cell_angle_gamma 90.000000
_cell_volume 1760.207271
_symmetry_space_group_name_H-M "P B A N"
_symmetry_group_IT_number 50
_space_group.IT_coordinate_system_code '2'
_symmetry_cell_setting 'orthorhombic'
loop_
_space_group_symop_operation_xyz
x,y,z
1/2-x,1/2-y,z
x,1/2-y,-z
1/2-x,y,-z
-x,-y,-z
1/2+x,1/2+y,-z
-x,1/2+y,z
1/2+x,-y,z
loop_
_atom_site_type_symbol
_atom_site_label
_atom_site_fract_x
_atom_site_fract_y
_atom_site_fract_z
Si Si1 0.750000 0.932866 0.500000
Si Si2 0.670705 0.862921 0.867096
Si Si3 0.326151 0.561858 0.185721
Si Si4 0.250000 0.750000 0.000000
Si Si5 0.061705 0.131821 0.573754
Si Si6 0.458959 0.541660 0.195844
O O1 0.719676 0.861980 0.683875
O O2 0.801472 0.009510 0.594746
O O3 0.610183 0.895376 0.750581
O O4 0.666084 0.750000 0.000000
O O5 0.684835 0.963674 0.020030
O O6 0.394580 0.586075 0.155301
O O7 0.289815 0.669246 0.137718
O O8 0.079448 0.250000 0.500000
O O9 0.999047 0.129584 0.685962
O O10 0.054872 0.054545 0.367415
O O11 0.500000 0.500000 0.000000
#
# Coordination Sequence:
#
# PCOD9398144 Si02
#       6
#     4   8   8   2   8   8
#     4  12  26  50  72 106 152 199 247 310 394 452
#     4  12  26  47  77 110 151 190 251 324 393 471
#     4  12  26  50  72 108 149 202 261 314 376 461
#     4  12  28  50  70 108 150 204 268 310 368 468
#     4  11  25  45  71 111 144 190 243 310 392 455
#     4  11  24  46  76 103 149 194 247 311 377 460
#
# _framework density 21.588367999999999
#
# number of rings (size 3 to 8) (size 9 to 14) (size 15 to 20)
#    0.000    0.421    6.316    1.263    0.000    4.632 
#    3.789    0.000    0.000    0.000    0.000    0.000 
#    0.000    0.000    0.000    0.000    0.000    0.000 
#
# Total GULP energy -212304.694498 kJ/mol
# GULP energy per Si atom -5586.965645 kJ/mol
# Density = 2.153923 g / cm^3
# Si number density = 21.588368 Si / 1000 Ang^3
#
#
#
# Elastic Constant Matrix: (Units=GPa)
#
#
# Indices 1 2 3 4 5 6 
#
# 1 176.9183 33.9028 49.2122 0.0000 0.0000 0.0000
# 2 33.9028 88.5874 40.7828 0.0000 0.0000 0.0000
# 3 49.2122 40.7828 95.9229 0.0000 0.0000 0.0000
# 4 0.0000 0.0000 0.0000 28.6688 0.0000 0.0000
# 5 0.0000 0.0000 0.0000 0.0000 56.9205 0.0000
# 6 0.0000 0.0000 0.0000 0.0000 0.0000 12.2267
#
#
#
# Elastic Compliance Matrix: (Units=1/GPa)
#
#
# Indices 1 2 3 4 5 6 
#
# 1 0.006698 -0.001220 -0.002917 0.000000 0.000000 0.000000
# 2 -0.001220 0.014258 -0.005436 0.000000 0.000000 0.000000
# 3 -0.002917 -0.005436 0.014233 0.000000 0.000000 0.000000
# 4 0.000000 0.000000 0.000000 0.034881 0.000000 0.000000
# 5 0.000000 0.000000 0.000000 0.000000 0.017568 0.000000
# 6 0.000000 0.000000 0.000000 0.000000 0.000000 0.081788
#
#
# Mechanical properties :
#
#
# Convention : Reuss Voigt Hill
#
# Bulk Modulus (GPa) = 62.33840 67.69157 65.01499
# Shear Modulus (GPa) = 25.78380 35.39858 30.59119
#
# Velocity S-wave (km/s) = 3.45967 4.05372 3.76842
# Velocity P-wave (km/s) = 6.70057 7.30300 7.00826
#
# Compressibility (1/GPa) = 0.01604148
#
# Stress axis : x y z
#
# Youngs Moduli (GPa) = 149.30601 70.13731 70.25977
#
# Poissons Ratio (x) = 0.08558 0.20498
# Poissons Ratio (y) = 0.18218 0.38192
# Poissons Ratio (z) = 0.43558 0.38126
#
# Static dielectric constant tensor:
#      x y z
#    x 1.856480 0.000000 0.000000 
#    y 0.000000 1.729440 0.000000 
#    z 0.000000 0.000000 1.847830 
# 
# From -- ./inp_files/6469.got.cif
#   From: 2010.05.17/outbox.cif.g08.bks.cpg/sg50_4_cif.got.tgz:6469.got - 2010.06.03 11:33:33.
