data_PCOD9398812
_publ_section_title
;
Structure prediction by ZEFSAII (Michael W. Deem and Ramdas Pophale) SiO2 
 PCOD9398812
Probable space group: P M M A
;
_chemical_formula_sum "Si O2"
_cell_formula_units_Z 64
_cell_length_a 7.544152
_cell_length_b 14.798700
_cell_length_c 32.554517
_cell_angle_alpha 90.000000
_cell_angle_beta 90.000000
_cell_angle_gamma 90.000000
_cell_volume 3634.504848
_symmetry_space_group_name_H-M "P M M A"
_symmetry_group_IT_number 51
_symmetry_cell_setting 'orthorhombic'
loop_
_space_group_symop_operation_xyz
x,y,z
1/2-x,-y,z
1/2+x,-y,-z
-x,y,-z
-x,-y,-z
1/2+x,y,-z
1/2-x,y,z
x,-y,z
loop_
_atom_site_type_symbol
_atom_site_label
_atom_site_fract_x
_atom_site_fract_y
_atom_site_fract_z
Si Si1 0.464689 0.895559 0.203739
Si Si2 0.962768 0.102981 0.046397
Si Si3 0.038033 0.896350 0.455834
Si Si4 0.033418 0.600953 0.838654
Si Si5 0.963482 0.399647 0.256247
Si Si6 0.533723 0.105991 0.633696
Si Si7 0.959609 0.205806 0.714486
Si Si8 0.040568 0.217508 0.877756
O O1 0.250000 0.894739 0.204130
O O2 0.529911 0.841445 0.243966
O O3 0.520975 0.845865 0.162145
O O4 0.521997 0.000000 0.204695
O O5 0.750000 0.098538 0.050918
O O6 0.033119 0.167556 0.082174
O O7 0.030758 0.000000 0.050742
O O8 0.000000 0.133636 0.000000
O O9 0.250000 0.900944 0.453339
O O10 0.976082 0.860209 0.411602
O O11 0.000000 0.852358 0.500000
O O12 0.969262 0.000000 0.457774
O O13 0.250000 0.602618 0.838572
O O14 0.979782 0.500000 0.851429
O O15 0.978559 0.614367 0.791134
O O16 0.968188 0.684001 0.865863
O O17 0.750000 0.401066 0.255896
O O18 0.023856 0.500000 0.269292
O O19 0.018087 0.313190 0.282250
O O20 0.750000 0.109126 0.634098
O O21 0.468517 0.162442 0.672633
O O22 0.486154 0.000000 0.637736
O O23 0.750000 0.186624 0.714574
O O24 0.250000 0.230102 0.885042
#
# Coordination Sequence:
#
# PCOD9398812 Si02
#       8
#     8   8   8   8   8   8   8   8
#     4  10  20  30  40  60  90 119 143 170 207 246
#     4   9  18  31  46  65  86 109 138 172 210 249
#     4   8  13  22  37  55  75 103 141 181 216 248
#     4   8  14  26  45  66  85 107 137 171 208 250
#     4   9  17  30  46  62  83 112 143 175 214 257
#     4   8  14  25  40  57  81 117 152 176 206 253
#     4  10  18  28  43  62  85 114 148 179 205 243
#     4  10  18  30  49  68  85 108 144 181 207 242
#
# _framework density 17.609000999999999
#
# number of rings (size 3 to 8) (size 9 to 14) (size 15 to 20)
#    0.000    3.000    1.250    2.250    0.000    3.000 
#    0.000    1.875    0.000    2.625    0.000    0.000 
#    0.000    0.500    0.000    1.125    0.000    2.000 
#
# Total GULP energy -356623.243262 kJ/mol
# GULP energy per Si atom -5572.238176 kJ/mol
# Density = 1.756892 g / cm^3
# Si number density = 17.609001 Si / 1000 Ang^3
#
#
#
# Elastic Constant Matrix: (Units=GPa)
#
#
# Indices 1 2 3 4 5 6 
#
# 1 39.0210 -3.7906 -0.0857 0.0000 0.0000 0.0000
# 2 -3.7906 113.2557 83.9898 0.0000 0.0000 0.0000
# 3 -0.0857 83.9898 163.6237 0.0000 0.0000 0.0000
# 4 0.0000 0.0000 0.0000 9.1518 0.0000 0.0000
# 5 0.0000 0.0000 0.0000 0.0000 11.0015 0.0000
# 6 0.0000 0.0000 0.0000 0.0000 0.0000 14.0392
#
#
#
# Elastic Compliance Matrix: (Units=1/GPa)
#
#
# Indices 1 2 3 4 5 6 
#
# 1 0.025759 0.001376 -0.000693 0.000000 0.000000 0.000000
# 2 0.001376 0.014330 -0.007355 0.000000 0.000000 0.000000
# 3 -0.000693 -0.007355 0.009887 0.000000 0.000000 0.000000
# 4 0.000000 0.000000 0.000000 0.109268 0.000000 0.000000
# 5 0.000000 0.000000 0.000000 0.000000 0.090897 0.000000
# 6 0.000000 0.000000 0.000000 0.000000 0.000000 0.071229
#
#
# Mechanical properties :
#
#
# Convention : Reuss Voigt Hill
#
# Bulk Modulus (GPa) = 27.29835 52.90304 40.10069
# Shear Modulus (GPa) = 14.41234 22.55762 18.48498
#
# Velocity S-wave (km/s) = 2.86399 3.58303 3.24349
# Velocity P-wave (km/s) = 5.14516 6.87211 6.07036
#
# Compressibility (1/GPa) = 0.03663225
#
# Stress axis : x y z
#
# Youngs Moduli (GPa) = 38.82081 69.78314 101.14638
#
# Poissons Ratio (x) = -0.09601 0.07007
# Poissons Ratio (y) = -0.05341 0.74394
# Poissons Ratio (z) = 0.02689 0.51326
#
# Static dielectric constant tensor:
#      x y z
#    x 1.672210 0.000000 0.000000 
#    y 0.000000 1.594030 0.000000 
#    z 0.000000 0.000000 1.616870 
# 
# From -- ./inp_files/37575.got.cif
#   From: 2010.05.17/outbox.cif.g08.bks.cpg/sg51_19_cif.got.tgz:37575.got - 2010.06.03 11:52:47.
