data_PCOD9398592
_publ_section_title
;
Structure prediction by ZEFSAII (Michael W. Deem and Ramdas Pophale) SiO2 
 PCOD9398592
Probable space group: P M M A
;
_chemical_formula_sum "Si O2"
_cell_formula_units_Z 56
_cell_length_a 21.588732
_cell_length_b 19.286499
_cell_length_c 7.159862
_cell_angle_alpha 90.000000
_cell_angle_beta 90.000000
_cell_angle_gamma 90.000000
_cell_volume 2981.159317
_symmetry_space_group_name_H-M "P M M A"
_symmetry_group_IT_number 51
_symmetry_cell_setting 'orthorhombic'
loop_
_space_group_symop_operation_xyz
x,y,z
1/2-x,-y,z
1/2+x,-y,-z
-x,y,-z
-x,-y,-z
1/2+x,y,-z
1/2-x,y,z
x,-y,z
loop_
_atom_site_type_symbol
_atom_site_label
_atom_site_fract_x
_atom_site_fract_y
_atom_site_fract_z
Si Si1 0.384681 0.301040 0.352044
Si Si2 0.550182 0.921320 0.275209
Si Si3 0.521164 0.301850 0.206524
Si Si4 0.874973 0.797773 0.307922
Si Si5 0.585705 0.080000 0.833010
Si Si6 0.572109 0.577805 0.437192
Si Si7 0.321363 0.201526 0.089335
O O1 0.458683 0.289508 0.325075
O O2 0.360034 0.253076 0.521382
O O3 0.385371 0.381961 0.411203
O O4 0.350212 0.273091 0.169820
O O5 0.600842 0.872529 0.371162
O O6 0.477435 0.901870 0.278700
O O7 0.555413 0.000000 0.340626
O O8 0.567420 0.920378 0.053938
O O9 0.562905 0.234309 0.215024
O O10 0.563736 0.365606 0.274610
O O11 0.500000 0.317257 0.000000
O O12 0.827932 0.801080 0.135866
O O13 0.637957 0.138887 0.823994
O O14 0.603482 0.000000 0.788948
O O15 0.500000 0.571917 0.500000
O O16 0.593272 0.500000 0.393306
O O17 0.250000 0.195876 0.142690
#
# Coordination Sequence:
#
# PCOD9398592 Si02
#       7
#     8   8   8   8   8   8   8
#     4  10  20  34  53  77 107 137 170 212 260 312
#     4   8  14  26  48  75 100 130 167 211 265 320
#     4  10  17  29  53  81 108 137 165 201 262 324
#     4  10  19  32  52  74 104 135 171 217 265 312
#     4   8  15  28  47  72 101 131 166 212 264 313
#     4   8  16  30  49  78 112 137 160 195 249 316
#     4  11  22  34  51  72  97 138 185 222 256 298
#
# _framework density 18.784638999999999
#
# number of rings (size 3 to 8) (size 9 to 14) (size 15 to 20)
#    0.000    2.714    1.429    3.000    2.000    1.143 
#    0.000    0.714    0.000    3.857    0.000    2.000 
#    0.000    0.000    0.000    0.000    0.000    0.000 
#
# Total GULP energy -311951.787133 kJ/mol
# GULP energy per Si atom -5570.567627 kJ/mol
# Density = 1.874188 g / cm^3
# Si number density = 18.784639 Si / 1000 Ang^3
#
#
#
# Elastic Constant Matrix: (Units=GPa)
#
#
# Indices 1 2 3 4 5 6 
#
# 1 68.0285 29.5592 3.6391 0.0000 0.0000 0.0000
# 2 29.5592 92.1275 6.7374 0.0000 0.0000 0.0000
# 3 3.6391 6.7374 51.3047 0.0000 0.0000 0.0000
# 4 0.0000 0.0000 0.0000 14.5477 0.0000 0.0000
# 5 0.0000 0.0000 0.0000 0.0000 16.5206 0.0000
# 6 0.0000 0.0000 0.0000 0.0000 0.0000 8.0859
#
#
#
# Elastic Compliance Matrix: (Units=1/GPa)
#
#
# Indices 1 2 3 4 5 6 
#
# 1 0.017094 -0.005448 -0.000497 0.000000 0.000000 0.000000
# 2 -0.005448 0.012696 -0.001281 0.000000 0.000000 0.000000
# 3 -0.000497 -0.001281 0.019695 0.000000 0.000000 0.000000
# 4 0.000000 0.000000 0.000000 0.068740 0.000000 0.000000
# 5 0.000000 0.000000 0.000000 0.000000 0.060531 0.000000
# 6 0.000000 0.000000 0.000000 0.000000 0.000000 0.123672
#
#
# Mechanical properties :
#
#
# Convention : Reuss Voigt Hill
#
# Bulk Modulus (GPa) = 28.54477 32.37022 30.45749
# Shear Modulus (GPa) = 15.21807 19.26583 17.24195
#
# Velocity S-wave (km/s) = 2.84937 3.20600 3.03293
# Velocity P-wave (km/s) = 5.10431 5.56545 5.33986
#
# Compressibility (1/GPa) = 0.03503269
#
# Stress axis : x y z
#
# Youngs Moduli (GPa) = 58.50146 78.76351 50.77471
#
# Poissons Ratio (x) = 0.42912 0.02524
# Poissons Ratio (y) = 0.31872 0.06503
# Poissons Ratio (z) = 0.02908 0.10088
#
# Static dielectric constant tensor:
#      x y z
#    x 1.629430 0.000000 0.000000 
#    y 0.000000 1.677010 0.000000 
#    z 0.000000 0.000000 1.753840 
# 
# From -- ./inp_files/11924.got.cif
#   From: 2010.05.17/outbox.cif.g08.bks.cpg/sg51_6_cif.got.tgz:11924.got - 2010.06.03 11:52:47.
