data_PCOD9398271
_publ_section_title
;
Structure prediction by ZEFSAII (Michael W. Deem and Ramdas Pophale) SiO2 
 PCOD9398271
Probable space group: P B A N
;
_chemical_formula_sum "Si O2"
_cell_formula_units_Z 32
_cell_length_a 20.693466
_cell_length_b 14.232228
_cell_length_c 5.071318
_cell_angle_alpha 90.000000
_cell_angle_beta 90.000000
_cell_angle_gamma 90.000000
_cell_volume 1493.574790
_symmetry_space_group_name_H-M "P B A N"
_symmetry_group_IT_number 50
_space_group.IT_coordinate_system_code '2'
_symmetry_cell_setting 'orthorhombic'
loop_
_space_group_symop_operation_xyz
x,y,z
1/2-x,1/2-y,z
x,1/2-y,-z
1/2-x,y,-z
-x,-y,-z
1/2+x,1/2+y,-z
-x,1/2+y,z
1/2+x,-y,z
loop_
_atom_site_type_symbol
_atom_site_label
_atom_site_fract_x
_atom_site_fract_y
_atom_site_fract_z
Si Si1 0.891425 0.186943 0.241031
Si Si2 0.889826 0.855675 0.412416
Si Si3 0.794588 0.485706 0.743104
Si Si4 0.973099 0.899224 0.908483
O O1 0.884926 0.250000 0.500000
O O2 0.851042 0.091225 0.239607
O O3 0.867948 0.250000 0.000000
O O4 0.966021 0.160037 0.193243
O O5 0.874826 0.750000 0.500000
O O6 0.938640 0.855237 0.164210
O O7 0.828410 0.915200 0.320023
O O8 0.923395 0.905771 0.664503
O O9 0.750000 0.457945 0.500000
O O10 0.750000 0.489779 0.000000
O O11 0.000000 0.000000 0.000000
#
# Coordination Sequence:
#
# PCOD9398271 Si02
#       4
#     8   8   8   8
#     4  12  26  44  73 107 142 182 233 293 361 429
#     4  12  26  47  73 106 141 187 235 296 361 426
#     4  12  28  48  72  99 142 193 247 291 343 415
#     4  12  24  44  75 107 146 181 226 295 375 431
#
# _framework density 21.425108000000002
#
# number of rings (size 3 to 8) (size 9 to 14) (size 15 to 20)
#    0.000    0.000    2.500    8.250    3.500    3.500 
#    0.000    1.250    0.000    0.000    0.000    0.000 
#    0.000    0.000    0.000    0.000    0.000    0.000 
#
# Total GULP energy -179368.313933 kJ/mol
# GULP energy per Si atom -5605.259810 kJ/mol
# Density = 2.137634 g / cm^3
# Si number density = 21.425108 Si / 1000 Ang^3
#
#
#
# Elastic Constant Matrix: (Units=GPa)
#
#
# Indices 1 2 3 4 5 6 
#
# 1 42.3586 1.1490 20.2269 0.0000 0.0000 0.0000
# 2 1.1490 75.8762 27.2219 0.0000 0.0000 0.0000
# 3 20.2269 27.2219 169.3435 0.0000 0.0000 0.0000
# 4 0.0000 0.0000 0.0000 40.6687 0.0000 0.0000
# 5 0.0000 0.0000 0.0000 0.0000 71.8593 0.0000
# 6 0.0000 0.0000 0.0000 0.0000 0.0000 9.4212
#
#
#
# Elastic Compliance Matrix: (Units=1/GPa)
#
#
# Indices 1 2 3 4 5 6 
#
# 1 0.025075 0.000737 -0.003114 0.000000 0.000000 0.000000
# 2 0.000737 0.014008 -0.002340 0.000000 0.000000 0.000000
# 3 -0.003114 -0.002340 0.006653 0.000000 0.000000 0.000000
# 4 0.000000 0.000000 0.000000 0.024589 0.000000 0.000000
# 5 0.000000 0.000000 0.000000 0.000000 0.013916 0.000000
# 6 0.000000 0.000000 0.000000 0.000000 0.000000 0.106143
#
#
# Mechanical properties :
#
#
# Convention : Reuss Voigt Hill
#
# Bulk Modulus (GPa) = 27.54554 42.75267 35.14910
# Shear Modulus (GPa) = 23.59415 40.32188 31.95801
#
# Velocity S-wave (km/s) = 3.32209 4.34290 3.86633
# Velocity P-wave (km/s) = 5.25353 6.71904 6.03097
#
# Compressibility (1/GPa) = 0.03630351
#
# Stress axis : x y z
#
# Youngs Moduli (GPa) = 39.88081 71.38962 150.30433
#
# Poissons Ratio (x) = -0.05264 0.46798
# Poissons Ratio (y) = -0.02940 0.35168
# Poissons Ratio (z) = 0.12417 0.16704
#
# Static dielectric constant tensor:
#      x y z
#    x 1.746230 0.000000 0.000000 
#    y 0.000000 1.754140 0.000000 
#    z 0.000000 0.000000 1.738420 
# 
# From -- ./inp_files/3990.got.cif
#   From: 2010.05.17/outbox.cif.g08.bks.cpg/sg50_2_cif.got.tgz:3990.got - 2010.06.03 11:33:33.
