data_PCOD9398260
_publ_section_title
;
Structure prediction by ZEFSAII (Michael W. Deem and Ramdas Pophale) SiO2 
 PCOD9398260
Probable space group: P B A N
;
_chemical_formula_sum "Si O2"
_cell_formula_units_Z 40
_cell_length_a 9.041445
_cell_length_b 25.885662
_cell_length_c 7.670576
_cell_angle_alpha 90.000000
_cell_angle_beta 90.000000
_cell_angle_gamma 90.000000
_cell_volume 1795.250673
_symmetry_space_group_name_H-M "P B A N"
_symmetry_group_IT_number 50
_space_group.IT_coordinate_system_code '2'
_symmetry_cell_setting 'orthorhombic'
loop_
_space_group_symop_operation_xyz
x,y,z
1/2-x,1/2-y,z
x,1/2-y,-z
1/2-x,y,-z
-x,-y,-z
1/2+x,1/2+y,-z
-x,1/2+y,z
1/2+x,-y,z
loop_
_atom_site_type_symbol
_atom_site_label
_atom_site_fract_x
_atom_site_fract_y
_atom_site_fract_z
Si Si1 0.459241 0.965397 0.663615
Si Si2 0.938630 0.863777 0.810512
Si Si3 0.405200 0.138390 0.234987
Si Si4 0.570001 0.749298 0.798027
Si Si5 0.654924 0.042430 0.825512
O O1 0.509663 0.906370 0.665835
O O2 0.286171 0.968138 0.692412
O O3 0.500000 0.000000 0.500000
O O4 0.550615 0.992249 0.821745
O O5 0.770753 0.871154 0.743097
O O6 0.981889 0.807034 0.738287
O O7 0.052935 0.909227 0.774285
O O8 0.928799 0.862965 0.023814
O O9 0.460929 0.195606 0.288673
O O10 0.750000 0.750000 0.799767
O O11 0.521507 0.750000 0.000000
O O12 0.750000 0.052453 0.000000
#
# Coordination Sequence:
#
# PCOD9398260 Si02
#       5
#     8   8   8   8   8
#     4  12  26  41  58  84 124 168 211 264 330 390
#     4   9  17  32  60  92 121 154 204 263 307 367
#     4   9  17  33  59  88 124 163 201 249 314 377
#     4   7  12  26  52  88 122 152 192 249 307 364
#     4  12  24  40  61  88 120 163 220 271 321 379
#
# _framework density 22.281012
#
# number of rings (size 3 to 8) (size 9 to 14) (size 15 to 20)
#    0.000    2.200    2.000    4.800    2.800    0.000 
#    0.000    1.000    0.000    1.200    0.000    7.000 
#    0.000    0.000    0.000    0.000    0.000    0.000 
#
# Total GULP energy -223229.311155 kJ/mol
# GULP energy per Si atom -5580.732779 kJ/mol
# Density = 2.223030 g / cm^3
# Si number density = 22.281012 Si / 1000 Ang^3
#
#
#
# Elastic Constant Matrix: (Units=GPa)
#
#
# Indices 1 2 3 4 5 6 
#
# 1 97.1001 57.0178 13.8084 0.0000 0.0000 0.0000
# 2 57.0178 186.8851 16.8679 0.0000 0.0000 0.0000
# 3 13.8084 16.8679 66.1948 0.0000 0.0000 0.0000
# 4 0.0000 0.0000 0.0000 2.9329 0.0000 0.0000
# 5 0.0000 0.0000 0.0000 0.0000 21.7334 0.0000
# 6 0.0000 0.0000 0.0000 0.0000 0.0000 41.4411
#
#
#
# Elastic Compliance Matrix: (Units=1/GPa)
#
#
# Indices 1 2 3 4 5 6 
#
# 1 0.012732 -0.003730 -0.001705 0.000000 0.000000 0.000000
# 2 -0.003730 0.006570 -0.000896 0.000000 0.000000 0.000000
# 3 -0.001705 -0.000896 0.015691 0.000000 0.000000 0.000000
# 4 0.000000 0.000000 0.000000 0.340961 0.000000 0.000000
# 5 0.000000 0.000000 0.000000 0.000000 0.046012 0.000000
# 6 0.000000 0.000000 0.000000 0.000000 0.000000 0.024131
#
#
# Mechanical properties :
#
#
# Convention : Reuss Voigt Hill
#
# Bulk Modulus (GPa) = 44.78449 58.39647 51.59048
# Shear Modulus (GPa) = 10.72495 30.72052 20.72273
#
# Velocity S-wave (km/s) = 2.19635 3.71722 3.05300
# Velocity P-wave (km/s) = 5.15513 6.68503 5.96929
#
# Compressibility (1/GPa) = 0.02232916
#
# Stress axis : x y z
#
# Youngs Moduli (GPa) = 78.54403 152.20926 63.73095
#
# Poissons Ratio (x) = 0.56781 0.10868
# Poissons Ratio (y) = 0.29301 0.05710
# Poissons Ratio (z) = 0.13394 0.13638
#
# Static dielectric constant tensor:
#      x y z
#    x 1.768970 0.000000 0.000000 
#    y 0.000000 1.847200 0.000000 
#    z 0.000000 0.000000 1.935130 
# 
# From -- ./inp_files/9526.got.cif
#   From: 2010.05.17/outbox.cif.g08.bks.cpg/sg50_5_cif.got.tgz:9526.got - 2010.06.03 11:33:33.
