data_PCOD9398122
_publ_section_title
;
Structure prediction by ZEFSAII (Michael W. Deem and Ramdas Pophale) SiO2 
 PCOD9398122
Probable space group: P B A N
;
_chemical_formula_sum "Si O2"
_cell_formula_units_Z 40
_cell_length_a 10.345080
_cell_length_b 25.151857
_cell_length_c 6.897792
_cell_angle_alpha 90.000000
_cell_angle_beta 90.000000
_cell_angle_gamma 90.000000
_cell_volume 1794.791495
_symmetry_space_group_name_H-M "P B A N"
_symmetry_group_IT_number 50
_space_group.IT_coordinate_system_code '2'
_symmetry_cell_setting 'orthorhombic'
loop_
_space_group_symop_operation_xyz
x,y,z
1/2-x,1/2-y,z
x,1/2-y,-z
1/2-x,y,-z
-x,-y,-z
1/2+x,1/2+y,-z
-x,1/2+y,z
1/2+x,-y,z
loop_
_atom_site_type_symbol
_atom_site_label
_atom_site_fract_x
_atom_site_fract_y
_atom_site_fract_z
Si Si1 0.250000 0.529708 0.500000
Si Si2 0.787617 0.828118 0.718322
Si Si3 0.250000 0.250000 0.000000
Si Si4 0.654825 0.550297 0.823937
Si Si5 0.927226 0.204992 0.166320
Si Si6 0.369351 0.916592 0.136631
Si Si7 0.750000 0.250000 0.500000
O O1 0.329173 0.490878 0.354009
O O2 0.166892 0.567030 0.357007
O O3 0.750000 0.819551 0.500000
O O4 0.800237 0.890619 0.757165
O O5 0.925153 0.801859 0.766581
O O6 0.690362 0.794765 0.854519
O O7 0.507658 0.555716 0.896955
O O8 0.750000 0.537551 0.000000
O O9 0.888946 0.145966 0.100469
O O10 0.841090 0.217689 0.353839
O O11 0.911507 0.250000 0.000000
O O12 0.250000 0.931391 0.000000
#
# Coordination Sequence:
#
# PCOD9398122 Si02
#       7
#     4   8   2   8   8   8   2
#     4  12  25  46  74 104 142 196 249 310 354 442
#     4  11  24  43  70 107 141 188 234 295 370 445
#     4  12  22  40  68 104 140 172 230 292 360 442
#     4  11  25  47  73 106 147 191 241 311 375 427
#     4  11  25  46  69 102 147 190 238 303 370 439
#     4  11  26  47  72 106 142 192 247 303 367 442
#     4  12  24  40  66  98 136 196 236 294 348 452
#
# _framework density 22.286711
#
# number of rings (size 3 to 8) (size 9 to 14) (size 15 to 20)
#    0.000    0.800    3.000    3.600    2.800    4.800 
#    3.600    0.000    0.000    0.000    0.000    0.000 
#    0.000    0.000    0.000    0.000    0.000    0.000 
#
# Total GULP energy -223445.461241 kJ/mol
# GULP energy per Si atom -5586.136531 kJ/mol
# Density = 2.223598 g / cm^3
# Si number density = 22.286711 Si / 1000 Ang^3
#
#
#
# Elastic Constant Matrix: (Units=GPa)
#
#
# Indices 1 2 3 4 5 6 
#
# 1 155.3820 45.3008 74.2299 0.0000 0.0000 0.0000
# 2 45.3008 178.3639 68.7612 0.0000 0.0000 0.0000
# 3 74.2299 68.7612 171.8249 0.0000 0.0000 0.0000
# 4 0.0000 0.0000 0.0000 5.7077 0.0000 0.0000
# 5 0.0000 0.0000 0.0000 0.0000 44.1865 0.0000
# 6 0.0000 0.0000 0.0000 0.0000 0.0000 -50.6262
#
#
#
# Elastic Compliance Matrix: (Units=1/GPa)
#
#
# Indices 1 2 3 4 5 6 
#
# 1 0.008217 -0.000849 -0.003210 0.000000 0.000000 0.000000
# 2 -0.000849 0.006717 -0.002321 0.000000 0.000000 0.000000
# 3 -0.003210 -0.002321 0.008135 0.000000 0.000000 0.000000
# 4 0.000000 0.000000 0.000000 0.175201 0.000000 0.000000
# 5 0.000000 0.000000 0.000000 0.000000 0.022631 0.000000
# 6 0.000000 0.000000 0.000000 0.000000 0.000000 -0.019753
#
#
# Mechanical properties :
#
#
# Convention : Reuss Voigt Hill
#
# Bulk Modulus (GPa) = 97.00656 98.01717 97.51186
# Shear Modulus (GPa) = 23.00480 21.00554 22.00517
#
# Velocity S-wave (km/s) = 3.21630 3.07337 3.14565
# Velocity P-wave (km/s) = 7.57720 7.52793 7.55260
#
# Compressibility (1/GPa) = 0.01030858
#
# Stress axis : x y z
#
# Youngs Moduli (GPa) = 121.70172 148.87463 122.91989
#
# Poissons Ratio (x) = 0.12647 0.39455
# Poissons Ratio (y) = 0.10338 0.28530
# Poissons Ratio (z) = 0.39064 0.34555
#
# Static dielectric constant tensor:
#      x y z
#    x 2.129250 0.000000 0.000000 
#    y 0.000000 1.867040 0.000000 
#    z 0.000000 0.000000 1.797340 
# 
# From -- ./inp_files/2471.got.cif
#   From: 2010.05.17/outbox.cif.g08.bks.cpg/sg50_2_cif.got.tgz:2471.got - 2010.06.03 11:33:33.
