data_PCOD9398198
_publ_section_title
;
Structure prediction by ZEFSAII (Michael W. Deem and Ramdas Pophale) SiO2 
 PCOD9398198
Probable space group: P B A N
;
_chemical_formula_sum "Si O2"
_cell_formula_units_Z 34
_cell_length_a 7.520357
_cell_length_b 20.832394
_cell_length_c 9.743854
_cell_angle_alpha 90.000000
_cell_angle_beta 90.000000
_cell_angle_gamma 90.000000
_cell_volume 1526.540765
_symmetry_space_group_name_H-M "P B A N"
_symmetry_group_IT_number 50
_space_group.IT_coordinate_system_code '2'
_symmetry_cell_setting 'orthorhombic'
loop_
_space_group_symop_operation_xyz
x,y,z
1/2-x,1/2-y,z
x,1/2-y,-z
1/2-x,y,-z
-x,-y,-z
1/2+x,1/2+y,-z
-x,1/2+y,z
1/2+x,-y,z
loop_
_atom_site_type_symbol
_atom_site_label
_atom_site_fract_x
_atom_site_fract_y
_atom_site_fract_z
Si Si1 0.950141 0.415900 0.771233
Si Si2 0.899060 0.355831 0.323486
Si Si3 0.312730 0.458144 0.646858
Si Si4 0.963361 0.824819 0.020410
Si Si5 0.750000 0.250000 0.500000
O O1 0.804168 0.378873 0.683066
O O2 0.878246 0.489143 0.757518
O O3 0.147082 0.419849 0.710006
O O4 0.958210 0.376956 0.913621
O O5 0.882822 0.291230 0.406934
O O6 0.026510 0.410074 0.383831
O O7 0.974334 0.344130 0.171424
O O8 0.250000 0.486104 0.500000
O O9 0.018005 0.750000 0.000000
O O10 0.750000 0.827083 0.000000
#
# Coordination Sequence:
#
# PCOD9398198 Si02
#       5
#     8   8   8   8   2
#     4  12  25  47  76 108 149 197 250 313 379 447
#     4  12  26  49  74 111 150 197 252 310 374 462
#     4  12  26  45  72 111 155 195 248 314 381 448
#     4  11  25  49  75 105 150 198 252 309 375 447
#     4  12  28  48  80 112 152 206 254 302 398 448
#
# _framework density 22.272577999999999
#
# number of rings (size 3 to 8) (size 9 to 14) (size 15 to 20)
#    0.000    0.235    4.706    4.235    1.647    1.882 
#    4.235    1.176    0.000    0.000    0.000    0.000 
#    0.000    0.000    0.000    0.000    0.000    0.000 
#
# Total GULP energy -190176.134943 kJ/mol
# GULP energy per Si atom -5593.415734 kJ/mol
# Density = 2.222189 g / cm^3
# Si number density = 22.272578 Si / 1000 Ang^3
#
#
#
# Elastic Constant Matrix: (Units=GPa)
#
#
# Indices 1 2 3 4 5 6 
#
# 1 129.9877 60.6184 53.8817 0.0000 0.0000 0.0000
# 2 60.6184 143.6794 79.1782 0.0000 0.0000 0.0000
# 3 53.8817 79.1782 135.0718 0.0000 0.0000 0.0000
# 4 0.0000 0.0000 0.0000 48.6840 0.0000 0.0000
# 5 0.0000 0.0000 0.0000 0.0000 25.9857 0.0000
# 6 0.0000 0.0000 0.0000 0.0000 0.0000 -20.9144
#
#
#
# Elastic Compliance Matrix: (Units=1/GPa)
#
#
# Indices 1 2 3 4 5 6 
#
# 1 0.010017 -0.002990 -0.002243 0.000000 0.000000 0.000000
# 2 -0.002990 0.011174 -0.005357 0.000000 0.000000 0.000000
# 3 -0.002243 -0.005357 0.011439 0.000000 0.000000 0.000000
# 4 0.000000 0.000000 0.000000 0.020541 0.000000 0.000000
# 5 0.000000 0.000000 0.000000 0.000000 0.038483 0.000000
# 6 0.000000 0.000000 0.000000 0.000000 0.000000 -0.047814
#
#
# Mechanical properties :
#
#
# Convention : Reuss Voigt Hill
#
# Bulk Modulus (GPa) = 87.34665 88.45505 87.90085
# Shear Modulus (GPa) = 72.63631 25.08845 48.86238
#
# Velocity S-wave (km/s) = 5.71693 3.35987 4.68892
# Velocity P-wave (km/s) = 9.10384 7.40626 8.29857
#
# Compressibility (1/GPa) = 0.01144864
#
# Stress axis : x y z
#
# Youngs Moduli (GPa) = 99.82742 89.49627 87.42302
#
# Poissons Ratio (x) = 0.26760 0.19611
# Poissons Ratio (y) = 0.29849 0.46834
# Poissons Ratio (z) = 0.22394 0.47944
#
# Static dielectric constant tensor:
#      x y z
#    x 1.880670 0.000000 0.000000 
#    y 0.000000 1.871240 0.000000 
#    z 0.000000 0.000000 1.816690 
# 
# From -- ./inp_files/9244.got.cif
#   From: 2010.05.17/outbox.cif.g08.bks.cpg/sg50_5_cif.got.tgz:9244.got - 2010.06.03 11:33:33.
