data_PCOD9398653
_publ_section_title
;
Structure prediction by ZEFSAII (Michael W. Deem and Ramdas Pophale) SiO2 
 PCOD9398653
Probable space group: P M M A
;
_chemical_formula_sum "Si O2"
_cell_formula_units_Z 64
_cell_length_a 8.943991
_cell_length_b 27.294205
_cell_length_c 18.799211
_cell_angle_alpha 90.000000
_cell_angle_beta 90.000000
_cell_angle_gamma 90.000000
_cell_volume 4589.246919
_symmetry_space_group_name_H-M "P M M A"
_symmetry_group_IT_number 51
_symmetry_cell_setting 'orthorhombic'
loop_
_space_group_symop_operation_xyz
x,y,z
1/2-x,-y,z
1/2+x,-y,-z
-x,y,-z
-x,-y,-z
1/2+x,y,-z
1/2-x,y,z
x,-y,z
loop_
_atom_site_type_symbol
_atom_site_label
_atom_site_fract_x
_atom_site_fract_y
_atom_site_fract_z
Si Si1 0.430087 0.646883 0.923250
Si Si2 0.920952 0.702441 0.213754
Si Si3 0.921706 0.596710 0.292775
Si Si4 0.929332 0.160249 0.421183
Si Si5 0.928984 0.353623 0.577610
Si Si6 0.072041 0.555665 0.157601
Si Si7 0.429982 0.052650 0.578796
Si Si8 0.072999 0.748832 0.342766
O O1 0.250000 0.644510 0.926090
O O2 0.470713 0.689032 0.865863
O O3 0.492063 0.595739 0.891720
O O4 0.500000 0.655614 0.000000
O O5 0.750000 0.720635 0.212864
O O6 0.919220 0.649592 0.253169
O O7 0.022119 0.736517 0.262646
O O8 0.750000 0.580806 0.301915
O O9 0.002136 0.607222 0.367300
O O10 0.010251 0.562791 0.237677
O O11 0.750000 0.163338 0.427115
O O12 0.970566 0.106071 0.390939
O O13 0.000000 0.164421 0.500000
O O14 0.989693 0.204314 0.373874
O O15 0.750000 0.358529 0.574816
O O16 0.963173 0.299462 0.609734
O O17 0.000000 0.358109 0.500000
O O18 0.250000 0.564471 0.157046
O O19 0.043337 0.500000 0.134107
O O20 0.500000 0.052453 0.500000
O O21 0.250000 0.052617 0.572853
O O22 0.473560 0.000000 0.612601
O O23 0.250000 0.756178 0.346293
#
# Coordination Sequence:
#
# PCOD9398653 Si02
#       8
#     8   8   8   8   8   8   8   8
#     4  10  20  33  50  70  91 113 136 163 192 226
#     4   8  16  30  45  61  81 106 134 161 191 230
#     4   9  17  30  47  64  82 105 133 164 197 237
#     4  10  18  26  37  53  76 104 135 176 218 253
#     4  10  19  29  42  60  81 105 133 166 204 244
#     4  10  20  33  49  68  89 112 136 162 193 230
#     4   8  14  24  36  49  66  93 131 172 213 253
#     4  10  19  28  40  58  80 106 134 166 203 243
#
# _framework density 13.945644
#
# number of rings (size 3 to 8) (size 9 to 14) (size 15 to 20)
#    0.000    2.625    0.000    3.375    0.000    7.750 
#    0.000    0.000    0.000    0.375    0.000    0.000 
#    0.000    0.000    0.000    0.000    0.000    0.625 
#
# Total GULP energy -356427.729681 kJ/mol
# GULP energy per Si atom -5569.183276 kJ/mol
# Density = 1.391390 g / cm^3
# Si number density = 13.945644 Si / 1000 Ang^3
#
#
#
# Elastic Constant Matrix: (Units=GPa)
#
#
# Indices 1 2 3 4 5 6 
#
# 1 41.9714 20.5594 31.0244 0.0000 0.0000 0.0000
# 2 20.5594 43.6632 24.5498 0.0000 0.0000 0.0000
# 3 31.0244 24.5498 96.6938 0.0000 0.0000 0.0000
# 4 0.0000 0.0000 0.0000 8.1725 0.0000 0.0000
# 5 0.0000 0.0000 0.0000 0.0000 23.5251 0.0000
# 6 0.0000 0.0000 0.0000 0.0000 0.0000 15.2677
#
#
#
# Elastic Compliance Matrix: (Units=1/GPa)
#
#
# Indices 1 2 3 4 5 6 
#
# 1 0.036075 -0.012223 -0.008471 0.000000 0.000000 0.000000
# 2 -0.012223 0.030858 -0.003913 0.000000 0.000000 0.000000
# 3 -0.008471 -0.003913 0.014053 0.000000 0.000000 0.000000
# 4 0.000000 0.000000 0.000000 0.122361 0.000000 0.000000
# 5 0.000000 0.000000 0.000000 0.000000 0.042508 0.000000
# 6 0.000000 0.000000 0.000000 0.000000 0.000000 0.065498
#
#
# Mechanical properties :
#
#
# Convention : Reuss Voigt Hill
#
# Bulk Modulus (GPa) = 31.47460 37.17730 34.32595
# Shear Modulus (GPa) = 13.47133 16.47272 14.97203
#
# Velocity S-wave (km/s) = 3.11141 3.44060 3.28014
# Velocity P-wave (km/s) = 5.96039 6.51922 6.24606
#
# Compressibility (1/GPa) = 0.03177165
#
# Stress axis : x y z
#
# Youngs Moduli (GPa) = 27.71991 32.40645 71.15718
#
# Poissons Ratio (x) = 0.39612 0.60280
# Poissons Ratio (y) = 0.33883 0.27842
# Poissons Ratio (z) = 0.23483 0.12680
#
# Static dielectric constant tensor:
#      x y z
#    x 1.467130 0.000000 0.000000 
#    y 0.000000 1.471700 0.000000 
#    z 0.000000 0.000000 1.445460 
# 
# From -- ./inp_files/28641.got.cif
#   From: 2010.05.17/outbox.cif.g08.bks.cpg/sg51_15_cif.got.tgz:28641.got - 2010.06.03 11:52:47.
