data_PCOD9398251
_publ_section_title
;
Structure prediction by ZEFSAII (Michael W. Deem and Ramdas Pophale) SiO2 
 PCOD9398251
Probable space group: P B A N
;
_chemical_formula_sum "Si O2"
_cell_formula_units_Z 32
_cell_length_a 8.218481
_cell_length_b 28.710075
_cell_length_c 5.192560
_cell_angle_alpha 90.000000
_cell_angle_beta 90.000000
_cell_angle_gamma 90.000000
_cell_volume 1225.201179
_symmetry_space_group_name_H-M "P B A N"
_symmetry_group_IT_number 50
_space_group.IT_coordinate_system_code '2'
_symmetry_cell_setting 'orthorhombic'
loop_
_space_group_symop_operation_xyz
x,y,z
1/2-x,1/2-y,z
x,1/2-y,-z
1/2-x,y,-z
-x,-y,-z
1/2+x,1/2+y,-z
-x,1/2+y,z
1/2+x,-y,z
loop_
_atom_site_type_symbol
_atom_site_label
_atom_site_fract_x
_atom_site_fract_y
_atom_site_fract_z
Si Si1 0.250000 0.863992 0.000000
Si Si2 0.250000 0.046584 0.000000
Si Si3 0.750000 0.250000 0.500000
Si Si4 0.250000 0.250000 0.000000
Si Si5 0.250000 0.981886 0.500000
Si Si6 0.983514 0.408126 0.360672
Si Si7 0.019099 0.319832 0.708759
O O1 0.310442 0.893976 0.764646
O O2 0.087749 0.835047 0.953937
O O3 0.393198 0.078505 0.127739
O O4 0.222817 0.012743 0.243825
O O5 0.885312 0.288239 0.574364
O O6 0.342698 0.214161 0.811004
O O7 0.419140 0.952287 0.478610
O O8 0.052018 0.365923 0.537576
#
# Coordination Sequence:
#
# PCOD9398251 Si02
#       7
#     4   4   2   2   4   8   8
#     4  12  23  53  84 114 164 240 286 328 442 552
#     4  12  31  49  86 136 180 219 299 384 435 509
#     4  12  22  56  80 112 166 226 304 338 438 532
#     4  12  32  54  92 132 176 212 310 370 446 484
#     4  12  25  54  88 129 174 235 298 364 433 548
#     4  12  27  53  86 123 177 232 292 353 456 525
#     4  12  27  54  84 125 170 232 285 368 430 545
#
# _framework density 26.118158999999999
#
# number of rings (size 3 to 8) (size 9 to 14) (size 15 to 20)
#    0.000    0.000    5.000    3.750    3.500    1.500 
#    4.500    0.000    0.000    0.000    0.000    0.000 
#    0.000    0.000    0.000    0.000    0.000    0.000 
#
# Total GULP energy -178593.949367 kJ/mol
# GULP energy per Si atom -5581.060918 kJ/mol
# Density = 2.605871 g / cm^3
# Si number density = 26.118159 Si / 1000 Ang^3
#
#
#
# Elastic Constant Matrix: (Units=GPa)
#
#
# Indices 1 2 3 4 5 6 
#
# 1 152.6935 99.4485 82.7300 0.0000 0.0000 0.0000
# 2 99.4485 194.8886 90.6020 0.0000 0.0000 0.0000
# 3 82.7300 90.6020 182.9627 0.0000 0.0000 0.0000
# 4 0.0000 0.0000 0.0000 135.2402 0.0000 0.0000
# 5 0.0000 0.0000 0.0000 0.0000 0.2964 0.0000
# 6 0.0000 0.0000 0.0000 0.0000 0.0000 84.5750
#
#
#
# Elastic Compliance Matrix: (Units=1/GPa)
#
#
# Indices 1 2 3 4 5 6 
#
# 1 0.010812 -0.004215 -0.002802 0.000000 0.000000 0.000000
# 2 -0.004215 0.008309 -0.002209 0.000000 0.000000 0.000000
# 3 -0.002802 -0.002209 0.007826 0.000000 0.000000 0.000000
# 4 0.000000 0.000000 0.000000 0.007394 0.000000 0.000000
# 5 0.000000 0.000000 0.000000 0.000000 3.373276 0.000000
# 6 0.000000 0.000000 0.000000 0.000000 0.000000 0.011824
#
#
# Mechanical properties :
#
#
# Convention : Reuss Voigt Hill
#
# Bulk Modulus (GPa) = 117.69352 119.56730 118.63041
# Shear Modulus (GPa) = 1.45318 61.20663 31.32990
#
# Velocity S-wave (km/s) = 0.74672 4.84617 3.46720
# Velocity P-wave (km/s) = 6.77519 8.78593 7.84525
#
# Compressibility (1/GPa) = 0.00849664
#
# Stress axis : x y z
#
# Youngs Moduli (GPa) = 92.48886 120.35726 127.77642
#
# Poissons Ratio (x) = 0.50727 0.35800
# Poissons Ratio (y) = 0.38981 0.28221
# Poissons Ratio (z) = 0.25914 0.26582
#
# Static dielectric constant tensor:
#      x y z
#    x 2.058300 0.000000 0.000000 
#    y 0.000000 -7.036920 0.000000 
#    z 0.000000 0.000000 4.101750 
# 
# From -- ./inp_files/1301.got.cif
#   From: 2010.05.17/outbox.cif.g08.bks.cpg/sg50_1_cif.got.tgz:1301.got - 2010.06.03 11:33:33.
