data_PCOD9398089
_publ_section_title
;
Structure prediction by ZEFSAII (Michael W. Deem and Ramdas Pophale) SiO2 
 PCOD9398089
Probable space group: P B A N
;
_chemical_formula_sum "Si O2"
_cell_formula_units_Z 32
_cell_length_a 6.170467
_cell_length_b 29.909987
_cell_length_c 7.053057
_cell_angle_alpha 90.000000
_cell_angle_beta 90.000000
_cell_angle_gamma 90.000000
_cell_volume 1301.702239
_symmetry_space_group_name_H-M "P B A N"
_symmetry_group_IT_number 50
_space_group.IT_coordinate_system_code '2'
_symmetry_cell_setting 'orthorhombic'
loop_
_space_group_symop_operation_xyz
x,y,z
1/2-x,1/2-y,z
x,1/2-y,-z
1/2-x,y,-z
-x,-y,-z
1/2+x,1/2+y,-z
-x,1/2+y,z
1/2+x,-y,z
loop_
_atom_site_type_symbol
_atom_site_label
_atom_site_fract_x
_atom_site_fract_y
_atom_site_fract_z
Si Si1 0.147134 0.111616 0.696265
Si Si2 0.274148 0.015008 0.726169
Si Si3 0.250000 0.628300 0.500000
Si Si4 0.250000 0.182564 0.000000
Si Si5 0.142842 0.795346 0.795105
O O1 0.250000 0.129848 0.500000
O O2 0.276725 0.068533 0.761453
O O3 0.128584 0.148700 0.856367
O O4 0.911781 0.098019 0.619473
O O5 0.250000 0.008180 0.500000
O O6 0.522044 0.999489 0.789262
O O7 0.342163 0.662950 0.655883
O O8 0.397279 0.210442 0.858771
O O9 0.250000 0.750000 0.719768
O O10 0.250000 0.804036 0.000000
#
# Coordination Sequence:
#
# PCOD9398089 Si02
#       5
#     8   8   4   4   8
#     4  11  24  40  71  98 136 179 225 287 335 409
#     4   9  20  37  62  99 137 184 230 281 348 416
#     4  12  23  44  68 102 130 178 230 276 344 412
#     4  12  24  47  68 104 130 176 230 280 344 410
#     4  11  25  44  69  96 133 172 219 284 342 407
#
# _framework density 24.583192
#
# number of rings (size 3 to 8) (size 9 to 14) (size 15 to 20)
#    0.000    1.250    5.000    0.375    8.750    2.000 
#    0.000    1.250    0.000    0.000    0.000    0.000 
#    0.000    0.000    0.000    0.000    0.000    0.000 
#
# Total GULP energy -178227.373126 kJ/mol
# GULP energy per Si atom -5569.605410 kJ/mol
# Density = 2.452724 g / cm^3
# Si number density = 24.583192 Si / 1000 Ang^3
#
#
#
# Elastic Constant Matrix: (Units=GPa)
#
#
# Indices 1 2 3 4 5 6 
#
# 1 124.5665 32.2253 14.5007 0.0000 0.0000 0.0000
# 2 32.2253 76.0515 11.1754 0.0000 0.0000 0.0000
# 3 14.5007 11.1754 91.8900 0.0000 0.0000 0.0000
# 4 0.0000 0.0000 0.0000 23.9795 0.0000 0.0000
# 5 0.0000 0.0000 0.0000 0.0000 18.9672 0.0000
# 6 0.0000 0.0000 0.0000 0.0000 0.0000 41.9260
#
#
#
# Elastic Compliance Matrix: (Units=1/GPa)
#
#
# Indices 1 2 3 4 5 6 
#
# 1 0.009103 -0.003712 -0.000985 0.000000 0.000000 0.000000
# 2 -0.003712 0.014902 -0.001227 0.000000 0.000000 0.000000
# 3 -0.000985 -0.001227 0.011187 0.000000 0.000000 0.000000
# 4 0.000000 0.000000 0.000000 0.041702 0.000000 0.000000
# 5 0.000000 0.000000 0.000000 0.000000 0.052723 0.000000
# 6 0.000000 0.000000 0.000000 0.000000 0.000000 0.023852
#
#
# Mechanical properties :
#
#
# Convention : Reuss Voigt Hill
#
# Bulk Modulus (GPa) = 42.83671 45.36786 44.10229
# Shear Modulus (GPa) = 28.88532 32.61497 30.75015
#
# Velocity S-wave (km/s) = 3.43155 3.64637 3.54059
# Velocity P-wave (km/s) = 5.75880 6.01854 5.89010
#
# Compressibility (1/GPa) = 0.02334446
#
# Stress axis : x y z
#
# Youngs Moduli (GPa) = 109.85504 67.10374 89.38801
#
# Poissons Ratio (x) = 0.24912 0.08805
# Poissons Ratio (y) = 0.40783 0.10964
# Poissons Ratio (z) = 0.10821 0.08231
#
# Static dielectric constant tensor:
#      x y z
#    x 2.225530 0.000000 0.000000 
#    y 0.000000 1.915920 0.000000 
#    z 0.000000 0.000000 1.899830 
# 
# From -- ./inp_files/7953.got.cif
#   From: 2010.05.17/outbox.cif.g08.bks.cpg/sg50_4_cif.got.tgz:7953.got - 2010.06.03 11:33:33.
