data_PCOD9398072
_publ_section_title
;
Structure prediction by ZEFSAII (Michael W. Deem and Ramdas Pophale) SiO2 
 PCOD9398072
Probable space group: P B A N
;
_chemical_formula_sum "Si O2"
_cell_formula_units_Z 32
_cell_length_a 9.468857
_cell_length_b 9.275265
_cell_length_c 14.640279
_cell_angle_alpha 90.000000
_cell_angle_beta 90.000000
_cell_angle_gamma 90.000000
_cell_volume 1285.799455
_symmetry_space_group_name_H-M "P B A N"
_symmetry_group_IT_number 50
_space_group.IT_coordinate_system_code '2'
_symmetry_cell_setting 'orthorhombic'
loop_
_space_group_symop_operation_xyz
x,y,z
1/2-x,1/2-y,z
x,1/2-y,-z
1/2-x,y,-z
-x,-y,-z
1/2+x,1/2+y,-z
-x,1/2+y,z
1/2+x,-y,z
loop_
_atom_site_type_symbol
_atom_site_label
_atom_site_fract_x
_atom_site_fract_y
_atom_site_fract_z
Si Si1 0.870002 0.887769 0.659227
Si Si2 0.296203 0.397043 0.850991
Si Si3 0.082366 0.889570 0.064143
Si Si4 0.089083 0.063033 0.586315
O O1 0.910368 0.734581 0.610929
O O2 0.755054 0.965950 0.594169
O O3 0.786617 0.886385 0.754446
O O4 0.011158 0.977835 0.666882
O O5 0.250000 0.250000 0.901227
O O6 0.225713 0.537689 0.897671
O O7 0.465909 0.379382 0.854060
O O8 0.097295 0.750000 0.000000
O O9 0.000000 0.000000 0.000000
O O10 0.000000 0.000000 0.500000
#
# Coordination Sequence:
#
# PCOD9398072 Si02
#       4
#     8   8   8   8
#     4  11  25  46  73 111 153 202 246 315 384 451
#     4  12  25  49  75 107 156 198 252 319 386 464
#     4  12  27  47  76 109 150 201 257 321 393 461
#     4  11  23  44  75 110 153 195 253 308 378 455
#
# _framework density 24.887242000000001
#
# number of rings (size 3 to 8) (size 9 to 14) (size 15 to 20)
#    0.000    0.500    5.000    3.750    0.000    5.000 
#    0.000    5.000    0.000    0.000    0.000    0.000 
#    0.000    0.000    0.000    0.000    0.000    0.000 
#
# Total GULP energy -178329.261038 kJ/mol
# GULP energy per Si atom -5572.789407 kJ/mol
# Density = 2.483060 g / cm^3
# Si number density = 24.887242 Si / 1000 Ang^3
#
#
#
# Elastic Constant Matrix: (Units=GPa)
#
#
# Indices 1 2 3 4 5 6 
#
# 1 186.1335 88.8877 14.2926 0.0000 0.0000 0.0000
# 2 88.8877 143.0855 57.8746 0.0000 0.0000 0.0000
# 3 14.2926 57.8746 139.5445 0.0000 0.0000 0.0000
# 4 0.0000 0.0000 0.0000 40.7187 0.0000 0.0000
# 5 0.0000 0.0000 0.0000 0.0000 44.5119 0.0000
# 6 0.0000 0.0000 0.0000 0.0000 0.0000 37.9706
#
#
#
# Elastic Compliance Matrix: (Units=1/GPa)
#
#
# Indices 1 2 3 4 5 6 
#
# 1 0.007882 -0.005491 0.001470 0.000000 0.000000 0.000000
# 2 -0.005491 0.012223 -0.004507 0.000000 0.000000 0.000000
# 3 0.001470 -0.004507 0.008885 0.000000 0.000000 0.000000
# 4 0.000000 0.000000 0.000000 0.024559 0.000000 0.000000
# 5 0.000000 0.000000 0.000000 0.000000 0.022466 0.000000
# 6 0.000000 0.000000 0.000000 0.000000 0.000000 0.026336
#
#
# Mechanical properties :
#
#
# Convention : Reuss Voigt Hill
#
# Bulk Modulus (GPa) = 83.79535 87.87480 85.83507
# Shear Modulus (GPa) = 40.52399 45.15416 42.83907
#
# Velocity S-wave (km/s) = 4.03960 4.26414 4.15339
# Velocity P-wave (km/s) = 7.44990 7.72203 7.58718
#
# Compressibility (1/GPa) = 0.01193384
#
# Stress axis : x y z
#
# Youngs Moduli (GPa) = 126.87474 81.81411 112.55186
#
# Poissons Ratio (x) = 0.44923 -0.16545
# Poissons Ratio (y) = 0.69666 0.50726
# Poissons Ratio (z) = -0.18651 0.36873
#
# Static dielectric constant tensor:
#      x y z
#    x 2.071700 0.000000 0.000000 
#    y 0.000000 2.033750 0.000000 
#    z 0.000000 0.000000 2.296200 
# 
# From -- ./inp_files/25656.got.cif
#   From: 2010.05.17/outbox.cif.g08.bks.cpg/sg50_13_cif.got.tgz:25656.got - 2010.06.03 11:33:33.
