data_PCOD9398749
_publ_section_title
;
Structure prediction by ZEFSAII (Michael W. Deem and Ramdas Pophale) SiO2 
 PCOD9398749
Probable space group: P M M A
;
_chemical_formula_sum "Si O2"
_cell_formula_units_Z 64
_cell_length_a 8.881018
_cell_length_b 20.987743
_cell_length_c 20.337310
_cell_angle_alpha 90.000000
_cell_angle_beta 90.000000
_cell_angle_gamma 90.000000
_cell_volume 3790.722529
_symmetry_space_group_name_H-M "P M M A"
_symmetry_group_IT_number 51
_symmetry_cell_setting 'orthorhombic'
loop_
_space_group_symop_operation_xyz
x,y,z
1/2-x,-y,z
1/2+x,-y,-z
-x,y,-z
-x,-y,-z
1/2+x,y,-z
1/2-x,y,z
x,-y,z
loop_
_atom_site_type_symbol
_atom_site_label
_atom_site_fract_x
_atom_site_fract_y
_atom_site_fract_z
Si Si1 0.068642 0.073077 0.429533
Si Si2 0.923500 0.400060 0.067321
Si Si3 0.070282 0.754296 0.203057
Si Si4 0.424240 0.244651 0.932424
Si Si5 0.432974 0.613495 0.790179
Si Si6 0.431339 0.303228 0.572125
Si Si7 0.931336 0.809445 0.658780
Si Si8 0.432938 0.430811 0.646759
O O1 0.250000 0.074112 0.435099
O O2 0.025179 0.123258 0.373473
O O3 0.000000 0.091991 0.500000
O O4 0.022309 0.000000 0.415928
O O5 0.750000 0.419459 0.064414
O O6 0.930479 0.322419 0.067452
O O7 0.984197 0.416637 0.140119
O O8 0.000000 0.421957 0.000000
O O9 0.250000 0.746567 0.199705
O O10 0.032607 0.799365 0.264565
O O11 0.009003 0.777288 0.132958
O O12 0.995903 0.685116 0.215097
O O13 0.250000 0.226828 0.930029
O O14 0.500000 0.223126 0.000000
O O15 0.250000 0.616651 0.793306
O O16 0.475451 0.578162 0.723253
O O17 0.500000 0.296284 0.500000
O O18 0.250000 0.301952 0.569205
O O19 0.489720 0.246499 0.618033
O O20 0.481724 0.370352 0.604317
O O21 0.750000 0.802624 0.652003
O O22 0.250000 0.430351 0.645333
O O23 0.484801 0.500000 0.622759
#
# Coordination Sequence:
#
# PCOD9398749 Si02
#       8
#     8   8   8   8   8   8   8   8
#     4   9  18  33  51  71  97 130 166 201 237 281
#     4   8  14  22  36  58  83 110 141 178 218 265
#     4  10  18  27  43  67  96 125 155 194 238 281
#     4   9  16  26  40  61  92 127 162 195 234 281
#     4   9  16  29  46  64  86 115 154 194 234 281
#     4  11  22  35  53  73  95 121 153 195 245 296
#     4  10  20  33  50  74 102 130 162 198 238 284
#     4   9  18  33  52  70  87 114 156 201 244 292
#
# _framework density 16.883324999999999
#
# number of rings (size 3 to 8) (size 9 to 14) (size 15 to 20)
#    0.000    2.625    1.250    2.250    0.000    5.250 
#    0.000    0.000    0.000    3.375    0.000    0.000 
#    0.000    0.500    0.000    0.875    0.000    2.750 
#
# Total GULP energy -356747.263339 kJ/mol
# GULP energy per Si atom -5574.175990 kJ/mol
# Density = 1.684490 g / cm^3
# Si number density = 16.883325 Si / 1000 Ang^3
#
#
#
# Elastic Constant Matrix: (Units=GPa)
#
#
# Indices 1 2 3 4 5 6 
#
# 1 24.1324 18.8467 35.9052 0.0000 0.0000 0.0000
# 2 18.8467 67.7673 49.6505 0.0000 0.0000 0.0000
# 3 35.9052 49.6505 136.8040 0.0000 0.0000 0.0000
# 4 0.0000 0.0000 0.0000 -50.9067 0.0000 0.0000
# 5 0.0000 0.0000 0.0000 0.0000 25.1011 0.0000
# 6 0.0000 0.0000 0.0000 0.0000 0.0000 31.8277
#
#
#
# Elastic Compliance Matrix: (Units=1/GPa)
#
#
# Indices 1 2 3 4 5 6 
#
# 1 0.071281 -0.008333 -0.015684 0.000000 0.000000 0.000000
# 2 -0.008333 0.021076 -0.005462 0.000000 0.000000 0.000000
# 3 -0.015684 -0.005462 0.013408 0.000000 0.000000 0.000000
# 4 0.000000 0.000000 0.000000 -0.019644 0.000000 0.000000
# 5 0.000000 0.000000 0.000000 0.000000 0.039839 0.000000
# 6 0.000000 0.000000 0.000000 0.000000 0.000000 0.031419
#
#
# Mechanical properties :
#
#
# Convention : Reuss Voigt Hill
#
# Bulk Modulus (GPa) = 21.36416 48.61204 34.98810
# Shear Modulus (GPa) = 21.55738 9.49118 15.52428
#
# Velocity S-wave (km/s) = 3.57717 2.37357 3.03562
# Velocity P-wave (km/s) = 5.45372 6.03052 5.74936
#
# Compressibility (1/GPa) = 0.04680737
#
# Stress axis : x y z
#
# Youngs Moduli (GPa) = 14.02902 47.44819 74.58010
#
# Poissons Ratio (x) = 0.39538 1.16971
# Poissons Ratio (y) = 0.11690 0.40736
# Poissons Ratio (z) = 0.22003 0.25916
#
# Static dielectric constant tensor:
#      x y z
#    x 1.570470 0.000000 0.000000 
#    y 0.000000 1.568410 0.000000 
#    z 0.000000 0.000000 1.586420 
# 
# From -- ./inp_files/32580.got.cif
#   From: 2010.05.17/outbox.cif.g08.bks.cpg/sg51_17_cif.got.tgz:32580.got - 2010.06.03 11:52:47.
