data_PCOD9398999
_publ_section_title
;
Structure prediction by ZEFSAII (Michael W. Deem and Ramdas Pophale) SiO2 
 PCOD9398999
Probable space group: P M M A
;
_chemical_formula_sum "Si O2"
_cell_formula_units_Z 64
_cell_length_a 8.235803
_cell_length_b 19.033564
_cell_length_c 23.907225
_cell_angle_alpha 90.000000
_cell_angle_beta 90.000000
_cell_angle_gamma 90.000000
_cell_volume 3747.617302
_symmetry_space_group_name_H-M "P M M A"
_symmetry_group_IT_number 51
_symmetry_cell_setting 'orthorhombic'
loop_
_space_group_symop_operation_xyz
x,y,z
1/2-x,-y,z
1/2+x,-y,-z
-x,y,-z
-x,-y,-z
1/2+x,y,-z
1/2-x,y,z
x,-y,z
loop_
_atom_site_type_symbol
_atom_site_label
_atom_site_fract_x
_atom_site_fract_y
_atom_site_fract_z
Si Si1 0.560837 0.333589 0.835542
Si Si2 0.559374 0.419748 0.734113
Si Si3 0.948301 0.214356 0.251198
Si Si4 0.562238 0.879870 0.938172
Si Si5 0.553146 0.579334 0.435761
Si Si6 0.435725 0.276137 0.943709
Si Si7 0.435646 0.690924 0.651804
Si Si8 0.555302 0.077478 0.184192
O O1 0.750000 0.327884 0.850450
O O2 0.535007 0.403090 0.799228
O O3 0.514834 0.270467 0.793451
O O4 0.456900 0.324688 0.890533
O O5 0.750000 0.402149 0.722071
O O6 0.531345 0.500000 0.720868
O O7 0.444620 0.369666 0.698855
O O8 0.750000 0.217136 0.250840
O O9 0.001900 0.241699 0.313157
O O10 0.001183 0.139128 0.226221
O O11 0.750000 0.898021 0.935156
O O12 0.536579 0.795597 0.935681
O O13 0.481078 0.907879 0.881330
O O14 0.500000 0.902230 0.000000
O O15 0.500000 0.585821 0.500000
O O16 0.750000 0.580026 0.432151
O O17 0.500399 0.500000 0.416880
O O18 0.490918 0.646646 0.400190
O O19 0.250000 0.253972 0.950241
O O20 0.500000 0.310834 0.000000
O O21 0.250000 0.708301 0.636814
O O22 0.750000 0.076910 0.189331
O O23 0.491594 0.000000 0.198454
#
# Coordination Sequence:
#
# PCOD9398999 Si02
#       8
#     8   8   8   8   8   8   8   8
#     4  10  18  29  46  66  87 112 141 178 220 263
#     4   9  18  30  44  65  92 119 147 180 220 264
#     4   9  17  30  47  65  87 115 148 185 224 266
#     4  11  21  33  49  67  88 115 147 184 225 273
#     4   9  17  28  42  63  94 129 161 191 223 263
#     4  11  20  31  47  66  86 108 139 179 222 269
#     4   9  17  29  46  67  90 120 156 193 226 258
#     4  10  20  33  48  66  91 121 149 182 226 277
#
# _framework density 17.077518999999999
#
# number of rings (size 3 to 8) (size 9 to 14) (size 15 to 20)
#    0.000    2.250    1.250    3.750    0.000    2.250 
#    0.000    1.250    0.000    0.375    0.000    0.000 
#    0.000    0.500    0.000    0.375    0.000    0.750 
#
# Total GULP energy -356363.172626 kJ/mol
# GULP energy per Si atom -5568.174572 kJ/mol
# Density = 1.703865 g / cm^3
# Si number density = 17.077519 Si / 1000 Ang^3
#
#
#
# Elastic Constant Matrix: (Units=GPa)
#
#
# Indices 1 2 3 4 5 6 
#
# 1 11.1176 5.1040 -0.0921 0.0000 0.0000 0.0000
# 2 5.1040 61.5085 41.8454 0.0000 0.0000 0.0000
# 3 -0.0921 41.8454 90.2564 0.0000 0.0000 0.0000
# 4 0.0000 0.0000 0.0000 14.9525 0.0000 0.0000
# 5 0.0000 0.0000 0.0000 0.0000 18.6654 0.0000
# 6 0.0000 0.0000 0.0000 0.0000 0.0000 -46.9102
#
#
#
# Elastic Compliance Matrix: (Units=1/GPa)
#
#
# Indices 1 2 3 4 5 6 
#
# 1 0.095343 -0.011654 0.005500 0.000000 0.000000 0.000000
# 2 -0.011654 0.025173 -0.011683 0.000000 0.000000 0.000000
# 3 0.005500 -0.011683 0.016502 0.000000 0.000000 0.000000
# 4 0.000000 0.000000 0.000000 0.066879 0.000000 0.000000
# 5 0.000000 0.000000 0.000000 0.000000 0.053575 0.000000
# 6 0.000000 0.000000 0.000000 0.000000 0.000000 -0.021317
#
#
# Mechanical properties :
#
#
# Convention : Reuss Voigt Hill
#
# Bulk Modulus (GPa) = 9.86723 28.51079 19.18901
# Shear Modulus (GPa) = 16.36081 5.07655 10.71868
#
# Velocity S-wave (km/s) = 3.09857 1.72601 2.50801
# Velocity P-wave (km/s) = 4.31184 4.55009 4.43256
#
# Compressibility (1/GPa) = 0.10134559
#
# Stress axis : x y z
#
# Youngs Moduli (GPa) = 10.48842 39.72523 60.60017
#
# Poissons Ratio (x) = 0.46294 -0.33331
# Poissons Ratio (y) = 0.12223 0.70798
# Poissons Ratio (z) = -0.05769 0.46410
#
# Static dielectric constant tensor:
#      x y z
#    x 1.600300 0.000000 0.000000 
#    y 0.000000 1.598310 0.000000 
#    z 0.000000 0.000000 1.611180 
# 
# From -- ./inp_files/35173.got.cif
#   From: 2010.05.17/outbox.cif.g08.bks.cpg/sg51_18_cif.got.tgz:35173.got - 2010.06.03 11:52:47.
