data_PCOD9398888
_publ_section_title
;
Structure prediction by ZEFSAII (Michael W. Deem and Ramdas Pophale) SiO2 
 PCOD9398888
Probable space group: P M M A
;
_chemical_formula_sum "Si O2"
_cell_formula_units_Z 64
_cell_length_a 9.006433
_cell_length_b 28.858479
_cell_length_c 13.504313
_cell_angle_alpha 90.000000
_cell_angle_beta 90.000000
_cell_angle_gamma 90.000000
_cell_volume 3509.932428
_symmetry_space_group_name_H-M "P M M A"
_symmetry_group_IT_number 51
_symmetry_cell_setting 'orthorhombic'
loop_
_space_group_symop_operation_xyz
x,y,z
1/2-x,-y,z
1/2+x,-y,-z
-x,y,-z
-x,-y,-z
1/2+x,y,-z
1/2-x,y,z
x,-y,z
loop_
_atom_site_type_symbol
_atom_site_label
_atom_site_fract_x
_atom_site_fract_y
_atom_site_fract_z
Si Si1 0.084779 0.287337 0.908730
Si Si2 0.070920 0.553519 0.106242
Si Si3 0.428130 0.860050 0.897056
Si Si4 0.427846 0.640667 0.222457
Si Si5 0.080320 0.056117 0.599258
Si Si6 0.082136 0.787728 0.735260
Si Si7 0.074053 0.945365 0.192467
Si Si8 0.428329 0.712476 0.392854
O O1 0.250000 0.301963 0.936783
O O2 0.093926 0.250658 0.821355
O O3 0.990095 0.329881 0.868872
O O4 0.000000 0.265668 0.000000
O O5 0.250000 0.555959 0.096360
O O6 0.030191 0.500000 0.126300
O O7 0.026796 0.588244 0.195295
O O8 0.000000 0.566468 0.000000
O O9 0.250000 0.856289 0.903269
O O10 0.475235 0.831669 0.797933
O O11 0.482285 0.912343 0.879434
O O12 0.500000 0.843539 0.000000
O O13 0.250000 0.642102 0.223725
O O14 0.475443 0.669575 0.320234
O O15 0.250000 0.073080 0.608889
O O16 0.000000 0.073460 0.500000
O O17 0.984335 0.065228 0.696729
O O18 0.088172 0.000000 0.591102
O O19 0.250000 0.797271 0.697793
O O20 0.984125 0.761320 0.653977
O O21 0.250000 0.936543 0.184439
O O22 0.048303 0.000000 0.174357
O O23 0.500000 0.706466 0.500000
O O24 0.250000 0.712743 0.398350
#
# Coordination Sequence:
#
# PCOD9398888 Si02
#       8
#     8   8   8   8   8   8   8   8
#     4  10  18  28  45  70 100 131 162 201 249 302
#     4   9  17  29  45  67  99 139 181 224 269 316
#     4  11  23  39  59  81 107 139 174 213 257 308
#     4   9  18  31  47  70  98 132 175 217 261 312
#     4   9  16  28  49  76 104 133 165 204 251 299
#     4   9  20  37  55  77 104 133 166 204 250 306
#     4  10  21  37  56  79 108 142 181 223 264 307
#     4  10  20  35  57  81 106 136 170 213 263 316
#
# _framework density 18.233971
#
# number of rings (size 3 to 8) (size 9 to 14) (size 15 to 20)
#    0.000    2.375    0.000    2.625    0.000    6.000 
#    0.000    0.625    0.000    3.375    0.000    0.000 
#    0.000    0.000    0.000    0.000    0.000    0.375 
#
# Total GULP energy -356626.065279 kJ/mol
# GULP energy per Si atom -5572.282270 kJ/mol
# Density = 1.819247 g / cm^3
# Si number density = 18.233971 Si / 1000 Ang^3
#
#
#
# Elastic Constant Matrix: (Units=GPa)
#
#
# Indices 1 2 3 4 5 6 
#
# 1 36.4384 24.8558 40.6466 0.0000 0.0000 0.0000
# 2 24.8558 82.1459 42.1181 0.0000 0.0000 0.0000
# 3 40.6466 42.1181 92.2366 0.0000 0.0000 0.0000
# 4 0.0000 0.0000 0.0000 18.4146 0.0000 0.0000
# 5 0.0000 0.0000 0.0000 0.0000 30.5785 0.0000
# 6 0.0000 0.0000 0.0000 0.0000 0.0000 30.5880
#
#
#
# Elastic Compliance Matrix: (Units=1/GPa)
#
#
# Indices 1 2 3 4 5 6 
#
# 1 0.055877 -0.005591 -0.022071 0.000000 0.000000 0.000000
# 2 -0.005591 0.016454 -0.005050 0.000000 0.000000 0.000000
# 3 -0.022071 -0.005050 0.022874 0.000000 0.000000 0.000000
# 4 0.000000 0.000000 0.000000 0.054305 0.000000 0.000000
# 5 0.000000 0.000000 0.000000 0.000000 0.032703 0.000000
# 6 0.000000 0.000000 0.000000 0.000000 0.000000 0.032693
#
#
# Mechanical properties :
#
#
# Convention : Reuss Voigt Hill
#
# Bulk Modulus (GPa) = 33.57742 47.34020 40.45881
# Shear Modulus (GPa) = 17.22625 22.79626 20.01125
#
# Velocity S-wave (km/s) = 3.07699 3.53966 3.31640
# Velocity P-wave (km/s) = 5.57481 6.53641 6.07467
#
# Compressibility (1/GPa) = 0.02978192
#
# Stress axis : x y z
#
# Youngs Moduli (GPa) = 17.89649 60.77435 43.71868
#
# Poissons Ratio (x) = 0.33980 0.96490
# Poissons Ratio (y) = 0.10006 0.22076
# Poissons Ratio (z) = 0.39499 0.30689
#
# Static dielectric constant tensor:
#      x y z
#    x 1.635270 0.000000 0.000000 
#    y 0.000000 1.661870 0.000000 
#    z 0.000000 0.000000 1.629020 
# 
# From -- ./inp_files/14865.got.cif
#   From: 2010.05.17/outbox.cif.g08.bks.cpg/sg51_8_cif.got.tgz:14865.got - 2010.06.03 11:52:47.
