data_PCOD9398915
_publ_section_title
;
Structure prediction by ZEFSAII (Michael W. Deem and Ramdas Pophale) SiO2 
 PCOD9398915
Probable space group: P M M A
;
_chemical_formula_sum "Si O2"
_cell_formula_units_Z 48
_cell_length_a 19.501883
_cell_length_b 9.220328
_cell_length_c 16.174434
_cell_angle_alpha 90.000000
_cell_angle_beta 90.000000
_cell_angle_gamma 90.000000
_cell_volume 2908.385759
_symmetry_space_group_name_H-M "P M M A"
_symmetry_group_IT_number 51
_symmetry_cell_setting 'orthorhombic'
loop_
_space_group_symop_operation_xyz
x,y,z
1/2-x,-y,z
1/2+x,-y,-z
-x,y,-z
-x,-y,-z
1/2+x,y,-z
1/2-x,y,z
x,-y,z
loop_
_atom_site_type_symbol
_atom_site_label
_atom_site_fract_x
_atom_site_fract_y
_atom_site_fract_z
Si Si1 0.480794 0.172989 0.634305
Si Si2 0.750000 0.323848 0.767678
Si Si3 0.029661 0.671254 0.806773
Si Si4 0.376941 0.327890 0.120822
Si Si5 0.922143 0.832833 0.036379
Si Si6 0.388538 0.173286 0.473430
Si Si7 0.250000 0.325360 0.423931
O O1 0.463252 0.258093 0.717079
O O2 0.426886 0.200112 0.560428
O O3 0.555823 0.212059 0.597601
O O4 0.481217 0.000000 0.650203
O O5 0.750000 0.500000 0.766675
O O6 0.682754 0.277725 0.817847
O O7 0.750000 0.278611 0.672599
O O8 0.043357 0.500000 0.804882
O O9 0.074934 0.748457 0.877141
O O10 0.950560 0.692019 0.835525
O O11 0.368853 0.500000 0.105348
O O12 0.377620 0.244661 0.034031
O O13 0.902890 0.000000 0.047811
O O14 0.000000 0.829178 0.000000
O O15 0.318746 0.260693 0.463748
O O16 0.376012 0.000000 0.467697
O O17 0.250000 0.500000 0.428403
#
# Coordination Sequence:
#
# PCOD9398915 Si02
#       7
#     8   4   8   8   8   8   4
#     4   9  18  33  52  73  98 130 168 207 248 295
#     4   9  18  31  47  68  97 130 157 185 228 281
#     4  10  18  28  47  73  98 124 157 197 241 288
#     4   9  17  30  46  66  95 128 158 189 231 282
#     4   9  17  29  45  66  92 121 154 192 231 271
#     4   9  19  35  52  71  99 134 167 203 251 299
#     4  11  21  33  51  76 103 132 167 203 242 295
#
# _framework density 16.504002
#
# number of rings (size 3 to 8) (size 9 to 14) (size 15 to 20)
#    0.000    2.667    0.000    3.250    0.000    5.333 
#    0.000    3.750    0.000    1.000    0.000    4.667 
#    0.000    0.000    0.000    0.000    0.000    0.000 
#
# Total GULP energy -267639.186977 kJ/mol
# GULP energy per Si atom -5575.816395 kJ/mol
# Density = 1.646644 g / cm^3
# Si number density = 16.504002 Si / 1000 Ang^3
#
#
#
# Elastic Constant Matrix: (Units=GPa)
#
#
# Indices 1 2 3 4 5 6 
#
# 1 73.6383 39.4555 29.2705 0.0000 0.0000 0.0000
# 2 39.4555 61.3283 60.6312 0.0000 0.0000 0.0000
# 3 29.2705 60.6312 113.6116 0.0000 0.0000 0.0000
# 4 0.0000 0.0000 0.0000 34.8917 0.0000 0.0000
# 5 0.0000 0.0000 0.0000 0.0000 11.8547 0.0000
# 6 0.0000 0.0000 0.0000 0.0000 0.0000 18.2162
#
#
#
# Elastic Compliance Matrix: (Units=1/GPa)
#
#
# Indices 1 2 3 4 5 6 
#
# 1 0.021511 -0.017697 0.003902 0.000000 0.000000 0.000000
# 2 -0.017697 0.049076 -0.021631 0.000000 0.000000 0.000000
# 3 0.003902 -0.021631 0.019340 0.000000 0.000000 0.000000
# 4 0.000000 0.000000 0.000000 0.028660 0.000000 0.000000
# 5 0.000000 0.000000 0.000000 0.000000 0.084355 0.000000
# 6 0.000000 0.000000 0.000000 0.000000 0.000000 0.054896
#
#
# Mechanical properties :
#
#
# Convention : Reuss Voigt Hill
#
# Bulk Modulus (GPa) = 52.42190 56.36584 54.39387
# Shear Modulus (GPa) = 14.92318 20.94060 17.93189
#
# Velocity S-wave (km/s) = 3.01028 3.56591 3.29981
# Velocity P-wave (km/s) = 6.62680 7.15411 6.89550
#
# Compressibility (1/GPa) = 0.01907600
#
# Stress axis : x y z
#
# Youngs Moduli (GPa) = 46.48821 20.37635 51.70500
#
# Poissons Ratio (x) = 0.36060 -0.20177
# Poissons Ratio (y) = 0.82270 1.11845
# Poissons Ratio (z) = -0.18142 0.44077
#
# Static dielectric constant tensor:
#      x y z
#    x 1.541820 0.000000 0.000000 
#    y 0.000000 1.547710 0.000000 
#    z 0.000000 0.000000 1.537970 
# 
# From -- ./inp_files/25000.got.cif
#   From: 2010.05.17/outbox.cif.g08.bks.cpg/sg51_13_cif.got.tgz:25000.got - 2010.06.03 11:52:47.
