data_PCOD9398649
_publ_section_title
;
Structure prediction by ZEFSAII (Michael W. Deem and Ramdas Pophale) SiO2 
 PCOD9398649
Probable space group: P M M A
;
_chemical_formula_sum "Si O2"
_cell_formula_units_Z 56
_cell_length_a 18.036705
_cell_length_b 9.425614
_cell_length_c 22.766126
_cell_angle_alpha 90.000000
_cell_angle_beta 90.000000
_cell_angle_gamma 90.000000
_cell_volume 3870.401219
_symmetry_space_group_name_H-M "P M M A"
_symmetry_group_IT_number 51
_symmetry_cell_setting 'orthorhombic'
loop_
_space_group_symop_operation_xyz
x,y,z
1/2-x,-y,z
1/2+x,-y,-z
-x,y,-z
-x,-y,-z
1/2+x,y,-z
1/2-x,y,z
x,-y,z
loop_
_atom_site_type_symbol
_atom_site_label
_atom_site_fract_x
_atom_site_fract_y
_atom_site_fract_z
Si Si1 0.250000 0.670692 0.185468
Si Si2 0.334703 0.331780 0.523553
Si Si3 0.334724 0.331551 0.964215
Si Si4 0.032729 0.837341 0.566676
Si Si5 0.475137 0.163364 0.931279
Si Si6 0.750000 0.831121 0.692053
Si Si7 0.373465 0.829867 0.403623
Si Si8 0.616515 0.331619 0.900968
O O1 0.250000 0.500000 0.191966
O O2 0.250000 0.745741 0.247931
O O3 0.177414 0.708518 0.147269
O O4 0.250000 0.308238 0.543035
O O5 0.346863 0.500000 0.517195
O O6 0.396578 0.263841 0.565828
O O7 0.345201 0.255377 0.460439
O O8 0.250000 0.292601 0.950456
O O9 0.344301 0.500000 0.953929
O O10 0.396936 0.244068 0.929901
O O11 0.348827 0.308874 0.034006
O O12 0.000000 0.834042 0.500000
O O13 0.960695 0.797633 0.604864
O O14 0.054230 0.000000 0.578997
O O15 0.540554 0.244624 0.897612
O O16 0.468882 0.000000 0.913314
O O17 0.500000 0.166346 0.000000
O O18 0.678419 0.798861 0.651624
O O19 0.750000 0.000000 0.703638
O O20 0.368248 0.000000 0.415959
O O21 0.601394 0.500000 0.896288
#
# Coordination Sequence:
#
# PCOD9398649 Si02
#       8
#     4   8   8   8   8   4   8   8
#     4  10  20  32  46  64  84 108 146 188 217 246
#     4  10  18  25  37  60  86 110 136 166 204 248
#     4   9  15  25  42  61  81 110 145 172 201 246
#     4   8  15  26  40  57  76 104 140 170 200 242
#     4   9  17  26  37  58  84 109 137 170 210 252
#     4  10  20  32  46  62  82 110 144 180 215 250
#     4   9  17  30  44  56  76 109 144 174 205 245
#     4   9  16  29  44  57  78 110 144 177 209 244
#
# _framework density 14.468783999999999
#
# number of rings (size 3 to 8) (size 9 to 14) (size 15 to 20)
#    0.000    2.857    1.429    1.714    0.000    6.571 
#    0.000    0.000    0.000    0.000    0.000    0.000 
#    0.000    1.143    0.000    7.429    0.000    5.571 
#
# Total GULP energy -311810.594659 kJ/mol
# GULP energy per Si atom -5568.046333 kJ/mol
# Density = 1.443585 g / cm^3
# Si number density = 14.468784 Si / 1000 Ang^3
#
#
#
# Elastic Constant Matrix: (Units=GPa)
#
#
# Indices 1 2 3 4 5 6 
#
# 1 161.8745 81.4587 48.1308 0.0000 0.0000 0.0000
# 2 81.4587 62.1134 29.6197 0.0000 0.0000 0.0000
# 3 48.1308 29.6197 47.5197 0.0000 0.0000 0.0000
# 4 0.0000 0.0000 0.0000 17.3791 0.0000 0.0000
# 5 0.0000 0.0000 0.0000 0.0000 11.5817 0.0000
# 6 0.0000 0.0000 0.0000 0.0000 0.0000 17.7367
#
#
#
# Elastic Compliance Matrix: (Units=1/GPa)
#
#
# Indices 1 2 3 4 5 6 
#
# 1 0.019061 -0.022470 -0.005300 0.000000 0.000000 0.000000
# 2 -0.022470 0.049398 -0.008031 0.000000 0.000000 0.000000
# 3 -0.005300 -0.008031 0.031418 0.000000 0.000000 0.000000
# 4 0.000000 0.000000 0.000000 0.057540 0.000000 0.000000
# 5 0.000000 0.000000 0.000000 0.000000 0.086343 0.000000
# 6 0.000000 0.000000 0.000000 0.000000 0.000000 0.056380
#
#
# Mechanical properties :
#
#
# Convention : Reuss Voigt Hill
#
# Bulk Modulus (GPa) = 35.36828 65.54732 50.45780
# Shear Modulus (GPa) = 13.11755 16.82605 14.97180
#
# Velocity S-wave (km/s) = 3.01426 3.41386 3.22027
# Velocity P-wave (km/s) = 6.05078 7.80642 6.98399
#
# Compressibility (1/GPa) = 0.02827393
#
# Stress axis : x y z
#
# Youngs Moduli (GPa) = 52.46329 20.24383 31.82855
#
# Poissons Ratio (x) = 0.45488 0.16870
# Poissons Ratio (y) = 1.17885 0.25563
# Poissons Ratio (z) = 0.27807 0.16259
#
# Static dielectric constant tensor:
#      x y z
#    x 1.499490 0.000000 0.000000 
#    y 0.000000 1.481690 0.000000 
#    z 0.000000 0.000000 1.439220 
# 
# From -- ./inp_files/34040.got.cif
#   From: 2010.05.17/outbox.cif.g08.bks.cpg/sg51_18_cif.got.tgz:34040.got - 2010.06.03 11:52:47.
