data_PCOD9398243
_publ_section_title
;
Structure prediction by ZEFSAII (Michael W. Deem and Ramdas Pophale) SiO2 
 PCOD9398243
Probable space group: P B A N
;
_chemical_formula_sum "Si O2"
_cell_formula_units_Z 44
_cell_length_a 15.899220
_cell_length_b 14.136244
_cell_length_c 9.125866
_cell_angle_alpha 90.000000
_cell_angle_beta 90.000000
_cell_angle_gamma 90.000000
_cell_volume 2051.086325
_symmetry_space_group_name_H-M "P B A N"
_symmetry_group_IT_number 50
_space_group.IT_coordinate_system_code '2'
_symmetry_cell_setting 'orthorhombic'
loop_
_space_group_symop_operation_xyz
x,y,z
1/2-x,1/2-y,z
x,1/2-y,-z
1/2-x,y,-z
-x,-y,-z
1/2+x,1/2+y,-z
-x,1/2+y,z
1/2+x,-y,z
loop_
_atom_site_type_symbol
_atom_site_label
_atom_site_fract_x
_atom_site_fract_y
_atom_site_fract_z
Si Si1 0.051754 0.750000 0.500000
Si Si2 0.193081 0.336399 0.210928
Si Si3 0.750000 0.922295 0.500000
Si Si4 0.471030 0.229004 0.835388
Si Si5 0.415685 0.544576 0.428479
Si Si6 0.574903 0.510962 0.888306
Si Si7 0.250000 0.496156 0.000000
O O1 0.008665 0.735957 0.333786
O O2 0.098684 0.849517 0.484364
O O3 0.250000 0.250000 0.162153
O O4 0.208607 0.355345 0.379604
O O5 0.100003 0.309053 0.169749
O O6 0.223532 0.430470 0.134353
O O7 0.829625 0.984932 0.553181
O O8 0.427307 0.123945 0.847141
O O9 0.513249 0.250000 0.000000
O O10 0.500000 0.500000 0.500000
O O11 0.439680 0.545129 0.259317
O O12 0.660346 0.464479 0.952493
O O13 0.500000 0.500000 0.000000
#
# Coordination Sequence:
#
# PCOD9398243 Si02
#       7
#     4   8   4   8   8   8   4
#     4  12  28  45  75 102 146 198 254 301 366 449
#     4  12  22  37  65 106 144 180 227 301 385 440
#     4  12  27  43  68 102 148 188 246 308 366 454
#     4  12  23  42  70 108 149 188 240 305 383 446
#     4  12  26  48  70 105 142 192 247 304 371 442
#     4  12  26  44  69 106 153 194 241 303 373 452
#     4  12  23  42  66 102 147 188 230 303 370 446
#
# _framework density 21.452045999999999
#
# number of rings (size 3 to 8) (size 9 to 14) (size 15 to 20)
#    0.000    0.000    7.273    2.727    5.091    0.364 
#    0.000    0.000    0.000    0.000    0.000    0.000 
#    0.000    0.000    0.000    0.000    0.000    0.000 
#
# Total GULP energy -245076.392714 kJ/mol
# GULP energy per Si atom -5569.918016 kJ/mol
# Density = 2.140322 g / cm^3
# Si number density = 21.452046 Si / 1000 Ang^3
#
#
#
# Elastic Constant Matrix: (Units=GPa)
#
#
# Indices 1 2 3 4 5 6 
#
# 1 107.8372 18.3937 41.7362 0.0000 0.0000 0.0000
# 2 18.3937 68.3042 12.3094 0.0000 0.0000 0.0000
# 3 41.7362 12.3094 159.4612 0.0000 0.0000 0.0000
# 4 0.0000 0.0000 0.0000 37.6728 0.0000 0.0000
# 5 0.0000 0.0000 0.0000 0.0000 29.8517 0.0000
# 6 0.0000 0.0000 0.0000 0.0000 0.0000 2.1717
#
#
#
# Elastic Compliance Matrix: (Units=1/GPa)
#
#
# Indices 1 2 3 4 5 6 
#
# 1 0.010696 -0.002409 -0.002613 0.000000 0.000000 0.000000
# 2 -0.002409 0.015390 -0.000557 0.000000 0.000000 0.000000
# 3 -0.002613 -0.000557 0.006998 0.000000 0.000000 0.000000
# 4 0.000000 0.000000 0.000000 0.026544 0.000000 0.000000
# 5 0.000000 0.000000 0.000000 0.000000 0.033499 0.000000
# 6 0.000000 0.000000 0.000000 0.000000 0.000000 0.460465
#
#
# Mechanical properties :
#
#
# Convention : Reuss Voigt Hill
#
# Bulk Modulus (GPa) = 45.61361 53.38679 49.50020
# Shear Modulus (GPa) = 8.74035 31.48346 20.11191
#
# Velocity S-wave (km/s) = 2.02070 3.83511 3.06523
# Velocity P-wave (km/s) = 5.17238 6.67468 5.97097
#
# Compressibility (1/GPa) = 0.02192328
#
# Stress axis : x y z
#
# Youngs Moduli (GPa) = 93.49594 64.97886 142.89457
#
# Poissons Ratio (x) = 0.15655 0.37344
# Poissons Ratio (y) = 0.22526 0.07965
# Poissons Ratio (z) = 0.24434 0.03622
#
# Static dielectric constant tensor:
#      x y z
#    x 1.694120 0.000000 0.000000 
#    y 0.000000 1.816040 0.000000 
#    z 0.000000 0.000000 1.791300 
# 
# From -- ./inp_files/14177.got.cif
#   From: 2010.05.17/outbox.cif.g08.bks.cpg/sg50_8_cif.got.tgz:14177.got - 2010.06.03 11:33:33.
