data_PCOD9398668
_publ_section_title
;
Structure prediction by ZEFSAII (Michael W. Deem and Ramdas Pophale) SiO2 
 PCOD9398668
Probable space group: P M M A
;
_chemical_formula_sum "Si O2"
_cell_formula_units_Z 52
_cell_length_a 8.703502
_cell_length_b 27.922775
_cell_length_c 13.931336
_cell_angle_alpha 90.000000
_cell_angle_beta 90.000000
_cell_angle_gamma 90.000000
_cell_volume 3385.675860
_symmetry_space_group_name_H-M "P M M A"
_symmetry_group_IT_number 51
_symmetry_cell_setting 'orthorhombic'
loop_
_space_group_symop_operation_xyz
x,y,z
1/2-x,-y,z
1/2+x,-y,-z
-x,y,-z
-x,-y,-z
1/2+x,y,-z
1/2-x,y,z
x,-y,z
loop_
_atom_site_type_symbol
_atom_site_label
_atom_site_fract_x
_atom_site_fract_y
_atom_site_fract_z
Si Si1 0.435448 0.896899 0.891725
Si Si2 0.934412 0.698807 0.795797
Si Si3 0.065854 0.554431 0.705252
Si Si4 0.565961 0.354110 0.602906
Si Si5 0.065950 0.792085 0.892107
Si Si6 0.934403 0.400368 0.895623
Si Si7 0.435913 0.000000 0.891157
O O1 0.250000 0.897006 0.895308
O O2 0.481398 0.844767 0.852086
O O3 0.483527 0.948383 0.847702
O O4 0.500000 0.897060 0.000000
O O5 0.750000 0.703538 0.798130
O O6 0.979946 0.681616 0.689222
O O7 0.974876 0.654458 0.866108
O O8 0.007827 0.747939 0.829775
O O9 0.250000 0.558881 0.704777
O O10 0.024394 0.500000 0.679970
O O11 0.995061 0.593747 0.634374
O O12 0.003776 0.567062 0.811394
O O13 0.500000 0.340538 0.500000
O O14 0.750000 0.355577 0.599853
O O15 0.250000 0.790559 0.897920
O O16 0.000000 0.787546 0.000000
O O17 0.750000 0.404513 0.894696
O O18 0.000000 0.411710 0.000000
O O19 0.250000 0.000000 0.895011
O O20 0.500000 0.000000 0.000000
#
# Coordination Sequence:
#
# PCOD9398668 Si02
#       7
#     8   8   8   8   8   8   4
#     4   8  14  22  32  49  72 103 143 181 216 249
#     4   9  19  33  47  65  87 112 142 175 212 253
#     4  10  21  36  53  73  95 118 145 176 210 250
#     4  10  21  37  56  74  91 112 139 172 212 259
#     4  10  18  26  39  60  86 116 149 183 217 253
#     4  10  20  33  49  68  91 120 152 183 215 254
#     4   8  12  20  32  44  66 100 139 182 217 246
#
# _framework density 15.358824
#
# number of rings (size 3 to 8) (size 9 to 14) (size 15 to 20)
#    0.000    2.615    0.000    3.231    0.000    7.385 
#    0.000    0.000    0.000    0.000    0.000    0.000 
#    0.000    0.000    0.000    0.692    0.000    7.308 
#
# Total GULP energy -289639.867035 kJ/mol
# GULP energy per Si atom -5569.997443 kJ/mol
# Density = 1.532387 g / cm^3
# Si number density = 15.358824 Si / 1000 Ang^3
#
#
#
# Elastic Constant Matrix: (Units=GPa)
#
#
# Indices 1 2 3 4 5 6 
#
# 1 25.5345 27.5051 13.7680 0.0000 0.0000 0.0000
# 2 27.5051 130.2958 23.1171 0.0000 0.0000 0.0000
# 3 13.7680 23.1171 53.7690 0.0000 0.0000 0.0000
# 4 0.0000 0.0000 0.0000 7.8471 0.0000 0.0000
# 5 0.0000 0.0000 0.0000 0.0000 22.3438 0.0000
# 6 0.0000 0.0000 0.0000 0.0000 0.0000 15.2664
#
#
#
# Elastic Compliance Matrix: (Units=1/GPa)
#
#
# Indices 1 2 3 4 5 6 
#
# 1 0.055134 -0.009888 -0.009866 0.000000 0.000000 0.000000
# 2 -0.009888 0.010082 -0.001803 0.000000 0.000000 0.000000
# 3 -0.009866 -0.001803 0.021899 0.000000 0.000000 0.000000
# 4 0.000000 0.000000 0.000000 0.127435 0.000000 0.000000
# 5 0.000000 0.000000 0.000000 0.000000 0.044755 0.000000
# 6 0.000000 0.000000 0.000000 0.000000 0.000000 0.065503
#
#
# Mechanical properties :
#
#
# Convention : Reuss Voigt Hill
#
# Bulk Modulus (GPa) = 22.72669 37.59775 30.16222
# Shear Modulus (GPa) = 13.06882 18.77207 15.92044
#
# Velocity S-wave (km/s) = 2.92018 3.49984 3.22307
# Velocity P-wave (km/s) = 5.11852 6.39254 5.79067
#
# Compressibility (1/GPa) = 0.04400112
#
# Stress axis : x y z
#
# Youngs Moduli (GPa) = 18.13774 99.18646 45.66329
#
# Poissons Ratio (x) = 0.98077 0.45052
# Poissons Ratio (y) = 0.17935 0.08232
# Poissons Ratio (z) = 0.17895 0.17880
#
# Static dielectric constant tensor:
#      x y z
#    x 1.520930 0.000000 0.000000 
#    y 0.000000 1.559630 0.000000 
#    z 0.000000 0.000000 1.478290 
# 
# From -- ./inp_files/22022.got.cif
#   From: 2010.05.17/outbox.cif.g08.bks.cpg/sg51_12_cif.got.tgz:22022.got - 2010.06.03 11:52:47.
