data_PCOD9398712
_publ_section_title
;
Structure prediction by ZEFSAII (Michael W. Deem and Ramdas Pophale) SiO2 
 PCOD9398712
Probable space group: P M M A
;
_chemical_formula_sum "Si O2"
_cell_formula_units_Z 64
_cell_length_a 31.010876
_cell_length_b 7.499259
_cell_length_c 14.647857
_cell_angle_alpha 90.000000
_cell_angle_beta 90.000000
_cell_angle_gamma 90.000000
_cell_volume 3406.484984
_symmetry_space_group_name_H-M "P M M A"
_symmetry_group_IT_number 51
_symmetry_cell_setting 'orthorhombic'
loop_
_space_group_symop_operation_xyz
x,y,z
1/2-x,-y,z
1/2+x,-y,-z
-x,y,-z
-x,-y,-z
1/2+x,y,-z
1/2-x,y,z
x,-y,z
loop_
_atom_site_type_symbol
_atom_site_label
_atom_site_fract_x
_atom_site_fract_y
_atom_site_fract_z
Si Si1 0.876096 0.715030 0.382708
Si Si2 0.912560 0.794423 0.833267
Si Si3 0.701837 0.213081 0.517411
Si Si4 0.047403 0.294499 0.979375
Si Si5 0.636432 0.217847 0.665520
Si Si6 0.490263 0.715479 0.303594
Si Si7 0.441460 0.704931 0.470341
Si Si8 0.580833 0.284106 0.209768
O O1 0.880092 0.500000 0.383617
O O2 0.831956 0.753529 0.435720
O O3 0.916668 0.785362 0.443032
O O4 0.881652 0.777660 0.278592
O O5 0.925069 0.706585 0.928329
O O6 0.873689 0.725944 0.769092
O O7 0.954335 0.782750 0.767170
O O8 0.904007 0.000000 0.854499
O O9 0.750000 0.284156 0.503366
O O10 0.679326 0.273794 0.612004
O O11 0.704808 0.000000 0.524628
O O12 0.038224 0.500000 0.952939
O O13 0.073354 0.217528 0.893098
O O14 0.000000 0.213551 0.000000
O O15 0.597505 0.291432 0.603844
O O16 0.633568 0.000000 0.663493
O O17 0.486788 0.500000 0.305637
O O18 0.480145 0.778557 0.407052
O O19 0.536514 0.758086 0.262884
O O20 0.451936 0.500000 0.494097
O O21 0.585481 0.500000 0.205072
#
# Coordination Sequence:
#
# PCOD9398712 Si02
#       8
#     8   8   8   8   8   8   8   8
#     4   9  17  29  43  64  91 114 141 180 220 255
#     4  10  18  27  41  62  87 112 143 188 230 257
#     4   9  17  31  51  71  90 114 141 167 205 266
#     4  10  18  30  45  59  80 117 159 192 219 252
#     4   8  15  27  42  62  88 113 136 169 214 261
#     4   9  15  26  41  57  80 115 153 181 210 253
#     4   8  14  23  39  60  82 110 144 178 210 246
#     4   9  17  28  42  59  83 116 153 187 216 251
#
# _framework density 18.787696
#
# number of rings (size 3 to 8) (size 9 to 14) (size 15 to 20)
#    0.000    3.000    1.250    0.375    0.000    1.500 
#    0.000    3.750    0.000    0.000    0.000    9.625 
#    0.000    3.000    0.000    0.000    0.000    0.000 
#
# Total GULP energy -356449.179995 kJ/mol
# GULP energy per Si atom -5569.518437 kJ/mol
# Density = 1.874493 g / cm^3
# Si number density = 18.787696 Si / 1000 Ang^3
#
#
#
# Elastic Constant Matrix: (Units=GPa)
#
#
# Indices 1 2 3 4 5 6 
#
# 1 88.1931 3.3535 57.0425 0.0000 0.0000 0.0000
# 2 3.3535 50.1067 2.1079 0.0000 0.0000 0.0000
# 3 57.0425 2.1079 155.5850 0.0000 0.0000 0.0000
# 4 0.0000 0.0000 0.0000 -27.2903 0.0000 0.0000
# 5 0.0000 0.0000 0.0000 0.0000 15.6382 0.0000
# 6 0.0000 0.0000 0.0000 0.0000 0.0000 6.8864
#
#
#
# Elastic Compliance Matrix: (Units=1/GPa)
#
#
# Indices 1 2 3 4 5 6 
#
# 1 0.014893 -0.000767 -0.005450 0.000000 0.000000 0.000000
# 2 -0.000767 0.020008 0.000010 0.000000 0.000000 0.000000
# 3 -0.005450 0.000010 0.008425 0.000000 0.000000 0.000000
# 4 0.000000 0.000000 0.000000 -0.036643 0.000000 0.000000
# 5 0.000000 0.000000 0.000000 0.000000 0.063946 0.000000
# 6 0.000000 0.000000 0.000000 0.000000 0.000000 0.145215
#
#
# Mechanical properties :
#
#
# Convention : Reuss Voigt Hill
#
# Bulk Modulus (GPa) = 32.34937 46.54362 39.44649
# Shear Modulus (GPa) = 20.95890 14.47225 17.71557
#
# Velocity S-wave (km/s) = 3.34363 2.77845 3.07406
# Velocity P-wave (km/s) = 5.67118 5.92624 5.80011
#
# Compressibility (1/GPa) = 0.03091251
#
# Stress axis : x y z
#
# Youngs Moduli (GPa) = 67.14655 49.97917 118.69040
#
# Poissons Ratio (x) = 0.03836 0.64684
# Poissons Ratio (y) = 0.05153 -0.00122
# Poissons Ratio (z) = 0.36593 -0.00051
#
# Static dielectric constant tensor:
#      x y z
#    x 1.659950 0.000000 0.000000 
#    y 0.000000 1.763750 0.000000 
#    z 0.000000 0.000000 1.699800 
# 
# From -- ./inp_files/26632.got.cif
#   From: 2010.05.17/outbox.cif.g08.bks.cpg/sg51_14_cif.got.tgz:26632.got - 2010.06.03 11:52:47.
