data_PCOD9398510
_publ_section_title
;
Structure prediction by ZEFSAII (Michael W. Deem and Ramdas Pophale) SiO2 
 PCOD9398510
Probable space group: P M M A
;
_chemical_formula_sum "Si O2"
_cell_formula_units_Z 64
_cell_length_a 23.997447
_cell_length_b 7.420783
_cell_length_c 19.989838
_cell_angle_alpha 90.000000
_cell_angle_beta 90.000000
_cell_angle_gamma 90.000000
_cell_volume 3559.787287
_symmetry_space_group_name_H-M "P M M A"
_symmetry_group_IT_number 51
_symmetry_cell_setting 'orthorhombic'
loop_
_space_group_symop_operation_xyz
x,y,z
1/2-x,-y,z
1/2+x,-y,-z
-x,y,-z
-x,-y,-z
1/2+x,y,-z
1/2-x,y,z
x,-y,z
loop_
_atom_site_type_symbol
_atom_site_label
_atom_site_fract_x
_atom_site_fract_y
_atom_site_fract_z
Si Si1 0.122887 0.792061 0.744757
Si Si2 0.813268 0.779250 0.385887
Si Si3 0.024365 0.780749 0.395375
Si Si4 0.413577 0.780871 0.524806
Si Si5 0.974807 0.780211 0.897339
Si Si6 0.496044 0.220665 0.248409
Si Si7 0.812988 0.711247 0.120926
Si Si8 0.912922 0.783403 0.026947
O O1 0.159789 0.717434 0.684335
O O2 0.060666 0.717792 0.752340
O O3 0.155918 0.788996 0.814259
O O4 0.113389 0.000000 0.725901
O O5 0.750000 0.718479 0.393018
O O6 0.855118 0.722934 0.444650
O O7 0.811965 0.000000 0.385408
O O8 0.963946 0.728616 0.425277
O O9 0.030025 0.721732 0.318929
O O10 0.069403 0.721665 0.450411
O O11 0.025048 0.000000 0.394992
O O12 0.413569 0.000000 0.524180
O O13 0.968196 0.721044 0.821042
O O14 0.035923 0.725398 0.924943
O O15 0.974619 0.000000 0.897698
O O16 0.929673 0.721851 0.952489
O O17 0.495456 0.000000 0.247443
O O18 0.750000 0.781685 0.112122
O O19 0.809025 0.500000 0.134349
O O20 0.853695 0.733268 0.057650
O O21 0.914550 0.000000 0.026674
#
# Coordination Sequence:
#
# PCOD9398510 Si02
#       8
#     8   8   8   8   8   8   8   8
#     4  10  17  27  43  61  80 107 142 171 198 238
#     4   9  15  21  31  50  75 103 138 173 198 225
#     4   8  12  17  28  46  74 105 130 157 195 239
#     4   8  12  18  26  43  73 106 133 161 195 230
#     4   8  14  24  42  65  85 101 129 174 214 243
#     4   9  13  20  37  60  81 103 129 165 206 243
#     4  11  23  34  42  57  85 116 141 168 203 242
#     4   9  16  29  47  64  80 105 139 173 205 243
#
# _framework density 17.978603
#
# number of rings (size 3 to 8) (size 9 to 14) (size 15 to 20)
#    0.000    3.000    2.500    2.250    0.000    1.500 
#    0.000    1.250    0.000    0.000    0.000    0.875 
#    0.000    7.000    0.000    0.000    0.000    1.250 
#
# Total GULP energy -356784.267481 kJ/mol
# GULP energy per Si atom -5574.754179 kJ/mol
# Density = 1.793768 g / cm^3
# Si number density = 17.978603 Si / 1000 Ang^3
#
#
#
# Elastic Constant Matrix: (Units=GPa)
#
#
# Indices 1 2 3 4 5 6 
#
# 1 85.8458 -5.6439 64.4569 0.0000 0.0000 0.0000
# 2 -5.6439 53.3915 -3.5236 0.0000 0.0000 0.0000
# 3 64.4569 -3.5236 171.0034 0.0000 0.0000 0.0000
# 4 0.0000 0.0000 0.0000 -32.6722 0.0000 0.0000
# 5 0.0000 0.0000 0.0000 0.0000 21.9160 0.0000
# 6 0.0000 0.0000 0.0000 0.0000 0.0000 21.3545
#
#
#
# Elastic Compliance Matrix: (Units=1/GPa)
#
#
# Indices 1 2 3 4 5 6 
#
# 1 0.016340 0.001323 -0.006132 0.000000 0.000000 0.000000
# 2 0.001323 0.018862 -0.000110 0.000000 0.000000 0.000000
# 3 -0.006132 -0.000110 0.008157 0.000000 0.000000 0.000000
# 4 0.000000 0.000000 0.000000 -0.030607 0.000000 0.000000
# 5 0.000000 0.000000 0.000000 0.000000 0.045629 0.000000
# 6 0.000000 0.000000 0.000000 0.000000 0.000000 0.046829
#
#
# Mechanical properties :
#
#
# Convention : Reuss Voigt Hill
#
# Bulk Modulus (GPa) = 29.83237 46.75772 38.29505
# Shear Modulus (GPa) = 39.61318 19.11641 29.36479
#
# Velocity S-wave (km/s) = 4.69908 3.26435 4.04582
# Velocity P-wave (km/s) = 6.78757 6.34601 6.57050
#
# Compressibility (1/GPa) = 0.03352063
#
# Stress axis : x y z
#
# Youngs Moduli (GPa) = 61.20045 53.01631 122.59653
#
# Poissons Ratio (x) = -0.07012 0.75173
# Poissons Ratio (y) = -0.08094 0.01347
# Poissons Ratio (z) = 0.37527 0.00582
#
# Static dielectric constant tensor:
#      x y z
#    x 1.591720 0.000000 0.000000 
#    y 0.000000 1.685230 0.000000 
#    z 0.000000 0.000000 1.627530 
# 
# From -- ./inp_files/34055.got.cif
#   From: 2010.05.17/outbox.cif.g08.bks.cpg/sg51_18_cif.got.tgz:34055.got - 2010.06.03 11:52:47.
