data_PCOD9398906
_publ_section_title
;
Structure prediction by ZEFSAII (Michael W. Deem and Ramdas Pophale) SiO2 
 PCOD9398906
Probable space group: P M M A
;
_chemical_formula_sum "Si O2"
_cell_formula_units_Z 48
_cell_length_a 23.591559
_cell_length_b 23.885079
_cell_length_c 5.098296
_cell_angle_alpha 90.000000
_cell_angle_beta 90.000000
_cell_angle_gamma 90.000000
_cell_volume 2872.819697
_symmetry_space_group_name_H-M "P M M A"
_symmetry_group_IT_number 51
_symmetry_cell_setting 'orthorhombic'
loop_
_space_group_symop_operation_xyz
x,y,z
1/2-x,-y,z
1/2+x,-y,-z
-x,y,-z
-x,-y,-z
1/2+x,y,-z
1/2-x,y,z
x,-y,z
loop_
_atom_site_type_symbol
_atom_site_label
_atom_site_fract_x
_atom_site_fract_y
_atom_site_fract_z
Si Si1 0.382701 0.212609 0.601514
Si Si2 0.315285 0.180512 0.094638
Si Si3 0.958791 0.317296 0.251113
Si Si4 0.958723 0.559994 0.249184
Si Si5 0.870776 0.938200 0.882256
Si Si6 0.938338 0.906477 0.380544
O O1 0.356416 0.208903 0.310718
O O2 0.414616 0.268383 0.690332
O O3 0.426016 0.160161 0.624376
O O4 0.332728 0.201819 0.808599
O O5 0.250000 0.190690 0.156246
O O6 0.328620 0.113991 0.089004
O O7 0.000000 0.318446 0.500000
O O8 0.930013 0.379068 0.234199
O O9 0.000000 0.307963 0.000000
O O10 0.926795 0.500000 0.252996
O O11 0.000000 0.560253 0.500000
O O12 0.000000 0.559152 0.000000
O O13 0.895210 0.933001 0.589714
O O14 0.846747 0.000000 0.925941
O O15 0.921728 0.928581 0.092881
O O16 0.000000 0.917560 0.500000
#
# Coordination Sequence:
#
# PCOD9398906 Si02
#       6
#     8   8   8   8   8   8
#     4  10  20  33  49  71  94 118 157 191 224 281
#     4  10  21  37  53  67  88 116 148 198 248 276
#     4  10  18  28  46  71 101 132 156 184 221 265
#     4   8  14  24  38  60  93 131 162 183 209 250
#     4  10  21  34  49  70  89 112 150 184 220 279
#     4  10  20  32  47  67  95 124 144 175 219 266
#
# _framework density 16.708321999999999
#
# number of rings (size 3 to 8) (size 9 to 14) (size 15 to 20)
#    0.000    2.333    0.000    3.000    0.000    5.000 
#    0.000    0.000    0.000    6.000    0.000    0.000 
#    0.000    4.000    0.000    0.000    0.000    0.000 
#
# Total GULP energy -267356.891479 kJ/mol
# GULP energy per Si atom -5569.935239 kJ/mol
# Density = 1.667029 g / cm^3
# Si number density = 16.708322 Si / 1000 Ang^3
#
#
#
# Elastic Constant Matrix: (Units=GPa)
#
#
# Indices 1 2 3 4 5 6 
#
# 1 32.1079 19.7523 -4.2887 0.0000 0.0000 0.0000
# 2 19.7523 122.1267 7.6995 0.0000 0.0000 0.0000
# 3 -4.2887 7.6995 89.6152 0.0000 0.0000 0.0000
# 4 0.0000 0.0000 0.0000 11.0655 0.0000 0.0000
# 5 0.0000 0.0000 0.0000 0.0000 15.0909 0.0000
# 6 0.0000 0.0000 0.0000 0.0000 0.0000 4.3283
#
#
#
# Elastic Compliance Matrix: (Units=1/GPa)
#
#
# Indices 1 2 3 4 5 6 
#
# 1 0.035002 -0.005798 0.002173 0.000000 0.000000 0.000000
# 2 -0.005798 0.009193 -0.001067 0.000000 0.000000 0.000000
# 3 0.002173 -0.001067 0.011355 0.000000 0.000000 0.000000
# 4 0.000000 0.000000 0.000000 0.090371 0.000000 0.000000
# 5 0.000000 0.000000 0.000000 0.000000 0.066265 0.000000
# 6 0.000000 0.000000 0.000000 0.000000 0.000000 0.231040
#
#
# Mechanical properties :
#
#
# Convention : Reuss Voigt Hill
#
# Bulk Modulus (GPa) = 21.66118 32.24178 26.95148
# Shear Modulus (GPa) = 10.68378 20.80937 15.74657
#
# Velocity S-wave (km/s) = 2.53144 3.53292 3.07325
# Velocity P-wave (km/s) = 4.64076 5.99840 5.36272
#
# Compressibility (1/GPa) = 0.04616554
#
# Stress axis : x y z
#
# Youngs Moduli (GPa) = 28.56964 108.77513 88.07058
#
# Poissons Ratio (x) = 0.63069 -0.19140
# Poissons Ratio (y) = 0.16565 0.09400
# Poissons Ratio (z) = -0.06209 0.11610
#
# Static dielectric constant tensor:
#      x y z
#    x 1.433740 0.000000 0.000000 
#    y 0.000000 1.634890 0.000000 
#    z 0.000000 0.000000 1.397280 
# 
# From -- ./inp_files/2526.got.cif
#   From: 2010.05.17/outbox.cif.g08.bks.cpg/sg51_2_cif.got.tgz:2526.got - 2010.06.03 11:52:47.
