data_PCOD9398215
_publ_section_title
;
Structure prediction by ZEFSAII (Michael W. Deem and Ramdas Pophale) SiO2 
 PCOD9398215
Probable space group: P B A N
;
_chemical_formula_sum "Si O2"
_cell_formula_units_Z 22
_cell_length_a 32.471129
_cell_length_b 5.169849
_cell_length_c 5.406177
_cell_angle_alpha 90.000000
_cell_angle_beta 90.000000
_cell_angle_gamma 90.000000
_cell_volume 907.539441
_symmetry_space_group_name_H-M "P B A N"
_symmetry_group_IT_number 50
_space_group.IT_coordinate_system_code '2'
_symmetry_cell_setting 'orthorhombic'
loop_
_space_group_symop_operation_xyz
x,y,z
1/2-x,1/2-y,z
x,1/2-y,-z
1/2-x,y,-z
-x,-y,-z
1/2+x,1/2+y,-z
-x,1/2+y,z
1/2+x,-y,z
loop_
_atom_site_type_symbol
_atom_site_label
_atom_site_fract_x
_atom_site_fract_y
_atom_site_fract_z
Si Si1 0.470279 0.750000 0.500000
Si Si2 0.250000 0.750000 0.000000
Si Si3 0.400212 0.985075 0.843717
Si Si4 0.814547 0.602046 0.262757
O O1 0.500000 0.500000 0.500000
O O2 0.439185 0.846541 0.715578
O O3 0.218944 0.604266 0.817189
O O4 0.361687 0.033699 0.665260
O O5 0.381976 0.750000 0.000000
O O6 0.410588 0.250000 0.000000
O O7 0.798297 0.750000 0.500000
O O8 0.820005 0.750000 0.000000
#
# Coordination Sequence:
#
# PCOD9398215 Si02
#       4
#     4   2   8   8
#     4  12  28  46  78 119 158 209 274 344 410 498
#     4  12  26  54  80 124 160 218 274 346 418 490
#     4  11  26  49  79 116 159 217 267 339 416 493
#     4  11  28  49  80 119 162 216 276 340 414 501
#
# _framework density 24.24137
#
# number of rings (size 3 to 8) (size 9 to 14) (size 15 to 20)
#    0.000    0.727    1.818    2.727   12.727   10.182 
#    0.000    3.636    0.000    0.000    0.000    0.000 
#    0.000    0.000    0.000    0.000    0.000    0.000 
#
# Total GULP energy -122600.575330 kJ/mol
# GULP energy per Si atom -5572.753424 kJ/mol
# Density = 2.418620 g / cm^3
# Si number density = 24.241370 Si / 1000 Ang^3
#
#
#
# Elastic Constant Matrix: (Units=GPa)
#
#
# Indices 1 2 3 4 5 6 
#
# 1 166.8704 69.9831 42.2437 0.0000 0.0000 0.0000
# 2 69.9831 183.7759 65.4047 0.0000 0.0000 0.0000
# 3 42.2437 65.4047 112.4450 0.0000 0.0000 0.0000
# 4 0.0000 0.0000 0.0000 67.1594 0.0000 0.0000
# 5 0.0000 0.0000 0.0000 0.0000 32.4356 0.0000
# 6 0.0000 0.0000 0.0000 0.0000 0.0000 53.0909
#
#
#
# Elastic Compliance Matrix: (Units=1/GPa)
#
#
# Indices 1 2 3 4 5 6 
#
# 1 0.007307 -0.002277 -0.001421 0.000000 0.000000 0.000000
# 2 -0.002277 0.007571 -0.003549 0.000000 0.000000 0.000000
# 3 -0.001421 -0.003549 0.011491 0.000000 0.000000 0.000000
# 4 0.000000 0.000000 0.000000 0.014890 0.000000 0.000000
# 5 0.000000 0.000000 0.000000 0.000000 0.030830 0.000000
# 6 0.000000 0.000000 0.000000 0.000000 0.000000 0.018836
#
#
# Mechanical properties :
#
#
# Convention : Reuss Voigt Hill
#
# Bulk Modulus (GPa) = 84.19587 90.92824 87.56206
# Shear Modulus (GPa) = 45.71329 49.56784 47.64056
#
# Velocity S-wave (km/s) = 4.34724 4.52681 4.43793
# Velocity P-wave (km/s) = 7.74633 8.05690 7.90314
#
# Compressibility (1/GPa) = 0.01187707
#
# Stress axis : x y z
#
# Youngs Moduli (GPa) = 136.84950 132.07565 87.02429
#
# Poissons Ratio (x) = 0.30074 0.12364
# Poissons Ratio (y) = 0.31161 0.30881
# Poissons Ratio (z) = 0.19443 0.46868
#
# Static dielectric constant tensor:
#      x y z
#    x 2.047050 0.000000 0.000000 
#    y 0.000000 2.000890 0.000000 
#    z 0.000000 0.000000 1.731760 
# 
# From -- ./inp_files/456.got.cif
#   From: 2010.05.17/outbox.cif.g08.bks.cpg/sg50_1_cif.got.tgz:456.got - 2010.06.03 11:33:33.
