data_PCOD9398551
_publ_section_title
;
Structure prediction by ZEFSAII (Michael W. Deem and Ramdas Pophale) SiO2 
 PCOD9398551
Probable space group: P M M A
;
_chemical_formula_sum "Si O2"
_cell_formula_units_Z 64
_cell_length_a 8.409486
_cell_length_b 22.281883
_cell_length_c 19.355098
_cell_angle_alpha 90.000000
_cell_angle_beta 90.000000
_cell_angle_gamma 90.000000
_cell_volume 3626.742453
_symmetry_space_group_name_H-M "P M M A"
_symmetry_group_IT_number 51
_symmetry_cell_setting 'orthorhombic'
loop_
_space_group_symop_operation_xyz
x,y,z
1/2-x,-y,z
1/2+x,-y,-z
-x,y,-z
-x,-y,-z
1/2+x,y,-z
1/2-x,y,z
x,-y,z
loop_
_atom_site_type_symbol
_atom_site_label
_atom_site_fract_x
_atom_site_fract_y
_atom_site_fract_z
Si Si1 0.439509 0.434335 0.868692
Si Si2 0.557636 0.069483 0.576305
Si Si3 0.444595 0.737324 0.219377
Si Si4 0.934715 0.168455 0.680598
Si Si5 0.935079 0.743590 0.426209
Si Si6 0.433485 0.401258 0.574794
Si Si7 0.561493 0.689047 0.925701
Si Si8 0.560200 0.392246 0.723309
O O1 0.250000 0.430335 0.875715
O O2 0.493857 0.500000 0.892055
O O3 0.515902 0.379806 0.910198
O O4 0.483454 0.426497 0.787835
O O5 0.500000 0.088011 0.500000
O O6 0.750000 0.072642 0.575822
O O7 0.496976 0.112417 0.637801
O O8 0.510805 0.000000 0.586543
O O9 0.250000 0.738707 0.220785
O O10 0.503581 0.800219 0.250922
O O11 0.498488 0.725387 0.141250
O O12 0.490347 0.677764 0.263682
O O13 0.750000 0.154268 0.693801
O O14 0.952496 0.224269 0.628278
O O15 0.750000 0.760225 0.415609
O O16 0.944485 0.671561 0.425269
O O17 0.000000 0.763478 0.500000
O O18 0.500000 0.421472 0.500000
O O19 0.250000 0.418874 0.578483
O O20 0.515604 0.416866 0.647621
O O21 0.750000 0.693698 0.925683
O O22 0.500000 0.708259 0.000000
O O23 0.750000 0.394447 0.730742
#
# Coordination Sequence:
#
# PCOD9398551 Si02
#       8
#     8   8   8   8   8   8   8   8
#     4  10  21  36  54  76 100 127 160 194 228 270
#     4   9  18  30  43  60  86 125 169 209 247 284
#     4   8  16  29  46  68  91 118 150 185 231 282
#     4  10  17  28  45  62  87 119 155 200 241 283
#     4  10  19  27  37  58  86 116 150 189 232 278
#     4  10  19  29  42  62  89 120 153 192 237 286
#     4  10  20  35  54  76 101 129 156 185 228 282
#     4  10  18  31  50  69  94 123 155 195 241 290
#
# _framework density 17.64669
#
# number of rings (size 3 to 8) (size 9 to 14) (size 15 to 20)
#    0.000    2.375    1.250    3.000    0.000    3.750 
#    0.000    0.625    0.000    0.375    0.000    0.000 
#    0.000    0.500    0.000    0.375    0.000    0.750 
#
# Total GULP energy -356710.265034 kJ/mol
# GULP energy per Si atom -5573.597891 kJ/mol
# Density = 1.760653 g / cm^3
# Si number density = 17.646690 Si / 1000 Ang^3
#
#
#
# Elastic Constant Matrix: (Units=GPa)
#
#
# Indices 1 2 3 4 5 6 
#
# 1 17.9319 1.5723 3.2653 0.0000 0.0000 0.0000
# 2 1.5723 69.7528 28.9933 0.0000 0.0000 0.0000
# 3 3.2653 28.9933 111.2831 0.0000 0.0000 0.0000
# 4 0.0000 0.0000 0.0000 10.0940 0.0000 0.0000
# 5 0.0000 0.0000 0.0000 0.0000 26.1599 0.0000
# 6 0.0000 0.0000 0.0000 0.0000 0.0000 10.4262
#
#
#
# Elastic Compliance Matrix: (Units=1/GPa)
#
#
# Indices 1 2 3 4 5 6 
#
# 1 0.056092 -0.000651 -0.001476 0.000000 0.000000 0.000000
# 2 -0.000651 0.016085 -0.004172 0.000000 0.000000 0.000000
# 3 -0.001476 -0.004172 0.010116 0.000000 0.000000 0.000000
# 4 0.000000 0.000000 0.000000 0.099069 0.000000 0.000000
# 5 0.000000 0.000000 0.000000 0.000000 0.038226 0.000000
# 6 0.000000 0.000000 0.000000 0.000000 0.000000 0.095913
#
#
# Mechanical properties :
#
#
# Convention : Reuss Voigt Hill
#
# Bulk Modulus (GPa) = 14.34796 29.62551 21.98674
# Shear Modulus (GPa) = 14.23159 20.34513 17.28836
#
# Velocity S-wave (km/s) = 2.84293 3.39914 3.13340
# Velocity P-wave (km/s) = 4.35025 5.67716 5.05741
#
# Compressibility (1/GPa) = 0.06969630
#
# Stress axis : x y z
#
# Youngs Moduli (GPa) = 17.82771 62.16976 98.85061
#
# Poissons Ratio (x) = 0.04045 0.14594
# Poissons Ratio (y) = 0.01160 0.41237
# Poissons Ratio (z) = 0.02632 0.25935
#
# Static dielectric constant tensor:
#      x y z
#    x 1.615560 0.000000 0.000000 
#    y 0.000000 1.632450 0.000000 
#    z 0.000000 0.000000 1.642560 
# 
# From -- ./inp_files/28634.got.cif
#   From: 2010.05.17/outbox.cif.g08.bks.cpg/sg51_15_cif.got.tgz:28634.got - 2010.06.03 11:52:47.
