data_PCOD9398055
_publ_section_title
;
Structure prediction by ZEFSAII (Michael W. Deem and Ramdas Pophale) SiO2 
 PCOD9398055
Probable space group: P B A N
;
_chemical_formula_sum "Si O2"
_cell_formula_units_Z 48
_cell_length_a 18.189533
_cell_length_b 11.051115
_cell_length_c 10.814234
_cell_angle_alpha 90.000000
_cell_angle_beta 90.000000
_cell_angle_gamma 90.000000
_cell_volume 2173.819149
_symmetry_space_group_name_H-M "P B A N"
_symmetry_group_IT_number 50
_space_group.IT_coordinate_system_code '2'
_symmetry_cell_setting 'orthorhombic'
loop_
_space_group_symop_operation_xyz
x,y,z
1/2-x,1/2-y,z
x,1/2-y,-z
1/2-x,y,-z
-x,-y,-z
1/2+x,1/2+y,-z
-x,1/2+y,z
1/2+x,-y,z
loop_
_atom_site_type_symbol
_atom_site_label
_atom_site_fract_x
_atom_site_fract_y
_atom_site_fract_z
Si Si1 0.591929 0.111543 0.965390
Si Si2 0.179243 0.807371 0.759709
Si Si3 0.406384 0.286093 0.639302
Si Si4 0.063922 0.084480 0.162588
Si Si5 0.932211 0.383939 0.357326
Si Si6 0.676641 0.006865 0.563315
O O1 0.641624 0.094630 0.846496
O O2 0.507437 0.118910 0.917903
O O3 0.610194 0.250000 0.000000
O O4 0.605043 0.007356 0.067073
O O5 0.250000 0.750000 0.821685
O O6 0.121509 0.705891 0.716797
O O7 0.204970 0.877594 0.638375
O O8 0.380883 0.250000 0.500000
O O9 0.400524 0.195496 0.758159
O O10 0.493090 0.311615 0.620784
O O11 0.361057 0.409144 0.652292
O O12 0.041973 0.994725 0.272670
O O13 0.886330 0.442246 0.470084
O O14 0.750000 0.955074 0.500000
#
# Coordination Sequence:
#
# PCOD9398055 Si02
#       6
#     8   8   8   8   8   8
#     4  11  23  43  69  99 139 179 236 305 354 419
#     4  12  24  42  69 103 139 183 236 297 365 423
#     4  12  24  40  69 101 141 186 226 291 354 438
#     4  11  23  43  67 102 136 178 234 293 357 420
#     4  12  23  43  68 103 138 179 237 294 357 424
#     4  12  26  43  66 103 147 186 230 294 367 433
#
# _framework density 22.080953000000001
#
# number of rings (size 3 to 8) (size 9 to 14) (size 15 to 20)
#    0.000    0.333    6.667    3.000    0.000    2.000 
#    0.000    0.000    0.000    0.000    4.333    0.000 
#    0.000    0.000    0.000    0.000    0.000    0.000 
#
# Total GULP energy -267659.895882 kJ/mol
# GULP energy per Si atom -5576.247831 kJ/mol
# Density = 2.203070 g / cm^3
# Si number density = 22.080953 Si / 1000 Ang^3
#
#
#
# Elastic Constant Matrix: (Units=GPa)
#
#
# Indices 1 2 3 4 5 6 
#
# 1 73.4879 45.7265 10.6329 0.0000 0.0000 0.0000
# 2 45.7265 115.9660 70.6589 0.0000 0.0000 0.0000
# 3 10.6329 70.6589 95.0344 0.0000 0.0000 0.0000
# 4 0.0000 0.0000 0.0000 62.5397 0.0000 0.0000
# 5 0.0000 0.0000 0.0000 0.0000 26.0341 0.0000
# 6 0.0000 0.0000 0.0000 0.0000 0.0000 15.7353
#
#
#
# Elastic Compliance Matrix: (Units=1/GPa)
#
#
# Indices 1 2 3 4 5 6 
#
# 1 0.020102 -0.011986 0.006662 0.000000 0.000000 0.000000
# 2 -0.011986 0.022912 -0.015694 0.000000 0.000000 0.000000
# 3 0.006662 -0.015694 0.021446 0.000000 0.000000 0.000000
# 4 0.000000 0.000000 0.000000 0.015990 0.000000 0.000000
# 5 0.000000 0.000000 0.000000 0.000000 0.038411 0.000000
# 6 0.000000 0.000000 0.000000 0.000000 0.000000 0.063551
#
#
# Mechanical properties :
#
#
# Convention : Reuss Voigt Hill
#
# Bulk Modulus (GPa) = 44.59431 59.83610 52.21520
# Shear Modulus (GPa) = 21.55904 31.35983 26.45944
#
# Velocity S-wave (km/s) = 3.12807 3.77267 3.46539
# Velocity P-wave (km/s) = 5.76941 6.79226 6.30162
#
# Compressibility (1/GPa) = 0.02242439
#
# Stress axis : x y z
#
# Youngs Moduli (GPa) = 49.74732 43.64549 46.62912
#
# Poissons Ratio (x) = 0.52312 -0.31066
# Poissons Ratio (y) = 0.59626 0.73180
# Poissons Ratio (z) = -0.33144 0.68498
#
# Static dielectric constant tensor:
#      x y z
#    x 1.821840 0.000000 0.000000 
#    y 0.000000 1.882180 0.000000 
#    z 0.000000 0.000000 1.899550 
# 
# From -- ./inp_files/21792.got.cif
#   From: 2010.05.17/outbox.cif.g08.bks.cpg/sg50_11_cif.got.tgz:21792.got - 2010.06.03 11:33:33.
