data_PCOD9398430
_publ_section_title
;
Structure prediction by ZEFSAII (Michael W. Deem and Ramdas Pophale) SiO2 
 PCOD9398430
Probable space group: P M M A
;
_chemical_formula_sum "Si O2"
_cell_formula_units_Z 52
_cell_length_a 24.867804
_cell_length_b 13.568402
_cell_length_c 6.978368
_cell_angle_alpha 90.000000
_cell_angle_beta 90.000000
_cell_angle_gamma 90.000000
_cell_volume 2354.615540
_symmetry_space_group_name_H-M "P M M A"
_symmetry_group_IT_number 51
_symmetry_cell_setting 'orthorhombic'
loop_
_space_group_symop_operation_xyz
x,y,z
1/2-x,-y,z
1/2+x,-y,-z
-x,y,-z
-x,-y,-z
1/2+x,y,-z
1/2-x,y,z
x,-y,z
loop_
_atom_site_type_symbol
_atom_site_label
_atom_site_fract_x
_atom_site_fract_y
_atom_site_fract_z
Si Si1 0.811573 0.113023 0.346502
Si Si2 0.128622 0.500000 0.706282
Si Si3 0.106724 0.284957 0.683219
Si Si4 0.314520 0.500000 0.102321
Si Si5 0.005848 0.500000 0.730990
Si Si6 0.688723 0.896623 0.884303
Si Si7 0.512496 0.716737 0.790002
Si Si8 0.628024 0.295675 0.852990
O O1 0.750000 0.140198 0.399214
O O2 0.856410 0.195425 0.388138
O O3 0.821979 0.000000 0.411656
O O4 0.812135 0.108014 0.114839
O O5 0.126905 0.392159 0.606370
O O6 0.068001 0.500000 0.790873
O O7 0.173212 0.500000 0.872193
O O8 0.041832 0.270486 0.666185
O O9 0.114916 0.293767 0.916458
O O10 0.250000 0.500000 0.136080
O O11 0.344109 0.401385 0.178521
O O12 0.000000 0.500000 0.500000
O O13 0.980783 0.401227 0.806678
O O14 0.750000 0.903324 0.824403
O O15 0.667569 0.793678 0.813491
O O16 0.660461 0.000000 0.832186
O O17 0.573947 0.738797 0.742563
O O18 0.500000 0.760473 0.000000
#
# Coordination Sequence:
#
# PCOD9398430 Si02
#       8
#     8   4   8   4   4   8   8   8
#     4   8  13  21  33  50  77 113 146 176 214 260
#     4   8  16  26  36  55  82 104 133 177 212 244
#     4   8  14  23  35  52  76 110 141 167 207 257
#     4  10  17  23  36  60  85 110 143 181 217 257
#     4  10  18  29  45  63  83 114 152 180 205 255
#     4   8  13  21  32  47  72 106 139 170 205 247
#     4   9  16  27  42  60  86 115 140 175 221 258
#     4   9  15  23  35  53  80 110 139 170 209 257
#
# _framework density 22.084285000000001
#
# number of rings (size 3 to 8) (size 9 to 14) (size 15 to 20)
#    0.000    3.385    0.000    3.000    0.000    4.923 
#    0.000    0.769    0.000    4.615    0.000    3.231 
#    0.000   15.385    0.000   13.538    0.000   12.308 
#
# Total GULP energy -289623.813808 kJ/mol
# GULP energy per Si atom -5569.688727 kJ/mol
# Density = 2.203402 g / cm^3
# Si number density = 22.084285 Si / 1000 Ang^3
#
#
#
# Elastic Constant Matrix: (Units=GPa)
#
#
# Indices 1 2 3 4 5 6 
#
# 1 165.2177 100.3313 20.1750 0.0000 0.0000 0.0000
# 2 100.3313 176.5350 -4.9157 0.0000 0.0000 0.0000
# 3 20.1750 -4.9157 96.0996 0.0000 0.0000 0.0000
# 4 0.0000 0.0000 0.0000 -27.7886 0.0000 0.0000
# 5 0.0000 0.0000 0.0000 0.0000 8.4593 0.0000
# 6 0.0000 0.0000 0.0000 0.0000 0.0000 -141.5600
#
#
#
# Elastic Compliance Matrix: (Units=1/GPa)
#
#
# Indices 1 2 3 4 5 6 
#
# 1 0.009737 -0.005599 -0.002331 0.000000 0.000000 0.000000
# 2 -0.005599 0.008892 0.001630 0.000000 0.000000 0.000000
# 3 -0.002331 0.001630 0.010979 0.000000 0.000000 0.000000
# 4 0.000000 0.000000 0.000000 -0.035986 0.000000 0.000000
# 5 0.000000 0.000000 0.000000 0.000000 0.118213 0.000000
# 6 0.000000 0.000000 0.000000 0.000000 0.000000 -0.007064
#
#
# Mechanical properties :
#
#
# Convention : Reuss Voigt Hill
#
# Bulk Modulus (GPa) = 58.79125 74.33704 66.56414
# Shear Modulus (GPa) = 40.63761 -10.69374 14.97194
#
# Velocity S-wave (km/s) = 4.29431 -2.20290 2.60656
# Velocity P-wave (km/s) = 7.16011 5.22143 6.26620
#
# Compressibility (1/GPa) = 0.01700933
#
# Stress axis : x y z
#
# Youngs Moduli (GPa) = 102.69812 112.45961 91.08668
#
# Poissons Ratio (x) = 0.62966 0.21229
# Poissons Ratio (y) = 0.57500 -0.14850
# Poissons Ratio (z) = 0.23935 -0.18334
#
# Static dielectric constant tensor:
#      x y z
#    x 1.798370 0.000000 0.000000 
#    y 0.000000 1.806760 0.000000 
#    z 0.000000 0.000000 1.870110 
# 
# From -- ./inp_files/11788.got.cif
#   From: 2010.05.17/outbox.cif.g08.bks.cpg/sg51_6_cif.got.tgz:11788.got - 2010.06.03 11:52:47.
