data_PCOD9398224
_publ_section_title
;
Structure prediction by ZEFSAII (Michael W. Deem and Ramdas Pophale) SiO2 
 PCOD9398224
Probable space group: P B A N
;
_chemical_formula_sum "Si O2"
_cell_formula_units_Z 38
_cell_length_a 8.632716
_cell_length_b 21.059216
_cell_length_c 9.343721
_cell_angle_alpha 90.000000
_cell_angle_beta 90.000000
_cell_angle_gamma 90.000000
_cell_volume 1698.671948
_symmetry_space_group_name_H-M "P B A N"
_symmetry_group_IT_number 50
_space_group.IT_coordinate_system_code '2'
_symmetry_cell_setting 'orthorhombic'
loop_
_space_group_symop_operation_xyz
x,y,z
1/2-x,1/2-y,z
x,1/2-y,-z
1/2-x,y,-z
-x,-y,-z
1/2+x,1/2+y,-z
-x,1/2+y,z
1/2+x,-y,z
loop_
_atom_site_type_symbol
_atom_site_label
_atom_site_fract_x
_atom_site_fract_y
_atom_site_fract_z
Si Si1 0.750000 0.346447 0.000000
Si Si2 0.970320 0.842586 0.824144
Si Si3 0.750000 0.750000 0.000000
Si Si4 0.964657 0.413029 0.238520
Si Si5 0.294013 0.469540 0.155297
Si Si6 0.063311 0.676627 0.494481
O O1 0.624389 0.379177 0.892949
O O2 0.867227 0.316490 0.886318
O O3 0.921359 0.914392 0.866005
O O4 0.991429 0.846608 0.654277
O O5 0.846488 0.795655 0.894569
O O6 0.859234 0.476065 0.258652
O O7 0.982069 0.365603 0.370383
O O8 0.136412 0.437056 0.205026
O O9 0.250000 0.497946 0.000000
O O10 0.015934 0.750000 0.500000
O O11 0.250000 0.674097 0.500000
#
# Coordination Sequence:
#
# PCOD9398224 Si02
#       6
#     4   8   2   8   8   8
#     4  12  22  44  80 108 145 199 258 312 380 454
#     4  12  27  47  76 112 152 197 259 323 376 463
#     4  12  28  48  78 112 150 206 274 306 392 466
#     4  12  25  46  75 110 148 203 251 316 393 454
#     4  12  24  45  74 113 150 195 259 323 377 456
#     4  11  28  49  72 107 152 198 251 315 389 463
#
# _framework density 22.370417
#
# number of rings (size 3 to 8) (size 9 to 14) (size 15 to 20)
#    0.000    0.211    6.316    1.895    5.895    2.105 
#    0.000    0.000    0.000    0.000    0.000    0.000 
#    0.000    0.000    0.000    0.000    0.000    0.000 
#
# Total GULP energy -212288.439749 kJ/mol
# GULP energy per Si atom -5586.537888 kJ/mol
# Density = 2.231950 g / cm^3
# Si number density = 22.370417 Si / 1000 Ang^3
#
#
#
# Elastic Constant Matrix: (Units=GPa)
#
#
# Indices 1 2 3 4 5 6 
#
# 1 99.9618 24.2946 55.4126 0.0000 0.0000 0.0000
# 2 24.2946 90.5238 64.1925 0.0000 0.0000 0.0000
# 3 55.4126 64.1925 168.2658 0.0000 0.0000 0.0000
# 4 0.0000 0.0000 0.0000 31.0858 0.0000 0.0000
# 5 0.0000 0.0000 0.0000 0.0000 -142.1091 0.0000
# 6 0.0000 0.0000 0.0000 0.0000 0.0000 39.1267
#
#
#
# Elastic Compliance Matrix: (Units=1/GPa)
#
#
# Indices 1 2 3 4 5 6 
#
# 1 0.012260 -0.000586 -0.003814 0.000000 0.000000 0.000000
# 2 -0.000586 0.015172 -0.005595 0.000000 0.000000 0.000000
# 3 -0.003814 -0.005595 0.009333 0.000000 0.000000 0.000000
# 4 0.000000 0.000000 0.000000 0.032169 0.000000 0.000000
# 5 0.000000 0.000000 0.000000 0.000000 -0.007037 0.000000
# 6 0.000000 0.000000 0.000000 0.000000 0.000000 0.025558
#
#
# Mechanical properties :
#
#
# Convention : Reuss Voigt Hill
#
# Bulk Modulus (GPa) = 59.60962 71.83900 65.72431
# Shear Modulus (GPa) = 44.23320 -0.05587 22.08867
#
# Velocity S-wave (km/s) = 4.45152 -0.15821 3.14571
# Velocity P-wave (km/s) = 7.28875 5.67007 6.52976
#
# Compressibility (1/GPa) = 0.01677582
#
# Stress axis : x y z
#
# Youngs Moduli (GPa) = 81.56286 65.91288 107.14132
#
# Poissons Ratio (x) = 0.03861 0.40865
# Poissons Ratio (y) = 0.04778 0.59945
# Poissons Ratio (z) = 0.31109 0.36878
#
# Static dielectric constant tensor:
#      x y z
#    x 1.819480 0.000000 0.000000 
#    y 0.000000 1.899870 0.000000 
#    z 0.000000 0.000000 1.847220 
# 
# From -- ./inp_files/9567.got.cif
#   From: 2010.05.17/outbox.cif.g08.bks.cpg/sg50_5_cif.got.tgz:9567.got - 2010.06.03 11:33:33.
