data_PCOD9398946
_publ_section_title
;
Structure prediction by ZEFSAII (Michael W. Deem and Ramdas Pophale) SiO2 
 PCOD9398946
Probable space group: P M M A
;
_chemical_formula_sum "Si O2"
_cell_formula_units_Z 64
_cell_length_a 8.555747
_cell_length_b 22.131748
_cell_length_c 19.168233
_cell_angle_alpha 90.000000
_cell_angle_beta 90.000000
_cell_angle_gamma 90.000000
_cell_volume 3629.574625
_symmetry_space_group_name_H-M "P M M A"
_symmetry_group_IT_number 51
_symmetry_cell_setting 'orthorhombic'
loop_
_space_group_symop_operation_xyz
x,y,z
1/2-x,-y,z
1/2+x,-y,-z
-x,y,-z
-x,-y,-z
1/2+x,y,-z
1/2-x,y,z
x,-y,z
loop_
_atom_site_type_symbol
_atom_site_label
_atom_site_fract_x
_atom_site_fract_y
_atom_site_fract_z
Si Si1 0.561514 0.565855 0.132597
Si Si2 0.937360 0.306724 0.074336
Si Si3 0.562645 0.832847 0.317605
Si Si4 0.936899 0.740330 0.780861
Si Si5 0.437034 0.609809 0.278940
Si Si6 0.937147 0.735615 0.428725
Si Si7 0.063333 0.929124 0.423610
Si Si8 0.937184 0.596371 0.425948
O O1 0.750000 0.567759 0.138845
O O2 0.515447 0.500000 0.105171
O O3 0.513740 0.623175 0.086570
O O4 0.490858 0.575382 0.209526
O O5 0.750000 0.303260 0.076020
O O6 0.006196 0.271966 0.140757
O O7 0.000000 0.285644 0.000000
O O8 0.750000 0.835802 0.315250
O O9 0.500413 0.804980 0.245635
O O10 0.508489 0.778494 0.368150
O O11 0.501442 0.891831 0.357631
O O12 0.750000 0.740516 0.777266
O O13 0.990967 0.680016 0.736423
O O14 0.250000 0.610377 0.284460
O O15 0.504314 0.578596 0.348999
O O16 0.750000 0.734232 0.428695
O O17 0.991722 0.666708 0.425100
O O18 0.000000 0.762089 0.500000
O O19 0.250000 0.923229 0.424928
O O20 0.000000 0.909311 0.500000
O O21 0.021797 0.000000 0.416400
O O22 0.750000 0.592147 0.427784
O O23 0.000000 0.571062 0.500000
#
# Coordination Sequence:
#
# PCOD9398946 Si02
#       8
#     8   8   8   8   8   8   8   8
#     4   9  19  35  54  75  99 131 168 203 242 291
#     4  10  20  35  55  78 107 138 167 200 243 297
#     4  11  20  31  48  71  98 130 170 215 260 305
#     4  10  20  33  50  73 101 132 167 204 249 303
#     4  10  19  31  48  70  96 126 160 203 252 300
#     4   9  18  27  38  59  88 120 154 194 241 289
#     4  10  21  36  51  69  98 139 186 231 272 312
#     4  10  18  29  43  62  90 121 155 195 242 295
#
# _framework density 17.632919999999999
#
# number of rings (size 3 to 8) (size 9 to 14) (size 15 to 20)
#    0.000    2.125    1.250    2.625    0.000    5.250 
#    0.000    0.000    0.000    0.375    0.000    0.000 
#    0.000    0.500    0.000    1.875    0.000    2.875 
#
# Total GULP energy -356754.091376 kJ/mol
# GULP energy per Si atom -5574.282678 kJ/mol
# Density = 1.759279 g / cm^3
# Si number density = 17.632920 Si / 1000 Ang^3
#
#
#
# Elastic Constant Matrix: (Units=GPa)
#
#
# Indices 1 2 3 4 5 6 
#
# 1 24.8993 22.1246 19.3220 0.0000 0.0000 0.0000
# 2 22.1246 78.1706 30.2472 0.0000 0.0000 0.0000
# 3 19.3220 30.2472 107.9528 0.0000 0.0000 0.0000
# 4 0.0000 0.0000 0.0000 8.8711 0.0000 0.0000
# 5 0.0000 0.0000 0.0000 0.0000 27.5447 0.0000
# 6 0.0000 0.0000 0.0000 0.0000 0.0000 17.1310
#
#
#
# Elastic Compliance Matrix: (Units=1/GPa)
#
#
# Indices 1 2 3 4 5 6 
#
# 1 0.057358 -0.013753 -0.006413 0.000000 0.000000 0.000000
# 2 -0.013753 0.017646 -0.002483 0.000000 0.000000 0.000000
# 3 -0.006413 -0.002483 0.011107 0.000000 0.000000 0.000000
# 4 0.000000 0.000000 0.000000 0.112725 0.000000 0.000000
# 5 0.000000 0.000000 0.000000 0.000000 0.036305 0.000000
# 6 0.000000 0.000000 0.000000 0.000000 0.000000 0.058374
#
#
# Mechanical properties :
#
#
# Convention : Reuss Voigt Hill
#
# Bulk Modulus (GPa) = 24.50127 39.37893 31.94010
# Shear Modulus (GPa) = 14.18781 19.99795 17.09288
#
# Velocity S-wave (km/s) = 2.83966 3.37133 3.11685
# Velocity P-wave (km/s) = 4.96759 6.12663 5.57730
#
# Compressibility (1/GPa) = 0.04081421
#
# Stress axis : x y z
#
# Youngs Moduli (GPa) = 17.43426 56.67156 90.03551
#
# Poissons Ratio (x) = 0.77938 0.57740
# Poissons Ratio (y) = 0.23977 0.22352
# Poissons Ratio (z) = 0.11181 0.14069
#
# Static dielectric constant tensor:
#      x y z
#    x 1.590350 0.000000 0.000000 
#    y 0.000000 1.637150 0.000000 
#    z 0.000000 0.000000 1.637960 
# 
# From -- ./inp_files/28462.got.cif
#   From: 2010.05.17/outbox.cif.g08.bks.cpg/sg51_15_cif.got.tgz:28462.got - 2010.06.03 11:52:47.
