data_PCOD9398354
_publ_section_title
;
Structure prediction by ZEFSAII (Michael W. Deem and Ramdas Pophale) SiO2 
 PCOD9398354
Probable space group: P M M A
;
_chemical_formula_sum "Si O2"
_cell_formula_units_Z 48
_cell_length_a 8.863680
_cell_length_b 21.602091
_cell_length_c 20.129320
_cell_angle_alpha 90.000000
_cell_angle_beta 90.000000
_cell_angle_gamma 90.000000
_cell_volume 3854.241860
_symmetry_space_group_name_H-M "P M M A"
_symmetry_group_IT_number 51
_symmetry_cell_setting 'orthorhombic'
loop_
_space_group_symop_operation_xyz
x,y,z
1/2-x,-y,z
1/2+x,-y,-z
-x,y,-z
-x,-y,-z
1/2+x,y,-z
1/2-x,y,z
x,-y,z
loop_
_atom_site_type_symbol
_atom_site_label
_atom_site_fract_x
_atom_site_fract_y
_atom_site_fract_z
Si Si1 0.431011 0.124481 0.425768
Si Si2 0.431638 0.500000 0.426847
Si Si3 0.430242 0.427330 0.792458
Si Si4 0.930770 0.000000 0.424939
Si Si5 0.924010 0.424710 0.931540
Si Si6 0.067752 0.379876 0.340850
Si Si7 0.931209 0.262018 0.573629
O O1 0.500000 0.127542 0.500000
O O2 0.250000 0.116083 0.428911
O O3 0.506875 0.063828 0.393926
O O4 0.464874 0.193110 0.398530
O O5 0.250000 0.500000 0.432029
O O6 0.500000 0.500000 0.500000
O O7 0.476625 0.561164 0.386011
O O8 0.250000 0.424329 0.791769
O O9 0.474602 0.500000 0.783586
O O10 0.491131 0.406506 0.864197
O O11 0.498709 0.389391 0.731609
O O12 0.000000 0.000000 0.500000
O O13 0.750000 0.000000 0.428220
O O14 0.750000 0.405906 0.928885
O O15 0.928498 0.500000 0.932954
O O16 0.000000 0.403260 0.000000
O O17 0.250000 0.379959 0.335579
O O18 0.019994 0.317230 0.378156
O O19 0.750000 0.265618 0.566417
O O20 0.000000 0.268992 0.500000
#
# Coordination Sequence:
#
# PCOD9398354 Si02
#       7
#     8   4   8   4   8   8   8
#     4   9  15  24  36  51  69  89 110 138 174 215
#     4  10  20  30  42  54  67  86 115 154 196 234
#     4  10  19  29  41  57  74  93 119 150 183 221
#     4  10  16  22  34  52  70  88 108 134 167 210
#     4   9  16  26  41  59  78  97 114 137 171 214
#     4  10  19  31  42  54  70  93 120 152 192 231
#     4   9  18  29  41  54  70  91 119 152 189 229
#
# _framework density 12.453811
#
# number of rings (size 3 to 8) (size 9 to 14) (size 15 to 20)
#    0.000    2.500    0.833    3.750    0.000    4.667 
#    0.000    0.000    0.000    0.000    0.000    0.000 
#    0.000    0.000    0.000    0.000    0.000    0.000 
#
# Total GULP energy -267324.702355 kJ/mol
# GULP energy per Si atom -5569.264632 kJ/mol
# Density = 1.242547 g / cm^3
# Si number density = 12.453811 Si / 1000 Ang^3
#
#
#
# Elastic Constant Matrix: (Units=GPa)
#
#
# Indices 1 2 3 4 5 6 
#
# 1 43.7854 33.7144 28.6416 0.0000 0.0000 0.0000
# 2 33.7144 100.3590 42.9916 0.0000 0.0000 0.0000
# 3 28.6416 42.9916 85.6098 0.0000 0.0000 0.0000
# 4 0.0000 0.0000 0.0000 2.1932 0.0000 0.0000
# 5 0.0000 0.0000 0.0000 0.0000 20.9986 0.0000
# 6 0.0000 0.0000 0.0000 0.0000 0.0000 11.5706
#
#
#
# Elastic Compliance Matrix: (Units=1/GPa)
#
#
# Indices 1 2 3 4 5 6 
#
# 1 0.033945 -0.008331 -0.007173 0.000000 0.000000 0.000000
# 2 -0.008331 0.014740 -0.004615 0.000000 0.000000 0.000000
# 3 -0.007173 -0.004615 0.016398 0.000000 0.000000 0.000000
# 4 0.000000 0.000000 0.000000 0.455949 0.000000 0.000000
# 5 0.000000 0.000000 0.000000 0.000000 0.047622 0.000000
# 6 0.000000 0.000000 0.000000 0.000000 0.000000 0.086426
#
#
# Mechanical properties :
#
#
# Convention : Reuss Voigt Hill
#
# Bulk Modulus (GPa) = 40.24825 48.93880 44.59353
# Shear Modulus (GPa) = 7.10630 15.24625 11.17628
#
# Velocity S-wave (km/s) = 2.39134 3.50269 2.99894
# Velocity P-wave (km/s) = 6.32557 7.46592 6.91928
#
# Compressibility (1/GPa) = 0.02484580
#
# Stress axis : x y z
#
# Youngs Moduli (GPa) = 29.45900 67.84379 60.98193
#
# Poissons Ratio (x) = 0.56519 0.43744
# Poissons Ratio (y) = 0.24541 0.28143
# Poissons Ratio (z) = 0.21132 0.31309
#
# Static dielectric constant tensor:
#      x y z
#    x 1.416500 0.000000 0.000000 
#    y 0.000000 1.436520 0.000000 
#    z 0.000000 0.000000 1.374620 
# 
# From -- ./inp_files/28145.got.cif
#   From: 2010.05.17/outbox.cif.g08.bks.cpg/sg51_15_cif.got.tgz:28145.got - 2010.06.03 11:52:47.
