data_PCOD9398047
_publ_section_title
;
Structure prediction by ZEFSAII (Michael W. Deem and Ramdas Pophale) SiO2 
 PCOD9398047
Probable space group: P B A N
;
_chemical_formula_sum "Si O2"
_cell_formula_units_Z 28
_cell_length_a 11.102576
_cell_length_b 16.578460
_cell_length_c 7.308698
_cell_angle_alpha 90.000000
_cell_angle_beta 90.000000
_cell_angle_gamma 90.000000
_cell_volume 1345.265354
_symmetry_space_group_name_H-M "P B A N"
_symmetry_group_IT_number 50
_space_group.IT_coordinate_system_code '2'
_symmetry_cell_setting 'orthorhombic'
loop_
_space_group_symop_operation_xyz
x,y,z
1/2-x,1/2-y,z
x,1/2-y,-z
1/2-x,y,-z
-x,-y,-z
1/2+x,1/2+y,-z
-x,1/2+y,z
1/2+x,-y,z
loop_
_atom_site_type_symbol
_atom_site_label
_atom_site_fract_x
_atom_site_fract_y
_atom_site_fract_z
Si Si1 0.250000 0.038468 0.000000
Si Si2 0.086688 0.836402 0.401110
Si Si3 0.963174 0.658201 0.972478
Si Si4 0.832159 0.395697 0.754552
O O1 0.135744 0.094675 0.036973
O O2 0.216485 0.979355 0.833288
O O3 0.069244 0.750000 0.500000
O O4 0.991808 0.852604 0.241978
O O5 0.216189 0.842511 0.300282
O O6 0.092450 0.899939 0.566966
O O7 0.923088 0.750000 0.000000
O O8 0.083926 0.643737 0.090917
#
# Coordination Sequence:
#
# PCOD9398047 Si02
#       4
#     4   8   8   8
#     4  12  27  46  65 106 142 190 220 276 365 412
#     4  11  23  42  72 107 130 174 238 289 346 392
#     4  12  25  46  71  96 143 186 228 281 343 425
#     4  11  23  42  70 102 132 171 236 293 332 400
#
# _framework density 20.813735999999999
#
# number of rings (size 3 to 8) (size 9 to 14) (size 15 to 20)
#    0.000    0.571    5.714    3.000    0.000    2.286 
#    5.143    0.000    0.000    0.000    0.000    0.000 
#    0.000    0.000    0.000    0.000    0.000    0.000 
#
# Total GULP energy -156503.841995 kJ/mol
# GULP energy per Si atom -5589.422928 kJ/mol
# Density = 2.076636 g / cm^3
# Si number density = 20.813736 Si / 1000 Ang^3
#
#
#
# Elastic Constant Matrix: (Units=GPa)
#
#
# Indices 1 2 3 4 5 6 
#
# 1 40.5040 41.1699 34.7605 0.0000 0.0000 0.0000
# 2 41.1699 132.1508 58.6783 0.0000 0.0000 0.0000
# 3 34.7605 58.6783 155.0346 0.0000 0.0000 0.0000
# 4 0.0000 0.0000 0.0000 28.1393 0.0000 0.0000
# 5 0.0000 0.0000 0.0000 0.0000 13.1492 0.0000
# 6 0.0000 0.0000 0.0000 0.0000 0.0000 17.8337
#
#
#
# Elastic Compliance Matrix: (Units=1/GPa)
#
#
# Indices 1 2 3 4 5 6 
#
# 1 0.039105 -0.009964 -0.004996 0.000000 0.000000 0.000000
# 2 -0.009964 0.011635 -0.002169 0.000000 0.000000 0.000000
# 3 -0.004996 -0.002169 0.008392 0.000000 0.000000 0.000000
# 4 0.000000 0.000000 0.000000 0.035538 0.000000 0.000000
# 5 0.000000 0.000000 0.000000 0.000000 0.076050 0.000000
# 6 0.000000 0.000000 0.000000 0.000000 0.000000 0.056074
#
#
# Mechanical properties :
#
#
# Convention : Reuss Voigt Hill
#
# Bulk Modulus (GPa) = 40.20762 66.32299 53.26531
# Shear Modulus (GPa) = 18.56371 24.69647 21.63009
#
# Velocity S-wave (km/s) = 2.98970 3.44837 3.22719
# Velocity P-wave (km/s) = 5.59263 6.91297 6.28756
#
# Compressibility (1/GPa) = 0.02487091
#
# Stress axis : x y z
#
# Youngs Moduli (GPa) = 25.57237 85.95079 119.16744
#
# Poissons Ratio (x) = 0.85641 0.59542
# Poissons Ratio (y) = 0.25480 0.25853
# Poissons Ratio (z) = 0.12777 0.18647
#
# Static dielectric constant tensor:
#      x y z
#    x 1.737190 0.000000 0.000000 
#    y 0.000000 1.750180 0.000000 
#    z 0.000000 0.000000 1.764840 
# 
# From -- ./inp_files/10856.got.cif
#   From: 2010.05.17/outbox.cif.g08.bks.cpg/sg50_6_cif.got.tgz:10856.got - 2010.06.03 11:33:33.
