data_PCOD9398123
_publ_section_title
;
Structure prediction by ZEFSAII (Michael W. Deem and Ramdas Pophale) SiO2 
 PCOD9398123
Probable space group: P B A N
;
_chemical_formula_sum "Si O2"
_cell_formula_units_Z 48
_cell_length_a 10.078514
_cell_length_b 13.841454
_cell_length_c 15.937812
_cell_angle_alpha 90.000000
_cell_angle_beta 90.000000
_cell_angle_gamma 90.000000
_cell_volume 2223.345301
_symmetry_space_group_name_H-M "P B A N"
_symmetry_group_IT_number 50
_space_group.IT_coordinate_system_code '2'
_symmetry_cell_setting 'orthorhombic'
loop_
_space_group_symop_operation_xyz
x,y,z
1/2-x,1/2-y,z
x,1/2-y,-z
1/2-x,y,-z
-x,-y,-z
1/2+x,1/2+y,-z
-x,1/2+y,z
1/2+x,-y,z
loop_
_atom_site_type_symbol
_atom_site_label
_atom_site_fract_x
_atom_site_fract_y
_atom_site_fract_z
Si Si1 0.601956 0.774742 0.343813
Si Si2 0.596608 0.523544 0.214297
Si Si3 0.350099 0.009501 0.666237
Si Si4 0.894405 0.294769 0.801382
Si Si5 0.969663 0.250000 0.500000
Si Si6 0.750000 0.400065 0.500000
Si Si7 0.387583 0.293646 0.905529
O O1 0.750000 0.750000 0.317507
O O2 0.599582 0.887529 0.366161
O O3 0.489784 0.764103 0.274850
O O4 0.561648 0.714413 0.425059
O O5 0.464813 0.535622 0.273237
O O6 0.724782 0.532513 0.273978
O O7 0.600962 0.410445 0.188978
O O8 0.606459 0.596939 0.134553
O O9 0.302956 0.953309 0.583318
O O10 0.750000 0.250000 0.789790
O O11 0.972043 0.248987 0.877933
O O12 0.870306 0.332581 0.530433
O O13 0.250000 0.250000 0.867970
O O14 0.380445 0.250000 0.000000
#
# Coordination Sequence:
#
# PCOD9398123 Si02
#       7
#     8   8   8   8   4   4   8
#     4  11  25  42  66  96 134 186 247 294 352 421
#     4  11  24  44  70 103 135 189 245 293 361 439
#     4  11  25  43  68  99 140 187 241 300 356 422
#     4  11  24  43  74 102 141 187 234 297 365 430
#     4  11  27  40  60  94 134 190 240 304 354 414
#     4  11  26  42  63  96 144 188 243 308 364 409
#     4  11  25  46  72 105 143 183 231 294 369 440
#
# _framework density 21.589088
#
# number of rings (size 3 to 8) (size 9 to 14) (size 15 to 20)
#    0.000    1.000    0.000    6.750   11.667    2.333 
#    0.000    1.667    0.000    0.000    0.000    0.000 
#    0.000    0.000    0.000    0.000    0.000    0.000 
#
# Total GULP energy -267696.429842 kJ/mol
# GULP energy per Si atom -5577.008955 kJ/mol
# Density = 2.153995 g / cm^3
# Si number density = 21.589088 Si / 1000 Ang^3
#
#
#
# Elastic Constant Matrix: (Units=GPa)
#
#
# Indices 1 2 3 4 5 6 
#
# 1 199.3191 52.7762 78.8933 0.0000 0.0000 0.0000
# 2 52.7762 132.9033 44.4638 0.0000 0.0000 0.0000
# 3 78.8933 44.4638 119.3143 0.0000 0.0000 0.0000
# 4 0.0000 0.0000 0.0000 22.4283 0.0000 0.0000
# 5 0.0000 0.0000 0.0000 0.0000 28.3642 0.0000
# 6 0.0000 0.0000 0.0000 0.0000 0.0000 29.0469
#
#
#
# Elastic Compliance Matrix: (Units=1/GPa)
#
#
# Indices 1 2 3 4 5 6 
#
# 1 0.007020 -0.001411 -0.004116 0.000000 0.000000 0.000000
# 2 -0.001411 0.008879 -0.002376 0.000000 0.000000 0.000000
# 3 -0.004116 -0.002376 0.011988 0.000000 0.000000 0.000000
# 4 0.000000 0.000000 0.000000 0.044586 0.000000 0.000000
# 5 0.000000 0.000000 0.000000 0.000000 0.035256 0.000000
# 6 0.000000 0.000000 0.000000 0.000000 0.000000 0.034427
#
#
# Mechanical properties :
#
#
# Convention : Reuss Voigt Hill
#
# Bulk Modulus (GPa) = 82.76873 89.31145 86.04009
# Shear Modulus (GPa) = 30.86617 34.32811 32.59714
#
# Velocity S-wave (km/s) = 3.78525 3.99189 3.88995
# Velocity P-wave (km/s) = 7.58457 7.91868 7.75342
#
# Compressibility (1/GPa) = 0.01208186
#
# Stress axis : x y z
#
# Youngs Moduli (GPa) = 142.45603 112.62004 83.41431
#
# Poissons Ratio (x) = 0.15885 0.34333
# Poissons Ratio (y) = 0.20094 0.19822
# Poissons Ratio (z) = 0.58634 0.26762
#
# Static dielectric constant tensor:
#      x y z
#    x 1.752210 0.000000 0.000000 
#    y 0.000000 1.861270 0.000000 
#    z 0.000000 0.000000 1.598780 
# 
# From -- ./inp_files/28773.got.cif
#   From: 2010.05.17/outbox.cif.g08.bks.cpg/sg50_15_cif.got.tgz:28773.got - 2010.06.03 11:33:33.
