data_PCOD9398675
_publ_section_title
;
Structure prediction by ZEFSAII (Michael W. Deem and Ramdas Pophale) SiO2 
 PCOD9398675
Probable space group: P M M A
;
_chemical_formula_sum "Si O2"
_cell_formula_units_Z 52
_cell_length_a 8.988563
_cell_length_b 18.347790
_cell_length_c 18.626802
_cell_angle_alpha 90.000000
_cell_angle_beta 90.000000
_cell_angle_gamma 90.000000
_cell_volume 3071.937147
_symmetry_space_group_name_H-M "P M M A"
_symmetry_group_IT_number 51
_symmetry_cell_setting 'orthorhombic'
loop_
_space_group_symop_operation_xyz
x,y,z
1/2-x,-y,z
1/2+x,-y,-z
-x,y,-z
-x,-y,-z
1/2+x,y,-z
1/2-x,y,z
x,-y,z
loop_
_atom_site_type_symbol
_atom_site_label
_atom_site_fract_x
_atom_site_fract_y
_atom_site_fract_z
Si Si1 0.071786 0.500000 0.922277
Si Si2 0.580804 0.777321 0.223023
Si Si3 0.930759 0.378381 0.192317
Si Si4 0.427813 0.416882 0.345707
Si Si5 0.071210 0.080277 0.269307
Si Si6 0.079466 0.274605 0.610379
Si Si7 0.573007 0.127263 0.571208
O O1 0.250000 0.500000 0.929826
O O2 0.031175 0.429925 0.874013
O O3 0.000000 0.500000 0.000000
O O4 0.750000 0.793339 0.201881
O O5 0.525963 0.706126 0.180618
O O6 0.489655 0.851595 0.224757
O O7 0.582695 0.747472 0.305164
O O8 0.750000 0.380514 0.203049
O O9 0.008236 0.407188 0.264824
O O10 0.250000 0.405115 0.344970
O O11 0.457683 0.500000 0.368936
O O12 0.507016 0.354345 0.392544
O O13 0.250000 0.082713 0.267834
O O14 0.026841 0.091467 0.353060
O O15 0.021761 0.000000 0.245434
O O16 0.250000 0.273539 0.584188
O O17 0.980893 0.211081 0.576403
O O18 0.500000 0.094673 0.500000
O O19 0.750000 0.123241 0.565698
#
# Coordination Sequence:
#
# PCOD9398675 Si02
#       7
#     4   8   8   8   8   8   8
#     4  10  20  32  46  66  98 136 167 196 225 256
#     4   8  15  27  44  65  85 111 148 187 224 266
#     4   9  17  30  46  63  89 125 161 190 223 265
#     4  10  18  26  41  66  90 110 140 185 229 268
#     4   9  18  31  45  64  91 119 145 179 227 277
#     4   9  17  29  44  61  82 109 143 182 225 272
#     4  10  19  31  46  62  83 112 147 183 219 268
#
# _framework density 16.927429
#
# number of rings (size 3 to 8) (size 9 to 14) (size 15 to 20)
#    0.000    2.769    0.769    2.308    0.000    6.462 
#    0.000    0.000    0.000    0.462    0.000    0.000 
#    0.000    0.615    0.000    1.385    0.000    2.462 
#
# Total GULP energy -289742.101867 kJ/mol
# GULP energy per Si atom -5571.963497 kJ/mol
# Density = 1.688890 g / cm^3
# Si number density = 16.927429 Si / 1000 Ang^3
#
#
#
# Elastic Constant Matrix: (Units=GPa)
#
#
# Indices 1 2 3 4 5 6 
#
# 1 32.0392 29.4807 0.9747 0.0000 0.0000 0.0000
# 2 29.4807 142.6922 16.6162 0.0000 0.0000 0.0000
# 3 0.9747 16.6162 31.3170 0.0000 0.0000 0.0000
# 4 0.0000 0.0000 0.0000 5.2279 0.0000 0.0000
# 5 0.0000 0.0000 0.0000 0.0000 18.2657 0.0000
# 6 0.0000 0.0000 0.0000 0.0000 0.0000 23.9917
#
#
#
# Elastic Compliance Matrix: (Units=1/GPa)
#
#
# Indices 1 2 3 4 5 6 
#
# 1 0.038846 -0.008404 0.003250 0.000000 0.000000 0.000000
# 2 -0.008404 0.009288 -0.004666 0.000000 0.000000 0.000000
# 3 0.003250 -0.004666 0.034306 0.000000 0.000000 0.000000
# 4 0.000000 0.000000 0.000000 0.191282 0.000000 0.000000
# 5 0.000000 0.000000 0.000000 0.000000 0.054748 0.000000
# 6 0.000000 0.000000 0.000000 0.000000 0.000000 0.041681
#
#
# Mechanical properties :
#
#
# Convention : Reuss Voigt Hill
#
# Bulk Modulus (GPa) = 15.92377 33.35462 24.63919
# Shear Modulus (GPa) = 12.17361 20.09552 16.13456
#
# Velocity S-wave (km/s) = 2.68463 3.44925 3.09068
# Velocity P-wave (km/s) = 4.36316 5.96744 5.22722
#
# Compressibility (1/GPa) = 0.06279919
#
# Stress axis : x y z
#
# Youngs Moduli (GPa) = 25.74271 107.66798 29.14918
#
# Poissons Ratio (x) = 0.90486 -0.09474
# Poissons Ratio (y) = 0.21635 0.13602
# Poissons Ratio (z) = -0.08367 0.50242
#
# Static dielectric constant tensor:
#      x y z
#    x 1.573630 0.000000 0.000000 
#    y 0.000000 1.608060 0.000000 
#    z 0.000000 0.000000 1.561870 
# 
# From -- ./inp_files/27950.got.cif
#   From: 2010.05.17/outbox.cif.g08.bks.cpg/sg51_14_cif.got.tgz:27950.got - 2010.06.03 11:52:47.
