data_PCOD9398103
_publ_section_title
;
Structure prediction by ZEFSAII (Michael W. Deem and Ramdas Pophale) SiO2 
 PCOD9398103
Probable space group: P B A N
;
_chemical_formula_sum "Si O2"
_cell_formula_units_Z 40
_cell_length_a 9.183002
_cell_length_b 13.908000
_cell_length_c 14.650628
_cell_angle_alpha 90.000000
_cell_angle_beta 90.000000
_cell_angle_gamma 90.000000
_cell_volume 1871.137067
_symmetry_space_group_name_H-M "P B A N"
_symmetry_group_IT_number 50
_space_group.IT_coordinate_system_code '2'
_symmetry_cell_setting 'orthorhombic'
loop_
_space_group_symop_operation_xyz
x,y,z
1/2-x,1/2-y,z
x,1/2-y,-z
1/2-x,y,-z
-x,-y,-z
1/2+x,1/2+y,-z
-x,1/2+y,z
1/2+x,-y,z
loop_
_atom_site_type_symbol
_atom_site_label
_atom_site_fract_x
_atom_site_fract_y
_atom_site_fract_z
Si Si1 0.904817 0.142726 0.652986
Si Si2 0.262913 0.135606 0.109111
Si Si3 0.579636 0.600862 0.515748
Si Si4 0.091528 0.848848 0.684500
Si Si5 0.995144 0.500104 0.191121
O O1 0.913731 0.238729 0.713134
O O2 0.736551 0.134207 0.624481
O O3 0.006224 0.160194 0.566155
O O4 0.945904 0.054568 0.716634
O O5 0.250000 0.250000 0.140157
O O6 0.134964 0.063896 0.147043
O O7 0.413777 0.079970 0.135244
O O8 0.250000 0.137947 0.000000
O O9 0.750000 0.595793 0.500000
O O10 0.500000 0.500000 0.500000
O O11 0.543113 0.632005 0.618052
O O12 0.102649 0.918023 0.770200
#
# Coordination Sequence:
#
# PCOD9398103 Si02
#       5
#     8   8   8   8   8
#     4  11  24  42  65  95 134 178 226 279 338 400
#     4  11  26  48  75 106 139 178 225 282 352 424
#     4  12  25  40  61  92 132 184 232 282 340 392
#     4  11  24  42  65  95 134 178 226 279 338 400
#     4  12  23  45  70 102 138 176 224 281 343 408
#
# _framework density 21.377375000000001
#
# number of rings (size 3 to 8) (size 9 to 14) (size 15 to 20)
#    0.000    0.600    4.000    4.200    2.800    3.200 
#    0.000    0.000    0.000    4.800    0.000    0.000 
#    0.000    0.000    0.000    0.000    0.000    0.000 
#
# Total GULP energy -223097.075781 kJ/mol
# GULP energy per Si atom -5577.426895 kJ/mol
# Density = 2.132872 g / cm^3
# Si number density = 21.377375 Si / 1000 Ang^3
#
#
#
# Elastic Constant Matrix: (Units=GPa)
#
#
# Indices 1 2 3 4 5 6 
#
# 1 122.1571 19.1430 18.6314 0.0000 0.0000 0.0000
# 2 19.1430 152.5417 35.1842 0.0000 0.0000 0.0000
# 3 18.6314 35.1842 66.2303 0.0000 0.0000 0.0000
# 4 0.0000 0.0000 0.0000 36.3648 0.0000 0.0000
# 5 0.0000 0.0000 0.0000 0.0000 32.8673 0.0000
# 6 0.0000 0.0000 0.0000 0.0000 0.0000 26.1078
#
#
#
# Elastic Compliance Matrix: (Units=1/GPa)
#
#
# Indices 1 2 3 4 5 6 
#
# 1 0.008600 -0.000594 -0.002104 0.000000 0.000000 0.000000
# 2 -0.000594 0.007512 -0.003824 0.000000 0.000000 0.000000
# 3 -0.002104 -0.003824 0.017722 0.000000 0.000000 0.000000
# 4 0.000000 0.000000 0.000000 0.027499 0.000000 0.000000
# 5 0.000000 0.000000 0.000000 0.000000 0.030425 0.000000
# 6 0.000000 0.000000 0.000000 0.000000 0.000000 0.038303
#
#
# Mechanical properties :
#
#
# Convention : Reuss Voigt Hill
#
# Bulk Modulus (GPa) = 48.09701 54.09404 51.09552
# Shear Modulus (GPa) = 33.32567 36.93268 35.12917
#
# Velocity S-wave (km/s) = 3.95260 4.16101 4.05815
# Velocity P-wave (km/s) = 6.58625 6.96022 6.77581
#
# Compressibility (1/GPa) = 0.02079131
#
# Stress axis : x y z
#
# Youngs Moduli (GPa) = 116.27729 133.11939 56.42743
#
# Poissons Ratio (x) = 0.07908 0.11871
# Poissons Ratio (y) = 0.06907 0.21576
# Poissons Ratio (z) = 0.24462 0.50899
#
# Static dielectric constant tensor:
#      x y z
#    x 1.825840 0.000000 0.000000 
#    y 0.000000 2.324840 0.000000 
#    z 0.000000 0.000000 2.567350 
# 
# From -- ./inp_files/24640.got.cif
#   From: 2010.05.17/outbox.cif.g08.bks.cpg/sg50_13_cif.got.tgz:24640.got - 2010.06.03 11:33:33.
