data_PCOD9398232
_publ_section_title
;
Structure prediction by ZEFSAII (Michael W. Deem and Ramdas Pophale) SiO2 
 PCOD9398232
Probable space group: P B A N
;
_chemical_formula_sum "Si O2"
_cell_formula_units_Z 54
_cell_length_a 13.719231
_cell_length_b 15.921836
_cell_length_c 12.884186
_cell_angle_alpha 90.000000
_cell_angle_beta 90.000000
_cell_angle_gamma 90.000000
_cell_volume 2814.361627
_symmetry_space_group_name_H-M "P B A N"
_symmetry_group_IT_number 50
_space_group.IT_coordinate_system_code '2'
_symmetry_cell_setting 'orthorhombic'
loop_
_space_group_symop_operation_xyz
x,y,z
1/2-x,1/2-y,z
x,1/2-y,-z
1/2-x,y,-z
-x,-y,-z
1/2+x,1/2+y,-z
-x,1/2+y,z
1/2+x,-y,z
loop_
_atom_site_type_symbol
_atom_site_label
_atom_site_fract_x
_atom_site_fract_y
_atom_site_fract_z
Si Si1 0.467584 0.902210 0.990154
Si Si2 0.411085 0.761428 0.615894
Si Si3 0.238108 0.465565 0.219616
Si Si4 0.610873 0.659806 0.845175
Si Si5 0.561735 0.837156 0.774704
Si Si6 0.250000 0.250000 0.000000
Si Si7 0.729336 0.386896 0.384702
Si Si8 0.750000 0.055176 0.000000
O O1 0.514333 0.862526 0.886083
O O2 0.350902 0.895436 0.982675
O O3 0.511137 0.860930 0.094778
O O4 0.500000 0.000000 0.000000
O O5 0.452620 0.750000 0.500000
O O6 0.480729 0.816692 0.688851
O O7 0.369889 0.666864 0.638558
O O8 0.314557 0.818071 0.615751
O O9 0.340230 0.415027 0.218246
O O10 0.146875 0.404696 0.244557
O O11 0.239638 0.542413 0.298486
O O12 0.229675 0.500181 0.102296
O O13 0.607289 0.744893 0.782090
O O14 0.684698 0.686651 0.935298
O O15 0.750000 0.424538 0.500000
#
# Coordination Sequence:
#
# PCOD9398232 Si02
#       8
#     8   8   8   8   8   2   8   4
#     4  12  23  39  59  93 133 173 223 265 321 395
#     4   9  21  44  67  90 122 169 218 270 340 400
#     4  12  22  40  66  96 126 170 221 264 330 392
#     4  12  23  39  62  87 128 176 218 258 315 397
#     4  12  23  39  62  93 130 174 212 268 331 392
#     4  12  18  44  64  78 124 186 220 238 312 400
#     4   9  21  45  70  89 122 169 219 275 335 399
#     4  12  25  36  60  96 133 166 210 283 320 384
#
# _framework density 19.187297999999998
#
# number of rings (size 3 to 8) (size 9 to 14) (size 15 to 20)
#    0.000    0.889    5.926    2.222    2.074    0.000 
#    2.667    2.222    0.000    0.000    0.000    0.000 
#    0.000    0.000    0.000    0.000    0.000    0.000 
#
# Total GULP energy -300935.363847 kJ/mol
# GULP energy per Si atom -5572.877108 kJ/mol
# Density = 1.914363 g / cm^3
# Si number density = 19.187298 Si / 1000 Ang^3
#
#
#
# Elastic Constant Matrix: (Units=GPa)
#
#
# Indices 1 2 3 4 5 6 
#
# 1 75.4844 -0.3889 20.9082 0.0000 0.0000 0.0000
# 2 -0.3889 78.8505 49.4955 0.0000 0.0000 0.0000
# 3 20.9082 49.4955 101.8086 0.0000 0.0000 0.0000
# 4 0.0000 0.0000 0.0000 25.0249 0.0000 0.0000
# 5 0.0000 0.0000 0.0000 0.0000 9.2731 0.0000
# 6 0.0000 0.0000 0.0000 0.0000 0.0000 26.9075
#
#
#
# Elastic Compliance Matrix: (Units=1/GPa)
#
#
# Indices 1 2 3 4 5 6 
#
# 1 0.014460 0.002785 -0.004324 0.000000 0.000000 0.000000
# 2 0.002785 0.018789 -0.009706 0.000000 0.000000 0.000000
# 3 -0.004324 -0.009706 0.015429 0.000000 0.000000 0.000000
# 4 0.000000 0.000000 0.000000 0.039960 0.000000 0.000000
# 5 0.000000 0.000000 0.000000 0.000000 0.107839 0.000000
# 6 0.000000 0.000000 0.000000 0.000000 0.000000 0.037164
#
#
# Mechanical properties :
#
#
# Convention : Reuss Voigt Hill
#
# Bulk Modulus (GPa) = 38.18511 44.01922 41.10217
# Shear Modulus (GPa) = 18.87787 24.64969 21.76378
#
# Velocity S-wave (km/s) = 3.14008 3.58814 3.37156
# Velocity P-wave (km/s) = 5.75250 6.33704 6.05183
#
# Compressibility (1/GPa) = 0.02618822
#
# Stress axis : x y z
#
# Youngs Moduli (GPa) = 69.15758 53.22307 64.81212
#
# Poissons Ratio (x) = -0.14825 0.28023
# Poissons Ratio (y) = -0.19263 0.62910
# Poissons Ratio (z) = 0.29902 0.51661
#
# Static dielectric constant tensor:
#      x y z
#    x 1.707140 0.000000 0.000000 
#    y 0.000000 1.681380 0.000000 
#    z 0.000000 0.000000 1.634160 
# 
# From -- ./inp_files/21196.got.cif
#   From: 2010.05.17/outbox.cif.g08.bks.cpg/sg50_11_cif.got.tgz:21196.got - 2010.06.03 11:33:33.
