data_PCOD9398421
_publ_section_title
;
Structure prediction by ZEFSAII (Michael W. Deem and Ramdas Pophale) SiO2 
 PCOD9398421
Probable space group: P M M A
;
_chemical_formula_sum "Si O2"
_cell_formula_units_Z 56
_cell_length_a 21.983464
_cell_length_b 9.036473
_cell_length_c 15.105156
_cell_angle_alpha 90.000000
_cell_angle_beta 90.000000
_cell_angle_gamma 90.000000
_cell_volume 3000.684236
_symmetry_space_group_name_H-M "P M M A"
_symmetry_group_IT_number 51
_symmetry_cell_setting 'orthorhombic'
loop_
_space_group_symop_operation_xyz
x,y,z
1/2-x,-y,z
1/2+x,-y,-z
-x,y,-z
-x,-y,-z
1/2+x,y,-z
1/2-x,y,z
x,-y,z
loop_
_atom_site_type_symbol
_atom_site_label
_atom_site_fract_x
_atom_site_fract_y
_atom_site_fract_z
Si Si1 0.625608 0.825108 0.136019
Si Si2 0.070282 0.667934 0.027849
Si Si3 0.084328 0.322583 0.235016
Si Si4 0.750000 0.671250 0.182505
Si Si5 0.538645 0.179945 0.301927
Si Si6 0.250000 0.835506 0.643596
Si Si7 0.321701 0.820148 0.357323
Si Si8 0.623127 0.828318 0.461272
O O1 0.689656 0.747120 0.147456
O O2 0.580733 0.780641 0.216944
O O3 0.632558 0.000000 0.142666
O O4 0.600371 0.778067 0.041217
O O5 0.094711 0.500000 0.016588
O O6 0.076891 0.709522 0.130441
O O7 0.000000 0.663976 0.000000
O O8 0.084129 0.500000 0.245821
O O9 0.145821 0.251472 0.273127
O O10 0.026897 0.251276 0.286053
O O11 0.750000 0.500000 0.162499
O O12 0.750000 0.705124 0.286853
O O13 0.573199 0.230621 0.391889
O O14 0.533725 0.000000 0.304296
O O15 0.311335 0.828383 0.587174
O O16 0.250000 0.000000 0.687691
O O17 0.250000 0.783042 0.366173
O O18 0.361283 0.765827 0.442187
O O19 0.325088 0.000000 0.354362
O O20 0.605575 0.000000 0.475574
#
# Coordination Sequence:
#
# PCOD9398421 Si02
#       8
#     8   8   8   4   8   4   8   8
#     4  11  22  37  61  90 120 155 200 256 302 347
#     4  10  21  40  63  85 114 157 199 239 300 370
#     4  11  24  41  61  85 120 159 194 242 299 359
#     4  12  24  36  54  85 128 167 196 237 302 372
#     4  10  20  35  60  92 122 152 192 245 298 349
#     4  10  16  32  58  85 116 153 202 245 284 340
#     4  10  21  40  66  89 113 155 206 251 292 345
#     4   9  17  33  61  90 117 152 196 245 294 343
#
# _framework density 18.662409
#
# number of rings (size 3 to 8) (size 9 to 14) (size 15 to 20)
#    0.000    1.714    3.571    1.500    0.000    2.857 
#    1.286    4.286    0.000    0.000    0.000    0.000 
#    0.000    0.000    0.000    0.000    0.000    0.000 
#
# Total GULP energy -312453.056635 kJ/mol
# GULP energy per Si atom -5579.518868 kJ/mol
# Density = 1.861993 g / cm^3
# Si number density = 18.662409 Si / 1000 Ang^3
#
#
#
# Elastic Constant Matrix: (Units=GPa)
#
#
# Indices 1 2 3 4 5 6 
#
# 1 77.1795 33.1667 43.2882 0.0000 0.0000 0.0000
# 2 33.1667 35.3792 28.1644 0.0000 0.0000 0.0000
# 3 43.2882 28.1644 116.9849 0.0000 0.0000 0.0000
# 4 0.0000 0.0000 0.0000 35.4989 0.0000 0.0000
# 5 0.0000 0.0000 0.0000 0.0000 19.7396 0.0000
# 6 0.0000 0.0000 0.0000 0.0000 0.0000 74.7588
#
#
#
# Elastic Compliance Matrix: (Units=1/GPa)
#
#
# Indices 1 2 3 4 5 6 
#
# 1 0.023217 -0.018465 -0.004146 0.000000 0.000000 0.000000
# 2 -0.018465 0.049652 -0.005121 0.000000 0.000000 0.000000
# 3 -0.004146 -0.005121 0.011315 0.000000 0.000000 0.000000
# 4 0.000000 0.000000 0.000000 0.028170 0.000000 0.000000
# 5 0.000000 0.000000 0.000000 0.000000 0.050660 0.000000
# 6 0.000000 0.000000 0.000000 0.000000 0.000000 0.013376
#
#
# Mechanical properties :
#
#
# Convention : Reuss Voigt Hill
#
# Bulk Modulus (GPa) = 34.81793 48.75357 41.78575
# Shear Modulus (GPa) = 20.71016 34.32775 27.51895
#
# Velocity S-wave (km/s) = 3.33487 4.29348 3.84417
# Velocity P-wave (km/s) = 5.79014 7.12456 6.49173
#
# Compressibility (1/GPa) = 0.02872083
#
# Stress axis : x y z
#
# Youngs Moduli (GPa) = 43.07198 20.14001 88.37766
#
# Poissons Ratio (x) = 0.37188 0.36637
# Poissons Ratio (y) = 0.79532 0.45261
# Poissons Ratio (z) = 0.17856 0.10314
#
# Static dielectric constant tensor:
#      x y z
#    x 1.618410 0.000000 0.000000 
#    y 0.000000 1.629740 0.000000 
#    z 0.000000 0.000000 1.678970 
# 
# From -- ./inp_files/25841.got.cif
#   From: 2010.05.17/outbox.cif.g08.bks.cpg/sg51_13_cif.got.tgz:25841.got - 2010.06.03 11:52:47.
