data_PCOD9398589
_publ_section_title
;
Structure prediction by ZEFSAII (Michael W. Deem and Ramdas Pophale) SiO2 
 PCOD9398589
Probable space group: P M M A
;
_chemical_formula_sum "Si O2"
_cell_formula_units_Z 40
_cell_length_a 16.910486
_cell_length_b 7.414181
_cell_length_c 12.494094
_cell_angle_alpha 90.000000
_cell_angle_beta 90.000000
_cell_angle_gamma 90.000000
_cell_volume 1566.477071
_symmetry_space_group_name_H-M "P M M A"
_symmetry_group_IT_number 51
_symmetry_cell_setting 'orthorhombic'
loop_
_space_group_symop_operation_xyz
x,y,z
1/2-x,-y,z
1/2+x,-y,-z
-x,y,-z
-x,-y,-z
1/2+x,y,-z
1/2-x,y,z
x,-y,z
loop_
_atom_site_type_symbol
_atom_site_label
_atom_site_fract_x
_atom_site_fract_y
_atom_site_fract_z
Si Si1 0.250000 0.281996 0.194931
Si Si2 0.893067 0.791575 0.961049
Si Si3 0.337339 0.219862 0.806710
Si Si4 0.991775 0.220095 0.773228
Si Si5 0.750000 0.711628 0.561958
Si Si6 0.077847 0.214883 0.441071
O O1 0.250000 0.500000 0.194649
O O2 0.324697 0.215844 0.127803
O O3 0.250000 0.212316 0.316688
O O4 0.966370 0.716694 0.891519
O O5 0.911222 0.000000 0.986233
O O6 0.856159 0.719863 0.071007
O O7 0.250000 0.282671 0.773213
O O8 0.417959 0.271008 0.746118
O O9 0.334229 0.000000 0.804402
O O10 0.932197 0.282553 0.680926
O O11 0.989002 0.000000 0.776755
O O12 0.750000 0.500000 0.572486
O O13 0.665077 0.756494 0.511925
O O14 0.000000 0.285591 0.500000
O O15 0.069358 0.000000 0.436986
#
# Coordination Sequence:
#
# PCOD9398589 Si02
#       6
#     4   8   8   8   4   8
#     4  11  21  31  49  78 107 136 176 221 265 310
#     4  10  17  29  51  75 101 138 178 217 262 312
#     4   9  16  26  44  75 107 137 178 218 260 318
#     4   9  17  29  48  76 109 137 169 221 274 320
#     4  11  23  39  61  84 109 148 190 227 275 334
#     4  10  21  38  60  88 116 142 179 232 292 340
#
# _framework density 25.535004000000001
#
# number of rings (size 3 to 8) (size 9 to 14) (size 15 to 20)
#    0.000    2.200    3.000    1.200    0.000    3.600 
#    1.800    0.000    0.000    3.600    0.000    0.000 
#    0.000    0.000    0.000    0.000    0.000    0.000 
#
# Total GULP energy -223378.300734 kJ/mol
# GULP energy per Si atom -5584.457518 kJ/mol
# Density = 2.547689 g / cm^3
# Si number density = 25.535004 Si / 1000 Ang^3
#
#
#
# Elastic Constant Matrix: (Units=GPa)
#
#
# Indices 1 2 3 4 5 6 
#
# 1 207.9548 -7.7627 16.4965 0.0000 0.0000 0.0000
# 2 -7.7627 90.5770 -1.4302 0.0000 0.0000 0.0000
# 3 16.4965 -1.4302 32.3891 0.0000 0.0000 0.0000
# 4 0.0000 0.0000 0.0000 115.7078 0.0000 0.0000
# 5 0.0000 0.0000 0.0000 0.0000 35.5148 0.0000
# 6 0.0000 0.0000 0.0000 0.0000 0.0000 179.4465
#
#
#
# Elastic Compliance Matrix: (Units=1/GPa)
#
#
# Indices 1 2 3 4 5 6 
#
# 1 0.005025 0.000391 -0.002542 0.000000 0.000000 0.000000
# 2 0.000391 0.011078 0.000290 0.000000 0.000000 0.000000
# 3 -0.002542 0.000290 0.032182 0.000000 0.000000 0.000000
# 4 0.000000 0.000000 0.000000 0.008642 0.000000 0.000000
# 5 0.000000 0.000000 0.000000 0.000000 0.028157 0.000000
# 6 0.000000 0.000000 0.000000 0.000000 0.000000 0.005573
#
#
# Mechanical properties :
#
#
# Convention : Reuss Voigt Hill
#
# Bulk Modulus (GPa) = 22.44014 38.39198 30.41606
# Shear Modulus (GPa) = 45.77296 87.70832 66.74064
#
# Velocity S-wave (km/s) = 4.23845 5.86710 5.11797
# Velocity P-wave (km/s) = 5.72361 7.80800 6.84560
#
# Compressibility (1/GPa) = 0.04456301
#
# Stress axis : x y z
#
# Youngs Moduli (GPa) = 199.00616 90.26589 31.07309
#
# Poissons Ratio (x) = -0.03525 0.07899
# Poissons Ratio (y) = -0.07771 -0.00902
# Poissons Ratio (z) = 0.50589 -0.02620
#
# Static dielectric constant tensor:
#      x y z
#    x 2.118270 0.000000 0.000000 
#    y 0.000000 1.989440 0.000000 
#    z 0.000000 0.000000 2.016360 
# 
# From -- ./inp_files/23793.got.cif
#   From: 2010.05.17/outbox.cif.g08.bks.cpg/sg51_12_cif.got.tgz:23793.got - 2010.06.03 11:52:47.
