data_PCOD9398154
_publ_section_title
;
Structure prediction by ZEFSAII (Michael W. Deem and Ramdas Pophale) SiO2 
 PCOD9398154
Probable space group: P B A N
;
_chemical_formula_sum "Si O2"
_cell_formula_units_Z 40
_cell_length_a 8.940039
_cell_length_b 24.498012
_cell_length_c 8.813623
_cell_angle_alpha 90.000000
_cell_angle_beta 90.000000
_cell_angle_gamma 90.000000
_cell_volume 1930.299624
_symmetry_space_group_name_H-M "P B A N"
_symmetry_group_IT_number 50
_space_group.IT_coordinate_system_code '2'
_symmetry_cell_setting 'orthorhombic'
loop_
_space_group_symop_operation_xyz
x,y,z
1/2-x,1/2-y,z
x,1/2-y,-z
1/2-x,y,-z
-x,-y,-z
1/2+x,1/2+y,-z
-x,1/2+y,z
1/2+x,-y,z
loop_
_atom_site_type_symbol
_atom_site_label
_atom_site_fract_x
_atom_site_fract_y
_atom_site_fract_z
Si Si1 0.852317 0.873228 0.144336
Si Si2 0.410884 0.187767 0.444412
Si Si3 0.332994 0.571802 0.146764
Si Si4 0.874960 0.106324 0.382860
Si Si5 0.166966 0.462406 0.661317
O O1 0.900333 0.825846 0.265087
O O2 0.758251 0.919505 0.234442
O O3 0.009668 0.901503 0.103291
O O4 0.750000 0.856336 0.000000
O O5 0.421044 0.250000 0.500000
O O6 0.250000 0.166523 0.500000
O O7 0.539703 0.155669 0.533832
O O8 0.219590 0.614386 0.229189
O O9 0.350081 0.520399 0.257345
O O10 0.250000 0.550262 0.000000
O O11 0.750000 0.088528 0.500000
O O12 0.001081 0.061380 0.358434
O O13 0.250000 0.465327 0.500000
#
# Coordination Sequence:
#
# PCOD9398154 Si02
#       5
#     8   8   8   8   8
#     4  12  24  45  71  99 143 184 227 288 352 421
#     4  11  24  48  76 103 128 176 238 289 356 428
#     4  12  27  41  64 103 144 187 232 286 349 407
#     4  12  22  43  69 102 136 178 231 291 343 409
#     4  12  23  42  68  99 143 193 237 274 333 423
#
# _framework density 20.722169999999998
#
# number of rings (size 3 to 8) (size 9 to 14) (size 15 to 20)
#    0.000    0.200    6.000    3.600    0.000    5.200 
#    0.000    4.000    0.000    1.200    0.000    0.000 
#    0.000    0.000    0.000    0.000    0.000    0.000 
#
# Total GULP energy -223516.839340 kJ/mol
# GULP energy per Si atom -5587.920983 kJ/mol
# Density = 2.067501 g / cm^3
# Si number density = 20.722170 Si / 1000 Ang^3
#
#
#
# Elastic Constant Matrix: (Units=GPa)
#
#
# Indices 1 2 3 4 5 6 
#
# 1 166.0891 40.9069 45.1556 0.0000 0.0000 0.0000
# 2 40.9069 98.6426 49.0897 0.0000 0.0000 0.0000
# 3 45.1556 49.0897 96.2979 0.0000 0.0000 0.0000
# 4 0.0000 0.0000 0.0000 13.4599 0.0000 0.0000
# 5 0.0000 0.0000 0.0000 0.0000 48.6716 0.0000
# 6 0.0000 0.0000 0.0000 0.0000 0.0000 54.2433
#
#
#
# Elastic Compliance Matrix: (Units=1/GPa)
#
#
# Indices 1 2 3 4 5 6 
#
# 1 0.007114 -0.001729 -0.002455 0.000000 0.000000 0.000000
# 2 -0.001729 0.014004 -0.006328 0.000000 0.000000 0.000000
# 3 -0.002455 -0.006328 0.014761 0.000000 0.000000 0.000000
# 4 0.000000 0.000000 0.000000 0.074295 0.000000 0.000000
# 5 0.000000 0.000000 0.000000 0.000000 0.020546 0.000000
# 6 0.000000 0.000000 0.000000 0.000000 0.000000 0.018435
#
#
# Mechanical properties :
#
#
# Convention : Reuss Voigt Hill
#
# Bulk Modulus (GPa) = 67.31154 70.14823 68.72988
# Shear Modulus (GPa) = 28.55025 38.33345 33.44185
#
# Velocity S-wave (km/s) = 3.71585 4.30568 4.02160
# Velocity P-wave (km/s) = 7.13887 7.65793 7.40295
#
# Compressibility (1/GPa) = 0.01485629
#
# Stress axis : x y z
#
# Youngs Moduli (GPa) = 140.56849 71.41008 67.74451
#
# Poissons Ratio (x) = 0.12344 0.16629
# Poissons Ratio (y) = 0.24298 0.42869
# Poissons Ratio (z) = 0.34505 0.45189
#
# Static dielectric constant tensor:
#      x y z
#    x 1.750930 0.000000 0.000000 
#    y 0.000000 1.741270 0.000000 
#    z 0.000000 0.000000 1.907490 
# 
# From -- ./inp_files/9471.got.cif
#   From: 2010.05.17/outbox.cif.g08.bks.cpg/sg50_5_cif.got.tgz:9471.got - 2010.06.03 11:33:33.
