data_PCOD9398236
_publ_section_title
;
Structure prediction by ZEFSAII (Michael W. Deem and Ramdas Pophale) SiO2 
 PCOD9398236
Probable space group: P B A N
;
_chemical_formula_sum "Si O2"
_cell_formula_units_Z 52
_cell_length_a 14.365373
_cell_length_b 9.192749
_cell_length_c 16.422604
_cell_angle_alpha 90.000000
_cell_angle_beta 90.000000
_cell_angle_gamma 90.000000
_cell_volume 2168.724222
_symmetry_space_group_name_H-M "P B A N"
_symmetry_group_IT_number 50
_space_group.IT_coordinate_system_code '2'
_symmetry_cell_setting 'orthorhombic'
loop_
_space_group_symop_operation_xyz
x,y,z
1/2-x,1/2-y,z
x,1/2-y,-z
1/2-x,y,-z
-x,-y,-z
1/2+x,1/2+y,-z
-x,1/2+y,z
1/2+x,-y,z
loop_
_atom_site_type_symbol
_atom_site_label
_atom_site_fract_x
_atom_site_fract_y
_atom_site_fract_z
Si Si1 0.677407 0.003520 0.815797
Si Si2 0.399437 0.574987 0.993114
Si Si3 0.744529 0.509453 0.592334
Si Si4 0.750000 0.250000 0.287952
Si Si5 0.619024 0.534056 0.832950
Si Si6 0.986508 0.702360 0.761729
Si Si7 0.091015 0.236938 0.592886
O O1 0.778530 0.931525 0.799999
O O2 0.682849 0.159019 0.771749
O O3 0.600242 0.904808 0.775937
O O4 0.649432 0.027778 0.909767
O O5 0.356084 0.509747 0.074950
O O6 0.403129 0.750000 0.000000
O O7 0.500000 0.500000 0.000000
O O8 0.750000 0.455559 0.500000
O O9 0.720460 0.378555 0.651677
O O10 0.843606 0.593527 0.603035
O O11 0.663925 0.630244 0.600422
O O12 0.543907 0.661300 0.818365
O O13 0.572159 0.394484 0.791393
O O14 0.982822 0.744436 0.666421
O O15 0.053612 0.250000 0.500000
#
# Coordination Sequence:
#
# PCOD9398236 Si02
#       7
#     8   8   8   4   8   8   8
#     4  12  27  43  76 104 149 196 250 309 390 465
#     4  12  26  49  74 110 151 197 249 320 388 454
#     4   9  18  33  63 105 151 191 249 315 372 449
#     4  12  21  36  67 108 148 186 254 316 372 452
#     4  12  28  47  74 104 148 193 251 320 382 458
#     4  12  26  48  73 111 146 199 258 313 385 466
#     4   9  19  40  67 101 148 198 245 305 381 458
#
# _framework density 23.977229999999999
#
# number of rings (size 3 to 8) (size 9 to 14) (size 15 to 20)
#    0.000    0.923    3.077    4.846    4.308    0.615 
#    0.000    2.308    0.000    1.846    0.000    0.000 
#    0.000    0.000    0.000    0.000    0.000    0.000 
#
# Total GULP energy -290858.963947 kJ/mol
# GULP energy per Si atom -5593.441614 kJ/mol
# Density = 2.392266 g / cm^3
# Si number density = 23.977230 Si / 1000 Ang^3
#
#
#
# Elastic Constant Matrix: (Units=GPa)
#
#
# Indices 1 2 3 4 5 6 
#
# 1 74.1761 9.2086 19.2743 0.0000 0.0000 0.0000
# 2 9.2086 114.3366 43.5486 0.0000 0.0000 0.0000
# 3 19.2743 43.5486 206.2850 0.0000 0.0000 0.0000
# 4 0.0000 0.0000 0.0000 45.9556 0.0000 0.0000
# 5 0.0000 0.0000 0.0000 0.0000 4.9278 0.0000
# 6 0.0000 0.0000 0.0000 0.0000 0.0000 32.8607
#
#
#
# Elastic Compliance Matrix: (Units=1/GPa)
#
#
# Indices 1 2 3 4 5 6 
#
# 1 0.013865 -0.000678 -0.001152 0.000000 0.000000 0.000000
# 2 -0.000678 0.009544 -0.001951 0.000000 0.000000 0.000000
# 3 -0.001152 -0.001951 0.005367 0.000000 0.000000 0.000000
# 4 0.000000 0.000000 0.000000 0.021760 0.000000 0.000000
# 5 0.000000 0.000000 0.000000 0.000000 0.202932 0.000000
# 6 0.000000 0.000000 0.000000 0.000000 0.000000 0.030431
#
#
# Mechanical properties :
#
#
# Convention : Reuss Voigt Hill
#
# Bulk Modulus (GPa) = 47.14090 59.87343 53.50716
# Shear Modulus (GPa) = 16.74850 38.26657 27.50753
#
# Velocity S-wave (km/s) = 2.64581 3.99927 3.39076
# Velocity P-wave (km/s) = 5.38861 6.80814 6.13954
#
# Compressibility (1/GPa) = 0.02121300
#
# Stress axis : x y z
#
# Youngs Moduli (GPa) = 72.12398 104.77815 186.31288
#
# Poissons Ratio (x) = 0.07101 0.21471
# Poissons Ratio (y) = 0.04888 0.36359
# Poissons Ratio (z) = 0.08312 0.20447
#
# Static dielectric constant tensor:
#      x y z
#    x 1.378690 0.000000 0.000000 
#    y 0.000000 1.889700 0.000000 
#    z 0.000000 0.000000 2.033210 
# 
# From -- ./inp_files/27198.got.cif
#   From: 2010.05.17/outbox.cif.g08.bks.cpg/sg50_14_cif.got.tgz:27198.got - 2010.06.03 11:33:33.
