data_PCOD9398614
_publ_section_title
;
Structure prediction by ZEFSAII (Michael W. Deem and Ramdas Pophale) SiO2 
 PCOD9398614
Probable space group: P M M A
;
_chemical_formula_sum "Si O2"
_cell_formula_units_Z 48
_cell_length_a 14.604432
_cell_length_b 18.387681
_cell_length_c 8.540301
_cell_angle_alpha 90.000000
_cell_angle_beta 90.000000
_cell_angle_gamma 90.000000
_cell_volume 2293.426409
_symmetry_space_group_name_H-M "P M M A"
_symmetry_group_IT_number 51
_symmetry_cell_setting 'orthorhombic'
loop_
_space_group_symop_operation_xyz
x,y,z
1/2-x,-y,z
1/2+x,-y,-z
-x,y,-z
-x,-y,-z
1/2+x,y,-z
1/2-x,y,z
x,-y,z
loop_
_atom_site_type_symbol
_atom_site_label
_atom_site_fract_x
_atom_site_fract_y
_atom_site_fract_z
Si Si1 0.851425 0.695029 0.866659
Si Si2 0.969910 0.303913 0.332648
Si Si3 0.890471 0.914599 0.673351
Si Si4 0.099457 0.859774 0.658532
Si Si5 0.111560 0.842956 0.998412
Si Si6 0.141584 0.416454 0.873955
O O1 0.750000 0.694888 0.794985
O O2 0.855926 0.759648 0.993680
O O3 0.935046 0.712430 0.755028
O O4 0.868504 0.619245 0.954379
O O5 0.918153 0.227030 0.349884
O O6 0.913250 0.364024 0.240830
O O7 0.000000 0.332594 0.500000
O O8 0.856398 0.883750 0.505880
O O9 0.858304 0.879431 0.837830
O O10 0.999691 0.898266 0.666818
O O11 0.873445 0.000000 0.678757
O O12 0.141227 0.875105 0.830598
O O13 0.000000 0.843811 0.000000
O O14 0.250000 0.413391 0.837729
O O15 0.111727 0.500000 0.868857
#
# Coordination Sequence:
#
# PCOD9398614 Si02
#       6
#     8   8   8   8   8   8
#     4  11  21  37  61  89 119 162 213 260 310 372
#     4  12  21  37  63  89 128 164 205 256 313 372
#     4  10  19  30  50  88 123 152 203 269 318 370
#     4  10  17  30  52  80 120 154 198 256 303 375
#     4  10  17  32  55  79 113 156 205 256 310 373
#     4  10  23  42  65  94 126 160 203 254 310 373
#
# _framework density 20.929382
#
# number of rings (size 3 to 8) (size 9 to 14) (size 15 to 20)
#    0.000    1.500    6.667    1.500    0.000    6.000 
#    0.000    0.000    0.000    2.500    0.000    0.000 
#    0.000    0.667    0.000    0.000    0.000    0.000 
#
# Total GULP energy -267936.707794 kJ/mol
# GULP energy per Si atom -5582.014746 kJ/mol
# Density = 2.088175 g / cm^3
# Si number density = 20.929382 Si / 1000 Ang^3
#
#
#
# Elastic Constant Matrix: (Units=GPa)
#
#
# Indices 1 2 3 4 5 6 
#
# 1 53.3767 19.2948 25.3140 0.0000 0.0000 0.0000
# 2 19.2948 135.9981 43.8139 0.0000 0.0000 0.0000
# 3 25.3140 43.8139 157.9309 0.0000 0.0000 0.0000
# 4 0.0000 0.0000 0.0000 24.7741 0.0000 0.0000
# 5 0.0000 0.0000 0.0000 0.0000 4.4400 0.0000
# 6 0.0000 0.0000 0.0000 0.0000 0.0000 -59.8291
#
#
#
# Elastic Compliance Matrix: (Units=1/GPa)
#
#
# Indices 1 2 3 4 5 6 
#
# 1 0.020789 -0.002060 -0.002761 0.000000 0.000000 0.000000
# 2 -0.002060 0.008279 -0.001967 0.000000 0.000000 0.000000
# 3 -0.002761 -0.001967 0.007320 0.000000 0.000000 0.000000
# 4 0.000000 0.000000 0.000000 0.040365 0.000000 0.000000
# 5 0.000000 0.000000 0.000000 0.000000 0.225227 0.000000
# 6 0.000000 0.000000 0.000000 0.000000 0.000000 -0.016714
#
#
# Mechanical properties :
#
#
# Convention : Reuss Voigt Hill
#
# Bulk Modulus (GPa) = 43.83457 58.23900 51.03679
# Shear Modulus (GPa) = 16.31621 11.13586 13.72604
#
# Velocity S-wave (km/s) = 2.79513 2.30916 2.56369
# Velocity P-wave (km/s) = 5.60415 5.91578 5.76207
#
# Compressibility (1/GPa) = 0.02281305
#
# Stress axis : x y z
#
# Youngs Moduli (GPa) = 48.10318 120.78939 136.61305
#
# Poissons Ratio (x) = 0.24883 0.37714
# Poissons Ratio (y) = 0.09909 0.26866
# Poissons Ratio (z) = 0.13279 0.23754
#
# Static dielectric constant tensor:
#      x y z
#    x 1.780810 0.000000 0.000000 
#    y 0.000000 1.710670 0.000000 
#    z 0.000000 0.000000 1.802390 
# 
# From -- ./inp_files/8267.got.cif
#   From: 2010.05.17/outbox.cif.g08.bks.cpg/sg51_5_cif.got.tgz:8267.got - 2010.06.03 11:52:47.
