data_PCOD9398269
_publ_section_title
;
Structure prediction by ZEFSAII (Michael W. Deem and Ramdas Pophale) SiO2 
 PCOD9398269
Probable space group: P B A N
;
_chemical_formula_sum "Si O2"
_cell_formula_units_Z 30
_cell_length_a 8.529994
_cell_length_b 14.151450
_cell_length_c 11.029496
_cell_angle_alpha 90.000000
_cell_angle_beta 90.000000
_cell_angle_gamma 90.000000
_cell_volume 1331.390134
_symmetry_space_group_name_H-M "P B A N"
_symmetry_group_IT_number 50
_space_group.IT_coordinate_system_code '2'
_symmetry_cell_setting 'orthorhombic'
loop_
_space_group_symop_operation_xyz
x,y,z
1/2-x,1/2-y,z
x,1/2-y,-z
1/2-x,y,-z
-x,-y,-z
1/2+x,1/2+y,-z
-x,1/2+y,z
1/2+x,-y,z
loop_
_atom_site_type_symbol
_atom_site_label
_atom_site_fract_x
_atom_site_fract_y
_atom_site_fract_z
Si Si1 0.069418 0.365062 0.300458
Si Si2 0.407282 0.802534 0.202160
Si Si3 0.250000 0.576146 0.000000
Si Si4 0.875988 0.525715 0.231048
Si Si5 0.750000 0.750000 0.500000
O O1 0.207278 0.431678 0.255426
O O2 0.135719 0.313291 0.417888
O O3 0.028907 0.283637 0.203436
O O4 0.921891 0.434887 0.310646
O O5 0.250000 0.750000 0.253067
O O6 0.500572 0.890693 0.260797
O O7 0.354501 0.852914 0.079392
O O8 0.144552 0.514326 0.906846
#
# Coordination Sequence:
#
# PCOD9398269 Si02
#       5
#     8   8   4   8   2
#     4  12  26  49  76 104 146 188 258 302 364 424
#     4  12  24  44  71 109 150 195 237 293 350 457
#     4  12  25  40  77 108 158 190 235 268 391 428
#     4  12  25  46  72 111 149 194 237 299 352 461
#     4  12  28  52  78 102 134 196 254 316 384 394
#
# _framework density 22.532841999999999
#
# number of rings (size 3 to 8) (size 9 to 14) (size 15 to 20)
#    0.000    0.000    8.000    1.200    0.000    1.067 
#    0.000    2.000    0.000    0.000    0.000    0.000 
#    0.000    0.000    0.000    0.000    0.000    0.000 
#
# Total GULP energy -167330.064607 kJ/mol
# GULP energy per Si atom -5577.668820 kJ/mol
# Density = 2.248156 g / cm^3
# Si number density = 22.532842 Si / 1000 Ang^3
#
#
#
# Elastic Constant Matrix: (Units=GPa)
#
#
# Indices 1 2 3 4 5 6 
#
# 1 95.7984 73.2013 22.9465 0.0000 0.0000 0.0000
# 2 73.2013 197.0050 26.3139 0.0000 0.0000 0.0000
# 3 22.9465 26.3139 17.1064 0.0000 0.0000 0.0000
# 4 0.0000 0.0000 0.0000 -24.3414 0.0000 0.0000
# 5 0.0000 0.0000 0.0000 0.0000 13.8490 0.0000
# 6 0.0000 0.0000 0.0000 0.0000 0.0000 64.7004
#
#
#
# Elastic Compliance Matrix: (Units=1/GPa)
#
#
# Indices 1 2 3 4 5 6 
#
# 1 0.017909 -0.004337 -0.017352 0.000000 0.000000 0.000000
# 2 -0.004337 0.007439 -0.005626 0.000000 0.000000 0.000000
# 3 -0.017352 -0.005626 0.090387 0.000000 0.000000 0.000000
# 4 0.000000 0.000000 0.000000 -0.041082 0.000000 0.000000
# 5 0.000000 0.000000 0.000000 0.000000 0.072207 0.000000
# 6 0.000000 0.000000 0.000000 0.000000 0.000000 0.015456
#
#
# Mechanical properties :
#
#
# Convention : Reuss Voigt Hill
#
# Bulk Modulus (GPa) = 16.36494 61.64814 39.00654
# Shear Modulus (GPa) = 21.06935 23.33813 22.20374
#
# Velocity S-wave (km/s) = 3.06118 3.22178 3.14250
# Velocity P-wave (km/s) = 4.44667 6.42327 5.52410
#
# Compressibility (1/GPa) = 0.06110626
#
# Stress axis : x y z
#
# Youngs Moduli (GPa) = 55.83930 134.43072 11.06358
#
# Poissons Ratio (x) = 0.58298 0.19197
# Poissons Ratio (y) = 0.24215 0.06224
# Poissons Ratio (z) = 0.96891 0.75624
#
# Static dielectric constant tensor:
#      x y z
#    x 1.921630 0.000000 0.000000 
#    y 0.000000 1.845640 0.000000 
#    z 0.000000 0.000000 1.834360 
# 
# From -- ./inp_files/18386.got.cif
#   From: 2010.05.17/outbox.cif.g08.bks.cpg/sg50_10_cif.got.tgz:18386.got - 2010.06.03 11:33:33.
