data_PCOD9398645
_publ_section_title
;
Structure prediction by ZEFSAII (Michael W. Deem and Ramdas Pophale) SiO2 
 PCOD9398645
Probable space group: P M M A
;
_chemical_formula_sum "Si O2"
_cell_formula_units_Z 56
_cell_length_a 21.772814
_cell_length_b 16.380423
_cell_length_c 9.395584
_cell_angle_alpha 90.000000
_cell_angle_beta 90.000000
_cell_angle_gamma 90.000000
_cell_volume 3350.915333
_symmetry_space_group_name_H-M "P M M A"
_symmetry_group_IT_number 51
_symmetry_cell_setting 'orthorhombic'
loop_
_space_group_symop_operation_xyz
x,y,z
1/2-x,-y,z
1/2+x,-y,-z
-x,y,-z
-x,-y,-z
1/2+x,y,-z
1/2-x,y,z
x,-y,z
loop_
_atom_site_type_symbol
_atom_site_label
_atom_site_fract_x
_atom_site_fract_y
_atom_site_fract_z
Si Si1 0.177170 0.272914 0.448657
Si Si2 0.986713 0.721601 0.833220
Si Si3 0.823571 0.907671 0.072794
Si Si4 0.623278 0.247038 0.239865
Si Si5 0.139548 0.185903 0.184347
Si Si6 0.105472 0.592997 0.266246
Si Si7 0.679612 0.343264 0.987599
O O1 0.250000 0.285152 0.451144
O O2 0.151324 0.257976 0.605055
O O3 0.161126 0.196219 0.345713
O O4 0.144153 0.351183 0.375953
O O5 0.931913 0.788134 0.824307
O O6 0.957915 0.640957 0.761991
O O7 0.049720 0.748638 0.761528
O O8 0.000000 0.707283 0.000000
O O9 0.750000 0.897161 0.079453
O O10 0.854778 0.838006 0.169012
O O11 0.838536 0.000000 0.116675
O O12 0.845447 0.892055 0.910181
O O13 0.648031 0.319197 0.135890
O O14 0.175915 0.258420 0.101461
O O15 0.098541 0.500000 0.311700
O O16 0.141364 0.597397 0.114577
O O17 0.750000 0.368060 0.005800
#
# Coordination Sequence:
#
# PCOD9398645 Si02
#       7
#     8   8   8   8   8   8   8
#     4  10  20  34  55  78 104 145 181 214 266 326
#     4  10  17  35  55  79 102 140 185 220 262 314
#     4  10  19  32  54  83 110 137 177 229 272 308
#     4  11  19  34  54  78 109 140 180 220 264 324
#     4   9  17  31  52  74 103 138 180 212 251 316
#     4  10  21  35  54  76 102 139 179 228 273 311
#     4   9  16  29  51  73  95 132 176 215 258 310
#
# _framework density 16.711852
#
# number of rings (size 3 to 8) (size 9 to 14) (size 15 to 20)
#    0.000    2.429    4.286    4.714    0.000    3.714 
#    0.000    4.286    0.000    4.286    0.000    5.000 
#    0.000    0.000    0.000    0.000    0.000    0.000 
#
# Total GULP energy -311958.227822 kJ/mol
# GULP energy per Si atom -5570.682640 kJ/mol
# Density = 1.667381 g / cm^3
# Si number density = 16.711852 Si / 1000 Ang^3
#
#
#
# Elastic Constant Matrix: (Units=GPa)
#
#
# Indices 1 2 3 4 5 6 
#
# 1 122.5272 42.3966 39.1732 0.0000 0.0000 0.0000
# 2 42.3966 84.9195 30.7545 0.0000 0.0000 0.0000
# 3 39.1732 30.7545 117.9420 0.0000 0.0000 0.0000
# 4 0.0000 0.0000 0.0000 14.4460 0.0000 0.0000
# 5 0.0000 0.0000 0.0000 0.0000 27.0636 0.0000
# 6 0.0000 0.0000 0.0000 0.0000 0.0000 8.6370
#
#
#
# Elastic Compliance Matrix: (Units=1/GPa)
#
#
# Indices 1 2 3 4 5 6 
#
# 1 0.010411 -0.004357 -0.002322 0.000000 0.000000 0.000000
# 2 -0.004357 0.014827 -0.002419 0.000000 0.000000 0.000000
# 3 -0.002322 -0.002419 0.009881 0.000000 0.000000 0.000000
# 4 0.000000 0.000000 0.000000 0.069223 0.000000 0.000000
# 5 0.000000 0.000000 0.000000 0.000000 0.036950 0.000000
# 6 0.000000 0.000000 0.000000 0.000000 0.000000 0.115781
#
#
# Mechanical properties :
#
#
# Convention : Reuss Voigt Hill
#
# Bulk Modulus (GPa) = 59.09066 61.11523 60.10295
# Shear Modulus (GPa) = 17.79920 24.23360 21.01640
#
# Velocity S-wave (km/s) = 3.26707 3.81213 3.55008
# Velocity P-wave (km/s) = 7.04748 7.48504 7.26955
#
# Compressibility (1/GPa) = 0.01692315
#
# Stress axis : x y z
#
# Youngs Moduli (GPa) = 96.04854 67.44320 101.20672
#
# Poissons Ratio (x) = 0.29385 0.23499
# Poissons Ratio (y) = 0.41849 0.24484
# Poissons Ratio (z) = 0.22301 0.16316
#
# Static dielectric constant tensor:
#      x y z
#    x 1.568680 0.000000 0.000000 
#    y 0.000000 1.572830 0.000000 
#    z 0.000000 0.000000 1.578410 
# 
# From -- ./inp_files/11159.got.cif
#   From: 2010.05.17/outbox.cif.g08.bks.cpg/sg51_6_cif.got.tgz:11159.got - 2010.06.03 11:52:47.
