data_PCOD9398361
_publ_section_title
;
Structure prediction by ZEFSAII (Michael W. Deem and Ramdas Pophale) SiO2 
 PCOD9398361
Probable space group: P M M A
;
_chemical_formula_sum "Si O2"
_cell_formula_units_Z 32
_cell_length_a 8.612916
_cell_length_b 21.728525
_cell_length_c 9.183733
_cell_angle_alpha 90.000000
_cell_angle_beta 90.000000
_cell_angle_gamma 90.000000
_cell_volume 1718.698534
_symmetry_space_group_name_H-M "P M M A"
_symmetry_group_IT_number 51
_symmetry_cell_setting 'orthorhombic'
loop_
_space_group_symop_operation_xyz
x,y,z
1/2-x,-y,z
1/2+x,-y,-z
-x,y,-z
-x,-y,-z
1/2+x,y,-z
1/2-x,y,z
x,-y,z
loop_
_atom_site_type_symbol
_atom_site_label
_atom_site_fract_x
_atom_site_fract_y
_atom_site_fract_z
Si Si1 0.563003 0.261269 0.664112
Si Si2 0.435764 0.500000 0.663288
Si Si3 0.937118 0.382700 0.836925
Si Si4 0.065405 0.000000 0.666328
Si Si5 0.936192 0.126062 0.665652
O O1 0.500000 0.267724 0.500000
O O2 0.750000 0.262222 0.655384
O O3 0.513119 0.318565 0.761828
O O4 0.519596 0.193525 0.725234
O O5 0.250000 0.500000 0.662076
O O6 0.500000 0.500000 0.500000
O O7 0.497423 0.560289 0.745681
O O8 0.750000 0.385493 0.837332
O O9 0.000000 0.386002 0.000000
O O10 0.000000 0.000000 0.500000
O O11 0.005539 0.063986 0.734123
O O12 0.250000 0.000000 0.660076
O O13 0.750000 0.120577 0.662652
O O14 0.000000 0.127863 0.500000
#
# Coordination Sequence:
#
# PCOD9398361 Si02
#       5
#     8   4   8   4   8
#     4   9  19  33  52  76 104 136 176 219 265 316
#     4  12  25  42  63  88 114 144 178 218 263 314
#     4  11  23  40  59  83 112 145 181 221 266 317
#     4  10  16  22  34  58  91 128 165 206 254 308
#     4   9  15  25  40  62  92 128 165 208 257 309
#
# _framework density 18.618741
#
# number of rings (size 3 to 8) (size 9 to 14) (size 15 to 20)
#    0.000    2.000    0.000    6.375    0.000    5.000 
#    0.000    0.000    0.000    0.000    0.000    0.875 
#    0.000    0.000    0.000    0.000    0.000    0.000 
#
# Total GULP energy -178522.434009 kJ/mol
# GULP energy per Si atom -5578.826063 kJ/mol
# Density = 1.857636 g / cm^3
# Si number density = 18.618741 Si / 1000 Ang^3
#
#
#
# Elastic Constant Matrix: (Units=GPa)
#
#
# Indices 1 2 3 4 5 6 
#
# 1 91.4948 68.2248 29.6313 0.0000 0.0000 0.0000
# 2 68.2248 239.1153 81.4425 0.0000 0.0000 0.0000
# 3 29.6313 81.4425 86.9785 0.0000 0.0000 0.0000
# 4 0.0000 0.0000 0.0000 162.8495 0.0000 0.0000
# 5 0.0000 0.0000 0.0000 0.0000 21.4714 0.0000
# 6 0.0000 0.0000 0.0000 0.0000 0.0000 22.2864
#
#
#
# Elastic Compliance Matrix: (Units=1/GPa)
#
#
# Indices 1 2 3 4 5 6 
#
# 1 0.014018 -0.003484 -0.001513 0.000000 0.000000 0.000000
# 2 -0.003484 0.007006 -0.005373 0.000000 0.000000 0.000000
# 3 -0.001513 -0.005373 0.017044 0.000000 0.000000 0.000000
# 4 0.000000 0.000000 0.000000 0.006141 0.000000 0.000000
# 5 0.000000 0.000000 0.000000 0.000000 0.046574 0.000000
# 6 0.000000 0.000000 0.000000 0.000000 0.000000 0.044870
#
#
# Mechanical properties :
#
#
# Convention : Reuss Voigt Hill
#
# Bulk Modulus (GPa) = 57.71448 86.24286 71.97867
# Shear Modulus (GPa) = 30.83191 57.20746 44.01968
#
# Velocity S-wave (km/s) = 4.07376 5.54909 4.86765
# Velocity P-wave (km/s) = 7.29334 9.35295 8.38661
#
# Compressibility (1/GPa) = 0.01732667
#
# Stress axis : x y z
#
# Youngs Moduli (GPa) = 71.33869 142.72640 58.67160
#
# Poissons Ratio (x) = 0.49729 0.08877
# Poissons Ratio (y) = 0.24856 0.31527
# Poissons Ratio (z) = 0.10794 0.76694
#
# Static dielectric constant tensor:
#      x y z
#    x 1.623780 0.000000 0.000000 
#    y 0.000000 1.710960 0.000000 
#    z 0.000000 0.000000 1.587370 
# 
# From -- ./inp_files/4879.got.cif
#   From: 2010.05.17/outbox.cif.g08.bks.cpg/sg51_3_cif.got.tgz:4879.got - 2010.06.03 11:52:47.
