data_PCOD9398496
_publ_section_title
;
Structure prediction by ZEFSAII (Michael W. Deem and Ramdas Pophale) SiO2 
 PCOD9398496
Probable space group: P M M A
;
_chemical_formula_sum "Si O2"
_cell_formula_units_Z 64
_cell_length_a 8.856733
_cell_length_b 14.721145
_cell_length_c 29.877338
_cell_angle_alpha 90.000000
_cell_angle_beta 90.000000
_cell_angle_gamma 90.000000
_cell_volume 3895.444697
_symmetry_space_group_name_H-M "P M M A"
_symmetry_group_IT_number 51
_symmetry_cell_setting 'orthorhombic'
loop_
_space_group_symop_operation_xyz
x,y,z
1/2-x,-y,z
1/2+x,-y,-z
-x,y,-z
-x,-y,-z
1/2+x,y,-z
1/2-x,y,z
x,-y,z
loop_
_atom_site_type_symbol
_atom_site_label
_atom_site_fract_x
_atom_site_fract_y
_atom_site_fract_z
Si Si1 0.075837 0.389489 0.454219
Si Si2 0.428787 0.222967 0.953808
Si Si3 0.934498 0.394727 0.643991
Si Si4 0.432939 0.286274 0.268402
Si Si5 0.073589 0.391420 0.815116
Si Si6 0.433677 0.897575 0.227045
Si Si7 0.430321 0.394474 0.088687
Si Si8 0.427437 0.108839 0.125224
O O1 0.250000 0.361982 0.455710
O O2 0.071128 0.500000 0.454256
O O3 0.012101 0.364045 0.405371
O O4 0.000000 0.357852 0.500000
O O5 0.250000 0.224448 0.957239
O O6 0.491473 0.323813 0.944176
O O7 0.481152 0.161662 0.912186
O O8 0.500000 0.188410 0.000000
O O9 0.750000 0.394506 0.642374
O O10 0.979213 0.500000 0.651627
O O11 0.981541 0.331464 0.684966
O O12 0.250000 0.291591 0.266347
O O13 0.500152 0.341646 0.226866
O O14 0.478037 0.181476 0.261002
O O15 0.250000 0.367233 0.820016
O O16 0.063738 0.500000 0.808084
O O17 0.986121 0.371370 0.861129
O O18 0.250000 0.900616 0.226256
O O19 0.478412 0.871815 0.176194
O O20 0.486290 0.000000 0.236907
O O21 0.250000 0.385474 0.086192
O O22 0.470421 0.500000 0.080128
O O23 0.250000 0.133853 0.121446
O O24 0.438440 0.000000 0.119442
#
# Coordination Sequence:
#
# PCOD9398496 Si02
#       8
#     8   8   8   8   8   8   8   8
#     4   8  13  22  35  50  72 105 145 188 229 268
#     4  12  25  39  56  77 102 127 152 187 230 278
#     4   8  14  23  35  56  86 116 149 189 228 267
#     4  10  17  26  45  67  89 122 157 186 221 271
#     4  10  20  32  46  68  98 126 151 184 225 265
#     4   8  15  28  47  71  94 115 143 181 222 261
#     4  10  21  38  58  76  95 123 160 196 227 266
#     4   9  18  35  57  77  99 126 155 189 228 272
#
# _framework density 16.429445999999999
#
# number of rings (size 3 to 8) (size 9 to 14) (size 15 to 20)
#    0.000    2.625    0.000    4.500    0.000    3.750 
#    0.000    0.625    0.000    3.375    0.000    0.000 
#    0.000    0.500    0.000    0.375    0.000    0.750 
#
# Total GULP energy -356866.182580 kJ/mol
# GULP energy per Si atom -5576.034103 kJ/mol
# Density = 1.639205 g / cm^3
# Si number density = 16.429446 Si / 1000 Ang^3
#
#
#
# Elastic Constant Matrix: (Units=GPa)
#
#
# Indices 1 2 3 4 5 6 
#
# 1 42.3232 21.1617 25.7680 0.0000 0.0000 0.0000
# 2 21.1617 57.4448 58.6885 0.0000 0.0000 0.0000
# 3 25.7680 58.6885 106.3707 0.0000 0.0000 0.0000
# 4 0.0000 0.0000 0.0000 15.7007 0.0000 0.0000
# 5 0.0000 0.0000 0.0000 0.0000 19.5380 0.0000
# 6 0.0000 0.0000 0.0000 0.0000 0.0000 13.4724
#
#
#
# Elastic Compliance Matrix: (Units=1/GPa)
#
#
# Indices 1 2 3 4 5 6 
#
# 1 0.029277 -0.008112 -0.002617 0.000000 0.000000 0.000000
# 2 -0.008112 0.042145 -0.021288 0.000000 0.000000 0.000000
# 3 -0.002617 -0.021288 0.021780 0.000000 0.000000 0.000000
# 4 0.000000 0.000000 0.000000 0.063691 0.000000 0.000000
# 5 0.000000 0.000000 0.000000 0.000000 0.051182 0.000000
# 6 0.000000 0.000000 0.000000 0.000000 0.000000 0.074226
#
#
# Mechanical properties :
#
#
# Convention : Reuss Voigt Hill
#
# Bulk Modulus (GPa) = 34.28250 46.37501 40.32875
# Shear Modulus (GPa) = 14.04270 16.44360 15.24315
#
# Velocity S-wave (km/s) = 2.92674 3.16707 3.04928
# Velocity P-wave (km/s) = 5.68620 6.45460 6.08255
#
# Compressibility (1/GPa) = 0.02916940
#
# Stress axis : x y z
#
# Youngs Moduli (GPa) = 34.15684 23.72766 45.91330
#
# Poissons Ratio (x) = 0.19247 0.12014
# Poissons Ratio (y) = 0.27707 0.97739
# Poissons Ratio (z) = 0.08938 0.50511
#
# Static dielectric constant tensor:
#      x y z
#    x 1.555200 0.000000 0.000000 
#    y 0.000000 1.558650 0.000000 
#    z 0.000000 0.000000 1.554940 
# 
# From -- ./inp_files/37675.got.cif
#   From: 2010.05.17/outbox.cif.g08.bks.cpg/sg51_19_cif.got.tgz:37675.got - 2010.06.03 11:52:47.
