data_PCOD9398933
_publ_section_title
;
Structure prediction by ZEFSAII (Michael W. Deem and Ramdas Pophale) SiO2 
 PCOD9398933
Probable space group: P M M A
;
_chemical_formula_sum "Si O2"
_cell_formula_units_Z 48
_cell_length_a 15.336706
_cell_length_b 11.804372
_cell_length_c 13.221190
_cell_angle_alpha 90.000000
_cell_angle_beta 90.000000
_cell_angle_gamma 90.000000
_cell_volume 2393.566655
_symmetry_space_group_name_H-M "P M M A"
_symmetry_group_IT_number 51
_symmetry_cell_setting 'orthorhombic'
loop_
_space_group_symop_operation_xyz
x,y,z
1/2-x,-y,z
1/2+x,-y,-z
-x,y,-z
-x,-y,-z
1/2+x,y,-z
1/2-x,y,z
x,-y,z
loop_
_atom_site_type_symbol
_atom_site_label
_atom_site_fract_x
_atom_site_fract_y
_atom_site_fract_z
Si Si1 0.357164 0.734391 0.016026
Si Si2 0.646063 0.126719 0.171601
Si Si3 0.147632 0.123873 0.204162
Si Si4 0.099766 0.749803 0.403061
Si Si5 0.589963 0.864484 0.399671
Si Si6 0.644162 0.500000 0.648056
Si Si7 0.856183 0.500000 0.886238
O O1 0.250000 0.731792 0.016055
O O2 0.388128 0.821767 0.102179
O O3 0.385346 0.611395 0.053894
O O4 0.386624 0.779509 0.907100
O O5 0.750000 0.121225 0.156702
O O6 0.630613 0.151326 0.289306
O O7 0.610966 0.000000 0.149730
O O8 0.250000 0.111142 0.184984
O O9 0.141063 0.205908 0.299414
O O10 0.109550 0.000000 0.227795
O O11 0.137831 0.808566 0.504044
O O12 0.108624 0.614751 0.402947
O O13 0.002027 0.799244 0.396135
O O14 0.580346 0.000000 0.416406
O O15 0.750000 0.500000 0.642273
O O16 0.618959 0.500000 0.767600
O O17 0.750000 0.500000 0.885243
#
# Coordination Sequence:
#
# PCOD9398933 Si02
#       7
#     8   8   8   8   8   4   4
#     4   9  16  29  50  77 109 143 180 225 281 338
#     4   9  18  34  56  81 110 144 185 233 281 334
#     4  10  18  28  50  82 108 134 178 234 285 334
#     4  11  21  37  57  77 112 149 187 230 279 336
#     4  10  22  39  58  81 112 154 193 230 288 348
#     4  11  22  37  59  87 114 147 187 233 286 333
#     4   9  16  30  51  77 109 143 178 219 273 331
#
# _framework density 20.053754999999999
#
# number of rings (size 3 to 8) (size 9 to 14) (size 15 to 20)
#    0.000    2.167    1.667    3.000    0.000    4.667 
#    0.000    4.167    0.000    5.000    0.000    0.000 
#    0.000    0.000    0.000    0.000    0.000    0.000 
#
# Total GULP energy -267689.639793 kJ/mol
# GULP energy per Si atom -5576.867496 kJ/mol
# Density = 2.000811 g / cm^3
# Si number density = 20.053755 Si / 1000 Ang^3
#
#
#
# Elastic Constant Matrix: (Units=GPa)
#
#
# Indices 1 2 3 4 5 6 
#
# 1 24.5330 11.0857 -1.3639 0.0000 0.0000 0.0000
# 2 11.0857 169.0474 73.4759 0.0000 0.0000 0.0000
# 3 -1.3639 73.4759 139.1342 0.0000 0.0000 0.0000
# 4 0.0000 0.0000 0.0000 25.3223 0.0000 0.0000
# 5 0.0000 0.0000 0.0000 0.0000 28.8520 0.0000
# 6 0.0000 0.0000 0.0000 0.0000 0.0000 14.6342
#
#
#
# Elastic Compliance Matrix: (Units=1/GPa)
#
#
# Indices 1 2 3 4 5 6 
#
# 1 0.042645 -0.003866 0.002459 0.000000 0.000000 0.000000
# 2 -0.003866 0.008028 -0.004278 0.000000 0.000000 0.000000
# 3 0.002459 -0.004278 0.009470 0.000000 0.000000 0.000000
# 4 0.000000 0.000000 0.000000 0.039491 0.000000 0.000000
# 5 0.000000 0.000000 0.000000 0.000000 0.034660 0.000000
# 6 0.000000 0.000000 0.000000 0.000000 0.000000 0.068333
#
#
# Mechanical properties :
#
#
# Convention : Reuss Voigt Hill
#
# Bulk Modulus (GPa) = 20.50187 55.45669 37.97928
# Shear Modulus (GPa) = 21.71526 30.39616 26.05571
#
# Velocity S-wave (km/s) = 3.29424 3.89747 3.60848
# Velocity P-wave (km/s) = 4.97142 6.92587 6.02838
#
# Compressibility (1/GPa) = 0.04877604
#
# Stress axis : x y z
#
# Youngs Moduli (GPa) = 23.44952 124.56074 105.59262
#
# Poissons Ratio (x) = 0.48149 -0.25969
# Poissons Ratio (y) = 0.09064 0.45168
# Poissons Ratio (z) = -0.05767 0.53281
#
# Static dielectric constant tensor:
#      x y z
#    x 1.766040 0.000000 0.000000 
#    y 0.000000 1.729270 0.000000 
#    z 0.000000 0.000000 1.730000 
# 
# From -- ./inp_files/18171.got.cif
#   From: 2010.05.17/outbox.cif.g08.bks.cpg/sg51_10_cif.got.tgz:18171.got - 2010.06.03 11:52:47.
