data_PCOD9398552
_publ_section_title
;
Structure prediction by ZEFSAII (Michael W. Deem and Ramdas Pophale) SiO2 
 PCOD9398552
Probable space group: P M M A
;
_chemical_formula_sum "Si O2"
_cell_formula_units_Z 56
_cell_length_a 20.725614
_cell_length_b 9.112443
_cell_length_c 18.401421
_cell_angle_alpha 90.000000
_cell_angle_beta 90.000000
_cell_angle_gamma 90.000000
_cell_volume 3475.310334
_symmetry_space_group_name_H-M "P M M A"
_symmetry_group_IT_number 51
_symmetry_cell_setting 'orthorhombic'
loop_
_space_group_symop_operation_xyz
x,y,z
1/2-x,-y,z
1/2+x,-y,-z
-x,y,-z
-x,-y,-z
1/2+x,y,-z
1/2-x,y,z
x,-y,z
loop_
_atom_site_type_symbol
_atom_site_label
_atom_site_fract_x
_atom_site_fract_y
_atom_site_fract_z
Si Si1 0.063432 0.668586 0.346951
Si Si2 0.537022 0.676786 0.811733
Si Si3 0.601506 0.823637 0.217257
Si Si4 0.068321 0.823706 0.039984
Si Si5 0.177558 0.178181 0.925831
Si Si6 0.921732 0.168396 0.509374
Si Si7 0.593050 0.331000 0.364459
O O1 0.083606 0.500000 0.357159
O O2 0.074215 0.713371 0.263431
O O3 0.091753 0.766438 0.411152
O O4 0.985254 0.671899 0.355754
O O5 0.529849 0.500000 0.813918
O O6 0.466833 0.752345 0.805381
O O7 0.569276 0.739278 0.883996
O O8 0.651908 0.783534 0.154294
O O9 0.618931 0.761385 0.296424
O O10 0.594753 0.000000 0.219935
O O11 0.072211 0.000000 0.052121
O O12 0.125685 0.776664 0.986263
O O13 0.000000 0.796039 0.000000
O O14 0.250000 0.231493 0.938793
O O15 0.178420 0.000000 0.928136
O O16 0.893321 0.261565 0.442893
O O17 0.000000 0.173133 0.500000
O O18 0.901821 0.000000 0.503754
O O19 0.613259 0.500000 0.360350
#
# Coordination Sequence:
#
# PCOD9398552 Si02
#       7
#     8   8   8   8   8   8   8
#     4   8  15  25  35  51  80 115 146 178 220 270
#     4  10  19  29  43  65  91 120 152 188 234 280
#     4  10  17  28  45  64  87 115 154 194 227 269
#     4  10  18  31  49  70  90 116 156 197 234 276
#     4   9  18  32  49  68  92 121 152 191 240 284
#     4   9  15  22  34  54  79 111 149 184 220 262
#     4   9  16  25  37  55  82 116 150 182 222 268
#
# _framework density 16.113669000000002
#
# number of rings (size 3 to 8) (size 9 to 14) (size 15 to 20)
#    0.000    2.714    1.429    2.571    0.000    6.000 
#    0.000    0.000    0.000    3.857    0.000    0.000 
#    0.000    1.143    0.000   11.143    0.000    5.143 
#
# Total GULP energy -311909.505118 kJ/mol
# GULP energy per Si atom -5569.812591 kJ/mol
# Density = 1.607699 g / cm^3
# Si number density = 16.113669 Si / 1000 Ang^3
#
#
#
# Elastic Constant Matrix: (Units=GPa)
#
#
# Indices 1 2 3 4 5 6 
#
# 1 52.4113 22.2300 44.1484 0.0000 0.0000 0.0000
# 2 22.2300 70.6395 68.1093 0.0000 0.0000 0.0000
# 3 44.1484 68.1093 168.0431 0.0000 0.0000 0.0000
# 4 0.0000 0.0000 0.0000 31.9613 0.0000 0.0000
# 5 0.0000 0.0000 0.0000 0.0000 9.0081 0.0000
# 6 0.0000 0.0000 0.0000 0.0000 0.0000 0.8283
#
#
#
# Elastic Compliance Matrix: (Units=1/GPa)
#
#
# Indices 1 2 3 4 5 6 
#
# 1 0.024767 -0.002496 -0.005495 0.000000 0.000000 0.000000
# 2 -0.002496 0.023489 -0.008865 0.000000 0.000000 0.000000
# 3 -0.005495 -0.008865 0.010988 0.000000 0.000000 0.000000
# 4 0.000000 0.000000 0.000000 0.031288 0.000000 0.000000
# 5 0.000000 0.000000 0.000000 0.000000 0.111011 0.000000
# 6 0.000000 0.000000 0.000000 0.000000 0.000000 1.207222
#
#
# Mechanical properties :
#
#
# Convention : Reuss Voigt Hill
#
# Bulk Modulus (GPa) = 39.16578 62.22993 50.69786
# Shear Modulus (GPa) = 3.44593 18.79997 11.12295
#
# Velocity S-wave (km/s) = 1.46395 3.41942 2.63017
# Velocity P-wave (km/s) = 5.21692 7.36838 6.38394
#
# Compressibility (1/GPa) = 0.02553249
#
# Stress axis : x y z
#
# Youngs Moduli (GPa) = 40.37567 42.57349 91.01250
#
# Poissons Ratio (x) = 0.10625 0.50015
# Poissons Ratio (y) = 0.10076 0.80679
# Poissons Ratio (z) = 0.22188 0.37740
#
# Static dielectric constant tensor:
#      x y z
#    x 1.516320 0.000000 0.000000 
#    y 0.000000 1.537770 0.000000 
#    z 0.000000 0.000000 1.556830 
# 
# From -- ./inp_files/30434.got.cif
#   From: 2010.05.17/outbox.cif.g08.bks.cpg/sg51_16_cif.got.tgz:30434.got - 2010.06.03 11:52:47.
