data_PCOD9398404
_publ_section_title
;
Structure prediction by ZEFSAII (Michael W. Deem and Ramdas Pophale) SiO2 
 PCOD9398404
Probable space group: P M M A
;
_chemical_formula_sum "Si O2"
_cell_formula_units_Z 56
_cell_length_a 22.359460
_cell_length_b 8.875669
_cell_length_c 15.192112
_cell_angle_alpha 90.000000
_cell_angle_beta 90.000000
_cell_angle_gamma 90.000000
_cell_volume 3014.953109
_symmetry_space_group_name_H-M "P M M A"
_symmetry_group_IT_number 51
_symmetry_cell_setting 'orthorhombic'
loop_
_space_group_symop_operation_xyz
x,y,z
1/2-x,-y,z
1/2+x,-y,-z
-x,y,-z
-x,-y,-z
1/2+x,y,-z
1/2-x,y,z
x,-y,z
loop_
_atom_site_type_symbol
_atom_site_label
_atom_site_fract_x
_atom_site_fract_y
_atom_site_fract_z
Si Si1 0.580469 0.818234 0.723989
Si Si2 0.374296 0.179491 0.635228
Si Si3 0.931689 0.672471 0.532523
Si Si4 0.750000 0.833110 0.144659
Si Si5 0.374072 0.174834 0.961686
Si Si6 0.750000 0.326056 0.319158
Si Si7 0.680528 0.815867 0.858834
Si Si8 0.954394 0.816454 0.196941
O O1 0.573783 0.743698 0.628899
O O2 0.642219 0.777776 0.772591
O O3 0.523106 0.775886 0.784367
O O4 0.578553 0.000000 0.713985
O O5 0.398288 0.233128 0.541786
O O6 0.309068 0.246082 0.647167
O O7 0.415753 0.231311 0.717511
O O8 0.373191 0.000000 0.638967
O O9 0.910136 0.500000 0.533957
O O10 0.000000 0.672050 0.500000
O O11 0.810159 0.826603 0.088109
O O12 0.750000 0.701482 0.214610
O O13 0.750000 0.000000 0.189123
O O14 0.423042 0.238607 0.893335
O O15 0.392033 0.000000 0.977190
O O16 0.357568 0.240506 0.056852
O O17 0.750000 0.500000 0.342036
O O18 0.750000 0.766584 0.859551
O O19 0.682054 0.000000 0.865054
O O20 0.951312 0.000000 0.193951
#
# Coordination Sequence:
#
# PCOD9398404 Si02
#       8
#     8   8   8   4   8   4   8   8
#     4  10  20  35  55  82 112 144 190 242 289 343
#     4  11  21  37  60  84 113 151 195 236 288 350
#     4  11  23  39  60  84 110 147 190 236 298 359
#     4  10  16  28  52  77 106 151 194 223 268 334
#     4   9  15  26  49  81 112 142 184 233 282 331
#     4  12  24  36  52  83 124 153 186 237 292 344
#     4   9  17  30  51  81 115 149 186 235 288 334
#     4   9  17  28  50  84 113 140 180 235 288 335
#
# _framework density 18.574086000000001
#
# number of rings (size 3 to 8) (size 9 to 14) (size 15 to 20)
#    0.000    2.000    3.571    1.500    0.000    1.143 
#    1.286    2.857    0.000    0.857    0.000    1.000 
#    0.000    0.000    0.000    0.000    0.000    0.000 
#
# Total GULP energy -312266.545081 kJ/mol
# GULP energy per Si atom -5576.188305 kJ/mol
# Density = 1.853181 g / cm^3
# Si number density = 18.574086 Si / 1000 Ang^3
#
#
#
# Elastic Constant Matrix: (Units=GPa)
#
#
# Indices 1 2 3 4 5 6 
#
# 1 82.4302 20.6283 51.2731 0.0000 0.0000 0.0000
# 2 20.6283 36.5002 24.5589 0.0000 0.0000 0.0000
# 3 51.2731 24.5589 123.4250 0.0000 0.0000 0.0000
# 4 0.0000 0.0000 0.0000 -53.4213 0.0000 0.0000
# 5 0.0000 0.0000 0.0000 0.0000 23.4071 0.0000
# 6 0.0000 0.0000 0.0000 0.0000 0.0000 20.2271
#
#
#
# Elastic Compliance Matrix: (Units=1/GPa)
#
#
# Indices 1 2 3 4 5 6 
#
# 1 0.017333 -0.005717 -0.006063 0.000000 0.000000 0.000000
# 2 -0.005717 0.033517 -0.004294 0.000000 0.000000 0.000000
# 3 -0.006063 -0.004294 0.011475 0.000000 0.000000 0.000000
# 4 0.000000 0.000000 0.000000 -0.018719 0.000000 0.000000
# 5 0.000000 0.000000 0.000000 0.000000 0.042722 0.000000
# 6 0.000000 0.000000 0.000000 0.000000 0.000000 0.049439
#
#
# Mechanical properties :
#
#
# Convention : Reuss Voigt Hill
#
# Bulk Modulus (GPa) = 33.13697 48.36403 40.75050
# Shear Modulus (GPa) = 28.09376 7.76891 17.93134
#
# Velocity S-wave (km/s) = 3.89334 2.04737 3.11045
# Velocity P-wave (km/s) = 6.17170 5.62885 5.90652
#
# Compressibility (1/GPa) = 0.03017777
#
# Stress axis : x y z
#
# Youngs Moduli (GPa) = 57.69187 29.83529 87.14323
#
# Poissons Ratio (x) = 0.17055 0.52837
# Poissons Ratio (y) = 0.32980 0.37423
# Poissons Ratio (z) = 0.34980 0.12813
#
# Static dielectric constant tensor:
#      x y z
#    x 1.619700 0.000000 0.000000 
#    y 0.000000 1.621730 0.000000 
#    z 0.000000 0.000000 1.658030 
# 
# From -- ./inp_files/25875.got.cif
#   From: 2010.05.17/outbox.cif.g08.bks.cpg/sg51_13_cif.got.tgz:25875.got - 2010.06.03 11:52:47.
