data_PCOD9398691
_publ_section_title
;
Structure prediction by ZEFSAII (Michael W. Deem and Ramdas Pophale) SiO2 
 PCOD9398691
Probable space group: P M M A
;
_chemical_formula_sum "Si O2"
_cell_formula_units_Z 64
_cell_length_a 8.882588
_cell_length_b 27.251981
_cell_length_c 18.836947
_cell_angle_alpha 90.000000
_cell_angle_beta 90.000000
_cell_angle_gamma 90.000000
_cell_volume 4559.824336
_symmetry_space_group_name_H-M "P M M A"
_symmetry_group_IT_number 51
_symmetry_cell_setting 'orthorhombic'
loop_
_space_group_symop_operation_xyz
x,y,z
1/2-x,-y,z
1/2+x,-y,-z
-x,y,-z
-x,-y,-z
1/2+x,y,-z
1/2-x,y,z
x,-y,z
loop_
_atom_site_type_symbol
_atom_site_label
_atom_site_fract_x
_atom_site_fract_y
_atom_site_fract_z
Si Si1 0.924457 0.698466 0.296589
Si Si2 0.067588 0.739020 0.922009
Si Si3 0.930438 0.148853 0.665860
Si Si4 0.923160 0.800544 0.207498
Si Si5 0.931039 0.350869 0.832933
Si Si6 0.431860 0.944116 0.422433
Si Si7 0.930731 0.753822 0.577914
Si Si8 0.931050 0.443986 0.923559
O O1 0.750000 0.685872 0.308331
O O2 0.928226 0.749231 0.251269
O O3 0.005572 0.659585 0.245533
O O4 0.007385 0.711789 0.369529
O O5 0.250000 0.736147 0.923134
O O6 0.023743 0.784518 0.870559
O O7 0.002221 0.690126 0.884918
O O8 0.000000 0.743786 0.000000
O O9 0.750000 0.148582 0.667622
O O10 0.982526 0.097573 0.632443
O O11 0.975266 0.193936 0.613922
O O12 0.988069 0.161196 0.744396
O O13 0.750000 0.816120 0.202980
O O14 0.750000 0.345574 0.832888
O O15 0.972035 0.403871 0.864807
O O16 0.500000 0.934191 0.500000
O O17 0.250000 0.941816 0.427512
O O18 0.472978 0.000000 0.402336
O O19 0.750000 0.751917 0.574872
O O20 0.000000 0.750189 0.500000
O O21 0.750000 0.443231 0.930148
O O22 0.977433 0.500000 0.906845
O O23 0.000000 0.430749 0.000000
#
# Coordination Sequence:
#
# PCOD9398691 Si02
#       8
#     8   8   8   8   8   8   8   8
#     4   9  17  29  42  57  79 105 134 167 202 239
#     4  10  19  29  41  59  82 107 135 165 199 238
#     4   9  17  27  40  57  77 105 137 166 197 234
#     4   8  16  28  40  55  76 102 130 162 197 234
#     4  10  18  28  43  60  80 108 139 169 202 238
#     4   9  17  28  40  56  79 105 134 167 199 230
#     4  10  18  27  40  59  82 107 137 168 200 238
#     4   9  18  30  42  58  81 108 138 171 203 234
#
# _framework density 14.035629
#
# number of rings (size 3 to 8) (size 9 to 14) (size 15 to 20)
#    0.000    2.750    0.000    3.000    0.000    6.500 
#    0.000    0.000    0.000    0.000    0.000    0.000 
#    0.000    1.000    0.000    2.500    0.000    3.750 
#
# Total GULP energy -356454.458839 kJ/mol
# GULP energy per Si atom -5569.600919 kJ/mol
# Density = 1.400368 g / cm^3
# Si number density = 14.035629 Si / 1000 Ang^3
#
#
#
# Elastic Constant Matrix: (Units=GPa)
#
#
# Indices 1 2 3 4 5 6 
#
# 1 39.1926 29.3210 37.3576 0.0000 0.0000 0.0000
# 2 29.3210 79.8915 52.8819 0.0000 0.0000 0.0000
# 3 37.3576 52.8819 108.8444 0.0000 0.0000 0.0000
# 4 0.0000 0.0000 0.0000 26.7463 0.0000 0.0000
# 5 0.0000 0.0000 0.0000 0.0000 26.5770 0.0000
# 6 0.0000 0.0000 0.0000 0.0000 0.0000 14.2038
#
#
#
# Elastic Compliance Matrix: (Units=1/GPa)
#
#
# Indices 1 2 3 4 5 6 
#
# 1 0.041548 -0.008564 -0.010100 0.000000 0.000000 0.000000
# 2 -0.008564 0.020216 -0.006883 0.000000 0.000000 0.000000
# 3 -0.010100 -0.006883 0.015998 0.000000 0.000000 0.000000
# 4 0.000000 0.000000 0.000000 0.037388 0.000000 0.000000
# 5 0.000000 0.000000 0.000000 0.000000 0.037626 0.000000
# 6 0.000000 0.000000 0.000000 0.000000 0.000000 0.070404
#
#
# Mechanical properties :
#
#
# Convention : Reuss Voigt Hill
#
# Bulk Modulus (GPa) = 37.49498 51.89440 44.69469
# Shear Modulus (GPa) = 17.65776 20.72997 19.19387
#
# Velocity S-wave (km/s) = 3.55077 3.84728 3.70200
# Velocity P-wave (km/s) = 6.60173 7.53585 7.08420
#
# Compressibility (1/GPa) = 0.02667023
#
# Stress axis : x y z
#
# Youngs Moduli (GPa) = 24.06834 49.46676 62.50897
#
# Poissons Ratio (x) = 0.42361 0.63132
# Poissons Ratio (y) = 0.20611 0.43022
# Poissons Ratio (z) = 0.24308 0.34046
#
# Static dielectric constant tensor:
#      x y z
#    x 1.473800 0.000000 0.000000 
#    y 0.000000 1.460040 0.000000 
#    z 0.000000 0.000000 1.452960 
# 
# From -- ./inp_files/28687.got.cif
#   From: 2010.05.17/outbox.cif.g08.bks.cpg/sg51_15_cif.got.tgz:28687.got - 2010.06.03 11:52:47.
