data_PCOD9398700
_publ_section_title
;
Structure prediction by ZEFSAII (Michael W. Deem and Ramdas Pophale) SiO2 
 PCOD9398700
Probable space group: P M M A
;
_chemical_formula_sum "Si O2"
_cell_formula_units_Z 64
_cell_length_a 18.856505
_cell_length_b 9.124118
_cell_length_c 26.737385
_cell_angle_alpha 90.000000
_cell_angle_beta 90.000000
_cell_angle_gamma 90.000000
_cell_volume 4600.139729
_symmetry_space_group_name_H-M "P M M A"
_symmetry_group_IT_number 51
_symmetry_cell_setting 'orthorhombic'
loop_
_space_group_symop_operation_xyz
x,y,z
1/2-x,-y,z
1/2+x,-y,-z
-x,y,-z
-x,-y,-z
1/2+x,y,-z
1/2-x,y,z
x,-y,z
loop_
_atom_site_type_symbol
_atom_site_label
_atom_site_fract_x
_atom_site_fract_y
_atom_site_fract_z
Si Si1 0.666719 0.325305 0.798254
Si Si2 0.832508 0.324529 0.498391
Si Si3 0.832199 0.823360 0.993380
Si Si4 0.410791 0.324831 0.099516
Si Si5 0.913635 0.675012 0.602183
Si Si6 0.666074 0.825470 0.693494
Si Si7 0.961464 0.168561 0.054421
Si Si8 0.458190 0.168720 0.553095
O O1 0.750000 0.297832 0.809513
O O2 0.659140 0.500000 0.789386
O O3 0.620217 0.284909 0.846340
O O4 0.648124 0.238426 0.748077
O O5 0.750000 0.282794 0.495352
O O6 0.838201 0.500000 0.491212
O O7 0.863799 0.293186 0.553778
O O8 0.883106 0.243403 0.458952
O O9 0.750000 0.788867 0.000676
O O10 0.882253 0.782065 0.040266
O O11 0.839781 0.000000 0.987405
O O12 0.862326 0.746818 0.943731
O O13 0.408474 0.500000 0.094483
O O14 0.490138 0.266294 0.089949
O O15 0.917761 0.500000 0.607493
O O16 0.878911 0.747865 0.650517
O O17 0.990759 0.741723 0.589969
O O18 0.750000 0.795151 0.685260
O O19 0.655863 0.000000 0.692152
O O20 0.961061 0.000000 0.071859
O O21 0.000000 0.170214 0.000000
O O22 0.500000 0.170260 0.500000
O O23 0.450508 0.000000 0.568727
#
# Coordination Sequence:
#
# PCOD9398700 Si02
#       8
#     8   8   8   8   8   8   8   8
#     4   9  18  31  43  56  78 107 137 168 201 238
#     4   9  17  28  42  61  84 111 143 173 202 243
#     4   9  17  28  41  57  79 108 139 168 199 238
#     4  10  18  27  41  60  81 106 136 169 204 240
#     4  10  18  29  45  61  81 112 144 171 204 245
#     4  10  20  31  43  61  83 106 136 174 209 240
#     4   8  15  27  40  55  77 105 135 165 198 238
#     4   9  17  28  41  59  83 109 138 173 209 242
#
# _framework density 13.912621
#
# number of rings (size 3 to 8) (size 9 to 14) (size 15 to 20)
#    0.000    2.750    0.000    3.000    0.000    7.500 
#    0.000    1.250    0.000    0.000    0.000    0.000 
#    0.000    1.000    0.000    6.500    0.000    4.250 
#
# Total GULP energy -356568.527006 kJ/mol
# GULP energy per Si atom -5571.383234 kJ/mol
# Density = 1.388096 g / cm^3
# Si number density = 13.912621 Si / 1000 Ang^3
#
#
#
# Elastic Constant Matrix: (Units=GPa)
#
#
# Indices 1 2 3 4 5 6 
#
# 1 121.9163 54.3087 62.4125 0.0000 0.0000 0.0000
# 2 54.3087 56.2827 52.2369 0.0000 0.0000 0.0000
# 3 62.4125 52.2369 87.4080 0.0000 0.0000 0.0000
# 4 0.0000 0.0000 0.0000 17.9675 0.0000 0.0000
# 5 0.0000 0.0000 0.0000 0.0000 26.3086 0.0000
# 6 0.0000 0.0000 0.0000 0.0000 0.0000 22.3453
#
#
#
# Elastic Compliance Matrix: (Units=1/GPa)
#
#
# Indices 1 2 3 4 5 6 
#
# 1 0.015196 -0.010312 -0.004687 0.000000 0.000000 0.000000
# 2 -0.010312 0.046895 -0.020662 0.000000 0.000000 0.000000
# 3 -0.004687 -0.020662 0.027136 0.000000 0.000000 0.000000
# 4 0.000000 0.000000 0.000000 0.055656 0.000000 0.000000
# 5 0.000000 0.000000 0.000000 0.000000 0.038010 0.000000
# 6 0.000000 0.000000 0.000000 0.000000 0.000000 0.044752
#
#
# Mechanical properties :
#
#
# Convention : Reuss Voigt Hill
#
# Bulk Modulus (GPa) = 55.85744 67.05812 61.45778
# Shear Modulus (GPa) = 16.39691 19.76753 18.08222
#
# Velocity S-wave (km/s) = 3.43675 3.77349 3.60904
# Velocity P-wave (km/s) = 7.48226 8.20303 7.85092
#
# Compressibility (1/GPa) = 0.01790272
#
# Stress axis : x y z
#
# Youngs Moduli (GPa) = 65.80829 21.32438 36.85179
#
# Poissons Ratio (x) = 0.21990 0.17274
# Poissons Ratio (y) = 0.67862 0.76143
# Poissons Ratio (z) = 0.30848 0.44060
#
# Static dielectric constant tensor:
#      x y z
#    x 1.465080 0.000000 0.000000 
#    y 0.000000 1.465300 0.000000 
#    z 0.000000 0.000000 1.427270 
# 
# From -- ./inp_files/35922.got.cif
#   From: 2010.05.17/outbox.cif.g08.bks.cpg/sg51_18_cif.got.tgz:35922.got - 2010.06.03 11:52:47.
