data_PCOD9398227
_publ_section_title
;
Structure prediction by ZEFSAII (Michael W. Deem and Ramdas Pophale) SiO2 
 PCOD9398227
Probable space group: P B A N
;
_chemical_formula_sum "Si O2"
_cell_formula_units_Z 30
_cell_length_a 19.019464
_cell_length_b 11.570853
_cell_length_c 5.912468
_cell_angle_alpha 90.000000
_cell_angle_beta 90.000000
_cell_angle_gamma 90.000000
_cell_volume 1301.165241
_symmetry_space_group_name_H-M "P B A N"
_symmetry_group_IT_number 50
_space_group.IT_coordinate_system_code '2'
_symmetry_cell_setting 'orthorhombic'
loop_
_space_group_symop_operation_xyz
x,y,z
1/2-x,1/2-y,z
x,1/2-y,-z
1/2-x,y,-z
-x,-y,-z
1/2+x,1/2+y,-z
-x,1/2+y,z
1/2+x,-y,z
loop_
_atom_site_type_symbol
_atom_site_label
_atom_site_fract_x
_atom_site_fract_y
_atom_site_fract_z
Si Si1 0.155574 0.190501 0.748115
Si Si2 0.750000 0.953070 0.000000
Si Si3 0.003879 0.123307 0.628685
Si Si4 0.145626 0.861343 0.156372
Si Si5 0.250000 0.750000 0.500000
O O1 0.156904 0.250000 0.500000
O O2 0.080602 0.125249 0.739901
O O3 0.152529 0.250000 0.000000
O O4 0.227281 0.119049 0.781376
O O5 0.818142 0.029578 0.956014
O O6 0.998229 0.250000 0.500000
O O7 0.935246 0.121584 0.785310
O O8 0.000000 0.000000 0.500000
O O9 0.196722 0.831445 0.364152
O O10 0.152238 0.750000 0.000000
#
# Coordination Sequence:
#
# PCOD9398227 Si02
#       5
#     8   4   8   8   2
#     4  11  29  56  78 118 163 217 275 338 413 496
#     4  12  28  46  84 116 160 216 274 348 414 506
#     4  11  28  51  83 117 160 218 274 343 409 500
#     4  12  26  48  76 118 158 208 269 341 417 489
#     4  12  22  44  72 114 166 200 272 340 418 486
#
# _framework density 23.056256000000001
#
# number of rings (size 3 to 8) (size 9 to 14) (size 15 to 20)
#    0.000    0.533    4.000    1.200   14.933    3.200 
#    0.000    0.000    0.000    0.000    0.000    0.000 
#    0.000    0.000    0.000    0.000    0.000    0.000 
#
# Total GULP energy -167412.442343 kJ/mol
# GULP energy per Si atom -5580.414745 kJ/mol
# Density = 2.300378 g / cm^3
# Si number density = 23.056256 Si / 1000 Ang^3
#
#
#
# Elastic Constant Matrix: (Units=GPa)
#
#
# Indices 1 2 3 4 5 6 
#
# 1 194.4117 58.8704 70.4888 0.0000 0.0000 0.0000
# 2 58.8704 127.3800 66.2891 0.0000 0.0000 0.0000
# 3 70.4888 66.2891 125.4296 0.0000 0.0000 0.0000
# 4 0.0000 0.0000 0.0000 1.0405 0.0000 0.0000
# 5 0.0000 0.0000 0.0000 0.0000 58.8798 0.0000
# 6 0.0000 0.0000 0.0000 0.0000 0.0000 55.4424
#
#
#
# Elastic Compliance Matrix: (Units=1/GPa)
#
#
# Indices 1 2 3 4 5 6 
#
# 1 0.006678 -0.001563 -0.002927 0.000000 0.000000 0.000000
# 2 -0.001563 0.011195 -0.005038 0.000000 0.000000 0.000000
# 3 -0.002927 -0.005038 0.012280 0.000000 0.000000 0.000000
# 4 0.000000 0.000000 0.000000 0.961060 0.000000 0.000000
# 5 0.000000 0.000000 0.000000 0.000000 0.016984 0.000000
# 6 0.000000 0.000000 0.000000 0.000000 0.000000 0.018037
#
#
# Mechanical properties :
#
#
# Convention : Reuss Voigt Hill
#
# Bulk Modulus (GPa) = 90.11490 93.16865 91.64177
# Shear Modulus (GPa) = 4.76649 39.84408 22.30529
#
# Velocity S-wave (km/s) = 1.43938 4.16158 3.11373
# Velocity P-wave (km/s) = 6.47550 7.97425 7.26363
#
# Compressibility (1/GPa) = 0.01109694
#
# Stress axis : x y z
#
# Youngs Moduli (GPa) = 149.73810 89.32757 81.43378
#
# Poissons Ratio (x) = 0.13965 0.23835
# Poissons Ratio (y) = 0.23409 0.41025
# Poissons Ratio (z) = 0.43826 0.45002
#
# Static dielectric constant tensor:
#      x y z
#    x 1.747280 0.000000 0.000000 
#    y 0.000000 2.096400 0.000000 
#    z 0.000000 0.000000 1.891150 
# 
# From -- ./inp_files/4890.got.cif
#   From: 2010.05.17/outbox.cif.g08.bks.cpg/sg50_3_cif.got.tgz:4890.got - 2010.06.03 11:33:33.
