data_PCOD9398387
_publ_section_title
;
Structure prediction by ZEFSAII (Michael W. Deem and Ramdas Pophale) SiO2 
 PCOD9398387
Probable space group: P M M A
;
_chemical_formula_sum "Si O2"
_cell_formula_units_Z 32
_cell_length_a 8.516650
_cell_length_b 22.158736
_cell_length_c 9.282616
_cell_angle_alpha 90.000000
_cell_angle_beta 90.000000
_cell_angle_gamma 90.000000
_cell_volume 1751.798573
_symmetry_space_group_name_H-M "P M M A"
_symmetry_group_IT_number 51
_symmetry_cell_setting 'orthorhombic'
loop_
_space_group_symop_operation_xyz
x,y,z
1/2-x,-y,z
1/2+x,-y,-z
-x,y,-z
-x,-y,-z
1/2+x,y,-z
1/2-x,y,z
x,-y,z
loop_
_atom_site_type_symbol
_atom_site_label
_atom_site_fract_x
_atom_site_fract_y
_atom_site_fract_z
Si Si1 0.439518 0.500000 0.664499
Si Si2 0.062884 0.125149 0.165120
Si Si3 0.439828 0.631022 0.663262
Si Si4 0.437038 0.000000 0.834679
Si Si5 0.938803 0.251274 0.163209
O O1 0.250000 0.500000 0.663821
O O2 0.500000 0.500000 0.500000
O O3 0.490124 0.565226 0.725194
O O4 0.750000 0.123793 0.837471
O O5 0.002766 0.188411 0.228252
O O6 0.998709 0.062771 0.231015
O O7 0.000000 0.126011 0.000000
O O8 0.500000 0.635034 0.500000
O O9 0.250000 0.631853 0.661270
O O10 0.492168 0.689288 0.751824
O O11 0.250000 0.000000 0.838140
O O12 0.500000 0.000000 0.000000
O O13 0.750000 0.248532 0.161602
O O14 0.000000 0.255799 0.000000
#
# Coordination Sequence:
#
# PCOD9398387 Si02
#       5
#     4   8   8   4   8
#     4   8  14  28  47  68  90 116 148 190 233 272
#     4  10  17  26  40  60  86 118 152 189 228 271
#     4   9  18  31  50  71  93 119 154 193 233 276
#     4  10  16  24  38  58  85 116 149 188 227 270
#     4  10  19  31  45  66  94 126 156 189 231 278
#
# _framework density 18.266940000000002
#
# number of rings (size 3 to 8) (size 9 to 14) (size 15 to 20)
#    0.000    2.500    0.000    7.125    0.000    2.000 
#    0.000    0.625    0.000    0.000    0.000    0.875 
#    0.000    0.000    0.000    0.000    0.000    0.000 
#
# Total GULP energy -178203.944510 kJ/mol
# GULP energy per Si atom -5568.873266 kJ/mol
# Density = 1.822536 g / cm^3
# Si number density = 18.266940 Si / 1000 Ang^3
#
#
#
# Elastic Constant Matrix: (Units=GPa)
#
#
# Indices 1 2 3 4 5 6 
#
# 1 89.7189 52.8665 6.7275 0.0000 0.0000 0.0000
# 2 52.8665 253.4341 42.5324 0.0000 0.0000 0.0000
# 3 6.7275 42.5324 16.6652 0.0000 0.0000 0.0000
# 4 0.0000 0.0000 0.0000 124.4691 0.0000 0.0000
# 5 0.0000 0.0000 0.0000 0.0000 12.6561 0.0000
# 6 0.0000 0.0000 0.0000 0.0000 0.0000 32.9523
#
#
#
# Elastic Compliance Matrix: (Units=1/GPa)
#
#
# Indices 1 2 3 4 5 6 
#
# 1 0.012786 -0.003150 0.002879 0.000000 0.000000 0.000000
# 2 -0.003150 0.007678 -0.018324 0.000000 0.000000 0.000000
# 3 0.002879 -0.018324 0.105610 0.000000 0.000000 0.000000
# 4 0.000000 0.000000 0.000000 0.008034 0.000000 0.000000
# 5 0.000000 0.000000 0.000000 0.000000 0.079014 0.000000
# 6 0.000000 0.000000 0.000000 0.000000 0.000000 0.030347
#
#
# Mechanical properties :
#
#
# Convention : Reuss Voigt Hill
#
# Bulk Modulus (GPa) = 11.25083 62.67453 36.96268
# Shear Modulus (GPa) = 16.11400 51.19493 33.65446
#
# Velocity S-wave (km/s) = 2.97331 5.29970 4.29694
# Velocity P-wave (km/s) = 4.23791 8.47549 6.70052
#
# Compressibility (1/GPa) = 0.08888233
#
# Stress axis : x y z
#
# Youngs Moduli (GPa) = 78.20806 130.23823 9.46879
#
# Poissons Ratio (x) = 0.41029 -0.02726
# Poissons Ratio (y) = 0.24638 0.17351
# Poissons Ratio (z) = -0.22512 2.38654
#
# Static dielectric constant tensor:
#      x y z
#    x 1.611210 0.000000 0.000000 
#    y 0.000000 1.736820 0.000000 
#    z 0.000000 0.000000 1.715830 
# 
# From -- ./inp_files/5164.got.cif
#   From: 2010.05.17/outbox.cif.g08.bks.cpg/sg51_3_cif.got.tgz:5164.got - 2010.06.03 11:52:47.
