data_PCOD9398964
_publ_section_title
;
Structure prediction by ZEFSAII (Michael W. Deem and Ramdas Pophale) SiO2 
 PCOD9398964
Probable space group: P M M A
;
_chemical_formula_sum "Si O2"
_cell_formula_units_Z 64
_cell_length_a 8.951015
_cell_length_b 18.784767
_cell_length_c 26.912682
_cell_angle_alpha 90.000000
_cell_angle_beta 90.000000
_cell_angle_gamma 90.000000
_cell_volume 4525.171855
_symmetry_space_group_name_H-M "P M M A"
_symmetry_group_IT_number 51
_symmetry_cell_setting 'orthorhombic'
loop_
_space_group_symop_operation_xyz
x,y,z
1/2-x,-y,z
1/2+x,-y,-z
-x,y,-z
-x,-y,-z
1/2+x,y,-z
1/2-x,y,z
x,-y,z
loop_
_atom_site_type_symbol
_atom_site_label
_atom_site_fract_x
_atom_site_fract_y
_atom_site_fract_z
Si Si1 0.927456 0.084825 0.946845
Si Si2 0.430498 0.844273 0.850998
Si Si3 0.921568 0.295478 0.200120
Si Si4 0.077212 0.205795 0.696662
Si Si5 0.429274 0.580879 0.254172
Si Si6 0.429384 0.665333 0.354658
Si Si7 0.571862 0.916415 0.754146
Si Si8 0.428462 0.416347 0.553635
O O1 0.750000 0.098284 0.947457
O O2 0.006043 0.126634 0.902352
O O3 0.949359 0.000000 0.938663
O O4 0.000000 0.102390 0.000000
O O5 0.250000 0.848151 0.849302
O O6 0.474364 0.761955 0.840363
O O7 0.497079 0.890714 0.805695
O O8 0.750000 0.314257 0.189781
O O9 0.924878 0.250121 0.251461
O O10 0.012725 0.366281 0.211604
O O11 0.250000 0.194827 0.682976
O O12 0.993160 0.256562 0.657897
O O13 0.996087 0.132438 0.710573
O O14 0.250000 0.580067 0.252644
O O15 0.484428 0.500000 0.249915
O O16 0.471267 0.614996 0.307539
O O17 0.250000 0.667264 0.357886
O O18 0.499678 0.631739 0.403763
O O19 0.750000 0.904737 0.757391
O O20 0.543997 0.000000 0.746706
O O21 0.500000 0.400802 0.500000
O O22 0.250000 0.406849 0.551860
O O23 0.458935 0.500000 0.564547
#
# Coordination Sequence:
#
# PCOD9398964 Si02
#       8
#     8   8   8   8   8   8   8   8
#     4  10  20  32  45  62  84 110 141 176 212 249
#     4  10  19  30  44  61  83 112 145 178 212 251
#     4   8  16  28  40  57  80 107 138 171 206 244
#     4   9  17  29  43  60  83 110 142 177 212 252
#     4   9  17  27  40  60  84 110 140 172 206 246
#     4  10  18  29  45  62  84 114 145 177 215 257
#     4  10  19  29  42  62  87 114 145 178 212 253
#     4  10  20  32  45  62  85 113 146 183 219 254
#
# _framework density 14.14311
#
# number of rings (size 3 to 8) (size 9 to 14) (size 15 to 20)
#    0.000    2.500    0.000    3.750    0.000    8.750 
#    0.000    0.000    0.000    0.000    0.000    0.000 
#    0.000    1.000    0.000    3.500    0.000    5.250 
#
# Total GULP energy -356713.801442 kJ/mol
# GULP energy per Si atom -5573.653148 kJ/mol
# Density = 1.411092 g / cm^3
# Si number density = 14.143110 Si / 1000 Ang^3
#
#
#
# Elastic Constant Matrix: (Units=GPa)
#
#
# Indices 1 2 3 4 5 6 
#
# 1 69.7108 59.2492 49.7022 0.0000 0.0000 0.0000
# 2 59.2492 112.0847 64.0022 0.0000 0.0000 0.0000
# 3 49.7022 64.0022 92.9968 0.0000 0.0000 0.0000
# 4 0.0000 0.0000 0.0000 27.5788 0.0000 0.0000
# 5 0.0000 0.0000 0.0000 0.0000 24.1469 0.0000
# 6 0.0000 0.0000 0.0000 0.0000 0.0000 23.6729
#
#
#
# Elastic Compliance Matrix: (Units=1/GPa)
#
#
# Indices 1 2 3 4 5 6 
#
# 1 0.029473 -0.010848 -0.008286 0.000000 0.000000 0.000000
# 2 -0.010848 0.018691 -0.007066 0.000000 0.000000 0.000000
# 3 -0.008286 -0.007066 0.020044 0.000000 0.000000 0.000000
# 4 0.000000 0.000000 0.000000 0.036260 0.000000 0.000000
# 5 0.000000 0.000000 0.000000 0.000000 0.041413 0.000000
# 6 0.000000 0.000000 0.000000 0.000000 0.000000 0.042242
#
#
# Mechanical properties :
#
#
# Convention : Reuss Voigt Hill
#
# Bulk Modulus (GPa) = 63.25706 68.96662 66.11184
# Shear Modulus (GPa) = 20.34241 21.86897 21.10569
#
# Velocity S-wave (km/s) = 3.79664 3.93652 3.86721
# Velocity P-wave (km/s) = 8.00268 8.33852 8.17232
#
# Compressibility (1/GPa) = 0.01580851
#
# Stress axis : x y z
#
# Youngs Moduli (GPa) = 33.92952 53.50187 49.89026
#
# Poissons Ratio (x) = 0.58041 0.41338
# Poissons Ratio (y) = 0.36808 0.35250
# Poissons Ratio (z) = 0.28113 0.37802
#
# Static dielectric constant tensor:
#      x y z
#    x 1.474840 0.000000 0.000000 
#    y 0.000000 1.465460 0.000000 
#    z 0.000000 0.000000 1.440170 
# 
# From -- ./inp_files/35125.got.cif
#   From: 2010.05.17/outbox.cif.g08.bks.cpg/sg51_18_cif.got.tgz:35125.got - 2010.06.03 11:52:47.
