data_PCOD9398086
_publ_section_title
;
Structure prediction by ZEFSAII (Michael W. Deem and Ramdas Pophale) SiO2 
 PCOD9398086
Probable space group: P B A N
;
_chemical_formula_sum "Si O2"
_cell_formula_units_Z 54
_cell_length_a 24.582835
_cell_length_b 19.784047
_cell_length_c 5.382262
_cell_angle_alpha 90.000000
_cell_angle_beta 90.000000
_cell_angle_gamma 90.000000
_cell_volume 2617.652160
_symmetry_space_group_name_H-M "P B A N"
_symmetry_group_IT_number 50
_space_group.IT_coordinate_system_code '2'
_symmetry_cell_setting 'orthorhombic'
loop_
_space_group_symop_operation_xyz
x,y,z
1/2-x,1/2-y,z
x,1/2-y,-z
1/2-x,y,-z
-x,-y,-z
1/2+x,1/2+y,-z
-x,1/2+y,z
1/2+x,-y,z
loop_
_atom_site_type_symbol
_atom_site_label
_atom_site_fract_x
_atom_site_fract_y
_atom_site_fract_z
Si Si1 0.440045 0.422041 0.799529
Si Si2 0.718401 0.002861 0.739455
Si Si3 0.394267 0.572237 0.793547
Si Si4 0.499133 0.750000 0.500000
Si Si5 0.589429 0.681955 0.831882
Si Si6 0.057231 0.628911 0.705957
Si Si7 0.750000 0.750000 0.500000
Si Si8 0.332736 0.139032 0.434649
O O1 0.424326 0.499575 0.792503
O O2 0.500247 0.411863 0.699865
O O3 0.392411 0.374992 0.680255
O O4 0.435845 0.388177 0.068047
O O5 0.750000 0.031821 0.500000
O O6 0.696188 0.931413 0.629253
O O7 0.668624 0.051795 0.802624
O O8 0.750000 0.991221 0.000000
O O9 0.408811 0.609196 0.537379
O O10 0.413067 0.611982 0.037786
O O11 0.540843 0.705277 0.654367
O O12 0.462145 0.794160 0.680568
O O13 0.647315 0.661017 0.710261
O O14 0.597459 0.750000 0.000000
O O15 0.708887 0.801580 0.642166
#
# Coordination Sequence:
#
# PCOD9398086 Si02
#       8
#     8   8   8   4   8   8   2   8
#     4  11  24  39  67  91 141 187 240 293 354 407
#     4  11  25  49  72  98 136 182 232 299 365 416
#     4  11  27  41  72 104 137 176 238 294 351 426
#     4  12  25  40  66  95 147 192 229 274 354 432
#     4  12  22  42  62  93 139 202 244 279 338 411
#     4  12  24  44  65 106 138 185 228 286 361 426
#     4  12  22  40  54  92 134 188 264 294 316 384
#     4  11  25  39  63  96 131 195 249 298 338 391
#
# _framework density 20.629170999999999
#
# number of rings (size 3 to 8) (size 9 to 14) (size 15 to 20)
#    0.000    0.593    3.704    4.000    8.296    0.000 
#    0.000    2.963    0.000    0.000    0.000    7.778 
#    0.000    0.000    0.000    0.000    0.000    0.000 
#
# Total GULP energy -301177.693731 kJ/mol
# GULP energy per Si atom -5577.364699 kJ/mol
# Density = 2.058222 g / cm^3
# Si number density = 20.629171 Si / 1000 Ang^3
#
#
#
# Elastic Constant Matrix: (Units=GPa)
#
#
# Indices 1 2 3 4 5 6 
#
# 1 122.1379 33.2454 55.8210 0.0000 0.0000 0.0000
# 2 33.2454 37.0236 20.8102 0.0000 0.0000 0.0000
# 3 55.8210 20.8102 92.0054 0.0000 0.0000 0.0000
# 4 0.0000 0.0000 0.0000 32.8075 0.0000 0.0000
# 5 0.0000 0.0000 0.0000 0.0000 27.3932 0.0000
# 6 0.0000 0.0000 0.0000 0.0000 0.0000 28.2395
#
#
#
# Elastic Compliance Matrix: (Units=1/GPa)
#
#
# Indices 1 2 3 4 5 6 
#
# 1 0.013313 -0.008494 -0.006156 0.000000 0.000000 0.000000
# 2 -0.008494 0.036364 -0.003071 0.000000 0.000000 0.000000
# 3 -0.006156 -0.003071 0.015298 0.000000 0.000000 0.000000
# 4 0.000000 0.000000 0.000000 0.030481 0.000000 0.000000
# 5 0.000000 0.000000 0.000000 0.000000 0.036505 0.000000
# 6 0.000000 0.000000 0.000000 0.000000 0.000000 0.035411
#
#
# Mechanical properties :
#
#
# Convention : Reuss Voigt Hill
#
# Bulk Modulus (GPa) = 33.86145 52.32446 43.09295
# Shear Modulus (GPa) = 23.51171 27.10740 25.30956
#
# Velocity S-wave (km/s) = 3.37965 3.62889 3.50649
# Velocity P-wave (km/s) = 5.62844 6.55575 6.10971
#
# Compressibility (1/GPa) = 0.02953211
#
# Stress axis : x y z
#
# Youngs Moduli (GPa) = 75.11426 27.49996 65.36598
#
# Poissons Ratio (x) = 0.23360 0.40239
# Poissons Ratio (y) = 0.63805 0.20076
# Poissons Ratio (z) = 0.46240 0.08446
#
# Static dielectric constant tensor:
#      x y z
#    x 1.763320 0.000000 0.000000 
#    y 0.000000 1.717380 0.000000 
#    z 0.000000 0.000000 1.989020 
# 
# From -- ./inp_files/6101.got.cif
#   From: 2010.05.17/outbox.cif.g08.bks.cpg/sg50_4_cif.got.tgz:6101.got - 2010.06.03 11:33:33.
