data_PCOD9398193
_publ_section_title
;
Structure prediction by ZEFSAII (Michael W. Deem and Ramdas Pophale) SiO2 
 PCOD9398193
Probable space group: P B A N
;
_chemical_formula_sum "Si O2"
_cell_formula_units_Z 32
_cell_length_a 11.165551
_cell_length_b 20.321104
_cell_length_c 5.134457
_cell_angle_alpha 90.000000
_cell_angle_beta 90.000000
_cell_angle_gamma 90.000000
_cell_volume 1164.989414
_symmetry_space_group_name_H-M "P B A N"
_symmetry_group_IT_number 50
_space_group.IT_coordinate_system_code '2'
_symmetry_cell_setting 'orthorhombic'
loop_
_space_group_symop_operation_xyz
x,y,z
1/2-x,1/2-y,z
x,1/2-y,-z
1/2-x,y,-z
-x,-y,-z
1/2+x,1/2+y,-z
-x,1/2+y,z
1/2+x,-y,z
loop_
_atom_site_type_symbol
_atom_site_label
_atom_site_fract_x
_atom_site_fract_y
_atom_site_fract_z
Si Si1 0.916436 0.508250 0.748972
Si Si2 0.172672 0.345160 0.325313
Si Si3 0.454925 0.212789 0.799536
Si Si4 0.178695 0.870216 0.747650
O O1 0.821185 0.450382 0.745101
O O2 0.000000 0.500000 0.500000
O O3 0.856287 0.580565 0.731447
O O4 0.000000 0.500000 0.000000
O O5 0.040976 0.250000 0.500000
O O6 0.180338 0.330876 0.645179
O O7 0.121260 0.301380 0.102343
O O8 0.539169 0.148149 0.738985
O O9 0.551282 0.250000 0.000000
O O10 0.250000 0.845366 0.500000
O O11 0.250000 0.851335 0.000000
#
# Coordination Sequence:
#
# PCOD9398193 Si02
#       4
#     8   8   8   8
#     4  12  25  50  80 111 159 204 262 339 407 475
#     4  11  26  47  79 112 155 211 268 338 413 486
#     4  11  25  48  72 110 159 203 266 335 400 483
#     4  12  28  50  80 115 156 212 272 328 410 490
#
# _framework density 27.468060999999999
#
# number of rings (size 3 to 8) (size 9 to 14) (size 15 to 20)
#    0.000    0.500    2.500    5.250    7.000    2.500 
#    0.000    0.000    0.000    0.000    0.000    0.000 
#    0.000    0.000    0.000    0.000    0.000    0.000 
#
# Total GULP energy -178136.371559 kJ/mol
# GULP energy per Si atom -5566.761611 kJ/mol
# Density = 2.740554 g / cm^3
# Si number density = 27.468061 Si / 1000 Ang^3
#
#
#
# Elastic Constant Matrix: (Units=GPa)
#
#
# Indices 1 2 3 4 5 6 
#
# 1 149.0950 23.9207 123.3014 0.0000 0.0000 0.0000
# 2 23.9207 168.0273 96.0129 0.0000 0.0000 0.0000
# 3 123.3014 96.0129 318.9847 0.0000 0.0000 0.0000
# 4 0.0000 0.0000 0.0000 135.4457 0.0000 0.0000
# 5 0.0000 0.0000 0.0000 0.0000 52.6913 0.0000
# 6 0.0000 0.0000 0.0000 0.0000 0.0000 208.7273
#
#
#
# Elastic Compliance Matrix: (Units=1/GPa)
#
#
# Indices 1 2 3 4 5 6 
#
# 1 0.009982 0.000946 -0.004143 0.000000 0.000000 0.000000
# 2 0.000946 0.007277 -0.002556 0.000000 0.000000 0.000000
# 3 -0.004143 -0.002556 0.005506 0.000000 0.000000 0.000000
# 4 0.000000 0.000000 0.000000 0.007383 0.000000 0.000000
# 5 0.000000 0.000000 0.000000 0.000000 0.018978 0.000000
# 6 0.000000 0.000000 0.000000 0.000000 0.000000 0.004791
#
#
# Mechanical properties :
#
#
# Convention : Reuss Voigt Hill
#
# Bulk Modulus (GPa) = 88.81874 124.73078 106.77476
# Shear Modulus (GPa) = 72.27870 105.56432 88.92151
#
# Velocity S-wave (km/s) = 5.13526 6.20605 5.69587
# Velocity P-wave (km/s) = 8.21989 9.84182 9.06719
#
# Compressibility (1/GPa) = 0.01125889
#
# Stress axis : x y z
#
# Youngs Moduli (GPa) = 100.18269 137.41210 181.62197
#
# Poissons Ratio (x) = -0.13006 0.75251
# Poissons Ratio (y) = -0.09482 0.46428
# Poissons Ratio (z) = 0.41508 0.35127
#
# Static dielectric constant tensor:
#      x y z
#    x 3.064890 0.000000 0.000000 
#    y 0.000000 2.628050 0.000000 
#    z 0.000000 0.000000 2.215120 
# 
# From -- ./inp_files/3147.got.cif
#   From: 2010.05.17/outbox.cif.g08.bks.cpg/sg50_2_cif.got.tgz:3147.got - 2010.06.03 11:33:33.
