data_PCOD9398450
_publ_section_title
;
Structure prediction by ZEFSAII (Michael W. Deem and Ramdas Pophale) SiO2 
 PCOD9398450
Probable space group: P M M A
;
_chemical_formula_sum "Si O2"
_cell_formula_units_Z 28
_cell_length_a 8.633783
_cell_length_b 19.288818
_cell_length_c 9.056359
_cell_angle_alpha 90.000000
_cell_angle_beta 90.000000
_cell_angle_gamma 90.000000
_cell_volume 1508.204993
_symmetry_space_group_name_H-M "P M M A"
_symmetry_group_IT_number 51
_symmetry_cell_setting 'orthorhombic'
loop_
_space_group_symop_operation_xyz
x,y,z
1/2-x,-y,z
1/2+x,-y,-z
-x,y,-z
-x,-y,-z
1/2+x,y,-z
1/2-x,y,z
x,-y,z
loop_
_atom_site_type_symbol
_atom_site_label
_atom_site_fract_x
_atom_site_fract_y
_atom_site_fract_z
Si Si1 0.436215 0.861117 0.833673
Si Si2 0.435617 0.575810 0.831953
Si Si3 0.436588 0.000000 0.663840
Si Si4 0.434634 0.717664 0.168381
O O1 0.250000 0.857071 0.838157
O O2 0.501538 0.789466 0.766395
O O3 0.485359 0.929890 0.747058
O O4 0.500000 0.866812 0.000000
O O5 0.250000 0.582375 0.837802
O O6 0.474143 0.500000 0.765824
O O7 0.506295 0.645452 0.762746
O O8 0.500000 0.573757 0.000000
O O9 0.500000 0.000000 0.500000
O O10 0.250000 0.000000 0.661707
O O11 0.250000 0.718497 0.163684
O O12 0.500000 0.717633 0.000000
#
# Coordination Sequence:
#
# PCOD9398450 Si02
#       4
#     8   8   4   8
#     4  10  19  33  51  73  97 125 161 199 239 284
#     4   9  15  22  33  51  79 116 153 189 230 275
#     4  10  23  38  54  74  98 126 157 196 242 290
#     4  10  17  25  39  60  86 119 155 193 234 276
#
# _framework density 18.565114999999999
#
# number of rings (size 3 to 8) (size 9 to 14) (size 15 to 20)
#    0.000    2.286    0.000    8.143    0.000    4.000 
#    0.000    0.000    0.000    0.000    0.000    0.000 
#    0.000    1.143    0.000    3.714    0.000   14.000 
#
# Total GULP energy -156046.698241 kJ/mol
# GULP energy per Si atom -5573.096366 kJ/mol
# Density = 1.852286 g / cm^3
# Si number density = 18.565115 Si / 1000 Ang^3
#
#
#
# Elastic Constant Matrix: (Units=GPa)
#
#
# Indices 1 2 3 4 5 6 
#
# 1 101.3176 71.7160 11.7678 0.0000 0.0000 0.0000
# 2 71.7160 251.7230 43.4323 0.0000 0.0000 0.0000
# 3 11.7678 43.4323 24.9616 0.0000 0.0000 0.0000
# 4 0.0000 0.0000 0.0000 -4.7697 0.0000 0.0000
# 5 0.0000 0.0000 0.0000 0.0000 13.0124 0.0000
# 6 0.0000 0.0000 0.0000 0.0000 0.0000 31.2464
#
#
#
# Elastic Compliance Matrix: (Units=1/GPa)
#
#
# Indices 1 2 3 4 5 6 
#
# 1 0.012366 -0.003597 0.000429 0.000000 0.000000 0.000000
# 2 -0.003597 0.006723 -0.010002 0.000000 0.000000 0.000000
# 3 0.000429 -0.010002 0.057263 0.000000 0.000000 0.000000
# 4 0.000000 0.000000 0.000000 -0.209657 0.000000 0.000000
# 5 0.000000 0.000000 0.000000 0.000000 0.076850 0.000000
# 6 0.000000 0.000000 0.000000 0.000000 0.000000 0.032004
#
#
# Mechanical properties :
#
#
# Convention : Reuss Voigt Hill
#
# Bulk Modulus (GPa) = 19.99534 70.20382 45.09958
# Shear Modulus (GPa) = 269.39092 24.63689 147.01391
#
# Velocity S-wave (km/s) = 12.05906 3.64683 8.90843
# Velocity P-wave (km/s) = 14.30694 7.45852 11.40872
#
# Compressibility (1/GPa) = 0.05001165
#
# Stress axis : x y z
#
# Youngs Moduli (GPa) = 80.86463 148.73661 17.46326
#
# Poissons Ratio (x) = 0.53504 -0.00749
# Poissons Ratio (y) = 0.29089 0.17468
# Poissons Ratio (z) = -0.03470 1.48773
#
# Static dielectric constant tensor:
#      x y z
#    x 1.619060 0.000000 0.000000 
#    y 0.000000 1.746000 0.000000 
#    z 0.000000 0.000000 1.587820 
# 
# From -- ./inp_files/4781.got.cif
#   From: 2010.05.17/outbox.cif.g08.bks.cpg/sg51_3_cif.got.tgz:4781.got - 2010.06.03 11:52:47.
