data_PCOD9398307
_publ_section_title
;
Structure prediction by ZEFSAII (Michael W. Deem and Ramdas Pophale) SiO2 
 PCOD9398307
Probable space group: P B A N
;
_chemical_formula_sum "Si O2"
_cell_formula_units_Z 56
_cell_length_a 9.000000
_cell_length_b 21.000000
_cell_length_c 15.000000
_cell_angle_alpha 90.000000
_cell_angle_beta 90.000000
_cell_angle_gamma 90.000000
_cell_volume 2835.000000
_symmetry_space_group_name_H-M "P B A N"
_symmetry_group_IT_number 50
_space_group.IT_coordinate_system_code '2'
_symmetry_cell_setting 'orthorhombic'
loop_
_space_group_symop_operation_xyz
x,y,z
1/2-x,1/2-y,z
x,1/2-y,-z
1/2-x,y,-z
-x,-y,-z
1/2+x,1/2+y,-z
-x,1/2+y,z
1/2+x,-y,z
loop_
_atom_site_type_symbol
_atom_site_label
_atom_site_fract_x
_atom_site_fract_y
_atom_site_fract_z
Si Si1 0.095284 0.173104 0.110654
Si Si2 0.914997 0.421067 0.184648
Si Si3 0.750000 0.108478 0.500000
Si Si4 0.000206 0.536070 0.392672
Si Si5 0.998890 0.383565 0.380415
Si Si6 0.750000 0.891028 0.500000
Si Si7 0.067368 0.948259 0.810571
Si Si8 0.430649 0.314402 0.898492
O O1 0.268165 0.164278 0.138114
O O2 0.042541 0.243698 0.140489
O O3 0.000201 0.112429 0.139131
O O4 0.090417 0.182582 0.004543
O O5 0.976045 0.388116 0.275584
O O6 0.745466 0.443208 0.193832
O O7 0.012714 0.482372 0.156286
O O8 0.937728 0.363492 0.117710
O O9 0.646353 0.066082 0.563630
O O10 0.640900 0.144932 0.433304
O O11 0.003424 0.552797 0.289320
O O12 0.000539 0.460071 0.401594
O O13 0.857531 0.566925 0.438177
O O14 0.144442 0.356038 0.428449
#
# Coordination Sequence:
#
# PCOD9398307 Si02
#       8
#     8   8   4   8   8   4   8   8
#     4   9  20  41  66  87 109 143 187 231 278 340
#     4  11  23  35  54  85 122 154 185 232 285 334
#     4  10  15  30  42  66 107 146 187 226 269 320
#     4  10  18  27  44  71 107 148 186 229 271 329
#     4  10  18  27  44  71 107 148 186 229 271 329
#     4  10  19  26  46  70 103 150 191 228 279 320
#     4  11  23  35  54  85 122 154 185 232 285 334
#     4   9  20  41  66  87 109 143 187 231 278 340
#
# _framework density 19.753086
#
# number of rings (size 3 to 8) (size 9 to 14) (size 15 to 20)
#    0.000    2.000    1.429    5.143    8.000    1.714 
#    0.000    1.429    0.000    0.000    0.000    6.000 
#    0.000    0.000    0.000    0.000    0.000    0.000 
#
# Total GULP energy -311811.063123 kJ/mol
# GULP energy per Si atom -5568.054699 kJ/mol
# Density = 1.970813 g / cm^3
# Si number density = 19.753086 Si / 1000 Ang^3
#
#
#
# Elastic Constant Matrix: (Units=GPa)
#
#
# Indices 1 2 3 4 5 6 
#
# 1 92.7648 22.5693 16.5093 0.0000 0.0000 0.0000
# 2 22.5693 58.8667 22.0662 0.0000 0.0000 0.0000
# 3 16.5093 22.0662 25.3950 0.0000 0.0000 0.0000
# 4 0.0000 0.0000 0.0000 -688.1007 0.0000 0.0000
# 5 0.0000 0.0000 0.0000 0.0000 25.9232 0.0000
# 6 0.0000 0.0000 0.0000 0.0000 0.0000 14.5221
#
#
#
# Elastic Compliance Matrix: (Units=1/GPa)
#
#
# Indices 1 2 3 4 5 6 
#
# 1 0.012449 -0.002579 -0.005852 0.000000 0.000000 0.000000
# 2 -0.002579 0.025728 -0.020679 0.000000 0.000000 0.000000
# 3 -0.005852 -0.020679 0.061150 0.000000 0.000000 0.000000
# 4 0.000000 0.000000 0.000000 -0.001453 0.000000 0.000000
# 5 0.000000 0.000000 0.000000 0.000000 0.038576 0.000000
# 6 0.000000 0.000000 0.000000 0.000000 0.000000 0.068861
#
#
# Mechanical properties :
#
#
# Convention : Reuss Voigt Hill
#
# Bulk Modulus (GPa) = 24.32650 33.25735 28.79192
# Shear Modulus (GPa) = 18.03544 -121.80565 -51.88510
#
# Velocity S-wave (km/s) = 3.02494 -7.86117 -5.13068
# Velocity P-wave (km/s) = 4.95403 8.09470 4.52669
#
# Compressibility (1/GPa) = 0.04110744
#
# Stress axis : x y z
#
# Youngs Moduli (GPa) = 80.32809 38.86849 16.35317
#
# Poissons Ratio (x) = 0.10025 0.09570
# Poissons Ratio (y) = 0.20719 0.33816
# Poissons Ratio (z) = 0.47007 0.80374
#
# Static dielectric constant tensor:
#      x y z
#    x 1.742430 0.000000 0.000000 
#    y 0.000000 1.685500 0.000000 
#    z 0.000000 0.000000 1.796620 
# 
# From -- ./inp_files/25278.got.cif
#   From: 2010.05.17/outbox.ucp.g08.bks.cvg/sg50_13_cif.got.tgz:25278.got - 2010.06.11 16:26:39.
