data_PCOD9398085
_publ_section_title
;
Structure prediction by ZEFSAII (Michael W. Deem and Ramdas Pophale) SiO2 
 PCOD9398085
Probable space group: P B A N
;
_chemical_formula_sum "Si O2"
_cell_formula_units_Z 56
_cell_length_a 13.850130
_cell_length_b 13.853789
_cell_length_c 12.614665
_cell_angle_alpha 90.000000
_cell_angle_beta 90.000000
_cell_angle_gamma 90.000000
_cell_volume 2420.461284
_symmetry_space_group_name_H-M "P B A N"
_symmetry_group_IT_number 50
_space_group.IT_coordinate_system_code '2'
_symmetry_cell_setting 'orthorhombic'
loop_
_space_group_symop_operation_xyz
x,y,z
1/2-x,1/2-y,z
x,1/2-y,-z
1/2-x,y,-z
-x,-y,-z
1/2+x,1/2+y,-z
-x,1/2+y,z
1/2+x,-y,z
loop_
_atom_site_type_symbol
_atom_site_label
_atom_site_fract_x
_atom_site_fract_y
_atom_site_fract_z
Si Si1 0.148629 0.950937 0.949786
Si Si2 0.906555 0.995167 0.610711
Si Si3 0.458547 0.307295 0.289338
Si Si4 0.409489 0.374657 0.590565
Si Si5 0.646863 0.212058 0.619023
Si Si6 0.061696 0.146292 0.051600
Si Si7 0.703430 0.021727 0.706745
O O1 0.172129 0.953538 0.824915
O O2 0.050790 0.887520 0.961590
O O3 0.250000 0.916364 0.000000
O O4 0.122475 0.056604 0.001871
O O5 0.969628 0.915389 0.669582
O O6 0.868794 0.928730 0.513402
O O7 0.817358 0.021949 0.684733
O O8 0.980336 0.082421 0.588457
O O9 0.409166 0.238325 0.378206
O O10 0.566239 0.264142 0.294345
O O11 0.416442 0.326404 0.174360
O O12 0.346001 0.420032 0.683694
O O13 0.750000 0.250000 0.652999
O O14 0.626655 0.250000 0.500000
O O15 0.663450 0.097781 0.620435
O O16 0.077455 0.250000 0.000000
#
# Coordination Sequence:
#
# PCOD9398085 Si02
#       7
#     8   8   8   8   8   8   8
#     4  11  25  47  71 101 142 184 245 311 367 433
#     4  11  24  41  68  98 143 188 229 286 357 433
#     4  12  23  45  67 100 137 184 235 292 358 428
#     4  11  24  40  67  99 142 182 232 282 355 434
#     4  11  24  38  67  99 141 179 234 287 353 432
#     4  11  25  46  73 100 140 184 242 309 371 437
#     4  12  24  44  67 102 139 187 237 294 359 428
#
# _framework density 23.136087
#
# number of rings (size 3 to 8) (size 9 to 14) (size 15 to 20)
#    0.000    0.714    2.857    4.286    6.000    5.714 
#    0.000    4.286    0.000    0.000    0.000    0.000 
#    0.000    0.000    0.000    0.000    0.000    0.000 
#
# Total GULP energy -312202.826707 kJ/mol
# GULP energy per Si atom -5575.050477 kJ/mol
# Density = 2.308343 g / cm^3
# Si number density = 23.136087 Si / 1000 Ang^3
#
#
#
# Elastic Constant Matrix: (Units=GPa)
#
#
# Indices 1 2 3 4 5 6 
#
# 1 73.7901 -10.1774 -0.9484 0.0000 0.0000 0.0000
# 2 -10.1774 99.9780 13.4845 0.0000 0.0000 0.0000
# 3 -0.9484 13.4845 91.2306 0.0000 0.0000 0.0000
# 4 0.0000 0.0000 0.0000 26.3572 0.0000 0.0000
# 5 0.0000 0.0000 0.0000 0.0000 32.3324 0.0000
# 6 0.0000 0.0000 0.0000 0.0000 0.0000 20.8915
#
#
#
# Elastic Compliance Matrix: (Units=1/GPa)
#
#
# Indices 1 2 3 4 5 6 
#
# 1 0.013745 0.001408 -0.000065 0.000000 0.000000 0.000000
# 2 0.001408 0.010350 -0.001515 0.000000 0.000000 0.000000
# 3 -0.000065 -0.001515 0.011184 0.000000 0.000000 0.000000
# 4 0.000000 0.000000 0.000000 0.037940 0.000000 0.000000
# 5 0.000000 0.000000 0.000000 0.000000 0.030929 0.000000
# 6 0.000000 0.000000 0.000000 0.000000 0.000000 0.047866
#
#
# Mechanical properties :
#
#
# Convention : Reuss Voigt Hill
#
# Bulk Modulus (GPa) = 28.62457 29.96845 29.29651
# Shear Modulus (GPa) = 30.48690 33.42554 31.95622
#
# Velocity S-wave (km/s) = 3.63398 3.80509 3.72052
# Velocity P-wave (km/s) = 5.47785 5.68210 5.58091
#
# Compressibility (1/GPa) = 0.03493502
#
# Stress axis : x y z
#
# Youngs Moduli (GPa) = 72.75205 96.61937 89.40946
#
# Poissons Ratio (x) = -0.13604 0.00583
# Poissons Ratio (y) = -0.10244 0.13547
# Poissons Ratio (z) = 0.00475 0.14639
#
# Static dielectric constant tensor:
#      x y z
#    x 1.950610 0.000000 0.000000 
#    y 0.000000 1.904960 0.000000 
#    z 0.000000 0.000000 3.053780 
# 
# From -- ./inp_files/21141.got.cif
#   From: 2010.05.17/outbox.cif.g08.bks.cpg/sg50_11_cif.got.tgz:21141.got - 2010.06.03 11:33:33.
