data_PCOD9398226
_publ_section_title
;
Structure prediction by ZEFSAII (Michael W. Deem and Ramdas Pophale) SiO2 
 PCOD9398226
Probable space group: P B A N
;
_chemical_formula_sum "Si O2"
_cell_formula_units_Z 30
_cell_length_a 12.303823
_cell_length_b 18.940149
_cell_length_c 5.733749
_cell_angle_alpha 90.000000
_cell_angle_beta 90.000000
_cell_angle_gamma 90.000000
_cell_volume 1336.171313
_symmetry_space_group_name_H-M "P B A N"
_symmetry_group_IT_number 50
_space_group.IT_coordinate_system_code '2'
_symmetry_cell_setting 'orthorhombic'
loop_
_space_group_symop_operation_xyz
x,y,z
1/2-x,1/2-y,z
x,1/2-y,-z
1/2-x,y,-z
-x,-y,-z
1/2+x,1/2+y,-z
-x,1/2+y,z
1/2+x,-y,z
loop_
_atom_site_type_symbol
_atom_site_label
_atom_site_fract_x
_atom_site_fract_y
_atom_site_fract_z
Si Si1 0.068223 0.648195 0.210597
Si Si2 0.559762 0.750000 0.500000
Si Si3 0.136313 0.150474 0.865781
Si Si4 0.750000 0.250000 0.000000
Si Si5 0.313515 0.996667 0.253865
O O1 0.103118 0.567965 0.242546
O O2 0.016902 0.684709 0.435319
O O3 0.170138 0.697257 0.139265
O O4 0.971313 0.652145 0.023441
O O5 0.630597 0.718919 0.294543
O O6 0.136708 0.075022 0.734921
O O7 0.250000 0.150983 0.000000
O O8 0.250000 0.987026 0.500000
O O9 0.250000 0.992977 0.000000
#
# Coordination Sequence:
#
# PCOD9398226 Si02
#       5
#     8   4   8   2   8
#     4  12  27  49  79 111 161 205 262 333 398 476
#     4  12  28  46  82 114 152 215 257 336 394 480
#     4  11  28  53  74 116 156 209 268 326 399 474
#     4  12  24  50  70 120 154 200 268 330 414 456
#     4  11  28  51  82 116 160 212 266 331 394 479
#
# _framework density 22.452210000000001
#
# number of rings (size 3 to 8) (size 9 to 14) (size 15 to 20)
#    0.000    0.533    4.000    0.800   14.933    4.267 
#    0.000    0.000    0.000    0.000    0.000    0.000 
#    0.000    0.000    0.000    0.000    0.000    0.000 
#
# Total GULP energy -167781.131718 kJ/mol
# GULP energy per Si atom -5592.704391 kJ/mol
# Density = 2.240111 g / cm^3
# Si number density = 22.452210 Si / 1000 Ang^3
#
#
#
# Elastic Constant Matrix: (Units=GPa)
#
#
# Indices 1 2 3 4 5 6 
#
# 1 138.6274 59.5319 50.2581 0.0000 0.0000 0.0000
# 2 59.5319 139.0013 24.1491 0.0000 0.0000 0.0000
# 3 50.2581 24.1491 92.0552 0.0000 0.0000 0.0000
# 4 0.0000 0.0000 0.0000 98.0140 0.0000 0.0000
# 5 0.0000 0.0000 0.0000 0.0000 19.1817 0.0000
# 6 0.0000 0.0000 0.0000 0.0000 0.0000 6.4111
#
#
#
# Elastic Compliance Matrix: (Units=1/GPa)
#
#
# Indices 1 2 3 4 5 6 
#
# 1 0.010527 -0.003678 -0.004782 0.000000 0.000000 0.000000
# 2 -0.003678 0.008822 -0.000307 0.000000 0.000000 0.000000
# 3 -0.004782 -0.000307 0.013554 0.000000 0.000000 0.000000
# 4 0.000000 0.000000 0.000000 0.010203 0.000000 0.000000
# 5 0.000000 0.000000 0.000000 0.000000 0.052133 0.000000
# 6 0.000000 0.000000 0.000000 0.000000 0.000000 0.155980
#
#
# Mechanical properties :
#
#
# Convention : Reuss Voigt Hill
#
# Bulk Modulus (GPa) = 65.05970 70.84024 67.94997
# Shear Modulus (GPa) = 18.25643 40.43767 29.34705
#
# Velocity S-wave (km/s) = 2.85463 4.24849 3.61929
# Velocity P-wave (km/s) = 6.31705 7.46232 6.91344
#
# Compressibility (1/GPa) = 0.01537050
#
# Stress axis : x y z
#
# Youngs Moduli (GPa) = 94.99700 113.34690 73.77648
#
# Poissons Ratio (x) = 0.41684 0.35283
# Poissons Ratio (y) = 0.34935 0.02262
# Poissons Ratio (z) = 0.45431 0.03476
#
# Static dielectric constant tensor:
#      x y z
#    x 1.834020 0.000000 0.000000 
#    y 0.000000 1.787740 0.000000 
#    z 0.000000 0.000000 1.934370 
# 
# From -- ./inp_files/2028.got.cif
#   From: 2010.05.17/outbox.cif.g08.bks.cpg/sg50_2_cif.got.tgz:2028.got - 2010.06.03 11:33:33.
