data_PCOD9398534
_publ_section_title
;
Structure prediction by ZEFSAII (Michael W. Deem and Ramdas Pophale) SiO2 
 PCOD9398534
Probable space group: P M M A
;
_chemical_formula_sum "Si O2"
_cell_formula_units_Z 64
_cell_length_a 7.673659
_cell_length_b 15.007475
_cell_length_c 32.180568
_cell_angle_alpha 90.000000
_cell_angle_beta 90.000000
_cell_angle_gamma 90.000000
_cell_volume 3705.986476
_symmetry_space_group_name_H-M "P M M A"
_symmetry_group_IT_number 51
_symmetry_cell_setting 'orthorhombic'
loop_
_space_group_symop_operation_xyz
x,y,z
1/2-x,-y,z
1/2+x,-y,-z
-x,y,-z
-x,-y,-z
1/2+x,y,-z
1/2-x,y,z
x,-y,z
loop_
_atom_site_type_symbol
_atom_site_label
_atom_site_fract_x
_atom_site_fract_y
_atom_site_fract_z
Si Si1 0.463165 0.897576 0.205098
Si Si2 0.956843 0.100478 0.047227
Si Si3 0.956523 0.898669 0.455503
Si Si4 0.962480 0.598619 0.842914
Si Si5 0.037823 0.400981 0.254252
Si Si6 0.542884 0.101954 0.635028
Si Si7 0.963450 0.213767 0.713376
Si Si8 0.957184 0.215287 0.873796
O O1 0.250000 0.898440 0.204633
O O2 0.514467 0.843481 0.246186
O O3 0.524245 0.847108 0.163613
O O4 0.520484 0.000000 0.206167
O O5 0.750000 0.095114 0.050474
O O6 0.015881 0.168864 0.082174
O O7 0.029221 0.000000 0.054235
O O8 0.000000 0.126457 0.000000
O O9 0.750000 0.904572 0.453504
O O10 0.000000 0.855970 0.500000
O O11 0.015537 0.860637 0.411403
O O12 0.032160 0.000000 0.456655
O O13 0.750000 0.596697 0.844482
O O14 0.022747 0.500000 0.855880
O O15 0.008590 0.611749 0.794336
O O16 0.024753 0.684013 0.868582
O O17 0.250000 0.401430 0.255483
O O18 0.979226 0.500000 0.267153
O O19 0.978534 0.315642 0.280230
O O20 0.750000 0.095065 0.641342
O O21 0.475175 0.164524 0.671734
O O22 0.472308 0.000000 0.636753
O O23 0.750000 0.215026 0.712768
O O24 0.750000 0.220957 0.867148
#
# Coordination Sequence:
#
# PCOD9398534 Si02
#       8
#     8   8   8   8   8   8   8   8
#     4   9  15  21  32  55  85 114 144 176 206 239
#     4  10  21  36  52  69  90 115 142 174 214 259
#     4   9  16  26  40  56  75 101 136 176 213 249
#     4   8  13  22  38  63  93 119 144 178 219 257
#     4   8  12  19  32  52  81 113 143 177 214 246
#     4   9  16  24  35  53  79 111 143 173 206 244
#     4   9  14  21  32  51  81 114 144 173 205 242
#     4  10  17  27  46  70  92 115 146 182 217 254
#
# _framework density 17.269356999999999
#
# number of rings (size 3 to 8) (size 9 to 14) (size 15 to 20)
#    0.000    3.000    1.250    2.250    0.000    4.250 
#    0.000    0.000    0.000    1.500    0.000    1.750 
#    0.000    1.000    0.000    0.875    0.000    1.250 
#
# Total GULP energy -356591.437408 kJ/mol
# GULP energy per Si atom -5571.741210 kJ/mol
# Density = 1.723005 g / cm^3
# Si number density = 17.269357 Si / 1000 Ang^3
#
#
#
# Elastic Constant Matrix: (Units=GPa)
#
#
# Indices 1 2 3 4 5 6 
#
# 1 28.4498 6.9800 -2.6412 0.0000 0.0000 0.0000
# 2 6.9800 149.5532 95.6198 0.0000 0.0000 0.0000
# 3 -2.6412 95.6198 136.5680 0.0000 0.0000 0.0000
# 4 0.0000 0.0000 0.0000 10.3307 0.0000 0.0000
# 5 0.0000 0.0000 0.0000 0.0000 7.2108 0.0000
# 6 0.0000 0.0000 0.0000 0.0000 0.0000 -0.2073
#
#
#
# Elastic Compliance Matrix: (Units=1/GPa)
#
#
# Indices 1 2 3 4 5 6 
#
# 1 0.036423 -0.003893 0.003430 0.000000 0.000000 0.000000
# 2 -0.003893 0.012522 -0.008843 0.000000 0.000000 0.000000
# 3 0.003430 -0.008843 0.013580 0.000000 0.000000 0.000000
# 4 0.000000 0.000000 0.000000 0.096799 0.000000 0.000000
# 5 0.000000 0.000000 0.000000 0.000000 0.138682 0.000000
# 6 0.000000 0.000000 0.000000 0.000000 0.000000 -4.824692
#
#
# Mechanical properties :
#
#
# Convention : Reuss Voigt Hill
#
# Bulk Modulus (GPa) = 22.77170 57.16536 39.96853
# Shear Modulus (GPa) = -1.11273 17.77433 8.33080
#
# Velocity S-wave (km/s) = -0.80358 3.21166 2.19875
# Velocity P-wave (km/s) = 3.51480 6.85033 5.44430
#
# Compressibility (1/GPa) = 0.04391415
#
# Stress axis : x y z
#
# Youngs Moduli (GPa) = 27.45492 79.85866 73.63704
#
# Poissons Ratio (x) = 0.31091 -0.25260
# Poissons Ratio (y) = 0.10689 0.65116
# Poissons Ratio (z) = -0.09418 0.70618
#
# Static dielectric constant tensor:
#      x y z
#    x 1.648450 0.000000 0.000000 
#    y 0.000000 1.602260 0.000000 
#    z 0.000000 0.000000 1.607560 
# 
# From -- ./inp_files/37577.got.cif
#   From: 2010.05.17/outbox.cif.g08.bks.cpg/sg51_19_cif.got.tgz:37577.got - 2010.06.03 11:52:47.
