data_PCOD9398761
_publ_section_title
;
Structure prediction by ZEFSAII (Michael W. Deem and Ramdas Pophale) SiO2 
 PCOD9398761
Probable space group: P M M A
;
_chemical_formula_sum "Si O2"
_cell_formula_units_Z 64
_cell_length_a 29.084348
_cell_length_b 7.714304
_cell_length_c 14.348596
_cell_angle_alpha 90.000000
_cell_angle_beta 90.000000
_cell_angle_gamma 90.000000
_cell_volume 3219.329946
_symmetry_space_group_name_H-M "P M M A"
_symmetry_group_IT_number 51
_symmetry_cell_setting 'orthorhombic'
loop_
_space_group_symop_operation_xyz
x,y,z
1/2-x,-y,z
1/2+x,-y,-z
-x,y,-z
-x,-y,-z
1/2+x,y,-z
1/2-x,y,z
x,-y,z
loop_
_atom_site_type_symbol
_atom_site_label
_atom_site_fract_x
_atom_site_fract_y
_atom_site_fract_z
Si Si1 0.943648 0.293105 0.902086
Si Si2 0.197557 0.207844 0.108322
Si Si3 0.952360 0.706768 0.119777
Si Si4 0.555464 0.211718 0.398395
Si Si5 0.547455 0.788717 0.616066
Si Si6 0.375122 0.194686 0.245628
Si Si7 0.301966 0.704760 0.901710
Si Si8 0.625410 0.807751 0.253269
O O1 0.935978 0.500000 0.889480
O O2 0.907099 0.187491 0.845455
O O3 0.994456 0.252002 0.865283
O O4 0.942702 0.259367 0.011536
O O5 0.250000 0.272500 0.107275
O O6 0.169689 0.278400 0.197721
O O7 0.198081 0.000000 0.119460
O O8 0.178741 0.239397 0.003266
O O9 0.945569 0.500000 0.135085
O O10 0.917941 0.808863 0.183707
O O11 0.504961 0.269452 0.361169
O O12 0.556118 0.253567 0.507819
O O13 0.600306 0.277769 0.342804
O O14 0.555886 0.000000 0.391283
O O15 0.589932 0.724189 0.678951
O O16 0.547020 0.000000 0.624727
O O17 0.363489 0.000000 0.279204
O O18 0.250000 0.778682 0.891663
O O19 0.298416 0.500000 0.908595
O O20 0.333676 0.738990 0.811915
O O21 0.639858 0.000000 0.281750
#
# Coordination Sequence:
#
# PCOD9398761 Si02
#       8
#     8   8   8   8   8   8   8   8
#     4   9  18  30  42  59  89 125 154 183 222 271
#     4   9  18  32  48  69  97 123 149 189 239 282
#     4   9  18  31  43  59  89 127 157 180 218 274
#     4   8  15  27  44  67  95 125 154 188 230 274
#     4   8  14  27  45  66  94 125 157 190 225 272
#     4  10  18  27  45  69  89 115 153 194 233 275
#     4  10  21  36  52  69  91 124 162 193 227 278
#     4  11  20  29  47  73  95 118 153 196 238 274
#
# _framework density 19.879915
#
# number of rings (size 3 to 8) (size 9 to 14) (size 15 to 20)
#    0.000    2.750    0.000    3.750    0.000    5.250 
#    0.000    1.250    0.000    2.250    0.000    9.625 
#    0.000    2.000    0.000    0.000    0.000    0.000 
#
# Total GULP energy -356503.466117 kJ/mol
# GULP energy per Si atom -5570.366658 kJ/mol
# Density = 1.983467 g / cm^3
# Si number density = 19.879915 Si / 1000 Ang^3
#
#
#
# Elastic Constant Matrix: (Units=GPa)
#
#
# Indices 1 2 3 4 5 6 
#
# 1 77.0266 4.0265 44.0253 0.0000 0.0000 0.0000
# 2 4.0265 23.4995 -1.5686 0.0000 0.0000 0.0000
# 3 44.0253 -1.5686 65.4054 0.0000 0.0000 0.0000
# 4 0.0000 0.0000 0.0000 675.6629 0.0000 0.0000
# 5 0.0000 0.0000 0.0000 0.0000 34.7070 0.0000
# 6 0.0000 0.0000 0.0000 0.0000 0.0000 2.0561
#
#
#
# Elastic Compliance Matrix: (Units=1/GPa)
#
#
# Indices 1 2 3 4 5 6 
#
# 1 0.021602 -0.004679 -0.014653 0.000000 0.000000 0.000000
# 2 -0.004679 0.043636 0.004196 0.000000 0.000000 0.000000
# 3 -0.014653 0.004196 0.025253 0.000000 0.000000 0.000000
# 4 0.000000 0.000000 0.000000 0.001480 0.000000 0.000000
# 5 0.000000 0.000000 0.000000 0.000000 0.028813 0.000000
# 6 0.000000 0.000000 0.000000 0.000000 0.000000 0.486348
#
#
# Mechanical properties :
#
#
# Convention : Reuss Voigt Hill
#
# Bulk Modulus (GPa) = 16.60604 28.76642 22.68623
# Shear Modulus (GPa) = 7.60483 150.44843 79.02663
#
# Velocity S-wave (km/s) = 1.95798 8.70878 6.31176
# Velocity P-wave (km/s) = 3.67191 10.75292 8.03456
#
# Compressibility (1/GPa) = 0.06021906
#
# Stress axis : x y z
#
# Youngs Moduli (GPa) = 46.29161 22.91682 39.59923
#
# Poissons Ratio (x) = 0.10724 0.58025
# Poissons Ratio (y) = 0.21662 -0.16617
# Poissons Ratio (z) = 0.67831 -0.09617
#
# Static dielectric constant tensor:
#      x y z
#    x 1.757550 0.000000 0.000000 
#    y 0.000000 1.740530 0.000000 
#    z 0.000000 0.000000 1.720980 
# 
# From -- ./inp_files/26728.got.cif
#   From: 2010.05.17/outbox.cif.g08.bks.cpg/sg51_14_cif.got.tgz:26728.got - 2010.06.03 11:52:47.
