data_PCOD9398428
_publ_section_title
;
Structure prediction by ZEFSAII (Michael W. Deem and Ramdas Pophale) SiO2 
 PCOD9398428
Probable space group: P M M A
;
_chemical_formula_sum "Si O2"
_cell_formula_units_Z 56
_cell_length_a 20.613154
_cell_length_b 9.127480
_cell_length_c 18.489501
_cell_angle_alpha 90.000000
_cell_angle_beta 90.000000
_cell_angle_gamma 90.000000
_cell_volume 3478.728445
_symmetry_space_group_name_H-M "P M M A"
_symmetry_group_IT_number 51
_symmetry_cell_setting 'orthorhombic'
loop_
_space_group_symop_operation_xyz
x,y,z
1/2-x,-y,z
1/2+x,-y,-z
-x,y,-z
-x,-y,-z
1/2+x,y,-z
1/2-x,y,z
x,-y,z
loop_
_atom_site_type_symbol
_atom_site_label
_atom_site_fract_x
_atom_site_fract_y
_atom_site_fract_z
Si Si1 0.176489 0.823688 0.928790
Si Si2 0.885983 0.327980 0.206488
Si Si3 0.077247 0.330728 0.480335
Si Si4 0.541694 0.326184 0.806936
Si Si5 0.552824 0.173966 0.660432
Si Si6 0.086026 0.324182 0.637520
Si Si7 0.566919 0.823905 0.957597
O O1 0.250000 0.776718 0.943755
O O2 0.152805 0.763754 0.851856
O O3 0.174606 0.000000 0.926492
O O4 0.126064 0.777696 0.990840
O O5 0.873876 0.500000 0.194210
O O6 0.871867 0.295430 0.291009
O O7 0.963350 0.302645 0.195724
O O8 0.089919 0.500000 0.461539
O O9 0.089852 0.231082 0.410970
O O10 0.111551 0.294943 0.556744
O O11 0.000000 0.321213 0.500000
O O12 0.552473 0.500000 0.804260
O O13 0.571559 0.249544 0.736023
O O14 0.566649 0.256235 0.880972
O O15 0.479104 0.230244 0.647585
O O16 0.555263 0.000000 0.666003
O O17 0.069415 0.500000 0.639765
O O18 0.569561 0.000000 0.946587
O O19 0.500000 0.791762 0.000000
#
# Coordination Sequence:
#
# PCOD9398428 Si02
#       7
#     8   8   8   8   8   8   8
#     4  10  21  35  49  67  94 124 151 186 237 286
#     4   9  17  29  45  65  88 116 154 193 226 268
#     4   8  13  23  36  50  78 117 151 181 221 270
#     4  10  19  30  45  65  89 118 154 192 234 278
#     4  10  17  23  35  57  86 116 149 187 227 269
#     4   8  15  26  38  55  81 116 152 186 224 266
#     4  10  19  32  50  70  91 117 154 195 233 277
#
# _framework density 16.097835
#
# number of rings (size 3 to 8) (size 9 to 14) (size 15 to 20)
#    0.000    2.714    1.429    3.429    0.000    6.000 
#    0.000    0.000    0.000    0.000    0.000    0.000 
#    0.000    1.143    0.000    8.286    0.000    6.286 
#
# Total GULP energy -311794.688878 kJ/mol
# GULP energy per Si atom -5567.762301 kJ/mol
# Density = 1.606120 g / cm^3
# Si number density = 16.097835 Si / 1000 Ang^3
#
#
#
# Elastic Constant Matrix: (Units=GPa)
#
#
# Indices 1 2 3 4 5 6 
#
# 1 46.1293 26.2755 46.8557 0.0000 0.0000 0.0000
# 2 26.2755 54.9337 71.2334 0.0000 0.0000 0.0000
# 3 46.8557 71.2334 179.0760 0.0000 0.0000 0.0000
# 4 0.0000 0.0000 0.0000 24.5551 0.0000 0.0000
# 5 0.0000 0.0000 0.0000 0.0000 7.5822 0.0000
# 6 0.0000 0.0000 0.0000 0.0000 0.0000 8.6515
#
#
#
# Elastic Compliance Matrix: (Units=1/GPa)
#
#
# Indices 1 2 3 4 5 6 
#
# 1 0.031569 -0.009064 -0.004655 0.000000 0.000000 0.000000
# 2 -0.009064 0.040199 -0.013619 0.000000 0.000000 0.000000
# 3 -0.004655 -0.013619 0.012219 0.000000 0.000000 0.000000
# 4 0.000000 0.000000 0.000000 0.040725 0.000000 0.000000
# 5 0.000000 0.000000 0.000000 0.000000 0.131888 0.000000
# 6 0.000000 0.000000 0.000000 0.000000 0.000000 0.115587
#
#
# Mechanical properties :
#
#
# Convention : Reuss Voigt Hill
#
# Bulk Modulus (GPa) = 34.11535 63.20757 48.66146
# Shear Modulus (GPa) = 11.45126 17.20939 14.33032
#
# Velocity S-wave (km/s) = 2.67002 3.27318 2.98686
# Velocity P-wave (km/s) = 5.54471 7.32358 6.49533
#
# Compressibility (1/GPa) = 0.02931232
#
# Stress axis : x y z
#
# Youngs Moduli (GPa) = 31.67657 24.87620 81.83699
#
# Poissons Ratio (x) = 0.22549 0.38091
# Poissons Ratio (y) = 0.28713 1.11452
# Poissons Ratio (z) = 0.14744 0.33878
#
# Static dielectric constant tensor:
#      x y z
#    x 1.523080 0.000000 0.000000 
#    y 0.000000 1.533510 0.000000 
#    z 0.000000 0.000000 1.579130 
# 
# From -- ./inp_files/30403.got.cif
#   From: 2010.05.17/outbox.cif.g08.bks.cpg/sg51_16_cif.got.tgz:30403.got - 2010.06.03 11:52:47.
