data_PCOD9398010
_publ_section_title
;
Structure prediction by ZEFSAII (Michael W. Deem and Ramdas Pophale) SiO2 
 PCOD9398010
Probable space group: P B A N
;
_chemical_formula_sum "Si O2"
_cell_formula_units_Z 56
_cell_length_a 14.603034
_cell_length_b 11.992555
_cell_length_c 14.434110
_cell_angle_alpha 90.000000
_cell_angle_beta 90.000000
_cell_angle_gamma 90.000000
_cell_volume 2527.812319
_symmetry_space_group_name_H-M "P B A N"
_symmetry_group_IT_number 50
_space_group.IT_coordinate_system_code '2'
_symmetry_cell_setting 'orthorhombic'
loop_
_space_group_symop_operation_xyz
x,y,z
1/2-x,1/2-y,z
x,1/2-y,-z
1/2-x,y,-z
-x,-y,-z
1/2+x,1/2+y,-z
-x,1/2+y,z
1/2+x,-y,z
loop_
_atom_site_type_symbol
_atom_site_label
_atom_site_fract_x
_atom_site_fract_y
_atom_site_fract_z
Si Si1 0.193399 0.854967 0.365744
Si Si2 0.845571 0.234449 0.837925
Si Si3 0.007629 0.375172 0.452276
Si Si4 0.787300 0.912189 0.398818
Si Si5 0.409202 0.974490 0.130533
Si Si6 0.740450 0.874139 0.804099
Si Si7 0.112340 0.517636 0.916262
O O1 0.250000 0.750000 0.401066
O O2 0.177651 0.829788 0.256914
O O3 0.091052 0.868627 0.403145
O O4 0.258225 0.958706 0.388691
O O5 0.750000 0.250000 0.889767
O O6 0.882491 0.357213 0.823774
O O7 0.902903 0.148913 0.897175
O O8 0.014878 0.250000 0.500000
O O9 0.000000 0.500000 0.500000
O O10 0.104399 0.387352 0.398510
O O11 0.750000 0.876048 0.500000
O O12 0.738922 0.867037 0.305743
O O13 0.517449 0.967534 0.118572
O O14 0.361136 0.073884 0.186285
O O15 0.372966 0.991654 0.025601
O O16 0.750000 0.750000 0.843674
O O17 0.807133 0.959314 0.858128
#
# Coordination Sequence:
#
# PCOD9398010 Si02
#       7
#     8   8   8   8   8   8   8
#     4  11  24  48  76 107 152 195 253 316 381 460
#     4  11  22  46  74 106 140 192 243 305 364 444
#     4  12  28  47  76 112 144 208 262 320 394 465
#     4  12  27  48  73 106 151 192 254 318 383 454
#     4  11  26  45  74 107 147 190 244 303 373 454
#     4  12  28  46  71 104 146 196 241 306 376 448
#     4  11  25  46  71 109 146 191 241 305 375 442
#
# _framework density 22.153542999999999
#
# number of rings (size 3 to 8) (size 9 to 14) (size 15 to 20)
#    0.000    0.571    4.286    2.571    6.000    1.714 
#    0.000    0.000    0.000    0.000    0.000    0.000 
#    0.000    0.000    0.000    0.000    0.000    0.000 
#
# Total GULP energy -312321.562824 kJ/mol
# GULP energy per Si atom -5577.170765 kJ/mol
# Density = 2.210312 g / cm^3
# Si number density = 22.153543 Si / 1000 Ang^3
#
#
#
# Elastic Constant Matrix: (Units=GPa)
#
#
# Indices 1 2 3 4 5 6 
#
# 1 116.7623 35.8084 37.9915 0.0000 0.0000 0.0000
# 2 35.8084 156.4209 12.5495 0.0000 0.0000 0.0000
# 3 37.9915 12.5495 74.7782 0.0000 0.0000 0.0000
# 4 0.0000 0.0000 0.0000 16.1969 0.0000 0.0000
# 5 0.0000 0.0000 0.0000 0.0000 11.9216 0.0000
# 6 0.0000 0.0000 0.0000 0.0000 0.0000 39.2340
#
#
#
# Elastic Compliance Matrix: (Units=1/GPa)
#
#
# Indices 1 2 3 4 5 6 
#
# 1 0.010888 -0.002077 -0.005183 0.000000 0.000000 0.000000
# 2 -0.002077 0.006876 -0.000099 0.000000 0.000000 0.000000
# 3 -0.005183 -0.000099 0.016023 0.000000 0.000000 0.000000
# 4 0.000000 0.000000 0.000000 0.061740 0.000000 0.000000
# 5 0.000000 0.000000 0.000000 0.000000 0.083881 0.000000
# 6 0.000000 0.000000 0.000000 0.000000 0.000000 0.025488
#
#
# Mechanical properties :
#
#
# Convention : Reuss Voigt Hill
#
# Bulk Modulus (GPa) = 52.43972 57.85113 55.14543
# Shear Modulus (GPa) = 22.12678 30.91128 26.51903
#
# Velocity S-wave (km/s) = 3.16380 3.73945 3.46360
# Velocity P-wave (km/s) = 6.08840 6.69441 6.39858
#
# Compressibility (1/GPa) = 0.01906952
#
# Stress axis : x y z
#
# Youngs Moduli (GPa) = 91.84685 145.42630 62.41125
#
# Poissons Ratio (x) = 0.30199 0.32348
# Poissons Ratio (y) = 0.19073 0.00618
# Poissons Ratio (z) = 0.47605 0.01439
#
# Static dielectric constant tensor:
#      x y z
#    x 1.696740 0.000000 0.000000 
#    y 0.000000 2.001800 0.000000 
#    z 0.000000 0.000000 1.888740 
# 
# From -- ./inp_files/26499.got.cif
#   From: 2010.05.17/outbox.cif.g08.bks.cpg/sg50_14_cif.got.tgz:26499.got - 2010.06.03 11:33:33.
