data_PCOD9398250
_publ_section_title
;
Structure prediction by ZEFSAII (Michael W. Deem and Ramdas Pophale) SiO2 
 PCOD9398250
Probable space group: P B A N
;
_chemical_formula_sum "Si O2"
_cell_formula_units_Z 24
_cell_length_a 13.662954
_cell_length_b 5.348021
_cell_length_c 13.254770
_cell_angle_alpha 90.000000
_cell_angle_beta 90.000000
_cell_angle_gamma 90.000000
_cell_volume 968.522928
_symmetry_space_group_name_H-M "P B A N"
_symmetry_group_IT_number 50
_space_group.IT_coordinate_system_code '2'
_symmetry_cell_setting 'orthorhombic'
loop_
_space_group_symop_operation_xyz
x,y,z
1/2-x,1/2-y,z
x,1/2-y,-z
1/2-x,y,-z
-x,-y,-z
1/2+x,1/2+y,-z
-x,1/2+y,z
1/2+x,-y,z
loop_
_atom_site_type_symbol
_atom_site_label
_atom_site_fract_x
_atom_site_fract_y
_atom_site_fract_z
Si Si1 0.250000 0.250000 0.500000
Si Si2 0.440709 0.750000 0.500000
Si Si3 0.750000 0.750000 0.000000
Si Si4 0.433998 0.080927 0.126798
Si Si5 0.836737 0.410649 0.675983
O O1 0.194077 0.420661 0.419588
O O2 0.500000 0.500000 0.500000
O O3 0.391155 0.708478 0.390854
O O4 0.670008 0.904969 0.933468
O O5 0.498302 0.333868 0.108515
O O6 0.399003 0.058127 0.242788
O O7 0.750000 0.250000 0.726865
#
# Coordination Sequence:
#
# PCOD9398250 Si02
#       5
#     2   4   2   8   8
#     4  12  22  44  76 114 164 240 278 332 412 478
#     4  12  24  42  67 105 158 212 268 336 394 476
#     4  12  30  62  96 118 176 210 278 374 432 514
#     4  12  31  55  88 129 164 218 285 350 436 513
#     4  12  26  46  75 114 168 223 280 340 409 496
#
# _framework density 24.780000000000001
#
# number of rings (size 3 to 8) (size 9 to 14) (size 15 to 20)
#    0.000    0.000    3.333    5.000    9.333    1.333 
#    0.000    0.000    0.000    0.000    0.000    0.000 
#    0.000    0.000    0.000    0.000    0.000    0.000 
#
# Total GULP energy -133888.044792 kJ/mol
# GULP energy per Si atom -5578.668533 kJ/mol
# Density = 2.472360 g / cm^3
# Si number density = 24.780000 Si / 1000 Ang^3
#
#
#
# Elastic Constant Matrix: (Units=GPa)
#
#
# Indices 1 2 3 4 5 6 
#
# 1 167.4424 85.7002 74.5651 0.0000 0.0000 0.0000
# 2 85.7002 159.2295 46.7745 0.0000 0.0000 0.0000
# 3 74.5651 46.7745 159.4774 0.0000 0.0000 0.0000
# 4 0.0000 0.0000 0.0000 17.1553 0.0000 0.0000
# 5 0.0000 0.0000 0.0000 0.0000 65.9068 0.0000
# 6 0.0000 0.0000 0.0000 0.0000 0.0000 -83.2958
#
#
#
# Elastic Compliance Matrix: (Units=1/GPa)
#
#
# Indices 1 2 3 4 5 6 
#
# 1 0.009562 -0.004195 -0.003241 0.000000 0.000000 0.000000
# 2 -0.004195 0.008712 -0.000594 0.000000 0.000000 0.000000
# 3 -0.003241 -0.000594 0.007960 0.000000 0.000000 0.000000
# 4 0.000000 0.000000 0.000000 0.058291 0.000000 0.000000
# 5 0.000000 0.000000 0.000000 0.000000 0.015173 0.000000
# 6 0.000000 0.000000 0.000000 0.000000 0.000000 -0.012005
#
#
# Mechanical properties :
#
#
# Convention : Reuss Voigt Hill
#
# Bulk Modulus (GPa) = 98.27203 100.02542 99.14873
# Shear Modulus (GPa) = 46.66641 18.56057 32.61349
#
# Velocity S-wave (km/s) = 4.34433 2.73978 3.63177
# Velocity P-wave (km/s) = 8.05656 7.10363 7.59505
#
# Compressibility (1/GPa) = 0.01017583
#
# Stress axis : x y z
#
# Youngs Moduli (GPa) = 104.57869 114.77936 125.62955
#
# Poissons Ratio (x) = 0.48145 0.40712
# Poissons Ratio (y) = 0.43866 0.07464
# Poissons Ratio (z) = 0.33890 0.06819
#
# Static dielectric constant tensor:
#      x y z
#    x 1.354300 0.000000 0.000000 
#    y 0.000000 2.265620 0.000000 
#    z 0.000000 0.000000 1.985390 
# 
# From -- ./inp_files/26149.got.cif
#   From: 2010.05.17/outbox.cif.g08.bks.cpg/sg50_14_cif.got.tgz:26149.got - 2010.06.03 11:33:33.
