data_PCOD9398408
_publ_section_title
;
Structure prediction by ZEFSAII (Michael W. Deem and Ramdas Pophale) SiO2 
 PCOD9398408
Probable space group: P M M A
;
_chemical_formula_sum "Si O2"
_cell_formula_units_Z 64
_cell_length_a 23.468113
_cell_length_b 18.072423
_cell_length_c 8.819167
_cell_angle_alpha 90.000000
_cell_angle_beta 90.000000
_cell_angle_gamma 90.000000
_cell_volume 3740.435070
_symmetry_space_group_name_H-M "P M M A"
_symmetry_group_IT_number 51
_symmetry_cell_setting 'orthorhombic'
loop_
_space_group_symop_operation_xyz
x,y,z
1/2-x,-y,z
1/2+x,-y,-z
-x,y,-z
-x,-y,-z
1/2+x,y,-z
1/2-x,y,z
x,-y,z
loop_
_atom_site_type_symbol
_atom_site_label
_atom_site_fract_x
_atom_site_fract_y
_atom_site_fract_z
Si Si1 0.925153 0.772196 0.639225
Si Si2 0.520828 0.302153 0.154670
Si Si3 0.032302 0.084224 0.237687
Si Si4 0.925025 0.859584 0.088732
Si Si5 0.383875 0.679714 0.633836
Si Si6 0.317153 0.584963 0.392218
Si Si7 0.184500 0.781772 0.854759
Si Si8 0.184879 0.276111 0.193357
O O1 0.948889 0.854929 0.641396
O O2 0.917482 0.736690 0.475466
O O3 0.863309 0.769602 0.719013
O O4 0.968070 0.722217 0.739885
O O5 0.550830 0.224634 0.102607
O O6 0.568540 0.346315 0.247088
O O7 0.500000 0.338930 0.000000
O O8 0.965397 0.093762 0.199456
O O9 0.045747 0.000000 0.274222
O O10 0.063265 0.109387 0.079677
O O11 0.859391 0.850150 0.132240
O O12 0.354745 0.619072 0.527473
O O13 0.336591 0.726839 0.723321
O O14 0.250000 0.588283 0.433440
O O15 0.331725 0.500000 0.360861
O O16 0.324404 0.639609 0.248676
O O17 0.250000 0.803169 0.833907
O O18 0.179327 0.738464 0.015226
O O19 0.250000 0.256184 0.236661
#
# Coordination Sequence:
#
# PCOD9398408 Si02
#       8
#     8   8   8   8   8   8   8   8
#     4  10  17  31  48  75 103 129 169 209 259 307
#     4  10  16  29  50  73  98 132 170 218 255 293
#     4  10  17  28  51  77 104 134 164 211 269 316
#     4   9  15  28  47  74 100 129 168 215 260 302
#     4  10  20  29  50  77 105 134 171 214 256 306
#     4   9  18  34  53  75 106 140 169 204 258 315
#     4  10  18  30  49  75 102 130 174 222 259 295
#     4   9  17  30  52  74  96 127 169 217 251 294
#
# _framework density 17.110309000000001
#
# number of rings (size 3 to 8) (size 9 to 14) (size 15 to 20)
#    0.000    2.375    3.750    2.250    0.000    0.500 
#    0.000    0.625    0.000   27.750    0.000    0.000 
#    0.000    5.000    0.000    0.000    0.000    0.000 
#
# Total GULP energy -356679.270362 kJ/mol
# GULP energy per Si atom -5573.113599 kJ/mol
# Density = 1.707137 g / cm^3
# Si number density = 17.110309 Si / 1000 Ang^3
#
#
#
# Elastic Constant Matrix: (Units=GPa)
#
#
# Indices 1 2 3 4 5 6 
#
# 1 109.3210 26.5300 29.5142 0.0000 0.0000 0.0000
# 2 26.5300 70.3589 15.4840 0.0000 0.0000 0.0000
# 3 29.5142 15.4840 53.9633 0.0000 0.0000 0.0000
# 4 0.0000 0.0000 0.0000 10.6338 0.0000 0.0000
# 5 0.0000 0.0000 0.0000 0.0000 29.1549 0.0000
# 6 0.0000 0.0000 0.0000 0.0000 0.0000 15.6514
#
#
#
# Elastic Compliance Matrix: (Units=1/GPa)
#
#
# Indices 1 2 3 4 5 6 
#
# 1 0.011334 -0.003106 -0.005308 0.000000 0.000000 0.000000
# 2 -0.003106 0.016022 -0.002899 0.000000 0.000000 0.000000
# 3 -0.005308 -0.002899 0.022266 0.000000 0.000000 0.000000
# 4 0.000000 0.000000 0.000000 0.094040 0.000000 0.000000
# 5 0.000000 0.000000 0.000000 0.000000 0.034300 0.000000
# 6 0.000000 0.000000 0.000000 0.000000 0.000000 0.063892
#
#
# Mechanical properties :
#
#
# Convention : Reuss Voigt Hill
#
# Bulk Modulus (GPa) = 37.04047 41.85550 39.44799
# Shear Modulus (GPa) = 18.28312 21.89570 20.08941
#
# Velocity S-wave (km/s) = 3.27241 3.58114 3.43025
# Velocity P-wave (km/s) = 5.99777 6.45094 6.22848
#
# Compressibility (1/GPa) = 0.02699750
#
# Stress axis : x y z
#
# Youngs Moduli (GPa) = 88.22993 62.41505 44.91185
#
# Poissons Ratio (x) = 0.19384 0.23838
# Poissons Ratio (y) = 0.27401 0.13018
# Poissons Ratio (z) = 0.46831 0.18092
#
# Static dielectric constant tensor:
#      x y z
#    x 1.622530 0.000000 0.000000 
#    y 0.000000 1.550370 0.000000 
#    z 0.000000 0.000000 1.610160 
# 
# From -- ./inp_files/11950.got.cif
#   From: 2010.05.17/outbox.cif.g08.bks.cpg/sg51_6_cif.got.tgz:11950.got - 2010.06.03 11:52:47.
