data_PCOD9398581
_publ_section_title
;
Structure prediction by ZEFSAII (Michael W. Deem and Ramdas Pophale) SiO2 
 PCOD9398581
Probable space group: P M M A
;
_chemical_formula_sum "Si O2"
_cell_formula_units_Z 64
_cell_length_a 17.035217
_cell_length_b 17.748033
_cell_length_c 12.632702
_cell_angle_alpha 90.000000
_cell_angle_beta 90.000000
_cell_angle_gamma 90.000000
_cell_volume 3819.391253
_symmetry_space_group_name_H-M "P M M A"
_symmetry_group_IT_number 51
_symmetry_cell_setting 'orthorhombic'
loop_
_space_group_symop_operation_xyz
x,y,z
1/2-x,-y,z
1/2+x,-y,-z
-x,y,-z
-x,-y,-z
1/2+x,y,-z
1/2-x,y,z
x,-y,z
loop_
_atom_site_type_symbol
_atom_site_label
_atom_site_fract_x
_atom_site_fract_y
_atom_site_fract_z
Si Si1 0.109148 0.412966 0.717568
Si Si2 0.916112 0.590747 0.044870
Si Si3 0.503345 0.173500 0.629130
Si Si4 0.661989 0.087137 0.629639
Si Si5 0.659156 0.587932 0.828251
Si Si6 0.952206 0.343356 0.659674
Si Si7 0.663234 0.853769 0.398690
Si Si8 0.334891 0.320015 0.527419
O O1 0.133704 0.500000 0.717388
O O2 0.106406 0.382751 0.838070
O O3 0.159657 0.364145 0.637252
O O4 0.020908 0.403751 0.672863
O O5 0.923517 0.500000 0.056804
O O6 0.854661 0.605272 0.951825
O O7 0.000000 0.618068 0.000000
O O8 0.500000 0.170254 0.500000
O O9 0.584087 0.132654 0.663613
O O10 0.509660 0.260425 0.663197
O O11 0.419083 0.138944 0.663411
O O12 0.750000 0.115441 0.661476
O O13 0.661330 0.093013 0.501563
O O14 0.655624 0.000000 0.661062
O O15 0.750000 0.593859 0.801317
O O16 0.634489 0.500000 0.813133
O O17 0.607242 0.640713 0.754895
O O18 0.903526 0.345207 0.550959
O O19 0.750000 0.862153 0.347713
O O20 0.659827 0.768616 0.446707
O O21 0.250000 0.334161 0.476693
#
# Coordination Sequence:
#
# PCOD9398581 Si02
#       8
#     8   8   8   8   8   8   8   8
#     4  11  22  34  52  69  87 121 166 212 253 295
#     4   9  17  34  53  67  84 110 150 204 259 301
#     4  10  17  29  46  65  91 130 166 190 236 288
#     4   9  17  28  45  69  93 122 164 205 235 272
#     4  10  21  34  50  71  92 119 157 205 257 304
#     4  12  19  32  49  70  95 127 162 195 242 301
#     4   9  17  30  44  62  91 126 162 197 237 284
#     4  11  22  34  46  65  97 131 163 198 243 296
#
# _framework density 16.756596999999999
#
# number of rings (size 3 to 8) (size 9 to 14) (size 15 to 20)
#    0.000    1.875    5.000    1.125    0.000    5.000 
#    0.000    1.250    0.000    0.000    0.000    0.000 
#    0.000    0.000    0.000    3.375    0.000   11.375 
#
# Total GULP energy -356472.592255 kJ/mol
# GULP energy per Si atom -5569.884254 kJ/mol
# Density = 1.671846 g / cm^3
# Si number density = 16.756597 Si / 1000 Ang^3
#
#
#
# Elastic Constant Matrix: (Units=GPa)
#
#
# Indices 1 2 3 4 5 6 
#
# 1 112.8944 9.3982 8.5619 0.0000 0.0000 0.0000
# 2 9.3982 31.0844 7.8465 0.0000 0.0000 0.0000
# 3 8.5619 7.8465 44.9922 0.0000 0.0000 0.0000
# 4 0.0000 0.0000 0.0000 -4.0518 0.0000 0.0000
# 5 0.0000 0.0000 0.0000 0.0000 16.9422 0.0000
# 6 0.0000 0.0000 0.0000 0.0000 0.0000 13.7217
#
#
#
# Elastic Compliance Matrix: (Units=1/GPa)
#
#
# Indices 1 2 3 4 5 6 
#
# 1 0.009161 -0.002437 -0.001318 0.000000 0.000000 0.000000
# 2 -0.002437 0.034300 -0.005518 0.000000 0.000000 0.000000
# 3 -0.001318 -0.005518 0.023439 0.000000 0.000000 0.000000
# 4 0.000000 0.000000 0.000000 -0.246803 0.000000 0.000000
# 5 0.000000 0.000000 0.000000 0.000000 0.059024 0.000000
# 6 0.000000 0.000000 0.000000 0.000000 0.000000 0.072877
#
#
# Mechanical properties :
#
#
# Convention : Reuss Voigt Hill
#
# Bulk Modulus (GPa) = 20.68099 26.73157 23.70628
# Shear Modulus (GPa) = -374.90630 16.20004 -179.35313
#
# Velocity S-wave (km/s) = -14.97405 3.11269 -10.35696
# Velocity P-wave (km/s) = 16.92909 5.37643 11.35095
#
# Compressibility (1/GPa) = 0.04835358
#
# Stress axis : x y z
#
# Youngs Moduli (GPa) = 109.16223 29.15439 42.66350
#
# Poissons Ratio (x) = 0.07105 0.05624
# Poissons Ratio (y) = 0.26602 0.23542
# Poissons Ratio (z) = 0.14390 0.16088
#
# Static dielectric constant tensor:
#      x y z
#    x 1.658240 0.000000 0.000000 
#    y 0.000000 1.550550 0.000000 
#    z 0.000000 0.000000 1.543330 
# 
# From -- ./inp_files/17689.got.cif
#   From: 2010.05.17/outbox.cif.g08.bks.cpg/sg51_9_cif.got.tgz:17689.got - 2010.06.03 11:52:47.
