data_PCOD9398773
_publ_section_title
;
Structure prediction by ZEFSAII (Michael W. Deem and Ramdas Pophale) SiO2 
 PCOD9398773
Probable space group: P M M A
;
_chemical_formula_sum "Si O2"
_cell_formula_units_Z 64
_cell_length_a 7.607024
_cell_length_b 19.974040
_cell_length_c 24.460601
_cell_angle_alpha 90.000000
_cell_angle_beta 90.000000
_cell_angle_gamma 90.000000
_cell_volume 3716.617138
_symmetry_space_group_name_H-M "P M M A"
_symmetry_group_IT_number 51
_symmetry_cell_setting 'orthorhombic'
loop_
_space_group_symop_operation_xyz
x,y,z
1/2-x,-y,z
1/2+x,-y,-z
-x,y,-z
-x,-y,-z
1/2+x,y,-z
1/2-x,y,z
x,-y,z
loop_
_atom_site_type_symbol
_atom_site_label
_atom_site_fract_x
_atom_site_fract_y
_atom_site_fract_z
Si Si1 0.457261 0.074720 0.222152
Si Si2 0.034525 0.203952 0.164114
Si Si3 0.460978 0.923466 0.561655
Si Si4 0.960741 0.711148 0.937711
Si Si5 0.541624 0.152621 0.332442
Si Si6 0.964109 0.574015 0.886470
Si Si7 0.464262 0.574081 0.241650
Si Si8 0.538770 0.283894 0.727444
O O1 0.250000 0.069160 0.210872
O O2 0.528031 0.129568 0.179460
O O3 0.472555 0.108498 0.281839
O O4 0.533209 0.000000 0.221058
O O5 0.250000 0.203165 0.164223
O O6 0.975306 0.235747 0.107275
O O7 0.981113 0.251313 0.214821
O O8 0.500000 0.900962 0.500000
O O9 0.250000 0.926314 0.566185
O O10 0.527083 0.875862 0.610120
O O11 0.527610 0.000000 0.568017
O O12 0.750000 0.708956 0.931955
O O13 0.026978 0.636998 0.921394
O O14 0.000000 0.727835 0.000000
O O15 0.750000 0.143600 0.331870
O O16 0.507233 0.230357 0.319069
O O17 0.750000 0.573789 0.888184
O O18 0.023261 0.500000 0.904349
O O19 0.010875 0.582719 0.822486
O O20 0.250000 0.573291 0.243440
O O21 0.524069 0.500000 0.259194
O O22 0.524849 0.639581 0.274410
O O23 0.750000 0.286166 0.729244
#
# Coordination Sequence:
#
# PCOD9398773 Si02
#       8
#     8   8   8   8   8   8   8   8
#     4   9  17  29  47  68  84 102 134 175 213 250
#     4   8  14  26  42  58  78 102 130 166 207 249
#     4   9  18  31  45  61  85 119 154 181 204 235
#     4  10  18  28  41  56  76 103 133 169 206 246
#     4  10  19  29  42  64  94 122 143 169 208 251
#     4   8  13  22  38  58  77 101 133 166 202 244
#     4   8  12  20  39  64  84 105 138 178 214 247
#     4   9  15  26  44  64  84 109 144 181 211 246
#
# _framework density 17.219961000000001
#
# number of rings (size 3 to 8) (size 9 to 14) (size 15 to 20)
#    0.000    3.125    1.250    2.250    0.000    2.000 
#    0.000    3.750    0.000    0.750    0.000    1.750 
#    0.000    0.500    0.000    1.125    0.000    1.750 
#
# Total GULP energy -356551.503968 kJ/mol
# GULP energy per Si atom -5571.117250 kJ/mol
# Density = 1.718077 g / cm^3
# Si number density = 17.219961 Si / 1000 Ang^3
#
#
#
# Elastic Constant Matrix: (Units=GPa)
#
#
# Indices 1 2 3 4 5 6 
#
# 1 34.1267 6.2688 -0.7152 0.0000 0.0000 0.0000
# 2 6.2688 151.3915 80.8993 0.0000 0.0000 0.0000
# 3 -0.7152 80.8993 115.3087 0.0000 0.0000 0.0000
# 4 0.0000 0.0000 0.0000 21.5564 0.0000 0.0000
# 5 0.0000 0.0000 0.0000 0.0000 14.0967 0.0000
# 6 0.0000 0.0000 0.0000 0.0000 0.0000 2.1649
#
#
#
# Elastic Compliance Matrix: (Units=1/GPa)
#
#
# Indices 1 2 3 4 5 6 
#
# 1 0.029728 -0.002127 0.001677 0.000000 0.000000 0.000000
# 2 -0.002127 0.010719 -0.007534 0.000000 0.000000 0.000000
# 3 0.001677 -0.007534 0.013968 0.000000 0.000000 0.000000
# 4 0.000000 0.000000 0.000000 0.046390 0.000000 0.000000
# 5 0.000000 0.000000 0.000000 0.000000 0.070939 0.000000
# 6 0.000000 0.000000 0.000000 0.000000 0.000000 0.461914
#
#
# Mechanical properties :
#
#
# Convention : Reuss Voigt Hill
#
# Bulk Modulus (GPa) = 26.00917 52.63696 39.32306
# Shear Modulus (GPa) = 7.54782 21.85521 14.70152
#
# Velocity S-wave (km/s) = 2.09588 3.56642 2.92507
# Velocity P-wave (km/s) = 4.58190 6.89876 5.85605
#
# Compressibility (1/GPa) = 0.03844798
#
# Stress axis : x y z
#
# Youngs Moduli (GPa) = 33.63786 93.29006 71.59053
#
# Poissons Ratio (x) = 0.19842 -0.12003
# Poissons Ratio (y) = 0.07154 0.53934
# Poissons Ratio (z) = -0.05640 0.70282
#
# Static dielectric constant tensor:
#      x y z
#    x 1.645520 0.000000 0.000000 
#    y 0.000000 1.628730 0.000000 
#    z 0.000000 0.000000 1.557790 
# 
# From -- ./inp_files/32558.got.cif
#   From: 2010.05.17/outbox.cif.g08.bks.cpg/sg51_17_cif.got.tgz:32558.got - 2010.06.03 11:52:47.
