data_PCOD9398954
_publ_section_title
;
Structure prediction by ZEFSAII (Michael W. Deem and Ramdas Pophale) SiO2 
 PCOD9398954
Probable space group: P M M A
;
_chemical_formula_sum "Si O2"
_cell_formula_units_Z 64
_cell_length_a 8.717827
_cell_length_b 24.330830
_cell_length_c 19.632360
_cell_angle_alpha 90.000000
_cell_angle_beta 90.000000
_cell_angle_gamma 90.000000
_cell_volume 4164.258491
_symmetry_space_group_name_H-M "P M M A"
_symmetry_group_IT_number 51
_symmetry_cell_setting 'orthorhombic'
loop_
_space_group_symop_operation_xyz
x,y,z
1/2-x,-y,z
1/2+x,-y,-z
-x,y,-z
-x,-y,-z
1/2+x,y,-z
1/2-x,y,z
x,-y,z
loop_
_atom_site_type_symbol
_atom_site_label
_atom_site_fract_x
_atom_site_fract_y
_atom_site_fract_z
Si Si1 0.433910 0.224008 0.924592
Si Si2 0.565866 0.114353 0.428773
Si Si3 0.565431 0.667135 0.159029
Si Si4 0.564986 0.062606 0.284436
Si Si5 0.934456 0.762217 0.571237
Si Si6 0.564636 0.437568 0.075187
Si Si7 0.565876 0.272063 0.717445
Si Si8 0.933601 0.162244 0.800060
O O1 0.250000 0.222124 0.926545
O O2 0.480918 0.282656 0.891060
O O3 0.496153 0.177798 0.873055
O O4 0.500000 0.218902 0.000000
O O5 0.500000 0.091972 0.500000
O O6 0.750000 0.117611 0.433442
O O7 0.524064 0.079985 0.361779
O O8 0.498319 0.175778 0.420894
O O9 0.750000 0.667029 0.161686
O O10 0.513351 0.609443 0.127396
O O11 0.503279 0.682064 0.233390
O O12 0.750000 0.065713 0.279639
O O13 0.493990 0.106357 0.232737
O O14 0.517521 0.000000 0.271153
O O15 0.750000 0.764938 0.568138
O O16 0.980453 0.728641 0.638536
O O17 0.000000 0.740556 0.500000
O O18 0.750000 0.435798 0.071787
O O19 0.519417 0.500000 0.093819
O O20 0.500000 0.426017 0.000000
O O21 0.750000 0.275617 0.720435
O O22 0.521754 0.212963 0.750104
O O23 0.750000 0.161225 0.804603
#
# Coordination Sequence:
#
# PCOD9398954 Si02
#       8
#     8   8   8   8   8   8   8   8
#     4  10  19  31  48  71  95 119 148 183 225 269
#     4  10  19  30  46  65  88 118 150 184 221 262
#     4   9  18  29  44  67  94 124 158 191 224 264
#     4  10  21  35  49  66  89 117 149 185 224 268
#     4  10  18  29  44  65  90 118 150 183 223 271
#     4   9  17  29  44  64  93 129 165 197 225 258
#     4   9  18  30  45  65  91 118 148 188 229 268
#     4  10  19  33  50  68  90 115 146 183 225 272
#
# _framework density 15.368884
#
# number of rings (size 3 to 8) (size 9 to 14) (size 15 to 20)
#    0.000    2.375    1.250    2.625    0.000    3.500 
#    0.000    0.000    0.000    0.375    0.000    0.000 
#    0.000    0.500    0.000    1.125    0.000    1.750 
#
# Total GULP energy -356892.169119 kJ/mol
# GULP energy per Si atom -5576.440142 kJ/mol
# Density = 1.533390 g / cm^3
# Si number density = 15.368884 Si / 1000 Ang^3
#
#
#
# Elastic Constant Matrix: (Units=GPa)
#
#
# Indices 1 2 3 4 5 6 
#
# 1 29.2202 26.2709 37.3739 0.0000 0.0000 0.0000
# 2 26.2709 99.6058 71.2479 0.0000 0.0000 0.0000
# 3 37.3739 71.2479 142.6496 0.0000 0.0000 0.0000
# 4 0.0000 0.0000 0.0000 26.8422 0.0000 0.0000
# 5 0.0000 0.0000 0.0000 0.0000 28.1913 0.0000
# 6 0.0000 0.0000 0.0000 0.0000 0.0000 15.2496
#
#
#
# Elastic Compliance Matrix: (Units=1/GPa)
#
#
# Indices 1 2 3 4 5 6 
#
# 1 0.053981 -0.006412 -0.010940 0.000000 0.000000 0.000000
# 2 -0.006412 0.016382 -0.006502 0.000000 0.000000 0.000000
# 3 -0.010940 -0.006502 0.013124 0.000000 0.000000 0.000000
# 4 0.000000 0.000000 0.000000 0.037255 0.000000 0.000000
# 5 0.000000 0.000000 0.000000 0.000000 0.035472 0.000000
# 6 0.000000 0.000000 0.000000 0.000000 0.000000 0.065575
#
#
# Mechanical properties :
#
#
# Convention : Reuss Voigt Hill
#
# Bulk Modulus (GPa) = 27.95014 60.14011 44.04513
# Shear Modulus (GPa) = 17.76684 23.16215 20.46449
#
# Velocity S-wave (km/s) = 3.40373 3.88633 3.65300
# Velocity P-wave (km/s) = 5.80283 7.70416 6.82008
#
# Compressibility (1/GPa) = 0.03577799
#
# Stress axis : x y z
#
# Youngs Moduli (GPa) = 18.52509 61.04408 76.19560
#
# Poissons Ratio (x) = 0.39140 0.83362
# Poissons Ratio (y) = 0.11878 0.49543
# Poissons Ratio (z) = 0.20267 0.39692
#
# Static dielectric constant tensor:
#      x y z
#    x 1.516210 0.000000 0.000000 
#    y 0.000000 1.496190 0.000000 
#    z 0.000000 0.000000 1.510490 
# 
# From -- ./inp_files/28624.got.cif
#   From: 2010.05.17/outbox.cif.g08.bks.cpg/sg51_15_cif.got.tgz:28624.got - 2010.06.03 11:52:47.
