data_PCOD9398431
_publ_section_title
;
Structure prediction by ZEFSAII (Michael W. Deem and Ramdas Pophale) SiO2 
 PCOD9398431
Probable space group: P M M A
;
_chemical_formula_sum "Si O2"
_cell_formula_units_Z 56
_cell_length_a 8.693082
_cell_length_b 30.425834
_cell_length_c 13.965120
_cell_angle_alpha 90.000000
_cell_angle_beta 90.000000
_cell_angle_gamma 90.000000
_cell_volume 3693.694218
_symmetry_space_group_name_H-M "P M M A"
_symmetry_group_IT_number 51
_symmetry_cell_setting 'orthorhombic'
loop_
_space_group_symop_operation_xyz
x,y,z
1/2-x,-y,z
1/2+x,-y,-z
-x,y,-z
-x,-y,-z
1/2+x,y,-z
1/2-x,y,z
x,-y,z
loop_
_atom_site_type_symbol
_atom_site_label
_atom_site_fract_x
_atom_site_fract_y
_atom_site_fract_z
Si Si1 0.064333 0.048929 0.708572
Si Si2 0.065732 0.548224 0.108374
Si Si3 0.066089 0.862853 0.603834
Si Si4 0.934966 0.818674 0.788335
Si Si5 0.565961 0.092141 0.895372
Si Si6 0.435057 0.271111 0.107671
Si Si7 0.566349 0.362214 0.108644
O O1 0.250000 0.050088 0.713049
O O2 0.014430 0.088315 0.638506
O O3 0.999907 0.060387 0.813459
O O4 0.016333 0.000000 0.678788
O O5 0.250000 0.552940 0.103786
O O6 0.030186 0.500000 0.151394
O O7 0.993608 0.592119 0.153432
O O8 0.000000 0.546683 0.000000
O O9 0.250000 0.862333 0.600477
O O10 0.000000 0.852763 0.500000
O O11 0.008832 0.830182 0.686629
O O12 0.750000 0.819584 0.778421
O O13 0.977271 0.858440 0.860559
O O14 0.978921 0.771711 0.831549
O O15 0.750000 0.089019 0.897191
O O16 0.500000 0.083214 0.000000
O O17 0.250000 0.274162 0.102667
O O18 0.502176 0.316557 0.149667
O O19 0.500000 0.265921 0.000000
O O20 0.750000 0.361863 0.105518
O O21 0.500000 0.362246 0.000000
#
# Coordination Sequence:
#
# PCOD9398431 Si02
#       7
#     8   8   8   8   8   8   8
#     4   9  19  35  51  68  90 115 143 172 203 242
#     4   9  15  22  32  45  63  91 130 175 218 255
#     4  10  20  34  53  72  90 111 135 168 207 249
#     4   9  19  33  48  66  87 111 141 175 209 249
#     4  10  19  31  47  67  90 116 145 175 208 245
#     4  10  18  28  42  60  84 112 141 175 213 252
#     4  10  17  24  34  49  72 101 135 174 213 253
#
# _framework density 15.160973
#
# number of rings (size 3 to 8) (size 9 to 14) (size 15 to 20)
#    0.000    2.429    0.000    5.143    0.000    4.000 
#    0.000    0.000    0.000    0.000    0.000    0.000 
#    0.000    0.000    0.000    0.000    0.000    0.714 
#
# Total GULP energy -312091.730177 kJ/mol
# GULP energy per Si atom -5573.066610 kJ/mol
# Density = 1.512647 g / cm^3
# Si number density = 15.160973 Si / 1000 Ang^3
#
#
#
# Elastic Constant Matrix: (Units=GPa)
#
#
# Indices 1 2 3 4 5 6 
#
# 1 47.7753 35.9113 13.4822 0.0000 0.0000 0.0000
# 2 35.9113 126.3600 21.9945 0.0000 0.0000 0.0000
# 3 13.4822 21.9945 53.8864 0.0000 0.0000 0.0000
# 4 0.0000 0.0000 0.0000 7.7237 0.0000 0.0000
# 5 0.0000 0.0000 0.0000 0.0000 15.7882 0.0000
# 6 0.0000 0.0000 0.0000 0.0000 0.0000 24.1666
#
#
#
# Elastic Compliance Matrix: (Units=1/GPa)
#
#
# Indices 1 2 3 4 5 6 
#
# 1 0.027379 -0.007093 -0.003955 0.000000 0.000000 0.000000
# 2 -0.007093 0.010356 -0.002453 0.000000 0.000000 0.000000
# 3 -0.003955 -0.002453 0.020548 0.000000 0.000000 0.000000
# 4 0.000000 0.000000 0.000000 0.129472 0.000000 0.000000
# 5 0.000000 0.000000 0.000000 0.000000 0.063339 0.000000
# 6 0.000000 0.000000 0.000000 0.000000 0.000000 0.041379
#
#
# Mechanical properties :
#
#
# Convention : Reuss Voigt Hill
#
# Bulk Modulus (GPa) = 31.96647 41.19977 36.58312
# Shear Modulus (GPa) = 15.15603 19.97794 17.56698
#
# Velocity S-wave (km/s) = 3.16519 3.63398 3.40766
# Velocity P-wave (km/s) = 5.87268 6.69639 6.29802
#
# Compressibility (1/GPa) = 0.03128278
#
# Stress axis : x y z
#
# Youngs Moduli (GPa) = 36.52471 96.55775 48.66611
#
# Poissons Ratio (x) = 0.68484 0.19248
# Poissons Ratio (y) = 0.25905 0.11936
# Poissons Ratio (z) = 0.14446 0.23682
#
# Static dielectric constant tensor:
#      x y z
#    x 1.503370 0.000000 0.000000 
#    y 0.000000 1.561570 0.000000 
#    z 0.000000 0.000000 1.456780 
# 
# From -- ./inp_files/22533.got.cif
#   From: 2010.05.17/outbox.cif.g08.bks.cpg/sg51_12_cif.got.tgz:22533.got - 2010.06.03 11:52:47.
