data_PCOD9398805
_publ_section_title
;
Structure prediction by ZEFSAII (Michael W. Deem and Ramdas Pophale) SiO2 
 PCOD9398805
Probable space group: P M M A
;
_chemical_formula_sum "Si O2"
_cell_formula_units_Z 64
_cell_length_a 9.005817
_cell_length_b 26.787955
_cell_length_c 18.729551
_cell_angle_alpha 90.000000
_cell_angle_beta 90.000000
_cell_angle_gamma 90.000000
_cell_volume 4518.455867
_symmetry_space_group_name_H-M "P M M A"
_symmetry_group_IT_number 51
_symmetry_cell_setting 'orthorhombic'
loop_
_space_group_symop_operation_xyz
x,y,z
1/2-x,-y,z
1/2+x,-y,-z
-x,y,-z
-x,-y,-z
1/2+x,y,-z
1/2-x,y,z
x,-y,z
loop_
_atom_site_type_symbol
_atom_site_label
_atom_site_fract_x
_atom_site_fract_y
_atom_site_fract_z
Si Si1 0.570562 0.241467 0.077614
Si Si2 0.928213 0.942923 0.924019
Si Si3 0.927288 0.256643 0.577635
Si Si4 0.425438 0.357672 0.332926
Si Si5 0.420022 0.304827 0.790868
Si Si6 0.928569 0.151598 0.831779
Si Si7 0.426816 0.558265 0.576177
Si Si8 0.078433 0.799438 0.702287
O O1 0.750000 0.236371 0.074818
O O2 0.536161 0.288435 0.129492
O O3 0.500468 0.192869 0.115721
O O4 0.500000 0.246994 0.000000
O O5 0.750000 0.941929 0.932292
O O6 0.966378 0.902455 0.864125
O O7 0.972651 0.000000 0.907033
O O8 0.000000 0.929269 0.000000
O O9 0.750000 0.251074 0.573175
O O10 0.958125 0.310052 0.615707
O O11 0.000000 0.255653 0.500000
O O12 0.996308 0.214460 0.629153
O O13 0.250000 0.366129 0.334247
O O14 0.478566 0.341947 0.254089
O O15 0.509823 0.405115 0.364221
O O16 0.250000 0.322858 0.790792
O O17 0.422246 0.252335 0.747588
O O18 0.750000 0.157704 0.830940
O O19 0.994287 0.161781 0.753353
O O20 0.500000 0.571245 0.500000
O O21 0.250000 0.563767 0.570532
O O22 0.460870 0.500000 0.590671
O O23 0.250000 0.813319 0.690759
#
# Coordination Sequence:
#
# PCOD9398805 Si02
#       8
#     8   8   8   8   8   8   8   8
#     4  10  19  29  42  61  85 112 141 173 208 247
#     4   9  18  30  42  58  81 109 141 176 211 245
#     4  10  19  29  42  62  86 112 142 172 206 246
#     4  10  19  29  44  63  83 110 141 173 207 244
#     4   8  16  29  42  57  80 109 138 169 204 243
#     4  10  18  28  43  60  81 110 142 175 210 249
#     4  10  20  32  45  61  83 111 142 176 210 243
#     4   9  17  29  43  59  81 108 138 172 208 246
#
# _framework density 14.164130999999999
#
# number of rings (size 3 to 8) (size 9 to 14) (size 15 to 20)
#    0.000    2.500    0.000    3.750    0.000    8.750 
#    0.000    0.000    0.000    0.000    0.000    0.000 
#    0.000    1.000    0.000    3.000    0.000    4.000 
#
# Total GULP energy -356714.519056 kJ/mol
# GULP energy per Si atom -5573.664360 kJ/mol
# Density = 1.413189 g / cm^3
# Si number density = 14.164131 Si / 1000 Ang^3
#
#
#
# Elastic Constant Matrix: (Units=GPa)
#
#
# Indices 1 2 3 4 5 6 
#
# 1 60.9044 38.0861 46.6942 0.0000 0.0000 0.0000
# 2 38.0861 57.2011 35.5682 0.0000 0.0000 0.0000
# 3 46.6942 35.5682 94.7881 0.0000 0.0000 0.0000
# 4 0.0000 0.0000 0.0000 23.5413 0.0000 0.0000
# 5 0.0000 0.0000 0.0000 0.0000 27.0081 0.0000
# 6 0.0000 0.0000 0.0000 0.0000 0.0000 18.6443
#
#
#
# Elastic Compliance Matrix: (Units=1/GPa)
#
#
# Indices 1 2 3 4 5 6 
#
# 1 0.035387 -0.016594 -0.011206 0.000000 0.000000 0.000000
# 2 -0.016594 0.030584 -0.003302 0.000000 0.000000 0.000000
# 3 -0.011206 -0.003302 0.017309 0.000000 0.000000 0.000000
# 4 0.000000 0.000000 0.000000 0.042479 0.000000 0.000000
# 5 0.000000 0.000000 0.000000 0.000000 0.037026 0.000000
# 6 0.000000 0.000000 0.000000 0.000000 0.000000 0.053636
#
#
# Mechanical properties :
#
#
# Convention : Reuss Voigt Hill
#
# Bulk Modulus (GPa) = 47.44461 50.39898 48.92179
# Shear Modulus (GPa) = 17.50397 20.00841 18.75619
#
# Velocity S-wave (km/s) = 3.51920 3.76255 3.64291
# Velocity P-wave (km/s) = 7.07687 7.38479 7.23247
#
# Compressibility (1/GPa) = 0.02107721
#
# Stress axis : x y z
#
# Youngs Moduli (GPa) = 28.25872 32.69665 57.77377
#
# Poissons Ratio (x) = 0.54257 0.64739
# Poissons Ratio (y) = 0.46893 0.19076
# Poissons Ratio (z) = 0.31666 0.10796
#
# Static dielectric constant tensor:
#      x y z
#    x 1.473620 0.000000 0.000000 
#    y 0.000000 1.454500 0.000000 
#    z 0.000000 0.000000 1.458710 
# 
# From -- ./inp_files/28613.got.cif
#   From: 2010.05.17/outbox.cif.g08.bks.cpg/sg51_15_cif.got.tgz:28613.got - 2010.06.03 11:52:47.
