data_PCOD9398512
_publ_section_title
;
Structure prediction by ZEFSAII (Michael W. Deem and Ramdas Pophale) SiO2 
 PCOD9398512
Probable space group: P M M A
;
_chemical_formula_sum "Si O2"
_cell_formula_units_Z 64
_cell_length_a 8.631939
_cell_length_b 14.901281
_cell_length_c 31.946114
_cell_angle_alpha 90.000000
_cell_angle_beta 90.000000
_cell_angle_gamma 90.000000
_cell_volume 4109.131164
_symmetry_space_group_name_H-M "P M M A"
_symmetry_group_IT_number 51
_symmetry_cell_setting 'orthorhombic'
loop_
_space_group_symop_operation_xyz
x,y,z
1/2-x,-y,z
1/2+x,-y,-z
-x,y,-z
-x,-y,-z
1/2+x,y,-z
1/2-x,y,z
x,-y,z
loop_
_atom_site_type_symbol
_atom_site_label
_atom_site_fract_x
_atom_site_fract_y
_atom_site_fract_z
Si Si1 0.062307 0.712528 0.623604
Si Si2 0.061287 0.396818 0.706489
Si Si3 0.938599 0.099831 0.244217
Si Si4 0.438531 0.099780 0.658158
Si Si5 0.428443 0.609006 0.956201
Si Si6 0.434738 0.396216 0.132635
Si Si7 0.064563 0.603728 0.454292
Si Si8 0.437473 0.288011 0.789314
O O1 0.250000 0.711085 0.622048
O O2 0.014115 0.655329 0.664530
O O3 0.010885 0.815200 0.631155
O O4 0.998187 0.667158 0.582055
O O5 0.250000 0.396933 0.706632
O O6 0.009235 0.500000 0.706451
O O7 0.012813 0.344789 0.748398
O O8 0.750000 0.099628 0.243420
O O9 0.981762 0.113111 0.293043
O O10 0.989766 0.185239 0.217500
O O11 0.990134 0.000000 0.231189
O O12 0.250000 0.099668 0.657436
O O13 0.490098 0.000000 0.645106
O O14 0.250000 0.635733 0.953448
O O15 0.434881 0.500000 0.957445
O O16 0.515257 0.634746 0.913695
O O17 0.500000 0.641062 0.000000
O O18 0.250000 0.396382 0.135100
O O19 0.489290 0.500000 0.138158
O O20 0.502553 0.334684 0.168976
O O21 0.250000 0.606893 0.455242
O O22 0.016696 0.500000 0.445869
O O23 0.000000 0.628043 0.500000
O O24 0.250000 0.288821 0.790071
#
# Coordination Sequence:
#
# PCOD9398512 Si02
#       8
#     8   8   8   8   8   8   8   8
#     4  10  17  28  48  72  94 119 150 184 223 266
#     4   9  16  24  37  61  90 118 150 185 216 252
#     4   8  13  23  41  65  90 114 147 192 232 264
#     4   8  13  23  42  69  96 118 146 185 225 265
#     4   9  16  27  44  64  85 112 149 192 233 272
#     4  10  20  31  41  57  86 124 160 192 229 271
#     4  10  21  36  52  70  92 118 147 181 222 266
#     4  10  17  27  43  63  87 119 156 190 224 264
#
# _framework density 15.575068999999999
#
# number of rings (size 3 to 8) (size 9 to 14) (size 15 to 20)
#    0.000    2.750    1.250    2.625    0.000    4.000 
#    0.000    0.625    0.000    3.375    0.000    1.750 
#    0.000    0.500    0.000    1.375    0.000    2.000 
#
# Total GULP energy -356600.024182 kJ/mol
# GULP energy per Si atom -5571.875378 kJ/mol
# Density = 1.553962 g / cm^3
# Si number density = 15.575069 Si / 1000 Ang^3
#
#
#
# Elastic Constant Matrix: (Units=GPa)
#
#
# Indices 1 2 3 4 5 6 
#
# 1 16.5466 23.7668 26.0377 0.0000 0.0000 0.0000
# 2 23.7668 130.5991 86.9250 0.0000 0.0000 0.0000
# 3 26.0377 86.9250 133.7651 0.0000 0.0000 0.0000
# 4 0.0000 0.0000 0.0000 8.3411 0.0000 0.0000
# 5 0.0000 0.0000 0.0000 0.0000 21.7071 0.0000
# 6 0.0000 0.0000 0.0000 0.0000 0.0000 9.5677
#
#
#
# Elastic Compliance Matrix: (Units=1/GPa)
#
#
# Indices 1 2 3 4 5 6 
#
# 1 0.092201 -0.008518 -0.012412 0.000000 0.000000 0.000000
# 2 -0.008518 0.014280 -0.007622 0.000000 0.000000 0.000000
# 3 -0.012412 -0.007622 0.014845 0.000000 0.000000 0.000000
# 4 0.000000 0.000000 0.000000 0.119889 0.000000 0.000000
# 5 0.000000 0.000000 0.000000 0.000000 0.046068 0.000000
# 6 0.000000 0.000000 0.000000 0.000000 0.000000 0.104518
#
#
# Mechanical properties :
#
#
# Convention : Reuss Voigt Hill
#
# Bulk Modulus (GPa) = 15.57073 61.59665 38.58369
# Shear Modulus (GPa) = 10.63125 17.53526 14.08326
#
# Velocity S-wave (km/s) = 2.61546 3.35902 3.01028
# Velocity P-wave (km/s) = 4.37490 7.39446 6.07527
#
# Compressibility (1/GPa) = 0.06422307
#
# Stress axis : x y z
#
# Youngs Moduli (GPa) = 10.84582 70.02846 67.36462
#
# Poissons Ratio (x) = 0.59648 0.83614
# Poissons Ratio (y) = 0.09238 0.51342
# Poissons Ratio (z) = 0.13462 0.53373
#
# Static dielectric constant tensor:
#      x y z
#    x 1.532300 0.000000 0.000000 
#    y 0.000000 1.529010 0.000000 
#    z 0.000000 0.000000 1.494120 
# 
# From -- ./inp_files/37590.got.cif
#   From: 2010.05.17/outbox.cif.g08.bks.cpg/sg51_19_cif.got.tgz:37590.got - 2010.06.03 11:52:47.
