data_PCOD9398632
_publ_section_title
;
Structure prediction by ZEFSAII (Michael W. Deem and Ramdas Pophale) SiO2 
 PCOD9398632
Probable space group: P M M A
;
_chemical_formula_sum "Si O2"
_cell_formula_units_Z 64
_cell_length_a 22.037658
_cell_length_b 18.779107
_cell_length_c 9.108452
_cell_angle_alpha 90.000000
_cell_angle_beta 90.000000
_cell_angle_gamma 90.000000
_cell_volume 3769.510432
_symmetry_space_group_name_H-M "P M M A"
_symmetry_group_IT_number 51
_symmetry_cell_setting 'orthorhombic'
loop_
_space_group_symop_operation_xyz
x,y,z
1/2-x,-y,z
1/2+x,-y,-z
-x,y,-z
-x,-y,-z
1/2+x,y,-z
1/2-x,y,z
x,-y,z
loop_
_atom_site_type_symbol
_atom_site_label
_atom_site_fract_x
_atom_site_fract_y
_atom_site_fract_z
Si Si1 0.383354 0.160411 0.227063
Si Si2 0.572868 0.921116 0.509276
Si Si3 0.318633 0.723329 0.402832
Si Si4 0.889286 0.220150 0.336647
Si Si5 0.490360 0.271785 0.176808
Si Si6 0.819952 0.795541 0.042000
Si Si7 0.819979 0.640194 0.891053
Si Si8 0.551838 0.577928 0.873471
O O1 0.404159 0.094562 0.325065
O O2 0.330662 0.203568 0.312680
O O3 0.439811 0.214918 0.222118
O O4 0.360572 0.153486 0.060822
O O5 0.500000 0.918967 0.500000
O O6 0.596027 0.855105 0.413174
O O7 0.592760 0.000000 0.461950
O O8 0.250000 0.721789 0.458047
O O9 0.364114 0.727096 0.538481
O O10 0.325186 0.661597 0.281317
O O11 0.948339 0.252477 0.259458
O O12 0.841189 0.206556 0.208489
O O13 0.466682 0.350908 0.213533
O O14 0.500000 0.267716 0.000000
O O15 0.750000 0.815039 0.027982
O O16 0.827165 0.714981 0.978012
O O17 0.750000 0.614787 0.916339
O O18 0.878824 0.592585 0.928075
O O19 0.550904 0.500000 0.800928
O O20 0.500000 0.575649 0.000000
#
# Coordination Sequence:
#
# PCOD9398632 Si02
#       8
#     8   8   8   8   8   8   8   8
#     4  10  17  32  54  74 101 135 163 218 254 305
#     4  10  21  35  51  77 105 133 168 211 266 322
#     4   9  18  31  49  75 102 131 173 218 256 298
#     4  11  20  31  54  78 106 137 168 221 261 313
#     4  11  18  31  52  80 105 132 171 214 265 313
#     4  10  18  31  54  79 102 132 177 219 253 299
#     4   9  17  33  52  75 104 139 181 228 264 308
#     4  10  19  31  49  77 114 144 171 219 272 319
#
# _framework density 16.978332000000002
#
# number of rings (size 3 to 8) (size 9 to 14) (size 15 to 20)
#    0.000    2.000    5.000    2.250    0.000    0.250 
#    0.000    0.625    0.000   18.000    0.000    0.000 
#    0.000    4.000    0.000    0.000    0.000    0.000 
#
# Total GULP energy -356336.848463 kJ/mol
# GULP energy per Si atom -5567.763257 kJ/mol
# Density = 1.693969 g / cm^3
# Si number density = 16.978332 Si / 1000 Ang^3
#
#
#
# Elastic Constant Matrix: (Units=GPa)
#
#
# Indices 1 2 3 4 5 6 
#
# 1 96.8197 27.9957 21.4799 0.0000 0.0000 0.0000
# 2 27.9957 62.6472 13.3341 0.0000 0.0000 0.0000
# 3 21.4799 13.3341 68.7753 0.0000 0.0000 0.0000
# 4 0.0000 0.0000 0.0000 6.6343 0.0000 0.0000
# 5 0.0000 0.0000 0.0000 0.0000 30.3390 0.0000
# 6 0.0000 0.0000 0.0000 0.0000 0.0000 3.5424
#
#
#
# Elastic Compliance Matrix: (Units=1/GPa)
#
#
# Indices 1 2 3 4 5 6 
#
# 1 0.012398 -0.004919 -0.002918 0.000000 0.000000 0.000000
# 2 -0.004919 0.018601 -0.002070 0.000000 0.000000 0.000000
# 3 -0.002918 -0.002070 0.015853 0.000000 0.000000 0.000000
# 4 0.000000 0.000000 0.000000 0.150732 0.000000 0.000000
# 5 0.000000 0.000000 0.000000 0.000000 0.032961 0.000000
# 6 0.000000 0.000000 0.000000 0.000000 0.000000 0.282296
#
#
# Mechanical properties :
#
#
# Convention : Reuss Voigt Hill
#
# Bulk Modulus (GPa) = 36.98643 39.31794 38.15218
# Shear Modulus (GPa) = 9.23071 19.13197 14.18134
#
# Velocity S-wave (km/s) = 2.33422 3.36049 2.89322
# Velocity P-wave (km/s) = 5.39412 6.18589 5.80352
#
# Compressibility (1/GPa) = 0.02703694
#
# Stress axis : x y z
#
# Youngs Moduli (GPa) = 80.65539 53.75943 63.07980
#
# Poissons Ratio (x) = 0.26447 0.18410
# Poissons Ratio (y) = 0.39678 0.13057
# Poissons Ratio (z) = 0.23539 0.11128
#
# Static dielectric constant tensor:
#      x y z
#    x 1.611340 0.000000 0.000000 
#    y 0.000000 1.566670 0.000000 
#    z 0.000000 0.000000 1.590100 
# 
# From -- ./inp_files/11956.got.cif
#   From: 2010.05.17/outbox.cif.g08.bks.cpg/sg51_6_cif.got.tgz:11956.got - 2010.06.03 11:52:47.
