data_PCOD9398483
_publ_section_title
;
Structure prediction by ZEFSAII (Michael W. Deem and Ramdas Pophale) SiO2 
 PCOD9398483
Probable space group: P M M A
;
_chemical_formula_sum "Si O2"
_cell_formula_units_Z 56
_cell_length_a 22.632530
_cell_length_b 9.271647
_cell_length_c 18.092489
_cell_angle_alpha 90.000000
_cell_angle_beta 90.000000
_cell_angle_gamma 90.000000
_cell_volume 3796.542888
_symmetry_space_group_name_H-M "P M M A"
_symmetry_group_IT_number 51
_symmetry_cell_setting 'orthorhombic'
loop_
_space_group_symop_operation_xyz
x,y,z
1/2-x,-y,z
1/2+x,-y,-z
-x,y,-z
-x,-y,-z
1/2+x,y,-z
1/2-x,y,z
x,-y,z
loop_
_atom_site_type_symbol
_atom_site_label
_atom_site_fract_x
_atom_site_fract_y
_atom_site_fract_z
Si Si1 0.099744 0.328691 0.381767
Si Si2 0.474136 0.327489 0.833293
Si Si3 0.069181 0.166374 0.524571
Si Si4 0.680043 0.671497 0.756507
Si Si5 0.932493 0.165281 0.030890
Si Si6 0.597962 0.173449 0.870821
Si Si7 0.964601 0.329092 0.334152
O O1 0.103269 0.500000 0.395495
O O2 0.103784 0.245891 0.459046
O O3 0.148029 0.289319 0.320511
O O4 0.034569 0.300032 0.347594
O O5 0.482205 0.500000 0.838812
O O6 0.432610 0.268705 0.898733
O O7 0.537317 0.249189 0.844112
O O8 0.451389 0.293954 0.750938
O O9 0.071106 0.243490 0.603750
O O10 0.000000 0.173704 0.500000
O O11 0.086033 0.000000 0.529816
O O12 0.750000 0.693243 0.752749
O O13 0.668529 0.500000 0.768556
O O14 0.649941 0.762758 0.821303
O O15 0.919604 0.000000 0.052501
O O16 0.895097 0.205458 0.958387
O O17 0.000000 0.167140 0.000000
O O18 0.592523 0.000000 0.863640
O O19 0.956113 0.500000 0.345480
#
# Coordination Sequence:
#
# PCOD9398483 Si02
#       7
#     8   8   8   8   8   8   8
#     4   9  16  29  43  56  80 112 140 173 216 253
#     4  10  17  26  42  64  86 112 146 177 209 253
#     4   9  17  26  38  59  81 106 141 174 205 248
#     4  10  20  33  48  65  84 110 149 189 219 251
#     4   8  16  28  39  57  83 113 143 172 211 255
#     4  10  19  30  43  58  84 116 145 178 217 258
#     4   9  16  26  40  59  84 113 141 169 208 254
#
# _framework density 14.750261
#
# number of rings (size 3 to 8) (size 9 to 14) (size 15 to 20)
#    0.000    2.714    1.429    2.143    0.000    6.857 
#    0.000    0.000    0.000    0.000    0.000    0.000 
#    0.000    1.143    0.000   10.286    0.000    6.000 
#
# Total GULP energy -311879.583180 kJ/mol
# GULP energy per Si atom -5569.278271 kJ/mol
# Density = 1.471669 g / cm^3
# Si number density = 14.750261 Si / 1000 Ang^3
#
#
#
# Elastic Constant Matrix: (Units=GPa)
#
#
# Indices 1 2 3 4 5 6 
#
# 1 37.5455 28.0773 41.2446 0.0000 0.0000 0.0000
# 2 28.0773 65.9098 81.8139 0.0000 0.0000 0.0000
# 3 41.2446 81.8139 160.2575 0.0000 0.0000 0.0000
# 4 0.0000 0.0000 0.0000 -2.7717 0.0000 0.0000
# 5 0.0000 0.0000 0.0000 0.0000 12.5625 0.0000
# 6 0.0000 0.0000 0.0000 0.0000 0.0000 4.3474
#
#
#
# Elastic Compliance Matrix: (Units=1/GPa)
#
#
# Indices 1 2 3 4 5 6 
#
# 1 0.040179 -0.011685 -0.004375 0.000000 0.000000 0.000000
# 2 -0.011685 0.044819 -0.019873 0.000000 0.000000 0.000000
# 3 -0.004375 -0.019873 0.017512 0.000000 0.000000 0.000000
# 4 0.000000 0.000000 0.000000 -0.360794 0.000000 0.000000
# 5 0.000000 0.000000 0.000000 0.000000 0.079602 0.000000
# 6 0.000000 0.000000 0.000000 0.000000 0.000000 0.230023
#
#
# Mechanical properties :
#
#
# Convention : Reuss Voigt Hill
#
# Bulk Modulus (GPa) = 32.63482 62.88714 47.76098
# Shear Modulus (GPa) = 37.47506 10.33278 23.90392
#
# Velocity S-wave (km/s) = 5.04594 2.64960 4.03001
# Velocity P-wave (km/s) = 7.49144 7.21718 7.35559
#
# Compressibility (1/GPa) = 0.03064211
#
# Stress axis : x y z
#
# Youngs Moduli (GPa) = 24.88864 22.31199 57.10480
#
# Poissons Ratio (x) = 0.26072 0.24985
# Poissons Ratio (y) = 0.29083 1.13487
# Poissons Ratio (z) = 0.10889 0.44342
#
# Static dielectric constant tensor:
#      x y z
#    x 1.455320 0.000000 0.000000 
#    y 0.000000 1.493210 0.000000 
#    z 0.000000 0.000000 1.505690 
# 
# From -- ./inp_files/30461.got.cif
#   From: 2010.05.17/outbox.cif.g08.bks.cpg/sg51_16_cif.got.tgz:30461.got - 2010.06.03 11:52:47.
