data_PCOD9398873
_publ_section_title
;
Structure prediction by ZEFSAII (Michael W. Deem and Ramdas Pophale) SiO2 
 PCOD9398873
Probable space group: P M M A
;
_chemical_formula_sum "Si O2"
_cell_formula_units_Z 64
_cell_length_a 8.894882
_cell_length_b 14.733127
_cell_length_c 29.939658
_cell_angle_alpha 90.000000
_cell_angle_beta 90.000000
_cell_angle_gamma 90.000000
_cell_volume 3923.575000
_symmetry_space_group_name_H-M "P M M A"
_symmetry_group_IT_number 51
_symmetry_cell_setting 'orthorhombic'
loop_
_space_group_symop_operation_xyz
x,y,z
1/2-x,-y,z
1/2+x,-y,-z
-x,y,-z
-x,-y,-z
1/2+x,y,-z
1/2-x,y,z
x,-y,z
loop_
_atom_site_type_symbol
_atom_site_label
_atom_site_fract_x
_atom_site_fract_y
_atom_site_fract_z
Si Si1 0.423197 0.889577 0.545503
Si Si2 0.066313 0.894814 0.643633
Si Si3 0.930932 0.603193 0.226329
Si Si4 0.068094 0.785305 0.730678
Si Si5 0.570042 0.273619 0.953722
Si Si6 0.429420 0.393437 0.131183
Si Si7 0.425538 0.891445 0.186625
Si Si8 0.570776 0.893910 0.090709
O O1 0.500000 0.858038 0.500000
O O2 0.250000 0.861513 0.543914
O O3 0.486743 0.864649 0.594296
O O4 0.426918 0.000000 0.545365
O O5 0.250000 0.894733 0.641995
O O6 0.019406 0.830573 0.684155
O O7 0.021768 0.000000 0.651554
O O8 0.750000 0.601373 0.224352
O O9 0.983496 0.500000 0.235454
O O10 0.974410 0.680190 0.261793
O O11 0.991662 0.631367 0.177625
O O12 0.250000 0.791858 0.732803
O O13 0.999471 0.840931 0.771844
O O14 0.750000 0.274319 0.956545
O O15 0.523215 0.334742 0.911335
O O16 0.510227 0.172992 0.943344
O O17 0.500000 0.306738 0.000000
O O18 0.250000 0.382171 0.136814
O O19 0.459690 0.500000 0.123081
O O20 0.250000 0.866653 0.182056
O O21 0.510268 0.871513 0.140335
O O22 0.435179 0.000000 0.193773
O O23 0.250000 0.881577 0.911069
O O24 0.536858 0.000000 0.082388
#
# Coordination Sequence:
#
# PCOD9398873 Si02
#       8
#     8   8   8   8   8   8   8   8
#     4   8  13  22  36  53  75 106 144 184 223 262
#     4   8  14  24  38  58  84 114 150 188 222 260
#     4   9  18  31  47  69  93 115 143 181 222 260
#     4  10  18  28  45  65  88 121 155 185 219 264
#     4  11  23  37  54  75  98 121 145 178 219 262
#     4   9  19  36  55  73  93 118 147 177 213 261
#     4  10  20  32  46  67  95 122 147 180 221 261
#     4  10  21  37  55  72  91 119 155 189 218 254
#
# _framework density 16.311655999999999
#
# number of rings (size 3 to 8) (size 9 to 14) (size 15 to 20)
#    0.000    2.625    0.000    3.000    0.000    6.000 
#    0.000    0.625    0.000    2.250    0.000    0.000 
#    0.000    0.500    0.000    0.375    0.000    0.750 
#
# Total GULP energy -356837.279563 kJ/mol
# GULP energy per Si atom -5575.582493 kJ/mol
# Density = 1.627453 g / cm^3
# Si number density = 16.311656 Si / 1000 Ang^3
#
#
#
# Elastic Constant Matrix: (Units=GPa)
#
#
# Indices 1 2 3 4 5 6 
#
# 1 19.5356 20.8860 20.6868 0.0000 0.0000 0.0000
# 2 20.8860 63.7430 62.4038 0.0000 0.0000 0.0000
# 3 20.6868 62.4038 110.7058 0.0000 0.0000 0.0000
# 4 0.0000 0.0000 0.0000 17.1855 0.0000 0.0000
# 5 0.0000 0.0000 0.0000 0.0000 21.0208 0.0000
# 6 0.0000 0.0000 0.0000 0.0000 0.0000 15.2598
#
#
#
# Elastic Compliance Matrix: (Units=1/GPa)
#
#
# Indices 1 2 3 4 5 6 
#
# 1 0.078796 -0.025446 -0.000380 0.000000 0.000000 0.000000
# 2 -0.025446 0.043223 -0.019610 0.000000 0.000000 0.000000
# 3 -0.000380 -0.019610 0.020158 0.000000 0.000000 0.000000
# 4 0.000000 0.000000 0.000000 0.058189 0.000000 0.000000
# 5 0.000000 0.000000 0.000000 0.000000 0.047572 0.000000
# 6 0.000000 0.000000 0.000000 0.000000 0.000000 0.065532
#
#
# Mechanical properties :
#
#
# Convention : Reuss Voigt Hill
#
# Bulk Modulus (GPa) = 19.49114 44.65973 32.07544
# Shear Modulus (GPa) = 11.86399 16.69375 14.27887
#
# Velocity S-wave (km/s) = 2.69983 3.20257 2.96189
# Velocity P-wave (km/s) = 4.65768 6.41200 5.60391
#
# Compressibility (1/GPa) = 0.05130535
#
# Stress axis : x y z
#
# Youngs Moduli (GPa) = 12.69094 23.13566 49.60848
#
# Poissons Ratio (x) = 0.58871 0.01887
# Poissons Ratio (y) = 0.32293 0.97281
# Poissons Ratio (z) = 0.00483 0.45368
#
# Static dielectric constant tensor:
#      x y z
#    x 1.549440 0.000000 0.000000 
#    y 0.000000 1.559260 0.000000 
#    z 0.000000 0.000000 1.544910 
# 
# From -- ./inp_files/37604.got.cif
#   From: 2010.05.17/outbox.cif.g08.bks.cpg/sg51_19_cif.got.tgz:37604.got - 2010.06.03 11:52:47.
