data_PCOD9398466
_publ_section_title
;
Structure prediction by ZEFSAII (Michael W. Deem and Ramdas Pophale) SiO2 
 PCOD9398466
Probable space group: P M M A
;
_chemical_formula_sum "Si O2"
_cell_formula_units_Z 64
_cell_length_a 15.351751
_cell_length_b 7.498137
_cell_length_c 28.480996
_cell_angle_alpha 90.000000
_cell_angle_beta 90.000000
_cell_angle_gamma 90.000000
_cell_volume 3278.434126
_symmetry_space_group_name_H-M "P M M A"
_symmetry_group_IT_number 51
_symmetry_cell_setting 'orthorhombic'
loop_
_space_group_symop_operation_xyz
x,y,z
1/2-x,-y,z
1/2+x,-y,-z
-x,y,-z
-x,-y,-z
1/2+x,y,-z
1/2-x,y,z
x,-y,z
loop_
_atom_site_type_symbol
_atom_site_label
_atom_site_fract_x
_atom_site_fract_y
_atom_site_fract_z
Si Si1 0.348829 0.717306 0.469428
Si Si2 0.651375 0.289106 0.961192
Si Si3 0.847548 0.282443 0.422604
Si Si4 0.848259 0.215413 0.070472
Si Si5 0.651730 0.781806 0.804814
Si Si6 0.518572 0.794871 0.881478
Si Si7 0.473601 0.712202 0.387253
Si Si8 0.653192 0.785993 0.697218
O O1 0.250000 0.771729 0.457737
O O2 0.350411 0.500000 0.468794
O O3 0.366936 0.768389 0.523235
O O4 0.416370 0.782873 0.430786
O O5 0.750000 0.221824 0.952213
O O6 0.650552 0.500000 0.952187
O O7 0.580013 0.206170 0.927384
O O8 0.632818 0.260564 0.016163
O O9 0.750000 0.221062 0.410575
O O10 0.844558 0.500000 0.421690
O O11 0.927501 0.220952 0.390627
O O12 0.750000 0.278106 0.081185
O O13 0.925724 0.284156 0.103472
O O14 0.847978 0.000000 0.073295
O O15 0.750000 0.727574 0.818974
O O16 0.577346 0.716026 0.839910
O O17 0.637734 0.726829 0.750807
O O18 0.651346 0.000000 0.806184
O O19 0.501440 0.000000 0.867982
O O20 0.478954 0.500000 0.394283
O O21 0.421185 0.739494 0.339484
O O22 0.750000 0.721770 0.682384
O O23 0.657009 0.000000 0.698720
#
# Coordination Sequence:
#
# PCOD9398466 Si02
#       8
#     8   8   8   8   8   8   8   8
#     4   8  13  21  35  59  89 114 138 173 214 253
#     4  10  20  31  43  64  95 125 148 173 211 258
#     4   8  14  24  38  59  88 119 147 175 210 252
#     4   9  18  31  45  64  91 119 147 180 214 247
#     4   8  15  29  48  67  85 108 140 175 213 262
#     4  10  18  29  49  70  85 110 149 186 216 248
#     4  10  17  25  43  68  88 109 143 184 217 246
#     4   9  18  32  47  63  87 117 142 167 211 271
#
# _framework density 19.521514
#
# number of rings (size 3 to 8) (size 9 to 14) (size 15 to 20)
#    0.000    3.000    0.000    3.375    0.000    5.500 
#    0.000    0.625    0.000    3.375    0.000    3.500 
#    0.000    0.000    0.000    0.000    0.000    0.000 
#
# Total GULP energy -357005.804343 kJ/mol
# GULP energy per Si atom -5578.215693 kJ/mol
# Density = 1.947708 g / cm^3
# Si number density = 19.521514 Si / 1000 Ang^3
#
#
#
# Elastic Constant Matrix: (Units=GPa)
#
#
# Indices 1 2 3 4 5 6 
#
# 1 164.9317 2.6775 102.4230 0.0000 0.0000 0.0000
# 2 2.6775 52.9943 -2.9761 0.0000 0.0000 0.0000
# 3 102.4230 -2.9761 89.0658 0.0000 0.0000 0.0000
# 4 0.0000 0.0000 0.0000 5.3180 0.0000 0.0000
# 5 0.0000 0.0000 0.0000 0.0000 34.6386 0.0000
# 6 0.0000 0.0000 0.0000 0.0000 0.0000 3.1621
#
#
#
# Elastic Compliance Matrix: (Units=1/GPa)
#
#
# Indices 1 2 3 4 5 6 
#
# 1 0.021531 -0.002483 -0.024843 0.000000 0.000000 0.000000
# 2 -0.002483 0.019192 0.003497 0.000000 0.000000 0.000000
# 3 -0.024843 0.003497 0.039913 0.000000 0.000000 0.000000
# 4 0.000000 0.000000 0.000000 0.188040 0.000000 0.000000
# 5 0.000000 0.000000 0.000000 0.000000 0.028870 0.000000
# 6 0.000000 0.000000 0.000000 0.000000 0.000000 0.316245
#
#
# Mechanical properties :
#
#
# Convention : Reuss Voigt Hill
#
# Bulk Modulus (GPa) = 30.32391 56.80452 43.56421
# Shear Modulus (GPa) = 7.43560 22.28157 14.85858
#
# Velocity S-wave (km/s) = 1.95376 3.38210 2.76187
# Velocity P-wave (km/s) = 4.54499 6.66432 5.70395
#
# Compressibility (1/GPa) = 0.03297728
#
# Stress axis : x y z
#
# Youngs Moduli (GPa) = 46.44494 52.10565 25.05451
#
# Poissons Ratio (x) = 0.12938 0.62242
# Poissons Ratio (y) = 0.11532 -0.08761
# Poissons Ratio (z) = 1.15382 -0.18219
#
# Static dielectric constant tensor:
#      x y z
#    x 1.713390 0.000000 0.000000 
#    y 0.000000 1.778640 0.000000 
#    z 0.000000 0.000000 1.652220 
# 
# From -- ./inp_files/37797.got.cif
#   From: 2010.05.17/outbox.cif.g08.bks.cpg/sg51_19_cif.got.tgz:37797.got - 2010.06.03 11:52:47.
