data_PCOD9398291
_publ_section_title
;
Structure prediction by ZEFSAII (Michael W. Deem and Ramdas Pophale) SiO2 
 PCOD9398291
Probable space group: P B A N
;
_chemical_formula_sum "Si O2"
_cell_formula_units_Z 32
_cell_length_a 9.279048
_cell_length_b 14.047224
_cell_length_c 10.513174
_cell_angle_alpha 90.000000
_cell_angle_beta 90.000000
_cell_angle_gamma 90.000000
_cell_volume 1370.338254
_symmetry_space_group_name_H-M "P B A N"
_symmetry_group_IT_number 50
_space_group.IT_coordinate_system_code '2'
_symmetry_cell_setting 'orthorhombic'
loop_
_space_group_symop_operation_xyz
x,y,z
1/2-x,1/2-y,z
x,1/2-y,-z
1/2-x,y,-z
-x,-y,-z
1/2+x,1/2+y,-z
-x,1/2+y,z
1/2+x,-y,z
loop_
_atom_site_type_symbol
_atom_site_label
_atom_site_fract_x
_atom_site_fract_y
_atom_site_fract_z
Si Si1 0.574670 0.397828 0.992066
Si Si2 0.883245 0.180575 0.720414
Si Si3 0.366733 0.016355 0.593373
Si Si4 0.104664 0.309933 0.777399
O O1 0.550753 0.360048 0.850650
O O2 0.750000 0.401637 0.000000
O O3 0.500000 0.500000 0.000000
O O4 0.496396 0.334440 0.100039
O O5 0.750000 0.250000 0.743066
O O6 0.831351 0.089888 0.642128
O O7 0.012978 0.247734 0.675368
O O8 0.250000 0.058949 0.500000
O O9 0.500000 0.000000 0.500000
O O10 0.374709 0.087196 0.712141
O O11 0.250000 0.250000 0.807432
#
# Coordination Sequence:
#
# PCOD9398291 Si02
#       4
#     8   8   8   8
#     4  12  27  48  80 113 157 203 259 331 410 481
#     4  12  26  48  77 109 157 204 258 327 407 478
#     4  12  28  49  76 110 155 209 272 328 386 475
#     4  12  28  48  78 116 158 206 266 331 407 486
#
# _framework density 23.351897000000001
#
# number of rings (size 3 to 8) (size 9 to 14) (size 15 to 20)
#    0.000    0.000    5.000    3.750    3.500    7.000 
#    0.000    0.000    0.000    0.000    0.000    0.000 
#    0.000    0.000    0.000    0.000    0.000    0.000 
#
# Total GULP energy -178819.509660 kJ/mol
# GULP energy per Si atom -5588.109677 kJ/mol
# Density = 2.329875 g / cm^3
# Si number density = 23.351897 Si / 1000 Ang^3
#
#
#
# Elastic Constant Matrix: (Units=GPa)
#
#
# Indices 1 2 3 4 5 6 
#
# 1 143.6748 30.4076 22.9508 0.0000 0.0000 0.0000
# 2 30.4076 154.1200 30.6079 0.0000 0.0000 0.0000
# 3 22.9508 30.6079 96.2086 0.0000 0.0000 0.0000
# 4 0.0000 0.0000 0.0000 6.6851 0.0000 0.0000
# 5 0.0000 0.0000 0.0000 0.0000 27.8755 0.0000
# 6 0.0000 0.0000 0.0000 0.0000 0.0000 49.2171
#
#
#
# Elastic Compliance Matrix: (Units=1/GPa)
#
#
# Indices 1 2 3 4 5 6 
#
# 1 0.007435 -0.001190 -0.001395 0.000000 0.000000 0.000000
# 2 -0.001190 0.007116 -0.001980 0.000000 0.000000 0.000000
# 3 -0.001395 -0.001980 0.011357 0.000000 0.000000 0.000000
# 4 0.000000 0.000000 0.000000 0.149586 0.000000 0.000000
# 5 0.000000 0.000000 0.000000 0.000000 0.035874 0.000000
# 6 0.000000 0.000000 0.000000 0.000000 0.000000 0.020318
#
#
# Mechanical properties :
#
#
# Convention : Reuss Voigt Hill
#
# Bulk Modulus (GPa) = 59.60197 62.43734 61.01966
# Shear Modulus (GPa) = 20.29150 37.42466 28.85808
#
# Velocity S-wave (km/s) = 2.95098 4.00764 3.51920
# Velocity P-wave (km/s) = 6.09835 6.94338 6.53454
#
# Compressibility (1/GPa) = 0.01677797
#
# Stress axis : x y z
#
# Youngs Moduli (GPa) = 134.50204 140.51913 88.05245
#
# Poissons Ratio (x) = 0.16719 0.12284
# Poissons Ratio (y) = 0.16003 0.17436
# Poissons Ratio (z) = 0.18764 0.27826
#
# Static dielectric constant tensor:
#      x y z
#    x 1.921530 0.000000 0.000000 
#    y 0.000000 1.231230 0.000000 
#    z 0.000000 0.000000 1.696900 
# 
# From -- ./inp_files/18310.got.cif
#   From: 2010.05.17/outbox.cif.g08.bks.cpg/sg50_10_cif.got.tgz:18310.got - 2010.06.03 11:33:33.
