data_PCOD9398065
_publ_section_title
;
Structure prediction by ZEFSAII (Michael W. Deem and Ramdas Pophale) SiO2 
 PCOD9398065
Probable space group: P B A N
;
_chemical_formula_sum "Si O2"
_cell_formula_units_Z 26
_cell_length_a 9.234804
_cell_length_b 9.751660
_cell_length_c 11.759822
_cell_angle_alpha 90.000000
_cell_angle_beta 90.000000
_cell_angle_gamma 90.000000
_cell_volume 1059.026875
_symmetry_space_group_name_H-M "P B A N"
_symmetry_group_IT_number 50
_space_group.IT_coordinate_system_code '2'
_symmetry_cell_setting 'orthorhombic'
loop_
_space_group_symop_operation_xyz
x,y,z
1/2-x,1/2-y,z
x,1/2-y,-z
1/2-x,y,-z
-x,-y,-z
1/2+x,1/2+y,-z
-x,1/2+y,z
1/2+x,-y,z
loop_
_atom_site_type_symbol
_atom_site_label
_atom_site_fract_x
_atom_site_fract_y
_atom_site_fract_z
Si Si1 0.382340 0.441426 0.188515
Si Si2 0.086300 0.789779 0.285766
Si Si3 0.250000 0.250000 0.000000
Si Si4 0.179437 0.400218 0.390053
O O1 0.422608 0.601549 0.180340
O O2 0.500003 0.347707 0.253480
O O3 0.340833 0.353476 0.079374
O O4 0.243252 0.453199 0.271749
O O5 0.250000 0.750000 0.315183
O O6 0.991489 0.870630 0.381435
O O7 0.250000 0.250000 0.391391
O O8 0.250000 0.471340 0.500000
#
# Coordination Sequence:
#
# PCOD9398065 Si02
#       4
#     8   8   2   8
#     4  11  24  46  68 100 141 190 234 290 359 418
#     4  11  23  43  72 109 140 180 246 289 346 421
#     4  12  24  48  74  88 144 200 228 294 364 416
#     4   9  19  42  68  96 146 187 221 286 352 422
#
# _framework density 24.550841999999999
#
# number of rings (size 3 to 8) (size 9 to 14) (size 15 to 20)
#    0.000    1.538    4.615    1.846    0.000    2.462 
#    0.000   18.462    0.000    5.538    0.000    0.000 
#    0.000    0.000    0.000    0.000    0.000    0.000 
#
# Total GULP energy -145038.576065 kJ/mol
# GULP energy per Si atom -5578.406772 kJ/mol
# Density = 2.449496 g / cm^3
# Si number density = 24.550842 Si / 1000 Ang^3
#
#
#
# Elastic Constant Matrix: (Units=GPa)
#
#
# Indices 1 2 3 4 5 6 
#
# 1 224.3683 45.8385 63.6518 0.0000 0.0000 0.0000
# 2 45.8385 146.9207 15.6337 0.0000 0.0000 0.0000
# 3 63.6518 15.6337 91.6198 0.0000 0.0000 0.0000
# 4 0.0000 0.0000 0.0000 -142.5523 0.0000 0.0000
# 5 0.0000 0.0000 0.0000 0.0000 11.6105 0.0000
# 6 0.0000 0.0000 0.0000 0.0000 0.0000 38.5857
#
#
#
# Elastic Compliance Matrix: (Units=1/GPa)
#
#
# Indices 1 2 3 4 5 6 
#
# 1 0.005825 -0.001412 -0.003806 0.000000 0.000000 0.000000
# 2 -0.001412 0.007275 -0.000260 0.000000 0.000000 0.000000
# 3 -0.003806 -0.000260 0.013603 0.000000 0.000000 0.000000
# 4 0.000000 0.000000 0.000000 -0.007015 0.000000 0.000000
# 5 0.000000 0.000000 0.000000 0.000000 0.086129 0.000000
# 6 0.000000 0.000000 0.000000 0.000000 0.000000 0.025916
#
#
# Mechanical properties :
#
#
# Convention : Reuss Voigt Hill
#
# Bulk Modulus (GPa) = 63.50744 79.23966 71.37355
# Shear Modulus (GPa) = 33.79759 4.04776 18.92268
#
# Velocity S-wave (km/s) = 3.71433 1.28542 2.77926
# Velocity P-wave (km/s) = 6.65724 5.87783 6.27964
#
# Compressibility (1/GPa) = 0.01574619
#
# Stress axis : x y z
#
# Youngs Moduli (GPa) = 171.66608 137.46191 73.51198
#
# Poissons Ratio (x) = 0.19416 0.27979
# Poissons Ratio (y) = 0.24247 0.01912
# Poissons Ratio (z) = 0.65336 0.03575
#
# Static dielectric constant tensor:
#      x y z
#    x 2.029540 0.000000 0.000000 
#    y 0.000000 2.020500 0.000000 
#    z 0.000000 0.000000 2.042250 
# 
# From -- ./inp_files/18172.got.cif
#   From: 2010.05.17/outbox.cif.g08.bks.cpg/sg50_10_cif.got.tgz:18172.got - 2010.06.03 11:33:33.
