data_PCOD9398588
_publ_section_title
;
Structure prediction by ZEFSAII (Michael W. Deem and Ramdas Pophale) SiO2 
 PCOD9398588
Probable space group: P M M A
;
_chemical_formula_sum "Si O2"
_cell_formula_units_Z 56
_cell_length_a 8.159994
_cell_length_b 19.870528
_cell_length_c 19.137119
_cell_angle_alpha 90.000000
_cell_angle_beta 90.000000
_cell_angle_gamma 90.000000
_cell_volume 3102.957335
_symmetry_space_group_name_H-M "P M M A"
_symmetry_group_IT_number 51
_symmetry_cell_setting 'orthorhombic'
loop_
_space_group_symop_operation_xyz
x,y,z
1/2-x,-y,z
1/2+x,-y,-z
-x,y,-z
-x,-y,-z
1/2+x,y,-z
1/2-x,y,z
x,-y,z
loop_
_atom_site_type_symbol
_atom_site_label
_atom_site_fract_x
_atom_site_fract_y
_atom_site_fract_z
Si Si1 0.442826 0.283468 0.350160
Si Si2 0.450012 0.574591 0.308476
Si Si3 0.050526 0.574324 0.145157
Si Si4 0.946261 0.712608 0.921828
Si Si5 0.554756 0.209873 0.212394
Si Si6 0.057330 0.151141 0.577614
Si Si7 0.549811 0.924328 0.285002
O O1 0.250000 0.284406 0.365005
O O2 0.507155 0.360003 0.350705
O O3 0.470330 0.256093 0.271337
O O4 0.520694 0.228123 0.400618
O O5 0.250000 0.575612 0.309754
O O6 0.502436 0.500000 0.331896
O O7 0.496636 0.582165 0.226702
O O8 0.250000 0.574437 0.143793
O O9 0.996093 0.500000 0.121366
O O10 0.993464 0.637839 0.100586
O O11 0.750000 0.712529 0.918072
O O12 0.011303 0.764026 0.863855
O O13 0.000000 0.728390 0.000000
O O14 0.750000 0.215187 0.223761
O O15 0.505058 0.133044 0.229090
O O16 0.250000 0.141923 0.578814
O O17 0.990251 0.103964 0.639881
O O18 0.000000 0.135909 0.500000
O O19 0.750000 0.926061 0.286490
O O20 0.492516 0.000000 0.271654
#
# Coordination Sequence:
#
# PCOD9398588 Si02
#       7
#     8   8   8   8   8   8   8
#     4  10  17  29  51  74  97 130 167 205 246 289
#     4   8  13  23  43  70  94 120 160 206 250 292
#     4   8  14  26  44  66  93 126 163 203 248 295
#     4  11  21  33  49  70  97 132 169 209 252 296
#     4  10  19  32  51  74 100 128 162 203 242 290
#     4  10  20  33  50  75 106 137 165 197 235 284
#     4   8  16  32  54  78 102 129 159 193 238 287
#
# _framework density 18.0473
#
# number of rings (size 3 to 8) (size 9 to 14) (size 15 to 20)
#    0.000    2.714    1.429    3.429    0.000    0.571 
#    0.000    0.000    0.000   19.714    0.000    0.000 
#    0.000    0.000    0.000    0.000    0.000    0.000 
#
# Total GULP energy -312125.756894 kJ/mol
# GULP energy per Si atom -5573.674230 kJ/mol
# Density = 1.800622 g / cm^3
# Si number density = 18.047300 Si / 1000 Ang^3
#
#
#
# Elastic Constant Matrix: (Units=GPa)
#
#
# Indices 1 2 3 4 5 6 
#
# 1 10.9509 1.6845 3.6375 0.0000 0.0000 0.0000
# 2 1.6845 144.7632 44.9889 0.0000 0.0000 0.0000
# 3 3.6375 44.9889 63.1337 0.0000 0.0000 0.0000
# 4 0.0000 0.0000 0.0000 7.9966 0.0000 0.0000
# 5 0.0000 0.0000 0.0000 0.0000 21.0791 0.0000
# 6 0.0000 0.0000 0.0000 0.0000 0.0000 15.0213
#
#
#
# Elastic Compliance Matrix: (Units=1/GPa)
#
#
# Indices 1 2 3 4 5 6 
#
# 1 0.093161 0.000750 -0.005902 0.000000 0.000000 0.000000
# 2 0.000750 0.008879 -0.006370 0.000000 0.000000 0.000000
# 3 -0.005902 -0.006370 0.020719 0.000000 0.000000 0.000000
# 4 0.000000 0.000000 0.000000 0.125053 0.000000 0.000000
# 5 0.000000 0.000000 0.000000 0.000000 0.047440 0.000000
# 6 0.000000 0.000000 0.000000 0.000000 0.000000 0.066572
#
#
# Mechanical properties :
#
#
# Convention : Reuss Voigt Hill
#
# Bulk Modulus (GPa) = 10.02861 35.49662 22.76261
# Shear Modulus (GPa) = 11.95867 20.05521 16.00694
#
# Velocity S-wave (km/s) = 2.57695 3.33717 2.98139
# Velocity P-wave (km/s) = 3.79778 5.87880 4.94891
#
# Compressibility (1/GPa) = 0.09971472
#
# Stress axis : x y z
#
# Youngs Moduli (GPa) = 10.73407 112.62752 48.26516
#
# Poissons Ratio (x) = -0.08449 0.28486
# Poissons Ratio (y) = -0.00805 0.30746
# Poissons Ratio (z) = 0.06335 0.71747
#
# Static dielectric constant tensor:
#      x y z
#    x 1.640900 0.000000 0.000000 
#    y 0.000000 1.649270 0.000000 
#    z 0.000000 0.000000 1.592230 
# 
# From -- ./inp_files/28160.got.cif
#   From: 2010.05.17/outbox.cif.g08.bks.cpg/sg51_15_cif.got.tgz:28160.got - 2010.06.03 11:52:47.
