data_PCOD9398728
_publ_section_title
;
Structure prediction by ZEFSAII (Michael W. Deem and Ramdas Pophale) SiO2 
 PCOD9398728
Probable space group: P M M A
;
_chemical_formula_sum "Si O2"
_cell_formula_units_Z 48
_cell_length_a 8.753508
_cell_length_b 24.884862
_cell_length_c 13.948647
_cell_angle_alpha 90.000000
_cell_angle_beta 90.000000
_cell_angle_gamma 90.000000
_cell_volume 3038.431525
_symmetry_space_group_name_H-M "P M M A"
_symmetry_group_IT_number 51
_symmetry_cell_setting 'orthorhombic'
loop_
_space_group_symop_operation_xyz
x,y,z
1/2-x,-y,z
1/2+x,-y,-z
-x,y,-z
-x,-y,-z
1/2+x,y,-z
1/2-x,y,z
x,-y,z
loop_
_atom_site_type_symbol
_atom_site_label
_atom_site_fract_x
_atom_site_fract_y
_atom_site_fract_z
Si Si1 0.066349 0.221603 0.287770
Si Si2 0.566894 0.441210 0.392018
Si Si3 0.567351 0.112432 0.604382
Si Si4 0.567291 0.167741 0.103622
Si Si5 0.066578 0.668966 0.392527
Si Si6 0.934276 0.940108 0.209208
O O1 0.250000 0.220828 0.276574
O O2 0.026413 0.172966 0.360494
O O3 0.021870 0.278855 0.331513
O O4 0.990760 0.207426 0.186629
O O5 0.500000 0.442536 0.500000
O O6 0.750000 0.436222 0.396637
O O7 0.530269 0.500000 0.348599
O O8 0.496020 0.387015 0.349462
O O9 0.500000 0.101764 0.500000
O O10 0.750000 0.108059 0.601867
O O11 0.501210 0.073822 0.686504
O O12 0.750000 0.168904 0.099843
O O13 0.517536 0.107882 0.138364
O O14 0.500000 0.179927 0.000000
O O15 0.250000 0.666496 0.398708
O O16 0.000000 0.674551 0.500000
O O17 0.750000 0.938434 0.215331
O O18 0.980515 0.000000 0.178944
#
# Coordination Sequence:
#
# PCOD9398728 Si02
#       6
#     8   8   8   8   8   8
#     4   9  19  33  47  66  91 117 149 187 223 264
#     4   9  16  25  37  55  83 120 159 194 224 256
#     4  10  19  31  47  66  90 120 151 183 220 261
#     4  10  20  34  53  72  90 114 141 176 224 272
#     4  10  18  27  42  64  91 123 156 190 225 261
#     4   9  19  35  51  68  90 115 146 181 216 260
#
# _framework density 15.797624000000001
#
# number of rings (size 3 to 8) (size 9 to 14) (size 15 to 20)
#    0.000    2.500    0.000    3.500    0.000    4.667 
#    0.000    0.000    0.000    0.000    0.000    0.000 
#    0.000    0.667    0.000    2.167    0.000    3.500 
#
# Total GULP energy -267579.725520 kJ/mol
# GULP energy per Si atom -5574.577615 kJ/mol
# Density = 1.576167 g / cm^3
# Si number density = 15.797624 Si / 1000 Ang^3
#
#
#
# Elastic Constant Matrix: (Units=GPa)
#
#
# Indices 1 2 3 4 5 6 
#
# 1 30.2655 29.1037 17.0818 0.0000 0.0000 0.0000
# 2 29.1037 120.4035 25.3700 0.0000 0.0000 0.0000
# 3 17.0818 25.3700 66.4960 0.0000 0.0000 0.0000
# 4 0.0000 0.0000 0.0000 9.2575 0.0000 0.0000
# 5 0.0000 0.0000 0.0000 0.0000 19.6345 0.0000
# 6 0.0000 0.0000 0.0000 0.0000 0.0000 23.9924
#
#
#
# Elastic Compliance Matrix: (Units=1/GPa)
#
#
# Indices 1 2 3 4 5 6 
#
# 1 0.047015 -0.009590 -0.008418 0.000000 0.000000 0.000000
# 2 -0.009590 0.010988 -0.001728 0.000000 0.000000 0.000000
# 3 -0.008418 -0.001728 0.017861 0.000000 0.000000 0.000000
# 4 0.000000 0.000000 0.000000 0.108021 0.000000 0.000000
# 5 0.000000 0.000000 0.000000 0.000000 0.050931 0.000000
# 6 0.000000 0.000000 0.000000 0.000000 0.000000 0.041680
#
#
# Mechanical properties :
#
#
# Convention : Reuss Voigt Hill
#
# Bulk Modulus (GPa) = 27.48136 40.03067 33.75602
# Shear Modulus (GPa) = 15.23933 20.28415 17.76174
#
# Velocity S-wave (km/s) = 3.10927 3.58718 3.35674
# Velocity P-wave (km/s) = 5.50670 6.52318 6.03637
#
# Compressibility (1/GPa) = 0.03638830
#
# Stress axis : x y z
#
# Youngs Moduli (GPa) = 21.27001 91.00998 55.98942
#
# Poissons Ratio (x) = 0.87283 0.47134
# Poissons Ratio (y) = 0.20399 0.09678
# Poissons Ratio (z) = 0.17906 0.15731
#
# Static dielectric constant tensor:
#      x y z
#    x 1.525690 0.000000 0.000000 
#    y 0.000000 1.567550 0.000000 
#    z 0.000000 0.000000 1.483440 
# 
# From -- ./inp_files/14444.got.cif
#   From: 2010.05.17/outbox.cif.g08.bks.cpg/sg51_8_cif.got.tgz:14444.got - 2010.06.03 11:52:47.
