data_PCOD9398800
_publ_section_title
;
Structure prediction by ZEFSAII (Michael W. Deem and Ramdas Pophale) SiO2 
 PCOD9398800
Probable space group: P M M A
;
_chemical_formula_sum "Si O2"
_cell_formula_units_Z 44
_cell_length_a 8.552901
_cell_length_b 14.424214
_cell_length_c 19.738439
_cell_angle_alpha 90.000000
_cell_angle_beta 90.000000
_cell_angle_gamma 90.000000
_cell_volume 2435.109001
_symmetry_space_group_name_H-M "P M M A"
_symmetry_group_IT_number 51
_symmetry_cell_setting 'orthorhombic'
loop_
_space_group_symop_operation_xyz
x,y,z
1/2-x,-y,z
1/2+x,-y,-z
-x,y,-z
-x,-y,-z
1/2+x,y,-z
1/2-x,y,z
x,-y,z
loop_
_atom_site_type_symbol
_atom_site_label
_atom_site_fract_x
_atom_site_fract_y
_atom_site_fract_z
Si Si1 0.560633 0.105268 0.835897
Si Si2 0.938786 0.605615 0.201560
Si Si3 0.062438 0.697190 0.423920
Si Si4 0.562081 0.224810 0.711431
Si Si5 0.563400 0.727201 0.075090
Si Si6 0.563006 0.500000 0.423160
O O1 0.750000 0.106665 0.837384
O O2 0.508667 0.143547 0.762007
O O3 0.500675 0.178482 0.890998
O O4 0.508603 0.000000 0.847486
O O5 0.750000 0.608073 0.208276
O O6 0.990442 0.500000 0.212252
O O7 0.979107 0.644068 0.126684
O O8 0.010004 0.680045 0.252718
O O9 0.250000 0.693252 0.427890
O O10 0.011852 0.771226 0.366970
O O11 0.001574 0.597354 0.396917
O O12 0.000000 0.712572 0.500000
O O13 0.750000 0.221780 0.710709
O O14 0.750000 0.732899 0.072939
O O15 0.500000 0.713934 0.000000
O O16 0.250000 0.500000 0.579352
O O17 0.500000 0.500000 0.500000
#
# Coordination Sequence:
#
# PCOD9398800 Si02
#       6
#     8   8   8   8   8   4
#     4   9  18  35  57  77  97 124 160 202 250 299
#     4   9  19  34  50  71  99 132 168 203 240 284
#     4  10  19  31  46  67  97 129 164 203 244 289
#     4   9  19  33  50  73  98 126 163 206 247 291
#     4  10  20  34  52  75 104 132 162 200 240 287
#     4  10  18  28  42  62  90 124 161 196 235 280
#
# _framework density 18.069006000000002
#
# number of rings (size 3 to 8) (size 9 to 14) (size 15 to 20)
#    0.000    2.545    0.000    3.000    1.273    3.636 
#    0.000    0.000    0.000    0.545    0.000    0.000 
#    0.000    0.000    0.000    0.000    0.000    0.727 
#
# Total GULP energy -245256.429168 kJ/mol
# GULP energy per Si atom -5574.009754 kJ/mol
# Density = 1.802788 g / cm^3
# Si number density = 18.069006 Si / 1000 Ang^3
#
#
#
# Elastic Constant Matrix: (Units=GPa)
#
#
# Indices 1 2 3 4 5 6 
#
# 1 24.0538 -5.4143 5.7567 0.0000 0.0000 0.0000
# 2 -5.4143 34.1714 -18.3328 0.0000 0.0000 0.0000
# 3 5.7567 -18.3328 74.4868 0.0000 0.0000 0.0000
# 4 0.0000 0.0000 0.0000 15.6246 0.0000 0.0000
# 5 0.0000 0.0000 0.0000 0.0000 19.9876 0.0000
# 6 0.0000 0.0000 0.0000 0.0000 0.0000 18.1690
#
#
#
# Elastic Compliance Matrix: (Units=1/GPa)
#
#
# Indices 1 2 3 4 5 6 
#
# 1 0.043346 0.005842 -0.001912 0.000000 0.000000 0.000000
# 2 0.005842 0.034504 0.008041 0.000000 0.000000 0.000000
# 3 -0.001912 0.008041 0.015552 0.000000 0.000000 0.000000
# 4 0.000000 0.000000 0.000000 0.064002 0.000000 0.000000
# 5 0.000000 0.000000 0.000000 0.000000 0.050031 0.000000
# 6 0.000000 0.000000 0.000000 0.000000 0.000000 0.055039
#
#
# Mechanical properties :
#
#
# Convention : Reuss Voigt Hill
#
# Bulk Modulus (GPa) = 8.52202 10.74790 9.63496
# Shear Modulus (GPa) = 18.00855 20.80309 19.40582
#
# Velocity S-wave (km/s) = 3.16041 3.39678 3.28072
# Velocity P-wave (km/s) = 4.24785 4.62010 4.43788
#
# Compressibility (1/GPa) = 0.11734303
#
# Stress axis : x y z
#
# Youngs Moduli (GPa) = 23.07011 28.98246 64.30074
#
# Poissons Ratio (x) = -0.16932 0.12295
# Poissons Ratio (y) = -0.13478 -0.51701
# Poissons Ratio (z) = 0.04411 -0.23304
#
# Static dielectric constant tensor:
#      x y z
#    x 1.598940 0.000000 0.000000 
#    y 0.000000 1.617180 0.000000 
#    z 0.000000 0.000000 1.637490 
# 
# From -- ./inp_files/27423.got.cif
#   From: 2010.05.17/outbox.cif.g08.bks.cpg/sg51_14_cif.got.tgz:27423.got - 2010.06.03 11:52:47.
