data_PCOD9398278
_publ_section_title
;
Structure prediction by ZEFSAII (Michael W. Deem and Ramdas Pophale) SiO2 
 PCOD9398278
Probable space group: P B A N
;
_chemical_formula_sum "Si O2"
_cell_formula_units_Z 22
_cell_length_a 12.964691
_cell_length_b 4.946987
_cell_length_c 13.814282
_cell_angle_alpha 90.000000
_cell_angle_beta 90.000000
_cell_angle_gamma 90.000000
_cell_volume 885.994971
_symmetry_space_group_name_H-M "P B A N"
_symmetry_group_IT_number 50
_space_group.IT_coordinate_system_code '2'
_symmetry_cell_setting 'orthorhombic'
loop_
_space_group_symop_operation_xyz
x,y,z
1/2-x,1/2-y,z
x,1/2-y,-z
1/2-x,y,-z
-x,-y,-z
1/2+x,1/2+y,-z
-x,1/2+y,z
1/2+x,-y,z
loop_
_atom_site_type_symbol
_atom_site_label
_atom_site_fract_x
_atom_site_fract_y
_atom_site_fract_z
Si Si1 0.568480 0.495594 0.126105
Si Si2 0.684538 0.980133 0.686892
Si Si3 0.250000 0.750000 0.000000
Si Si4 0.923622 0.750000 0.500000
O O1 0.526271 0.793127 0.105925
O O2 0.594242 0.447137 0.239427
O O3 0.671288 0.418752 0.067485
O O4 0.750000 0.250000 0.663617
O O5 0.750000 0.750000 0.741888
O O6 0.644210 0.818686 0.593474
O O7 0.000000 0.500000 0.500000
#
# Coordination Sequence:
#
# PCOD9398278 Si02
#       4
#     8   8   2   4
#     4  12  27  49  77 114 156 204 259 321 389 466
#     4  12  25  47  75 109 153 206 259 319 391 466
#     4  12  28  50  80 116 158 202 268 314 404 450
#     4  12  25  44  71 108 150 198 260 317 382 469
#
# _framework density 24.830839000000001
#
# number of rings (size 3 to 8) (size 9 to 14) (size 15 to 20)
#    0.000    0.000    1.818    8.182    0.000    2.909 
#    0.000    0.000    0.000    0.000    0.000    0.000 
#    0.000    0.000    0.000    0.000    0.000    0.000 
#
# Total GULP energy -123281.116799 kJ/mol
# GULP energy per Si atom -5603.687127 kJ/mol
# Density = 2.477432 g / cm^3
# Si number density = 24.830839 Si / 1000 Ang^3
#
#
#
# Elastic Constant Matrix: (Units=GPa)
#
#
# Indices 1 2 3 4 5 6 
#
# 1 117.1003 27.3680 37.8799 0.0000 0.0000 0.0000
# 2 27.3680 142.4889 7.9984 0.0000 0.0000 0.0000
# 3 37.8799 7.9984 152.5112 0.0000 0.0000 0.0000
# 4 0.0000 0.0000 0.0000 36.2438 0.0000 0.0000
# 5 0.0000 0.0000 0.0000 0.0000 30.9612 0.0000
# 6 0.0000 0.0000 0.0000 0.0000 0.0000 44.6763
#
#
#
# Elastic Compliance Matrix: (Units=1/GPa)
#
#
# Indices 1 2 3 4 5 6 
#
# 1 0.009694 -0.001732 -0.002317 0.000000 0.000000 0.000000
# 2 -0.001732 0.007348 0.000045 0.000000 0.000000 0.000000
# 3 -0.002317 0.000045 0.007130 0.000000 0.000000 0.000000
# 4 0.000000 0.000000 0.000000 0.027591 0.000000 0.000000
# 5 0.000000 0.000000 0.000000 0.000000 0.032299 0.000000
# 6 0.000000 0.000000 0.000000 0.000000 0.000000 0.022383
#
#
# Mechanical properties :
#
#
# Convention : Reuss Voigt Hill
#
# Bulk Modulus (GPa) = 61.86521 62.06589 61.96555
# Shear Modulus (GPa) = 41.72200 44.96653 43.34427
#
# Velocity S-wave (km/s) = 4.10353 4.26010 4.18255
# Velocity P-wave (km/s) = 6.88627 7.01767 6.95228
#
# Compressibility (1/GPa) = 0.01616417
#
# Stress axis : x y z
#
# Youngs Moduli (GPa) = 103.15736 136.08738 140.25231
#
# Poissons Ratio (x) = 0.23569 0.32495
# Poissons Ratio (y) = 0.17865 -0.00628
# Poissons Ratio (z) = 0.23901 -0.00609
#
# Static dielectric constant tensor:
#      x y z
#    x 1.886220 0.000000 0.000000 
#    y 0.000000 1.232930 0.000000 
#    z 0.000000 0.000000 2.006120 
# 
# From -- ./inp_files/23478.got.cif
#   From: 2010.05.17/outbox.cif.g08.bks.cpg/sg50_12_cif.got.tgz:23478.got - 2010.06.03 11:33:33.
