data_PCOD9398204
_publ_section_title
;
Structure prediction by ZEFSAII (Michael W. Deem and Ramdas Pophale) SiO2 
 PCOD9398204
Probable space group: P B A N
;
_chemical_formula_sum "Si O2"
_cell_formula_units_Z 30
_cell_length_a 23.114994
_cell_length_b 10.638062
_cell_length_c 5.767354
_cell_angle_alpha 90.000000
_cell_angle_beta 90.000000
_cell_angle_gamma 90.000000
_cell_volume 1418.185078
_symmetry_space_group_name_H-M "P B A N"
_symmetry_group_IT_number 50
_space_group.IT_coordinate_system_code '2'
_symmetry_cell_setting 'orthorhombic'
loop_
_space_group_symop_operation_xyz
x,y,z
1/2-x,1/2-y,z
x,1/2-y,-z
1/2-x,y,-z
-x,-y,-z
1/2+x,1/2+y,-z
-x,1/2+y,z
1/2+x,-y,z
loop_
_atom_site_type_symbol
_atom_site_label
_atom_site_fract_x
_atom_site_fract_y
_atom_site_fract_z
Si Si1 0.868185 0.179827 0.746416
Si Si2 0.250000 0.250000 0.000000
Si Si3 0.589791 0.750000 0.500000
Si Si4 0.004616 0.873026 0.157626
Si Si5 0.307864 0.069564 0.656813
O O1 0.857819 0.250000 0.500000
O O2 0.932942 0.122772 0.721034
O O3 0.823020 0.067022 0.747988
O O4 0.864887 0.250000 0.000000
O O5 0.291082 0.339121 0.139807
O O6 0.546776 0.671294 0.328686
O O7 0.634998 0.862265 0.440446
O O8 0.008466 0.750000 0.000000
O O9 0.000000 0.000000 0.000000
O O10 0.250000 0.066983 0.500000
#
# Coordination Sequence:
#
# PCOD9398204 Si02
#       5
#     8   2   4   8   8
#     4  11  28  51  76 112 154 201 254 316 387 468
#     4  12  26  52  70 110 140 204 262 314 384 452
#     4  12  25  46  78 114 149 198 256 326 386 462
#     4  11  26  44  74 112 153 206 250 317 391 468
#     4  12  28  48  77 107 150 199 261 319 380 455
#
# _framework density 21.153797999999998
#
# number of rings (size 3 to 8) (size 9 to 14) (size 15 to 20)
#    0.000    0.533    4.000    1.600   16.800    2.667 
#    0.000    0.000    0.000    0.000    0.000    0.000 
#    0.000    0.000    0.000    0.000    0.000    0.000 
#
# Total GULP energy -167074.585821 kJ/mol
# GULP energy per Si atom -5569.152861 kJ/mol
# Density = 2.110565 g / cm^3
# Si number density = 21.153798 Si / 1000 Ang^3
#
#
#
# Elastic Constant Matrix: (Units=GPa)
#
#
# Indices 1 2 3 4 5 6 
#
# 1 138.8981 82.1626 82.7511 0.0000 0.0000 0.0000
# 2 82.1626 176.9036 85.3294 0.0000 0.0000 0.0000
# 3 82.7511 85.3294 118.8137 0.0000 0.0000 0.0000
# 4 0.0000 0.0000 0.0000 72.6102 0.0000 0.0000
# 5 0.0000 0.0000 0.0000 0.0000 85.7805 0.0000
# 6 0.0000 0.0000 0.0000 0.0000 0.0000 51.2130
#
#
#
# Elastic Compliance Matrix: (Units=1/GPa)
#
#
# Indices 1 2 3 4 5 6 
#
# 1 0.013022 -0.002560 -0.007231 0.000000 0.000000 0.000000
# 2 -0.002560 0.009152 -0.004790 0.000000 0.000000 0.000000
# 3 -0.007231 -0.004790 0.016892 0.000000 0.000000 0.000000
# 4 0.000000 0.000000 0.000000 0.013772 0.000000 0.000000
# 5 0.000000 0.000000 0.000000 0.000000 0.011658 0.000000
# 6 0.000000 0.000000 0.000000 0.000000 0.000000 0.019526
#
#
# Mechanical properties :
#
#
# Convention : Reuss Voigt Hill
#
# Bulk Modulus (GPa) = 100.95826 103.90019 102.42922
# Shear Modulus (GPa) = 42.92369 54.21222 48.56796
#
# Velocity S-wave (km/s) = 4.50947 5.06787 4.79680
# Velocity P-wave (km/s) = 8.65697 9.13606 8.89974
#
# Compressibility (1/GPa) = 0.00990508
#
# Stress axis : x y z
#
# Youngs Moduli (GPa) = 76.79432 109.26271 59.19794
#
# Poissons Ratio (x) = 0.27974 0.42804
# Poissons Ratio (y) = 0.19661 0.28355
# Poissons Ratio (z) = 0.55528 0.52335
#
# Static dielectric constant tensor:
#      x y z
#    x 1.301520 0.000000 0.000000 
#    y 0.000000 1.726810 0.000000 
#    z 0.000000 0.000000 1.738530 
# 
# From -- ./inp_files/4948.got.cif
#   From: 2010.05.17/outbox.cif.g08.bks.cpg/sg50_3_cif.got.tgz:4948.got - 2010.06.03 11:33:33.
