data_PCOD9398646
_publ_section_title
;
Structure prediction by ZEFSAII (Michael W. Deem and Ramdas Pophale) SiO2 
 PCOD9398646
Probable space group: P M M A
;
_chemical_formula_sum "Si O2"
_cell_formula_units_Z 20
_cell_length_a 12.825173
_cell_length_b 5.620498
_cell_length_c 11.431491
_cell_angle_alpha 90.000000
_cell_angle_beta 90.000000
_cell_angle_gamma 90.000000
_cell_volume 824.025988
_symmetry_space_group_name_H-M "P M M A"
_symmetry_group_IT_number 51
_symmetry_cell_setting 'orthorhombic'
loop_
_space_group_symop_operation_xyz
x,y,z
1/2-x,-y,z
1/2+x,-y,-z
-x,y,-z
-x,-y,-z
1/2+x,y,-z
1/2-x,y,z
x,-y,z
loop_
_atom_site_type_symbol
_atom_site_label
_atom_site_fract_x
_atom_site_fract_y
_atom_site_fract_z
Si Si1 0.861047 0.500000 0.672259
Si Si2 0.895140 0.500000 0.354732
Si Si3 0.250000 0.500000 0.860684
Si Si4 0.250000 0.000000 0.999259
Si Si5 0.420100 0.000000 0.607208
Si Si6 0.903229 0.000000 0.791945
O O1 0.750000 0.500000 0.607325
O O2 0.861392 0.251143 0.742682
O O3 0.979483 0.500000 0.625691
O O4 0.852224 0.500000 0.222559
O O5 0.861180 0.246730 0.403273
O O6 0.250000 0.749603 0.929998
O O7 0.356879 0.000000 0.077158
O O8 0.500000 0.000000 0.500000
O O9 0.479608 0.000000 0.734440
#
# Coordination Sequence:
#
# PCOD9398646 Si02
#       6
#     4   4   2   2   4   4
#     4  10  17  35  62  84 121 163 198 274 331 349
#     4  10  23  41  65  94 130 176 214 267 323 399
#     4  12  26  44  62  88 140 186 218 258 328 406
#     4  12  22  40  64  90 132 172 226 268 316 394
#     4  10  21  42  70  95 129 165 215 281 339 390
#     4  10  20  35  62  92 127 156 210 281 316 375
#
# _framework density 24.271082
#
# number of rings (size 3 to 8) (size 9 to 14) (size 15 to 20)
#    0.000    1.600    2.000    3.000    0.000    0.000 
#    0.000   26.000   17.600    0.000    0.000    0.000 
#    0.000    0.000    0.000    0.000    0.000    0.000 
#
# Total GULP energy -111352.927765 kJ/mol
# GULP energy per Si atom -5567.646388 kJ/mol
# Density = 2.421584 g / cm^3
# Si number density = 24.271082 Si / 1000 Ang^3
#
#
#
# Elastic Constant Matrix: (Units=GPa)
#
#
# Indices 1 2 3 4 5 6 
#
# 1 157.4774 52.5436 43.1613 0.0000 0.0000 0.0000
# 2 52.5436 327.3098 81.8698 0.0000 0.0000 0.0000
# 3 43.1613 81.8698 120.7629 0.0000 0.0000 0.0000
# 4 0.0000 0.0000 0.0000 48.9823 0.0000 0.0000
# 5 0.0000 0.0000 0.0000 0.0000 18.3691 0.0000
# 6 0.0000 0.0000 0.0000 0.0000 0.0000 -2.4794
#
#
#
# Elastic Compliance Matrix: (Units=1/GPa)
#
#
# Indices 1 2 3 4 5 6 
#
# 1 0.007140 -0.000612 -0.002137 0.000000 0.000000 0.000000
# 2 -0.000612 0.003731 -0.002311 0.000000 0.000000 0.000000
# 3 -0.002137 -0.002311 0.010611 0.000000 0.000000 0.000000
# 4 0.000000 0.000000 0.000000 0.020416 0.000000 0.000000
# 5 0.000000 0.000000 0.000000 0.000000 0.054439 0.000000
# 6 0.000000 0.000000 0.000000 0.000000 0.000000 -0.403324
#
#
# Mechanical properties :
#
#
# Convention : Reuss Voigt Hill
#
# Bulk Modulus (GPa) = 88.00594 106.74439 97.37516
# Shear Modulus (GPa) = -17.06023 41.50609 12.22293
#
# Velocity S-wave (km/s) = -2.65411 4.13983 2.24654
# Velocity P-wave (km/s) = 5.19094 8.18086 6.85100
#
# Compressibility (1/GPa) = 0.01136287
#
# Stress axis : x y z
#
# Youngs Moduli (GPa) = 140.05691 267.99090 94.23882
#
# Poissons Ratio (x) = 0.16391 0.20141
# Poissons Ratio (y) = 0.08566 0.21780
# Poissons Ratio (z) = 0.29933 0.61936
#
# Static dielectric constant tensor:
#      x y z
#    x 1.910030 0.000000 0.000000 
#    y 0.000000 1.906580 0.000000 
#    z 0.000000 0.000000 1.950720 
# 
# From -- ./inp_files/15748.got.cif
#   From: 2010.05.17/outbox.cif.g08.bks.cpg/sg51_8_cif.got.tgz:15748.got - 2010.06.03 11:52:47.
