data_PCOD9398557
_publ_section_title
;
Structure prediction by ZEFSAII (Michael W. Deem and Ramdas Pophale) SiO2 
 PCOD9398557
Probable space group: P M M A
;
_chemical_formula_sum "Si O2"
_cell_formula_units_Z 52
_cell_length_a 27.106107
_cell_length_b 12.100859
_cell_length_c 7.213941
_cell_angle_alpha 90.000000
_cell_angle_beta 90.000000
_cell_angle_gamma 90.000000
_cell_volume 2366.224436
_symmetry_space_group_name_H-M "P M M A"
_symmetry_group_IT_number 51
_symmetry_cell_setting 'orthorhombic'
loop_
_space_group_symop_operation_xyz
x,y,z
1/2-x,-y,z
1/2+x,-y,-z
-x,y,-z
-x,-y,-z
1/2+x,y,-z
1/2-x,y,z
x,-y,z
loop_
_atom_site_type_symbol
_atom_site_label
_atom_site_fract_x
_atom_site_fract_y
_atom_site_fract_z
Si Si1 0.606698 0.869440 0.183345
Si Si2 0.089936 0.263224 0.202064
Si Si3 0.196857 0.257891 0.251207
Si Si4 0.498889 0.876108 0.227349
Si Si5 0.144297 0.500000 0.754963
Si Si6 0.303334 0.500000 0.392565
Si Si7 0.440574 0.500000 0.040392
Si Si8 0.694935 0.733862 0.180167
O O1 0.554918 0.856187 0.288639
O O2 0.655522 0.816316 0.270503
O O3 0.612838 0.000000 0.146416
O O4 0.598033 0.800617 0.993870
O O5 0.140489 0.235266 0.310996
O O6 0.040943 0.211948 0.288754
O O7 0.077907 0.390395 0.149867
O O8 0.250000 0.217675 0.329729
O O9 0.197122 0.390517 0.272421
O O10 0.198675 0.230532 0.034016
O O11 0.483660 0.000000 0.279327
O O12 0.500000 0.873991 0.000000
O O13 0.151168 0.500000 0.533395
O O14 0.090506 0.500000 0.847284
O O15 0.172478 0.388843 0.815333
O O16 0.250000 0.500000 0.497381
O O17 0.500000 0.500000 0.000000
O O18 0.750000 0.734127 0.258897
#
# Coordination Sequence:
#
# PCOD9398557 Si02
#       8
#     8   8   8   8   4   4   4   8
#     4   9  16  27  44  71 105 133 163 207 259 303
#     4  10  17  28  46  71  99 133 164 202 248 300
#     4   9  17  30  47  69  95 128 164 200 247 303
#     4   8  14  25  43  68 100 130 162 204 248 297
#     4  12  21  34  49  76 102 133 167 208 247 302
#     4  10  20  33  51  70  98 137 175 207 245 306
#     4  12  21  29  46  76 102 133 164 206 251 300
#     4  10  19  31  50  76 104 132 167 210 257 305
#
# _framework density 21.975940000000001
#
# number of rings (size 3 to 8) (size 9 to 14) (size 15 to 20)
#    0.000    2.308    3.077    4.385    0.000    1.538 
#    0.000    0.000    0.000    3.231    0.000    5.385 
#    0.000   13.538    0.000    0.000    0.000    0.000 
#
# Total GULP energy -289638.608335 kJ/mol
# GULP energy per Si atom -5569.973237 kJ/mol
# Density = 2.192592 g / cm^3
# Si number density = 21.975940 Si / 1000 Ang^3
#
#
#
# Elastic Constant Matrix: (Units=GPa)
#
#
# Indices 1 2 3 4 5 6 
#
# 1 224.0958 89.9079 9.1755 0.0000 0.0000 0.0000
# 2 89.9079 113.0362 8.9029 0.0000 0.0000 0.0000
# 3 9.1755 8.9029 63.7606 0.0000 0.0000 0.0000
# 4 0.0000 0.0000 0.0000 -6.0627 0.0000 0.0000
# 5 0.0000 0.0000 0.0000 0.0000 0.3906 0.0000
# 6 0.0000 0.0000 0.0000 0.0000 0.0000 -47.9185
#
#
#
# Elastic Compliance Matrix: (Units=1/GPa)
#
#
# Indices 1 2 3 4 5 6 
#
# 1 0.006557 -0.005198 -0.000218 0.000000 0.000000 0.000000
# 2 -0.005198 0.013066 -0.001076 0.000000 0.000000 0.000000
# 3 -0.000218 -0.001076 0.015865 0.000000 0.000000 0.000000
# 4 0.000000 0.000000 0.000000 -0.164943 0.000000 0.000000
# 5 0.000000 0.000000 0.000000 0.000000 2.560371 0.000000
# 6 0.000000 0.000000 0.000000 0.000000 0.000000 -0.020869
#
#
# Mechanical properties :
#
#
# Convention : Reuss Voigt Hill
#
# Bulk Modulus (GPa) = 44.43715 68.54058 56.48887
# Shear Modulus (GPa) = 2.05716 8.80896 5.43306
#
# Velocity S-wave (km/s) = 0.96857 2.00429 1.57405
# Velocity P-wave (km/s) = 4.63849 6.05085 5.39112
#
# Compressibility (1/GPa) = 0.02250369
#
# Stress axis : x y z
#
# Youngs Moduli (GPa) = 152.51440 76.53475 63.03063
#
# Poissons Ratio (x) = 0.39783 0.01373
# Poissons Ratio (y) = 0.79277 0.06785
# Poissons Ratio (z) = 0.03321 0.08238
#
# Static dielectric constant tensor:
#      x y z
#    x 1.943740 0.000000 0.000000 
#    y 0.000000 1.780870 0.000000 
#    z 0.000000 0.000000 1.824610 
# 
# From -- ./inp_files/12410.got.cif
#   From: 2010.05.17/outbox.cif.g08.bks.cpg/sg51_7_cif.got.tgz:12410.got - 2010.06.03 11:52:47.
