data_PCOD9398019
_publ_section_title
;
Structure prediction by ZEFSAII (Michael W. Deem and Ramdas Pophale) SiO2 
 PCOD9398019
Probable space group: P B A N
;
_chemical_formula_sum "Si O2"
_cell_formula_units_Z 64
_cell_length_a 18.490582
_cell_length_b 12.539325
_cell_length_c 14.128785
_cell_angle_alpha 90.000000
_cell_angle_beta 90.000000
_cell_angle_gamma 90.000000
_cell_volume 3275.891855
_symmetry_space_group_name_H-M "P B A N"
_symmetry_group_IT_number 50
_space_group.IT_coordinate_system_code '2'
_symmetry_cell_setting 'orthorhombic'
loop_
_space_group_symop_operation_xyz
x,y,z
1/2-x,1/2-y,z
x,1/2-y,-z
1/2-x,y,-z
-x,-y,-z
1/2+x,1/2+y,-z
-x,1/2+y,z
1/2+x,-y,z
loop_
_atom_site_type_symbol
_atom_site_label
_atom_site_fract_x
_atom_site_fract_y
_atom_site_fract_z
Si Si1 0.030651 0.786443 0.696207
Si Si2 0.380690 0.251746 0.607223
Si Si3 0.578461 0.476884 0.168826
Si Si4 0.352883 0.015397 0.652163
Si Si5 0.931464 0.082244 0.811616
Si Si6 0.628423 0.136049 0.526093
Si Si7 0.691085 0.966834 0.671490
Si Si8 0.164842 0.878450 0.007054
O O1 0.043800 0.880622 0.770474
O O2 0.070758 0.687694 0.746274
O O3 0.061885 0.826575 0.594305
O O4 0.949631 0.746656 0.676323
O O5 0.408269 0.250000 0.500000
O O6 0.327198 0.349979 0.628486
O O7 0.346676 0.135368 0.615713
O O8 0.512161 0.558100 0.150755
O O9 0.639744 0.524386 0.237613
O O10 0.618108 0.432102 0.076395
O O11 0.408488 0.008371 0.737620
O O12 0.379024 0.933936 0.569782
O O13 0.272822 0.998663 0.692843
O O14 0.873727 0.089776 0.895163
O O15 0.663329 0.250000 0.500000
O O16 0.669944 0.054808 0.593564
O O17 0.160548 0.750000 0.000000
O O18 0.250000 0.907732 0.000000
#
# Coordination Sequence:
#
# PCOD9398019 Si02
#       8
#     8   8   8   8   8   8   8   8
#     4  11  23  40  61  98 127 166 219 269 328 375
#     4  12  24  40  65  89 135 178 225 275 314 384
#     4  11  23  44  68  95 127 170 217 273 326 398
#     4  12  25  40  62  95 132 178 223 271 329 381
#     4  12  23  43  69  94 128 169 219 271 324 399
#     4  11  23  40  59  90 132 171 221 268 317 382
#     4  11  25  41  63  91 131 177 222 271 328 385
#     4  11  24  43  69 100 133 164 206 271 344 412
#
# _framework density 19.536663999999998
#
# number of rings (size 3 to 8) (size 9 to 14) (size 15 to 20)
#    0.000    0.625    6.250    2.250    0.000    2.000 
#    0.000    0.000    0.000    0.000    0.000    3.500 
#    0.000    0.000    0.000    0.000    0.000    0.000 
#
# Total GULP energy -356871.059406 kJ/mol
# GULP energy per Si atom -5576.110303 kJ/mol
# Density = 1.949220 g / cm^3
# Si number density = 19.536664 Si / 1000 Ang^3
#
#
#
# Elastic Constant Matrix: (Units=GPa)
#
#
# Indices 1 2 3 4 5 6 
#
# 1 107.9632 16.8037 53.1979 0.0000 0.0000 0.0000
# 2 16.8037 102.5013 30.1587 0.0000 0.0000 0.0000
# 3 53.1979 30.1587 100.9614 0.0000 0.0000 0.0000
# 4 0.0000 0.0000 0.0000 18.2298 0.0000 0.0000
# 5 0.0000 0.0000 0.0000 0.0000 50.7842 0.0000
# 6 0.0000 0.0000 0.0000 0.0000 0.0000 -75.7450
#
#
#
# Elastic Compliance Matrix: (Units=1/GPa)
#
#
# Indices 1 2 3 4 5 6 
#
# 1 0.012512 -0.000122 -0.006556 0.000000 0.000000 0.000000
# 2 -0.000122 0.010697 -0.003131 0.000000 0.000000 0.000000
# 3 -0.006556 -0.003131 0.014295 0.000000 0.000000 0.000000
# 4 0.000000 0.000000 0.000000 0.054855 0.000000 0.000000
# 5 0.000000 0.000000 0.000000 0.000000 0.019691 0.000000
# 6 0.000000 0.000000 0.000000 0.000000 0.000000 -0.013202
#
#
# Mechanical properties :
#
#
# Convention : Reuss Voigt Hill
#
# Bulk Modulus (GPa) = 55.91292 56.86071 56.38682
# Shear Modulus (GPa) = 40.18373 12.73818 26.46095
#
# Velocity S-wave (km/s) = 4.54016 2.55623 3.68424
# Velocity P-wave (km/s) = 7.49437 6.15469 6.85733
#
# Compressibility (1/GPa) = 0.01788495
#
# Stress axis : x y z
#
# Youngs Moduli (GPa) = 79.92362 93.48202 69.95631
#
# Poissons Ratio (x) = 0.01142 0.45865
# Poissons Ratio (y) = 0.00976 0.21904
# Poissons Ratio (z) = 0.52400 0.29270
#
# Static dielectric constant tensor:
#      x y z
#    x 1.729050 0.000000 0.000000 
#    y 0.000000 1.702430 0.000000 
#    z 0.000000 0.000000 1.612680 
# 
# From -- ./inp_files/27021.got.cif
#   From: 2010.05.17/outbox.cif.g08.bks.cpg/sg50_14_cif.got.tgz:27021.got - 2010.06.03 11:33:33.
