data_PCOD9398541
_publ_section_title
;
Structure prediction by ZEFSAII (Michael W. Deem and Ramdas Pophale) SiO2 
 PCOD9398541
Probable space group: P M M A
;
_chemical_formula_sum "Si O2"
_cell_formula_units_Z 52
_cell_length_a 9.200545
_cell_length_b 12.063113
_cell_length_c 26.175997
_cell_angle_alpha 90.000000
_cell_angle_beta 90.000000
_cell_angle_gamma 90.000000
_cell_volume 2905.200981
_symmetry_space_group_name_H-M "P M M A"
_symmetry_group_IT_number 51
_symmetry_cell_setting 'orthorhombic'
loop_
_space_group_symop_operation_xyz
x,y,z
1/2-x,-y,z
1/2+x,-y,-z
-x,y,-z
-x,-y,-z
1/2+x,y,-z
1/2-x,y,z
x,-y,z
loop_
_atom_site_type_symbol
_atom_site_label
_atom_site_fract_x
_atom_site_fract_y
_atom_site_fract_z
Si Si1 0.424951 0.768778 0.950189
Si Si2 0.924807 0.372656 0.744435
Si Si3 0.511422 0.000000 0.174869
Si Si4 0.076221 0.869299 0.554449
Si Si5 0.578520 0.000000 0.708914
Si Si6 0.087055 0.252355 0.835425
Si Si7 0.573637 0.779314 0.651491
Si Si8 0.912986 0.000000 0.933868
O O1 0.250000 0.773565 0.955554
O O2 0.457681 0.719462 0.893840
O O3 0.495603 0.891321 0.947365
O O4 0.500000 0.714913 0.000000
O O5 0.750000 0.367346 0.747342
O O6 0.971169 0.500000 0.748924
O O7 0.964424 0.321441 0.689232
O O8 0.987175 0.301027 0.791127
O O9 0.447700 0.000000 0.231182
O O10 0.590571 0.118094 0.168592
O O11 0.402203 0.000000 0.127493
O O12 0.250000 0.854560 0.551298
O O13 0.000000 0.849865 0.500000
O O14 0.004681 0.791590 0.597360
O O15 0.048629 0.000000 0.567471
O O16 0.523805 0.111432 0.682787
O O17 0.750000 0.000000 0.700205
O O18 0.250000 0.294554 0.827545
O O19 0.750000 0.780719 0.644853
O O20 0.750000 0.000000 0.955939
#
# Coordination Sequence:
#
# PCOD9398541 Si02
#       8
#     8   8   4   8   4   8   8   4
#     4  10  20  33  48  69 100 135 174 217 265 319
#     4  10  22  39  58  80 107 142 183 224 267 319
#     4  10  18  31  48  77 110 143 176 212 262 322
#     4  10  20  33  51  79 114 150 183 217 259 312
#     4  10  17  27  47  76 107 142 178 215 262 316
#     4  10  21  35  53  78 108 140 173 218 271 322
#     4  10  19  33  53  78 110 144 178 220 264 311
#     4  10  19  28  45  69 100 141 180 213 253 313
#
# _framework density 17.898933
#
# number of rings (size 3 to 8) (size 9 to 14) (size 15 to 20)
#    0.000    2.000    2.308    1.846    0.000    6.462 
#    0.000    0.000    0.000    0.923    0.000    0.000 
#    0.000    0.000    0.000    0.000    0.000    0.000 
#
# Total GULP energy -289775.419278 kJ/mol
# GULP energy per Si atom -5572.604217 kJ/mol
# Density = 1.785819 g / cm^3
# Si number density = 17.898933 Si / 1000 Ang^3
#
#
#
# Elastic Constant Matrix: (Units=GPa)
#
#
# Indices 1 2 3 4 5 6 
#
# 1 60.8654 29.8930 47.3628 0.0000 0.0000 0.0000
# 2 29.8930 51.1083 46.9923 0.0000 0.0000 0.0000
# 3 47.3628 46.9923 151.3832 0.0000 0.0000 0.0000
# 4 0.0000 0.0000 0.0000 7.3045 0.0000 0.0000
# 5 0.0000 0.0000 0.0000 0.0000 26.4726 0.0000
# 6 0.0000 0.0000 0.0000 0.0000 0.0000 -3.3150
#
#
#
# Elastic Compliance Matrix: (Units=1/GPa)
#
#
# Indices 1 2 3 4 5 6 
#
# 1 0.025171 -0.010470 -0.004625 0.000000 0.000000 0.000000
# 2 -0.010470 0.031736 -0.006576 0.000000 0.000000 0.000000
# 3 -0.004625 -0.006576 0.010094 0.000000 0.000000 0.000000
# 4 0.000000 0.000000 0.000000 0.136902 0.000000 0.000000
# 5 0.000000 0.000000 0.000000 0.000000 0.037775 0.000000
# 6 0.000000 0.000000 0.000000 0.000000 0.000000 -0.301655
#
#
# Mechanical properties :
#
#
# Convention : Reuss Voigt Hill
#
# Bulk Modulus (GPa) = 42.26592 56.87260 49.56926
# Shear Modulus (GPa) = -571.46563 15.36634 -278.04965
#
# Velocity S-wave (km/s) = -17.88761 2.93321 -12.47724
# Velocity P-wave (km/s) = 20.07380 6.58140 13.40974
#
# Compressibility (1/GPa) = 0.02365973
#
# Stress axis : x y z
#
# Youngs Moduli (GPa) = 39.72871 31.50967 99.06768
#
# Poissons Ratio (x) = 0.32989 0.45820
# Poissons Ratio (y) = 0.41594 0.65147
# Poissons Ratio (z) = 0.18375 0.20721
#
# Static dielectric constant tensor:
#      x y z
#    x 1.616920 0.000000 0.000000 
#    y 0.000000 1.614080 0.000000 
#    z 0.000000 0.000000 1.631700 
# 
# From -- ./inp_files/36306.got.cif
#   From: 2010.05.17/outbox.cif.g08.bks.cpg/sg51_19_cif.got.tgz:36306.got - 2010.06.03 11:52:47.
