data_PCOD9398656
_publ_section_title
;
Structure prediction by ZEFSAII (Michael W. Deem and Ramdas Pophale) SiO2 
 PCOD9398656
Probable space group: P M M A
;
_chemical_formula_sum "Si O2"
_cell_formula_units_Z 64
_cell_length_a 22.498394
_cell_length_b 9.152063
_cell_length_c 20.864558
_cell_angle_alpha 90.000000
_cell_angle_beta 90.000000
_cell_angle_gamma 90.000000
_cell_volume 4296.152687
_symmetry_space_group_name_H-M "P M M A"
_symmetry_group_IT_number 51
_symmetry_cell_setting 'orthorhombic'
loop_
_space_group_symop_operation_xyz
x,y,z
1/2-x,-y,z
1/2+x,-y,-z
-x,y,-z
-x,-y,-z
1/2+x,y,-z
1/2-x,y,z
x,-y,z
loop_
_atom_site_type_symbol
_atom_site_label
_atom_site_fract_x
_atom_site_fract_y
_atom_site_fract_z
Si Si1 0.680573 0.676394 0.141189
Si Si2 0.609514 0.173243 0.255197
Si Si3 0.531318 0.173089 0.769944
Si Si4 0.928471 0.831121 0.512717
Si Si5 0.412086 0.323414 0.963673
Si Si6 0.539971 0.323413 0.902887
Si Si7 0.051918 0.331463 0.359518
Si Si8 0.409163 0.668512 0.615038
O O1 0.750000 0.710975 0.136524
O O2 0.674415 0.500000 0.146944
O O3 0.650456 0.750895 0.202408
O O4 0.643854 0.724353 0.078162
O O5 0.540213 0.196231 0.235880
O O6 0.617849 0.245583 0.324842
O O7 0.619860 0.000000 0.257998
O O8 0.552011 0.246449 0.835844
O O9 0.559638 0.248125 0.707440
O O10 0.541860 0.000000 0.769553
O O11 0.919179 0.750096 0.580066
O O12 0.899722 0.747884 0.452664
O O13 0.000000 0.829461 0.500000
O O14 0.910293 0.000000 0.515385
O O15 0.411132 0.500000 0.966011
O O16 0.472929 0.285707 0.926266
O O17 0.418493 0.276662 0.037487
O O18 0.542690 0.500000 0.895675
O O19 0.070556 0.500000 0.355514
O O20 0.980670 0.330724 0.373156
O O21 0.390031 0.500000 0.613598
#
# Coordination Sequence:
#
# PCOD9398656 Si02
#       8
#     8   8   8   8   8   8   8   8
#     4  10  19  31  47  63  80 104 136 174 211 251
#     4  10  19  29  40  56  79 105 134 170 210 250
#     4  10  18  26  37  57  81 105 134 171 210 245
#     4   9  15  23  34  50  74 102 132 167 203 236
#     4   8  15  27  43  62  79 100 133 168 207 251
#     4   9  15  26  44  59  77 105 134 168 205 249
#     4   9  16  24  35  51  73 104 138 167 198 239
#     4   9  16  25  38  53  71  99 136 173 201 234
#
# _framework density 14.897049000000001
#
# number of rings (size 3 to 8) (size 9 to 14) (size 15 to 20)
#    0.000    2.750    1.250    2.625    0.000    5.750 
#    0.000    1.875    0.000    0.000    0.000    0.000 
#    0.000    0.000    0.000    1.125    0.000   20.875 
#
# Total GULP energy -356467.571890 kJ/mol
# GULP energy per Si atom -5569.805811 kJ/mol
# Density = 1.486314 g / cm^3
# Si number density = 14.897049 Si / 1000 Ang^3
#
#
#
# Elastic Constant Matrix: (Units=GPa)
#
#
# Indices 1 2 3 4 5 6 
#
# 1 36.6710 27.0171 40.8279 0.0000 0.0000 0.0000
# 2 27.0171 80.3438 78.1914 0.0000 0.0000 0.0000
# 3 40.8279 78.1914 184.4358 0.0000 0.0000 0.0000
# 4 0.0000 0.0000 0.0000 -0.6276 0.0000 0.0000
# 5 0.0000 0.0000 0.0000 0.0000 8.2641 0.0000
# 6 0.0000 0.0000 0.0000 0.0000 0.0000 8.8028
#
#
#
# Elastic Compliance Matrix: (Units=1/GPa)
#
#
# Indices 1 2 3 4 5 6 
#
# 1 0.039008 -0.008024 -0.005233 0.000000 0.000000 0.000000
# 2 -0.008024 0.022839 -0.007907 0.000000 0.000000 0.000000
# 3 -0.005233 -0.007907 0.009932 0.000000 0.000000 0.000000
# 4 0.000000 0.000000 0.000000 -1.593258 0.000000 0.000000
# 5 0.000000 0.000000 0.000000 0.000000 0.121006 0.000000
# 6 0.000000 0.000000 0.000000 0.000000 0.000000 0.113600
#
#
# Mechanical properties :
#
#
# Convention : Reuss Voigt Hill
#
# Bulk Modulus (GPa) = 33.95364 65.94704 49.95034
# Shear Modulus (GPa) = -4.04947 13.64879 4.79966
#
# Velocity S-wave (km/s) = -1.65052 3.03018 1.79691
# Velocity P-wave (km/s) = 4.38285 7.52378 6.15697
#
# Compressibility (1/GPa) = 0.02945192
#
# Stress axis : x y z
#
# Youngs Moduli (GPa) = 25.63602 43.78384 100.68103
#
# Poissons Ratio (x) = 0.35132 0.52688
# Poissons Ratio (y) = 0.20570 0.79604
# Poissons Ratio (z) = 0.13416 0.34618
#
# Static dielectric constant tensor:
#      x y z
#    x 1.460550 0.000000 0.000000 
#    y 0.000000 1.495300 0.000000 
#    z 0.000000 0.000000 1.496810 
# 
# From -- ./inp_files/30857.got.cif
#   From: 2010.05.17/outbox.cif.g08.bks.cpg/sg51_16_cif.got.tgz:30857.got - 2010.06.03 11:52:47.
