data_PCOD9398701
_publ_section_title
;
Structure prediction by ZEFSAII (Michael W. Deem and Ramdas Pophale) SiO2 
 PCOD9398701
Probable space group: P M M A
;
_chemical_formula_sum "Si O2"
_cell_formula_units_Z 64
_cell_length_a 27.109798
_cell_length_b 9.112487
_cell_length_c 18.486664
_cell_angle_alpha 90.000000
_cell_angle_beta 90.000000
_cell_angle_gamma 90.000000
_cell_volume 4566.902620
_symmetry_space_group_name_H-M "P M M A"
_symmetry_group_IT_number 51
_symmetry_cell_setting 'orthorhombic'
loop_
_space_group_symop_operation_xyz
x,y,z
1/2-x,-y,z
1/2+x,-y,-z
-x,y,-z
-x,-y,-z
1/2+x,y,-z
1/2-x,y,z
x,-y,z
loop_
_atom_site_type_symbol
_atom_site_label
_atom_site_fract_x
_atom_site_fract_y
_atom_site_fract_z
Si Si1 0.894468 0.325300 0.075250
Si Si2 0.508171 0.674924 0.171630
Si Si3 0.692012 0.824137 0.161330
Si Si4 0.049656 0.168967 0.049058
Si Si5 0.506167 0.174032 0.327167
Si Si6 0.103610 0.175006 0.575404
Si Si7 0.194108 0.821424 0.672201
Si Si8 0.049687 0.668965 0.450783
O O1 0.891018 0.500000 0.066088
O O2 0.844938 0.258795 0.108677
O O3 0.939503 0.295892 0.131523
O O4 0.909849 0.249321 0.000046
O O5 0.502126 0.500000 0.176206
O O6 0.465951 0.744955 0.121002
O O7 0.507705 0.747334 0.250180
O O8 0.750000 0.796179 0.147316
O O9 0.682083 0.779959 0.244968
O O10 0.684235 0.000000 0.155871
O O11 0.062706 0.000000 0.063881
O O12 0.000000 0.168851 0.000000
O O13 0.558070 0.197373 0.369095
O O14 0.464292 0.241433 0.379175
O O15 0.499434 0.000000 0.318529
O O16 0.153102 0.226900 0.615361
O O17 0.090684 0.256841 0.501313
O O18 0.106632 0.000000 0.562029
O O19 0.250000 0.773887 0.655784
O O20 0.193874 0.000000 0.671633
O O21 0.061035 0.500000 0.434260
O O22 0.000000 0.671509 0.500000
#
# Coordination Sequence:
#
# PCOD9398701 Si02
#       8
#     8   8   8   8   8   8   8   8
#     4  10  19  29  42  60  84 113 141 171 209 250
#     4  10  19  29  41  60  86 112 138 169 207 249
#     4   9  17  29  44  61  82 110 145 181 211 241
#     4   9  17  29  44  60  79 106 140 174 205 241
#     4  10  18  27  41  60  81 107 140 173 203 240
#     4   9  16  26  41  59  79 106 140 173 203 240
#     4   8  14  25  41  60  81 106 138 175 209 238
#     4   9  17  28  40  55  78 106 134 167 207 247
#
# _framework density 14.013873999999999
#
# number of rings (size 3 to 8) (size 9 to 14) (size 15 to 20)
#    0.000    2.750    0.000    3.375    0.000    6.250 
#    0.000    0.625    0.000    1.125    0.000    0.000 
#    0.000    1.000    0.000    6.000    0.000    4.625 
#
# Total GULP energy -356616.336582 kJ/mol
# GULP energy per Si atom -5572.130259 kJ/mol
# Density = 1.398198 g / cm^3
# Si number density = 14.013874 Si / 1000 Ang^3
#
#
#
# Elastic Constant Matrix: (Units=GPa)
#
#
# Indices 1 2 3 4 5 6 
#
# 1 65.3263 37.9882 32.5338 0.0000 0.0000 0.0000
# 2 37.9882 72.8926 55.7849 0.0000 0.0000 0.0000
# 3 32.5338 55.7849 75.2759 0.0000 0.0000 0.0000
# 4 0.0000 0.0000 0.0000 23.6117 0.0000 0.0000
# 5 0.0000 0.0000 0.0000 0.0000 27.2966 0.0000
# 6 0.0000 0.0000 0.0000 0.0000 0.0000 16.2214
#
#
#
# Elastic Compliance Matrix: (Units=1/GPa)
#
#
# Indices 1 2 3 4 5 6 
#
# 1 0.022143 -0.009740 -0.002352 0.000000 0.000000 0.000000
# 2 -0.009740 0.035978 -0.022453 0.000000 0.000000 0.000000
# 3 -0.002352 -0.022453 0.030940 0.000000 0.000000 0.000000
# 4 0.000000 0.000000 0.000000 0.042352 0.000000 0.000000
# 5 0.000000 0.000000 0.000000 0.000000 0.036635 0.000000
# 6 0.000000 0.000000 0.000000 0.000000 0.000000 0.061647
#
#
# Mechanical properties :
#
#
# Convention : Reuss Voigt Hill
#
# Bulk Modulus (GPa) = 50.07096 51.78984 50.93040
# Shear Modulus (GPa) = 16.36978 19.23847 17.80412
#
# Velocity S-wave (km/s) = 3.42147 3.70917 3.56822
# Velocity P-wave (km/s) = 7.17048 7.44179 7.30740
#
# Compressibility (1/GPa) = 0.01997166
#
# Stress axis : x y z
#
# Youngs Moduli (GPa) = 45.16089 27.79495 32.32045
#
# Poissons Ratio (x) = 0.27072 0.07603
# Poissons Ratio (y) = 0.43985 0.72568
# Poissons Ratio (z) = 0.10623 0.62407
#
# Static dielectric constant tensor:
#      x y z
#    x 1.447360 0.000000 0.000000 
#    y 0.000000 1.466180 0.000000 
#    z 0.000000 0.000000 1.442350 
# 
# From -- ./inp_files/30949.got.cif
#   From: 2010.05.17/outbox.cif.g08.bks.cpg/sg51_16_cif.got.tgz:30949.got - 2010.06.03 11:52:47.
