data_PCOD9398097
_publ_section_title
;
Structure prediction by ZEFSAII (Michael W. Deem and Ramdas Pophale) SiO2 
 PCOD9398097
Probable space group: P B A N
;
_chemical_formula_sum "Si O2"
_cell_formula_units_Z 54
_cell_length_a 12.486620
_cell_length_b 20.554570
_cell_length_c 9.387068
_cell_angle_alpha 90.000000
_cell_angle_beta 90.000000
_cell_angle_gamma 90.000000
_cell_volume 2409.257696
_symmetry_space_group_name_H-M "P B A N"
_symmetry_group_IT_number 50
_space_group.IT_coordinate_system_code '2'
_symmetry_cell_setting 'orthorhombic'
loop_
_space_group_symop_operation_xyz
x,y,z
1/2-x,1/2-y,z
x,1/2-y,-z
1/2-x,y,-z
-x,-y,-z
1/2+x,1/2+y,-z
-x,1/2+y,z
1/2+x,-y,z
loop_
_atom_site_type_symbol
_atom_site_label
_atom_site_fract_x
_atom_site_fract_y
_atom_site_fract_z
Si Si1 0.385755 0.325029 0.274088
Si Si2 0.437280 0.505866 0.146049
Si Si3 0.237997 0.058682 0.755215
Si Si4 0.476453 0.359494 0.780948
Si Si5 0.570964 0.750000 0.000000
Si Si6 0.569290 0.322901 0.478596
Si Si7 0.250000 0.250000 0.500000
Si Si8 0.085008 0.964160 0.603248
O O1 0.328659 0.393199 0.300443
O O2 0.369757 0.296060 0.116260
O O3 0.506625 0.320953 0.327936
O O4 0.326740 0.284112 0.391243
O O5 0.314575 0.482542 0.140052
O O6 0.442666 0.580901 0.194678
O O7 0.514444 0.464402 0.251621
O O8 0.500000 0.500000 0.000000
O O9 0.140570 0.106362 0.801747
O O10 0.184049 0.010376 0.642879
O O11 0.494551 0.334169 0.619650
O O12 0.487654 0.301787 0.895792
O O13 0.618017 0.250000 0.500000
O O14 0.621777 0.394562 0.458635
O O15 0.000000 0.000000 0.500000
#
# Coordination Sequence:
#
# PCOD9398097 Si02
#       8
#     8   8   8   8   4   8   2   8
#     4  12  23  36  65  95 136 183 225 288 369 443
#     4  11  24  41  67  97 139 184 238 294 367 441
#     4  11  24  42  66  99 138 182 236 302 364 435
#     4  11  25  42  64 101 139 183 239 293 374 451
#     4  12  24  43  64 100 143 184 232 303 372 462
#     4  12  22  44  64  99 140 188 237 300 361 447
#     4  12  24  34  52 100 140 178 220 268 364 450
#     4  11  24  43  65  99 138 184 239 294 362 436
#
# _framework density 22.413542
#
# number of rings (size 3 to 8) (size 9 to 14) (size 15 to 20)
#    0.000    0.593    6.667    2.667    0.000    9.185 
#    0.000    0.000    0.000    1.778    0.000    1.037 
#    0.000    0.000    0.000    0.000    0.000    0.000 
#
# Total GULP energy -300836.060916 kJ/mol
# GULP energy per Si atom -5571.038165 kJ/mol
# Density = 2.236253 g / cm^3
# Si number density = 22.413542 Si / 1000 Ang^3
#
#
#
# Elastic Constant Matrix: (Units=GPa)
#
#
# Indices 1 2 3 4 5 6 
#
# 1 69.2022 33.4037 39.0942 0.0000 0.0000 0.0000
# 2 33.4037 168.1135 41.9632 0.0000 0.0000 0.0000
# 3 39.0942 41.9632 153.8442 0.0000 0.0000 0.0000
# 4 0.0000 0.0000 0.0000 37.3128 0.0000 0.0000
# 5 0.0000 0.0000 0.0000 0.0000 29.6626 0.0000
# 6 0.0000 0.0000 0.0000 0.0000 0.0000 17.9010
#
#
#
# Elastic Compliance Matrix: (Units=1/GPa)
#
#
# Indices 1 2 3 4 5 6 
#
# 1 0.017868 -0.002593 -0.003833 0.000000 0.000000 0.000000
# 2 -0.002593 0.006759 -0.001185 0.000000 0.000000 0.000000
# 3 -0.003833 -0.001185 0.007797 0.000000 0.000000 0.000000
# 4 0.000000 0.000000 0.000000 0.026800 0.000000 0.000000
# 5 0.000000 0.000000 0.000000 0.000000 0.033712 0.000000
# 6 0.000000 0.000000 0.000000 0.000000 0.000000 0.055863
#
#
# Mechanical properties :
#
#
# Convention : Reuss Voigt Hill
#
# Bulk Modulus (GPa) = 58.13312 68.89803 63.51557
# Shear Modulus (GPa) = 29.45395 35.42186 32.43791
#
# Velocity S-wave (km/s) = 3.62900 3.97971 3.80840
# Velocity P-wave (km/s) = 6.59943 7.20581 6.90927
#
# Compressibility (1/GPa) = 0.01720190
#
# Stress axis : x y z
#
# Youngs Moduli (GPa) = 55.96704 147.94233 128.25027
#
# Poissons Ratio (x) = 0.38369 0.49159
# Poissons Ratio (y) = 0.14515 0.15193
# Poissons Ratio (z) = 0.21452 0.17526
#
# Static dielectric constant tensor:
#      x y z
#    x 1.841110 0.000000 0.000000 
#    y 0.000000 1.941910 0.000000 
#    z 0.000000 0.000000 1.908530 
# 
# From -- ./inp_files/13256.got.cif
#   From: 2010.05.17/outbox.cif.g08.bks.cpg/sg50_7_cif.got.tgz:13256.got - 2010.06.03 11:33:33.
