data_PCOD9398791
_publ_section_title
;
Structure prediction by ZEFSAII (Michael W. Deem and Ramdas Pophale) SiO2 
 PCOD9398791
Probable space group: P M M A
;
_chemical_formula_sum "Si O2"
_cell_formula_units_Z 56
_cell_length_a 30.554214
_cell_length_b 7.962621
_cell_length_c 14.172991
_cell_angle_alpha 90.000000
_cell_angle_beta 90.000000
_cell_angle_gamma 90.000000
_cell_volume 3448.170026
_symmetry_space_group_name_H-M "P M M A"
_symmetry_group_IT_number 51
_symmetry_cell_setting 'orthorhombic'
loop_
_space_group_symop_operation_xyz
x,y,z
1/2-x,-y,z
1/2+x,-y,-z
-x,y,-z
-x,-y,-z
1/2+x,y,-z
1/2-x,y,z
x,-y,z
loop_
_atom_site_type_symbol
_atom_site_label
_atom_site_fract_x
_atom_site_fract_y
_atom_site_fract_z
Si Si1 0.568275 0.202833 0.958841
Si Si2 0.842195 0.300787 0.864205
Si Si3 0.750000 0.692500 0.635091
Si Si4 0.521146 0.298263 0.356714
Si Si5 0.750000 0.808641 0.844129
Si Si6 0.067740 0.294675 0.456919
Si Si7 0.654972 0.293852 0.646120
Si Si8 0.481220 0.201664 0.856154
O O1 0.615832 0.259250 0.926529
O O2 0.529903 0.260476 0.886901
O O3 0.568220 0.000000 0.958343
O O4 0.552340 0.259570 0.062552
O O5 0.836886 0.500000 0.861644
O O6 0.795656 0.225305 0.896044
O O7 0.850238 0.242620 0.755764
O O8 0.750000 0.500000 0.601918
O O9 0.750000 0.695229 0.749842
O O10 0.797404 0.766158 0.610261
O O11 0.520667 0.500000 0.361068
O O12 0.555208 0.240729 0.437084
O O13 0.472828 0.241663 0.390496
O O14 0.530110 0.249169 0.249889
O O15 0.750000 0.000000 0.810859
O O16 0.068419 0.500000 0.456106
O O17 0.113897 0.237702 0.415554
O O18 0.655783 0.500000 0.645338
O O19 0.482067 0.000000 0.861518
#
# Coordination Sequence:
#
# PCOD9398791 Si02
#       8
#     8   8   4   8   4   8   8   8
#     4   9  18  31  44  60  83 114 144 170 211 263
#     4  10  18  28  44  66  88 110 141 181 211 239
#     4   8  14  24  38  58  81 106 139 174 201 234
#     4   9  16  26  41  59  79 105 140 174 205 244
#     4  10  18  28  42  60  87 120 143 164 205 260
#     4   8  14  24  38  58  82 107 134 168 208 249
#     4   8  13  22  37  57  82 107 130 162 207 246
#     4   9  18  31  44  59  85 114 140 174 214 256
#
# _framework density 16.240497000000001
#
# number of rings (size 3 to 8) (size 9 to 14) (size 15 to 20)
#    0.000    3.143    0.000    4.500    0.000    2.286 
#    0.000    2.857    0.000    4.286    0.000    1.000 
#    0.000    2.286    0.000    0.000    0.000    0.286 
#
# Total GULP energy -311811.655749 kJ/mol
# GULP energy per Si atom -5568.065281 kJ/mol
# Density = 1.620353 g / cm^3
# Si number density = 16.240497 Si / 1000 Ang^3
#
#
#
# Elastic Constant Matrix: (Units=GPa)
#
#
# Indices 1 2 3 4 5 6 
#
# 1 167.2797 12.6377 69.1389 0.0000 0.0000 0.0000
# 2 12.6377 20.2448 7.2881 0.0000 0.0000 0.0000
# 3 69.1389 7.2881 96.8600 0.0000 0.0000 0.0000
# 4 0.0000 0.0000 0.0000 24.4605 0.0000 0.0000
# 5 0.0000 0.0000 0.0000 0.0000 23.7128 0.0000
# 6 0.0000 0.0000 0.0000 0.0000 0.0000 18.4206
#
#
#
# Elastic Compliance Matrix: (Units=1/GPa)
#
#
# Indices 1 2 3 4 5 6 
#
# 1 0.008686 -0.003279 -0.005954 0.000000 0.000000 0.000000
# 2 -0.003279 0.052009 -0.001573 0.000000 0.000000 0.000000
# 3 -0.005954 -0.001573 0.014692 0.000000 0.000000 0.000000
# 4 0.000000 0.000000 0.000000 0.040882 0.000000 0.000000
# 5 0.000000 0.000000 0.000000 0.000000 0.042171 0.000000
# 6 0.000000 0.000000 0.000000 0.000000 0.000000 0.054287
#
#
# Mechanical properties :
#
#
# Convention : Reuss Voigt Hill
#
# Bulk Modulus (GPa) = 18.59551 51.39043 34.99297
# Shear Modulus (GPa) = 19.82048 26.34012 23.08030
#
# Velocity S-wave (km/s) = 3.49726 4.03162 3.77391
# Velocity P-wave (km/s) = 5.27093 7.30644 6.37051
#
# Compressibility (1/GPa) = 0.05377641
#
# Stress axis : x y z
#
# Youngs Moduli (GPa) = 115.12130 19.22757 68.06305
#
# Poissons Ratio (x) = 0.06305 0.40523
# Poissons Ratio (y) = 0.37751 0.10704
# Poissons Ratio (z) = 0.68540 0.03024
#
# Static dielectric constant tensor:
#      x y z
#    x 1.569640 0.000000 0.000000 
#    y 0.000000 1.586380 0.000000 
#    z 0.000000 0.000000 1.529330 
# 
# From -- ./inp_files/26559.got.cif
#   From: 2010.05.17/outbox.cif.g08.bks.cpg/sg51_14_cif.got.tgz:26559.got - 2010.06.03 11:52:47.
