data_PCOD9398523
_publ_section_title
;
Structure prediction by ZEFSAII (Michael W. Deem and Ramdas Pophale) SiO2 
 PCOD9398523
Probable space group: P M M A
;
_chemical_formula_sum "Si O2"
_cell_formula_units_Z 56
_cell_length_a 15.370688
_cell_length_b 15.380200
_cell_length_c 12.531156
_cell_angle_alpha 90.000000
_cell_angle_beta 90.000000
_cell_angle_gamma 90.000000
_cell_volume 2962.418606
_symmetry_space_group_name_H-M "P M M A"
_symmetry_group_IT_number 51
_symmetry_cell_setting 'orthorhombic'
loop_
_space_group_symop_operation_xyz
x,y,z
1/2-x,-y,z
1/2+x,-y,-z
-x,y,-z
-x,-y,-z
1/2+x,y,-z
1/2-x,y,z
x,-y,z
loop_
_atom_site_type_symbol
_atom_site_label
_atom_site_fract_x
_atom_site_fract_y
_atom_site_fract_z
Si Si1 0.144308 0.596350 0.788115
Si Si2 0.400398 0.594952 0.540707
Si Si3 0.149523 0.778599 0.871120
Si Si4 0.606793 0.782390 0.514674
Si Si5 0.098256 0.097268 0.046585
Si Si6 0.102017 0.098030 0.679477
Si Si7 0.397295 0.904813 0.300977
O O1 0.250000 0.597173 0.779777
O O2 0.120314 0.500000 0.829841
O O3 0.106038 0.604441 0.668847
O O4 0.114732 0.680786 0.854934
O O5 0.500000 0.592063 0.500000
O O6 0.361363 0.500000 0.514404
O O7 0.361336 0.683660 0.494832
O O8 0.250000 0.773401 0.842847
O O9 0.111319 0.847173 0.787301
O O10 0.140936 0.822522 0.985943
O O11 0.500000 0.777878 0.500000
O O12 0.636955 0.844329 0.417869
O O13 0.634762 0.827452 0.624628
O O14 0.104061 0.108659 0.173789
O O15 0.134264 0.000000 0.022077
O O16 0.000000 0.096333 0.000000
O O17 0.998498 0.089087 0.665713
O O18 0.138084 0.000000 0.686158
O O19 0.357653 0.000000 0.323410
#
# Coordination Sequence:
#
# PCOD9398523 Si02
#       7
#     8   8   8   8   8   8   8
#     4   9  18  33  51  72 101 133 164 201 251 312
#     4   9  16  26  44  71  99 126 160 202 247 293
#     4  11  21  32  50  75  98 125 163 210 258 295
#     4   9  16  26  43  68  97 126 158 194 241 286
#     4  10  19  32  49  69  96 133 173 208 244 292
#     4  10  17  27  44  70 100 125 155 199 245 289
#     4   9  17  29  46  67  93 130 169 196 228 287
#
# _framework density 18.903472000000001
#
# number of rings (size 3 to 8) (size 9 to 14) (size 15 to 20)
#    0.000    2.429    2.857    0.857    0.000    2.857 
#    0.000    0.000    0.000    3.000    0.000    2.000 
#    0.000    0.000    0.000    0.000    0.000    0.000 
#
# Total GULP energy -311831.744035 kJ/mol
# GULP energy per Si atom -5568.424001 kJ/mol
# Density = 1.886045 g / cm^3
# Si number density = 18.903472 Si / 1000 Ang^3
#
#
#
# Elastic Constant Matrix: (Units=GPa)
#
#
# Indices 1 2 3 4 5 6 
#
# 1 21.0579 7.0790 -9.8882 0.0000 0.0000 0.0000
# 2 7.0790 223.4030 81.4507 0.0000 0.0000 0.0000
# 3 -9.8882 81.4507 83.3983 0.0000 0.0000 0.0000
# 4 0.0000 0.0000 0.0000 34.1024 0.0000 0.0000
# 5 0.0000 0.0000 0.0000 0.0000 3.1259 0.0000
# 6 0.0000 0.0000 0.0000 0.0000 0.0000 -6.7492
#
#
#
# Elastic Compliance Matrix: (Units=1/GPa)
#
#
# Indices 1 2 3 4 5 6 
#
# 1 0.055746 -0.006486 0.012944 0.000000 0.000000 0.000000
# 2 -0.006486 0.007706 -0.008295 0.000000 0.000000 0.000000
# 3 0.012944 -0.008295 0.021627 0.000000 0.000000 0.000000
# 4 0.000000 0.000000 0.000000 0.029323 0.000000 0.000000
# 5 0.000000 0.000000 0.000000 0.000000 0.319906 0.000000
# 6 0.000000 0.000000 0.000000 0.000000 0.000000 -0.148165
#
#
# Mechanical properties :
#
#
# Convention : Reuss Voigt Hill
#
# Bulk Modulus (GPa) = 12.28420 53.90468 33.09444
# Shear Modulus (GPa) = 15.77520 22.71032 19.24276
#
# Velocity S-wave (km/s) = 2.89193 3.46986 3.19399
# Velocity P-wave (km/s) = 4.20280 6.68063 5.58097
#
# Compressibility (1/GPa) = 0.08140538
#
# Stress axis : x y z
#
# Youngs Moduli (GPa) = 17.93837 129.76872 46.23920
#
# Poissons Ratio (x) = 0.84163 -0.59851
# Poissons Ratio (y) = 0.11634 0.38356
# Poissons Ratio (z) = -0.23219 1.07644
#
# Static dielectric constant tensor:
#      x y z
#    x 1.693500 0.000000 0.000000 
#    y 0.000000 1.722460 0.000000 
#    z 0.000000 0.000000 1.640770 
# 
# From -- ./inp_files/16591.got.cif
#   From: 2010.05.17/outbox.cif.g08.bks.cpg/sg51_9_cif.got.tgz:16591.got - 2010.06.03 11:52:47.
