data_PCOD9398977
_publ_section_title
;
Structure prediction by ZEFSAII (Michael W. Deem and Ramdas Pophale) SiO2 
 PCOD9398977
Probable space group: P M M A
;
_chemical_formula_sum "Si O2"
_cell_formula_units_Z 52
_cell_length_a 8.706484
_cell_length_b 27.235293
_cell_length_c 14.046417
_cell_angle_alpha 90.000000
_cell_angle_beta 90.000000
_cell_angle_gamma 90.000000
_cell_volume 3330.737566
_symmetry_space_group_name_H-M "P M M A"
_symmetry_group_IT_number 51
_symmetry_cell_setting 'orthorhombic'
loop_
_space_group_symop_operation_xyz
x,y,z
1/2-x,-y,z
1/2+x,-y,-z
-x,y,-z
-x,-y,-z
1/2+x,y,-z
1/2-x,y,z
x,-y,z
loop_
_atom_site_type_symbol
_atom_site_label
_atom_site_fract_x
_atom_site_fract_y
_atom_site_fract_z
Si Si1 0.064949 0.392166 0.392259
Si Si2 0.065169 0.296591 0.704933
Si Si3 0.434016 0.756267 0.896350
Si Si4 0.066463 0.200898 0.396285
Si Si5 0.565552 0.500000 0.606534
Si Si6 0.934423 0.146578 0.217572
Si Si7 0.433728 0.056916 0.105220
O O1 0.250000 0.388562 0.396019
O O2 0.020975 0.446625 0.353397
O O3 0.000000 0.387769 0.500000
O O4 0.997512 0.348593 0.329289
O O5 0.250000 0.295264 0.698010
O O6 0.020948 0.281709 0.812898
O O7 0.997354 0.253758 0.638105
O O8 0.250000 0.755623 0.902462
O O9 0.479205 0.810207 0.857085
O O10 0.500000 0.746448 0.000000
O O11 0.250000 0.202076 0.398306
O O12 0.000000 0.189854 0.500000
O O13 0.007307 0.162405 0.317647
O O14 0.750000 0.500000 0.601936
O O15 0.500000 0.500000 0.500000
O O16 0.750000 0.147016 0.225696
O O17 0.993434 0.095115 0.178219
O O18 0.250000 0.062609 0.103288
O O19 0.469436 0.000000 0.128055
O O20 0.500000 0.066942 0.000000
#
# Coordination Sequence:
#
# PCOD9398977 Si02
#       7
#     8   8   8   8   4   8   8
#     4  10  18  29  45  66  92 124 156 191 232 276
#     4  10  20  33  46  67  96 125 157 193 232 277
#     4   9  19  32  47  67  93 121 151 188 229 275
#     4  11  21  34  51  71  96 127 161 196 234 278
#     4   8  16  28  42  62  89 118 153 190 229 276
#     4  10  20  34  51  73  99 127 159 195 236 284
#     4  10  20  33  50  74 102 131 163 199 240 285
#
# _framework density 15.612157
#
# number of rings (size 3 to 8) (size 9 to 14) (size 15 to 20)
#    0.000    2.154    0.000    5.077    0.000    6.462 
#    0.000    0.000    0.000    0.462    0.000    0.538 
#    0.000    0.000    0.000    0.000    0.000    0.000 
#
# Total GULP energy -290061.428443 kJ/mol
# GULP energy per Si atom -5578.104393 kJ/mol
# Density = 1.557662 g / cm^3
# Si number density = 15.612157 Si / 1000 Ang^3
#
#
#
# Elastic Constant Matrix: (Units=GPa)
#
#
# Indices 1 2 3 4 5 6 
#
# 1 75.1346 53.5264 46.6789 0.0000 0.0000 0.0000
# 2 53.5264 133.1743 77.3104 0.0000 0.0000 0.0000
# 3 46.6789 77.3104 115.9772 0.0000 0.0000 0.0000
# 4 0.0000 0.0000 0.0000 21.2464 0.0000 0.0000
# 5 0.0000 0.0000 0.0000 0.0000 28.5805 0.0000
# 6 0.0000 0.0000 0.0000 0.0000 0.0000 38.7490
#
#
#
# Elastic Compliance Matrix: (Units=1/GPa)
#
#
# Indices 1 2 3 4 5 6 
#
# 1 0.019922 -0.005469 -0.004373 0.000000 0.000000 0.000000
# 2 -0.005469 0.013750 -0.006965 0.000000 0.000000 0.000000
# 3 -0.004373 -0.006965 0.015025 0.000000 0.000000 0.000000
# 4 0.000000 0.000000 0.000000 0.047067 0.000000 0.000000
# 5 0.000000 0.000000 0.000000 0.000000 0.034989 0.000000
# 6 0.000000 0.000000 0.000000 0.000000 0.000000 0.025807
#
#
# Mechanical properties :
#
#
# Convention : Reuss Voigt Hill
#
# Bulk Modulus (GPa) = 66.29253 75.47973 70.88613
# Shear Modulus (GPa) = 25.61458 27.49987 26.55723
#
# Velocity S-wave (km/s) = 4.05493 4.20150 4.12887
# Velocity P-wave (km/s) = 8.02979 8.48461 8.26033
#
# Compressibility (1/GPa) = 0.01508466
#
# Stress axis : x y z
#
# Youngs Moduli (GPa) = 50.19540 72.72628 66.55508
#
# Poissons Ratio (x) = 0.39772 0.29104
# Poissons Ratio (y) = 0.27450 0.46354
# Poissons Ratio (z) = 0.21950 0.50652
#
# Static dielectric constant tensor:
#      x y z
#    x 1.521930 0.000000 0.000000 
#    y 0.000000 1.529980 0.000000 
#    z 0.000000 0.000000 1.495430 
# 
# From -- ./inp_files/14633.got.cif
#   From: 2010.05.17/outbox.cif.g08.bks.cpg/sg51_8_cif.got.tgz:14633.got - 2010.06.03 11:52:47.
