data_PCOD9398461
_publ_section_title
;
Structure prediction by ZEFSAII (Michael W. Deem and Ramdas Pophale) SiO2 
 PCOD9398461
Probable space group: P M M A
;
_chemical_formula_sum "Si O2"
_cell_formula_units_Z 64
_cell_length_a 19.639127
_cell_length_b 7.829472
_cell_length_c 23.047559
_cell_angle_alpha 90.000000
_cell_angle_beta 90.000000
_cell_angle_gamma 90.000000
_cell_volume 3543.884746
_symmetry_space_group_name_H-M "P M M A"
_symmetry_group_IT_number 51
_symmetry_cell_setting 'orthorhombic'
loop_
_space_group_symop_operation_xyz
x,y,z
1/2-x,-y,z
1/2+x,-y,-z
-x,y,-z
-x,-y,-z
1/2+x,y,-z
1/2-x,y,z
x,-y,z
loop_
_atom_site_type_symbol
_atom_site_label
_atom_site_fract_x
_atom_site_fract_y
_atom_site_fract_z
Si Si1 0.533547 0.799654 0.941158
Si Si2 0.325243 0.800289 0.639808
Si Si3 0.325295 0.205806 0.878296
Si Si4 0.468141 0.796459 0.419849
Si Si5 0.463831 0.790766 0.824286
Si Si6 0.673354 0.703665 0.987588
Si Si7 0.467699 0.208673 0.695136
Si Si8 0.611015 0.305186 0.475505
O O1 0.506943 0.730215 0.879903
O O2 0.614002 0.782157 0.949239
O O3 0.514374 0.000000 0.940795
O O4 0.500000 0.724058 0.000000
O O5 0.250000 0.726227 0.652006
O O6 0.392712 0.731543 0.672728
O O7 0.341298 0.788854 0.570830
O O8 0.322367 0.000000 0.655448
O O9 0.250000 0.270839 0.863525
O O10 0.386151 0.261590 0.837356
O O11 0.323655 0.000000 0.876137
O O12 0.340358 0.254434 0.944839
O O13 0.475250 0.746072 0.352638
O O14 0.402392 0.753869 0.458503
O O15 0.535442 0.713289 0.447950
O O16 0.478217 0.000000 0.424391
O O17 0.483263 0.732906 0.760075
O O18 0.466666 0.000000 0.823700
O O19 0.750000 0.765141 0.974910
O O20 0.671758 0.500000 0.980874
O O21 0.464748 0.000000 0.695644
O O22 0.632777 0.500000 0.475902
#
# Coordination Sequence:
#
# PCOD9398461 Si02
#       8
#     8   8   8   8   8   8   8   8
#     4  10  18  30  48  70  94 120 149 189 240 286
#     4   9  17  29  44  63  90 123 156 185 214 254
#     4   9  16  27  44  64  88 119 152 186 225 271
#     4   9  15  26  43  62  85 111 143 181 222 260
#     4   9  16  27  43  67  95 119 152 194 233 274
#     4  10  20  32  46  65  89 116 148 188 233 281
#     4   8  15  26  42  64  89 118 150 186 222 260
#     4  10  17  25  41  64  87 112 144 181 221 257
#
# _framework density 18.059279
#
# number of rings (size 3 to 8) (size 9 to 14) (size 15 to 20)
#    0.000    2.750    1.250    3.375    0.000    1.750 
#    0.000    2.500    0.000    7.500    0.000    4.375 
#    0.000    3.000    0.000    0.000    0.000    0.000 
#
# Total GULP energy -356345.125200 kJ/mol
# GULP energy per Si atom -5567.892581 kJ/mol
# Density = 1.801818 g / cm^3
# Si number density = 18.059279 Si / 1000 Ang^3
#
#
#
# Elastic Constant Matrix: (Units=GPa)
#
#
# Indices 1 2 3 4 5 6 
#
# 1 28.9742 -6.8980 33.4183 0.0000 0.0000 0.0000
# 2 -6.8980 22.3968 1.2982 0.0000 0.0000 0.0000
# 3 33.4183 1.2982 130.0369 0.0000 0.0000 0.0000
# 4 0.0000 0.0000 0.0000 25.0337 0.0000 0.0000
# 5 0.0000 0.0000 0.0000 0.0000 23.8075 0.0000
# 6 0.0000 0.0000 0.0000 0.0000 0.0000 6.8631
#
#
#
# Elastic Compliance Matrix: (Units=1/GPa)
#
#
# Indices 1 2 3 4 5 6 
#
# 1 0.055403 0.017899 -0.014417 0.000000 0.000000 0.000000
# 2 0.017899 0.050458 -0.005104 0.000000 0.000000 0.000000
# 3 -0.014417 -0.005104 0.011446 0.000000 0.000000 0.000000
# 4 0.000000 0.000000 0.000000 0.039946 0.000000 0.000000
# 5 0.000000 0.000000 0.000000 0.000000 0.042004 0.000000
# 6 0.000000 0.000000 0.000000 0.000000 0.000000 0.145706
#
#
# Mechanical properties :
#
#
# Convention : Reuss Voigt Hill
#
# Bulk Modulus (GPa) = 8.76696 26.33829 17.55263
# Shear Modulus (GPa) = 12.94576 21.38015 17.16296
#
# Velocity S-wave (km/s) = 2.68031 3.44450 3.08615
# Velocity P-wave (km/s) = 3.80050 5.51683 4.73705
#
# Compressibility (1/GPa) = 0.11406457
#
# Stress axis : x y z
#
# Youngs Moduli (GPa) = 18.04965 19.81847 87.36655
#
# Poissons Ratio (x) = -0.35474 1.25954
# Poissons Ratio (y) = -0.32308 0.44589
# Poissons Ratio (z) = 0.26022 0.10115
#
# Static dielectric constant tensor:
#      x y z
#    x 1.628800 0.000000 0.000000 
#    y 0.000000 1.660670 0.000000 
#    z 0.000000 0.000000 1.655080 
# 
# From -- ./inp_files/35963.got.cif
#   From: 2010.05.17/outbox.cif.g08.bks.cpg/sg51_18_cif.got.tgz:35963.got - 2010.06.03 11:52:47.
