data_PCOD9398023
_publ_section_title
;
Structure prediction by ZEFSAII (Michael W. Deem and Ramdas Pophale) SiO2 
 PCOD9398023
Probable space group: P B A N
;
_chemical_formula_sum "Si O2"
_cell_formula_units_Z 64
_cell_length_a 16.358200
_cell_length_b 8.805540
_cell_length_c 21.541794
_cell_angle_alpha 90.000000
_cell_angle_beta 90.000000
_cell_angle_gamma 90.000000
_cell_volume 3102.939989
_symmetry_space_group_name_H-M "P B A N"
_symmetry_group_IT_number 50
_space_group.IT_coordinate_system_code '2'
_symmetry_cell_setting 'orthorhombic'
loop_
_space_group_symop_operation_xyz
x,y,z
1/2-x,1/2-y,z
x,1/2-y,-z
1/2-x,y,-z
-x,-y,-z
1/2+x,1/2+y,-z
-x,1/2+y,z
1/2+x,-y,z
loop_
_atom_site_type_symbol
_atom_site_label
_atom_site_fract_x
_atom_site_fract_y
_atom_site_fract_z
Si Si1 0.436534 0.413613 0.360564
Si Si2 0.053905 0.623346 0.244922
Si Si3 0.545912 0.657155 0.158965
Si Si4 0.158511 0.699693 0.665265
Si Si5 0.565040 0.098602 0.039666
Si Si6 0.159802 0.182346 0.063465
Si Si7 0.841864 0.816835 0.433748
Si Si8 0.575049 0.371060 0.444392
O O1 0.499400 0.432446 0.303414
O O2 0.361085 0.522332 0.342248
O O3 0.397603 0.249899 0.378070
O O4 0.489080 0.448437 0.423494
O O5 0.075426 0.491687 0.195917
O O6 0.129626 0.719784 0.271386
O O7 0.995434 0.738178 0.209600
O O8 0.479076 0.624238 0.105572
O O9 0.614214 0.751788 0.122857
O O10 0.250000 0.750000 0.651973
O O11 0.098698 0.768483 0.613995
O O12 0.644718 0.996260 0.054494
O O13 0.582413 0.250000 0.000000
O O14 0.500000 0.000000 0.000000
O O15 0.250000 0.250000 0.065966
O O16 0.121992 0.250000 0.000000
O O17 0.750000 0.750000 0.424762
O O18 0.869167 0.750000 0.500000
O O19 0.856592 0.995982 0.443960
O O20 0.572367 0.250000 0.500000
#
# Coordination Sequence:
#
# PCOD9398023 Si02
#       8
#     8   8   8   8   8   8   8   8
#     4  11  23  43  65  91 129 174 222 277 334 396
#     4  11  24  41  66  91 128 175 234 278 319 405
#     4  12  21  42  70  95 128 176 232 274 329 406
#     4  11  24  43  63  91 132 174 221 284 344 394
#     4  12  20  39  75 103 130 182 226 276 342 410
#     4  11  24  43  66 101 147 173 216 288 349 400
#     4  11  24  41  62  95 133 167 213 273 342 412
#     4  11  23  40  70  99 125 169 222 277 339 408
#
# _framework density 20.625601
#
# number of rings (size 3 to 8) (size 9 to 14) (size 15 to 20)
#    0.000    0.750    5.000    3.375    1.750    2.750 
#    4.500    1.250    0.000    0.000    0.000    0.000 
#    0.000    0.000    0.000    0.000    0.000    0.000 
#
# Total GULP energy -356951.681606 kJ/mol
# GULP energy per Si atom -5577.370025 kJ/mol
# Density = 2.057866 g / cm^3
# Si number density = 20.625601 Si / 1000 Ang^3
#
#
#
# Elastic Constant Matrix: (Units=GPa)
#
#
# Indices 1 2 3 4 5 6 
#
# 1 85.8588 35.7750 12.5808 0.0000 0.0000 0.0000
# 2 35.7750 136.0712 41.2168 0.0000 0.0000 0.0000
# 3 12.5808 41.2168 92.1006 0.0000 0.0000 0.0000
# 4 0.0000 0.0000 0.0000 18.0168 0.0000 0.0000
# 5 0.0000 0.0000 0.0000 0.0000 15.3481 0.0000
# 6 0.0000 0.0000 0.0000 0.0000 0.0000 29.7339
#
#
#
# Elastic Compliance Matrix: (Units=1/GPa)
#
#
# Indices 1 2 3 4 5 6 
#
# 1 0.013086 -0.003354 -0.000287 0.000000 0.000000 0.000000
# 2 -0.003354 0.009361 -0.003731 0.000000 0.000000 0.000000
# 3 -0.000287 -0.003731 0.012567 0.000000 0.000000 0.000000
# 4 0.000000 0.000000 0.000000 0.055504 0.000000 0.000000
# 5 0.000000 0.000000 0.000000 0.000000 0.065155 0.000000
# 6 0.000000 0.000000 0.000000 0.000000 0.000000 0.033632
#
#
# Mechanical properties :
#
#
# Convention : Reuss Voigt Hill
#
# Bulk Modulus (GPa) = 49.33180 54.79729 52.06455
# Shear Modulus (GPa) = 23.71871 27.58365 25.65118
#
# Velocity S-wave (km/s) = 3.39479 3.66095 3.53038
# Velocity P-wave (km/s) = 6.27183 6.67048 6.47422
#
# Compressibility (1/GPa) = 0.02027090
#
# Stress axis : x y z
#
# Youngs Moduli (GPa) = 76.41484 106.82601 79.57603
#
# Poissons Ratio (x) = 0.35827 0.02282
# Poissons Ratio (y) = 0.25628 0.29691
# Poissons Ratio (z) = 0.02191 0.39858
#
# Static dielectric constant tensor:
#      x y z
#    x 1.748250 0.000000 0.000000 
#    y 0.000000 1.821330 0.000000 
#    z 0.000000 0.000000 1.774760 
# 
# From -- ./inp_files/31106.got.cif
#   From: 2010.05.17/outbox.cif.g08.bks.cpg/sg50_16_cif.got.tgz:31106.got - 2010.06.03 11:33:33.
