data_PCOD9398969
_publ_section_title
;
Structure prediction by ZEFSAII (Michael W. Deem and Ramdas Pophale) SiO2 
 PCOD9398969
Probable space group: P M M A
;
_chemical_formula_sum "Si O2"
_cell_formula_units_Z 64
_cell_length_a 7.839363
_cell_length_b 19.066161
_cell_length_c 24.005393
_cell_angle_alpha 90.000000
_cell_angle_beta 90.000000
_cell_angle_gamma 90.000000
_cell_volume 3588.003443
_symmetry_space_group_name_H-M "P M M A"
_symmetry_group_IT_number 51
_symmetry_cell_setting 'orthorhombic'
loop_
_space_group_symop_operation_xyz
x,y,z
1/2-x,-y,z
1/2+x,-y,-z
-x,y,-z
-x,-y,-z
1/2+x,y,-z
1/2-x,y,z
x,-y,z
loop_
_atom_site_type_symbol
_atom_site_label
_atom_site_fract_x
_atom_site_fract_y
_atom_site_fract_z
Si Si1 0.953650 0.276765 0.440460
Si Si2 0.543970 0.078233 0.685163
Si Si3 0.054792 0.115448 0.437662
Si Si4 0.456128 0.662810 0.673913
Si Si5 0.455947 0.421278 0.935019
Si Si6 0.943398 0.306276 0.148649
Si Si7 0.954746 0.787419 0.243778
Si Si8 0.948807 0.422037 0.770016
O O1 0.750000 0.265690 0.436922
O O2 0.009103 0.323731 0.388964
O O3 0.000000 0.307700 0.500000
O O4 0.036540 0.199782 0.437124
O O5 0.750000 0.080561 0.682344
O O6 0.476240 0.091710 0.621724
O O7 0.494577 0.137275 0.729974
O O8 0.491235 0.000000 0.701983
O O9 0.250000 0.093929 0.434593
O O10 0.000000 0.092470 0.500000
O O11 0.250000 0.659013 0.675716
O O12 0.512335 0.730737 0.709972
O O13 0.530922 0.596348 0.705324
O O14 0.250000 0.421350 0.928536
O O15 0.516318 0.500000 0.916947
O O16 0.522394 0.353072 0.901279
O O17 0.500000 0.415051 0.000000
O O18 0.750000 0.287440 0.131750
O O19 0.019669 0.239815 0.182964
O O20 0.942573 0.365484 0.196780
O O21 0.750000 0.782108 0.239973
O O22 0.750000 0.414499 0.785552
O O23 0.006699 0.500000 0.782203
#
# Coordination Sequence:
#
# PCOD9398969 Si02
#       8
#     8   8   8   8   8   8   8   8
#     4  10  18  29  45  65  85 105 137 178 220 269
#     4  10  21  34  46  63  90 121 150 184 232 285
#     4  10  19  30  45  63  85 114 146 182 224 273
#     4   9  18  31  47  64  85 112 142 179 223 274
#     4   9  17  29  46  69 100 137 169 194 222 258
#     4   9  18  32  49  68  93 127 161 193 227 265
#     4   9  17  31  48  67  88 112 151 193 225 266
#     4  10  20  30  43  67  93 115 146 188 227 264
#
# _framework density 17.837219000000001
#
# number of rings (size 3 to 8) (size 9 to 14) (size 15 to 20)
#    0.000    2.500    1.250    3.000    0.000    6.000 
#    0.000    1.250    0.000    0.375    0.000    0.000 
#    0.000    0.500    0.000    1.125    0.000    2.000 
#
# Total GULP energy -356326.523246 kJ/mol
# GULP energy per Si atom -5567.601926 kJ/mol
# Density = 1.779662 g / cm^3
# Si number density = 17.837219 Si / 1000 Ang^3
#
#
#
# Elastic Constant Matrix: (Units=GPa)
#
#
# Indices 1 2 3 4 5 6 
#
# 1 23.4506 2.7389 -0.7688 0.0000 0.0000 0.0000
# 2 2.7389 72.6231 48.2531 0.0000 0.0000 0.0000
# 3 -0.7688 48.2531 106.8046 0.0000 0.0000 0.0000
# 4 0.0000 0.0000 0.0000 15.3055 0.0000 0.0000
# 5 0.0000 0.0000 0.0000 0.0000 19.0136 0.0000
# 6 0.0000 0.0000 0.0000 0.0000 0.0000 7.9849
#
#
#
# Elastic Compliance Matrix: (Units=1/GPa)
#
#
# Indices 1 2 3 4 5 6 
#
# 1 0.042997 -0.002611 0.001489 0.000000 0.000000 0.000000
# 2 -0.002611 0.019835 -0.008980 0.000000 0.000000 0.000000
# 3 0.001489 -0.008980 0.013431 0.000000 0.000000 0.000000
# 4 0.000000 0.000000 0.000000 0.065336 0.000000 0.000000
# 5 0.000000 0.000000 0.000000 0.000000 0.052594 0.000000
# 6 0.000000 0.000000 0.000000 0.000000 0.000000 0.125237
#
#
# Mechanical properties :
#
#
# Convention : Reuss Voigt Hill
#
# Bulk Modulus (GPa) = 17.83856 33.70275 25.77065
# Shear Modulus (GPa) = 13.95408 18.63780 16.29594
#
# Velocity S-wave (km/s) = 2.80000 3.23597 3.02585
# Velocity P-wave (km/s) = 4.52502 5.73565 5.16592
#
# Compressibility (1/GPa) = 0.05605834
#
# Stress axis : x y z
#
# Youngs Moduli (GPa) = 23.25770 50.41667 74.45670
#
# Poissons Ratio (x) = 0.13164 -0.11087
# Poissons Ratio (y) = 0.06072 0.66861
# Poissons Ratio (z) = -0.03463 0.45274
#
# Static dielectric constant tensor:
#      x y z
#    x 1.675550 0.000000 0.000000 
#    y 0.000000 1.607020 0.000000 
#    z 0.000000 0.000000 1.664500 
# 
# From -- ./inp_files/35120.got.cif
#   From: 2010.05.17/outbox.cif.g08.bks.cpg/sg51_18_cif.got.tgz:35120.got - 2010.06.03 11:52:47.
