data_PCOD9398197
_publ_section_title
;
Structure prediction by ZEFSAII (Michael W. Deem and Ramdas Pophale) SiO2 
 PCOD9398197
Probable space group: P B A N
;
_chemical_formula_sum "Si O2"
_cell_formula_units_Z 38
_cell_length_a 13.894763
_cell_length_b 11.401360
_cell_length_c 11.313559
_cell_angle_alpha 90.000000
_cell_angle_beta 90.000000
_cell_angle_gamma 90.000000
_cell_volume 1792.284910
_symmetry_space_group_name_H-M "P B A N"
_symmetry_group_IT_number 50
_space_group.IT_coordinate_system_code '2'
_symmetry_cell_setting 'orthorhombic'
loop_
_space_group_symop_operation_xyz
x,y,z
1/2-x,1/2-y,z
x,1/2-y,-z
1/2-x,y,-z
-x,-y,-z
1/2+x,1/2+y,-z
-x,1/2+y,z
1/2+x,-y,z
loop_
_atom_site_type_symbol
_atom_site_label
_atom_site_fract_x
_atom_site_fract_y
_atom_site_fract_z
Si Si1 0.456631 0.140134 0.201723
Si Si2 0.580747 0.250000 0.000000
Si Si3 0.353946 0.930421 0.670083
Si Si4 0.642895 0.801856 0.378887
Si Si5 0.798753 0.453807 0.879640
Si Si6 0.750000 0.250000 0.500000
O O1 0.512443 0.172750 0.082672
O O2 0.537443 0.089704 0.288608
O O3 0.414075 0.255476 0.265046
O O4 0.373422 0.046634 0.174598
O O5 0.645749 0.335773 0.080197
O O6 0.283664 0.928588 0.784047
O O7 0.316083 0.832399 0.581158
O O8 0.349265 0.059264 0.614547
O O9 0.750000 0.750000 0.368670
O O10 0.599901 0.750000 0.500000
O O11 0.750000 0.501117 0.000000
#
# Coordination Sequence:
#
# PCOD9398197 Si02
#       6
#     8   4   8   8   8   2
#     4  12  27  44  76 106 146 195 248 303 373 448
#     4  12  25  44  71 106 146 192 239 302 371 438
#     4  12  27  49  75 112 145 195 252 303 375 451
#     4  11  25  49  72 102 147 192 240 310 369 433
#     4  12  26  47  72 106 151 193 241 311 372 441
#     4  12  28  48  80 108 150 200 248 312 376 448
#
# _framework density 21.201986999999999
#
# number of rings (size 3 to 8) (size 9 to 14) (size 15 to 20)
#    0.000    0.211    4.211    4.737    4.421    0.842 
#    0.000    0.000    0.000    0.000    0.000    0.000 
#    0.000    0.000    0.000    0.000    0.000    0.000 
#
# Total GULP energy -212868.554949 kJ/mol
# GULP energy per Si atom -5601.804078 kJ/mol
# Density = 2.115373 g / cm^3
# Si number density = 21.201987 Si / 1000 Ang^3
#
#
#
# Elastic Constant Matrix: (Units=GPa)
#
#
# Indices 1 2 3 4 5 6 
#
# 1 105.7029 42.4034 39.8756 0.0000 0.0000 0.0000
# 2 42.4034 145.6696 46.7417 0.0000 0.0000 0.0000
# 3 39.8756 46.7417 110.0720 0.0000 0.0000 0.0000
# 4 0.0000 0.0000 0.000011169.2042 0.0000 0.0000
# 5 0.0000 0.0000 0.0000 0.0000 7.8799 0.0000
# 6 0.0000 0.0000 0.0000 0.0000 0.0000 -126.3909
#
#
#
# Elastic Compliance Matrix: (Units=1/GPa)
#
#
# Indices 1 2 3 4 5 6 
#
# 1 0.011614 -0.002351 -0.003209 0.000000 0.000000 0.000000
# 2 -0.002351 0.008424 -0.002725 0.000000 0.000000 0.000000
# 3 -0.003209 -0.002725 0.011405 0.000000 0.000000 0.000000
# 4 0.000000 0.000000 0.000000 0.000090 0.000000 0.000000
# 5 0.000000 0.000000 0.000000 0.000000 0.126905 0.000000
# 6 0.000000 0.000000 0.000000 0.000000 0.000000 -0.007912
#
#
# Mechanical properties :
#
#
# Convention : Reuss Voigt Hill
#
# Bulk Modulus (GPa) = 67.24191 68.83177 68.03684
# Shear Modulus (GPa) = 29.06061 2225.63356 1127.34709
#
# Velocity S-wave (km/s) = 3.70625 32.43467 23.08402
# Velocity P-wave (km/s) = 7.07805 37.88419 27.25171
#
# Compressibility (1/GPa) = 0.01487168
#
# Stress axis : x y z
#
# Youngs Moduli (GPa) = 86.10125 118.71196 87.68209
#
# Poissons Ratio (x) = 0.27910 0.28138
# Poissons Ratio (y) = 0.20243 0.23897
# Poissons Ratio (z) = 0.27631 0.32354
#
# Static dielectric constant tensor:
#      x y z
#    x 1.784220 0.000000 0.000000 
#    y 0.000000 1.738330 0.000000 
#    z 0.000000 0.000000 1.751750 
# 
# From -- ./inp_files/20943.got.cif
#   From: 2010.05.17/outbox.cif.g08.bks.cpg/sg50_11_cif.got.tgz:20943.got - 2010.06.03 11:33:33.
