data_PCOD9398253
_publ_section_title
;
Structure prediction by ZEFSAII (Michael W. Deem and Ramdas Pophale) SiO2 
 PCOD9398253
Probable space group: P B A N
;
_chemical_formula_sum "Si O2"
_cell_formula_units_Z 40
_cell_length_a 9.055465
_cell_length_b 15.137597
_cell_length_c 11.019249
_cell_angle_alpha 90.000000
_cell_angle_beta 90.000000
_cell_angle_gamma 90.000000
_cell_volume 1510.496392
_symmetry_space_group_name_H-M "P B A N"
_symmetry_group_IT_number 50
_space_group.IT_coordinate_system_code '2'
_symmetry_cell_setting 'orthorhombic'
loop_
_space_group_symop_operation_xyz
x,y,z
1/2-x,1/2-y,z
x,1/2-y,-z
1/2-x,y,-z
-x,-y,-z
1/2+x,1/2+y,-z
-x,1/2+y,z
1/2+x,-y,z
loop_
_atom_site_type_symbol
_atom_site_label
_atom_site_fract_x
_atom_site_fract_y
_atom_site_fract_z
Si Si1 0.507979 0.306134 0.652255
Si Si2 0.750000 0.250000 0.000000
Si Si3 0.396612 0.426014 0.450663
Si Si4 0.200798 0.596727 0.833285
Si Si5 0.250000 0.250000 0.834016
Si Si6 0.250000 0.750000 0.500000
Si Si7 0.439756 0.412114 0.164913
O O1 0.421028 0.342834 0.537225
O O2 0.621414 0.379993 0.706138
O O3 0.382289 0.289002 0.750662
O O4 0.623317 0.231750 0.604782
O O5 0.837901 0.182830 0.914156
O O6 0.250000 0.467496 0.500000
O O7 0.500000 0.500000 0.500000
O O8 0.400941 0.408379 0.308819
O O9 0.125627 0.506277 0.878283
O O10 0.380368 0.591269 0.838715
O O11 0.345347 0.168868 0.892761
#
# Coordination Sequence:
#
# PCOD9398253 Si02
#       7
#     8   2   8   8   4   2   8
#     4  12  24  42  66 104 155 206 257 310 379 455
#     4  12  30  56  84 106 148 192 278 346 408 468
#     4  12  23  38  66 108 156 210 247 292 361 471
#     4  12  27  51  78 112 146 204 258 340 398 469
#     4  12  24  43  68 107 156 210 254 309 372 469
#     4  12  26  34  60  94 148 200 254 300 364 456
#     4  12  25  45  76 113 159 203 258 316 399 472
#
# _framework density 26.481359999999999
#
# number of rings (size 3 to 8) (size 9 to 14) (size 15 to 20)
#    0.000    0.000    4.000    7.800    1.400    1.600 
#    0.000    0.000    0.000    6.600    0.000    0.000 
#    0.000    0.000    0.000    0.000    0.000    0.000 
#
# Total GULP energy -222976.345800 kJ/mol
# GULP energy per Si atom -5574.408645 kJ/mol
# Density = 2.642109 g / cm^3
# Si number density = 26.481360 Si / 1000 Ang^3
#
#
#
# Elastic Constant Matrix: (Units=GPa)
#
#
# Indices 1 2 3 4 5 6 
#
# 1 260.2008 51.0987 27.8252 0.0000 0.0000 0.0000
# 2 51.0987 153.2489 9.2856 0.0000 0.0000 0.0000
# 3 27.8252 9.2856 79.9006 0.0000 0.0000 0.0000
# 4 0.0000 0.0000 0.0000 20.5168 0.0000 0.0000
# 5 0.0000 0.0000 0.0000 0.0000 39.7458 0.0000
# 6 0.0000 0.0000 0.0000 0.0000 0.0000 38.7383
#
#
#
# Elastic Compliance Matrix: (Units=1/GPa)
#
#
# Indices 1 2 3 4 5 6 
#
# 1 0.004247 -0.001336 -0.001324 0.000000 0.000000 0.000000
# 2 -0.001336 0.006992 -0.000347 0.000000 0.000000 0.000000
# 3 -0.001324 -0.000347 0.013017 0.000000 0.000000 0.000000
# 4 0.000000 0.000000 0.000000 0.048741 0.000000 0.000000
# 5 0.000000 0.000000 0.000000 0.000000 0.025160 0.000000
# 6 0.000000 0.000000 0.000000 0.000000 0.000000 0.025814
#
#
# Mechanical properties :
#
#
# Convention : Reuss Voigt Hill
#
# Bulk Modulus (GPa) = 54.81922 74.41883 64.61902
# Shear Modulus (GPa) = 36.74709 46.80956 41.77832
#
# Velocity S-wave (km/s) = 3.72917 4.20889 3.97627
# Velocity P-wave (km/s) = 6.26804 7.19605 6.74801
#
# Compressibility (1/GPa) = 0.01824178
#
# Stress axis : x y z
#
# Youngs Moduli (GPa) = 235.45474 143.02420 76.82306
#
# Poissons Ratio (x) = 0.19107 0.10170
# Poissons Ratio (y) = 0.31455 0.02668
# Poissons Ratio (z) = 0.31169 0.04967
#
# Static dielectric constant tensor:
#      x y z
#    x 1.964410 0.000000 0.000000 
#    y 0.000000 2.082700 0.000000 
#    z 0.000000 0.000000 2.122110 
# 
# From -- ./inp_files/24769.got.cif
#   From: 2010.05.17/outbox.cif.g08.bks.cpg/sg50_13_cif.got.tgz:24769.got - 2010.06.03 11:33:33.
