data_PCOD9398858
_publ_section_title
;
Structure prediction by ZEFSAII (Michael W. Deem and Ramdas Pophale) SiO2 
 PCOD9398858
Probable space group: P M M A
;
_chemical_formula_sum "Si O2"
_cell_formula_units_Z 52
_cell_length_a 8.916124
_cell_length_b 18.768716
_cell_length_c 18.830053
_cell_angle_alpha 90.000000
_cell_angle_beta 90.000000
_cell_angle_gamma 90.000000
_cell_volume 3151.100140
_symmetry_space_group_name_H-M "P M M A"
_symmetry_group_IT_number 51
_symmetry_cell_setting 'orthorhombic'
loop_
_space_group_symop_operation_xyz
x,y,z
1/2-x,-y,z
1/2+x,-y,-z
-x,y,-z
-x,-y,-z
1/2+x,y,-z
1/2-x,y,z
x,-y,z
loop_
_atom_site_type_symbol
_atom_site_label
_atom_site_fract_x
_atom_site_fract_y
_atom_site_fract_z
Si Si1 0.431045 0.215567 0.076678
Si Si2 0.577317 0.862082 0.709369
Si Si3 0.571431 0.919323 0.153934
Si Si4 0.578661 0.293000 0.785850
Si Si5 0.567883 0.500000 0.421845
Si Si6 0.430506 0.206647 0.577420
Si Si7 0.570460 0.645376 0.346363
O O1 0.250000 0.213845 0.074796
O O2 0.490520 0.139766 0.105934
O O3 0.477188 0.274846 0.135220
O O4 0.500000 0.229242 0.000000
O O5 0.750000 0.884767 0.700392
O O6 0.489856 0.910317 0.765817
O O7 0.579065 0.784329 0.747292
O O8 0.495358 0.849107 0.634790
O O9 0.750000 0.906441 0.153223
O O10 0.542639 0.000000 0.129527
O O11 0.750000 0.318006 0.789910
O O12 0.487157 0.343083 0.733437
O O13 0.750000 0.500000 0.425934
O O14 0.500000 0.500000 0.500000
O O15 0.519588 0.571651 0.381111
O O16 0.500000 0.196040 0.500000
O O17 0.250000 0.202758 0.575270
O O18 0.474421 0.285710 0.606504
O O19 0.750000 0.645272 0.345046
#
# Coordination Sequence:
#
# PCOD9398858 Si02
#       7
#     8   8   8   8   4   8   8
#     4  10  20  33  50  73  99 125 153 190 233 276
#     4   9  17  30  47  66  88 116 152 194 234 275
#     4  10  20  33  49  69  94 125 157 187 223 273
#     4   8  16  30  47  67  90 117 153 192 229 272
#     4  10  20  32  44  66  99 132 165 196 231 274
#     4  10  18  28  44  66  90 118 153 194 239 281
#     4   9  18  30  45  65  92 126 160 193 229 274
#
# _framework density 16.502172000000002
#
# number of rings (size 3 to 8) (size 9 to 14) (size 15 to 20)
#    0.000    2.615    0.000    3.231    0.000    7.077 
#    0.000    0.000    0.000    0.462    0.000    0.538 
#    0.000    0.000    0.000    0.000    0.000    0.000 
#
# Total GULP energy -289808.421211 kJ/mol
# GULP energy per Si atom -5573.238869 kJ/mol
# Density = 1.646461 g / cm^3
# Si number density = 16.502172 Si / 1000 Ang^3
#
#
#
# Elastic Constant Matrix: (Units=GPa)
#
#
# Indices 1 2 3 4 5 6 
#
# 1 41.3848 11.7384 34.1791 0.0000 0.0000 0.0000
# 2 11.7384 35.3436 27.3306 0.0000 0.0000 0.0000
# 3 34.1791 27.3306 145.4793 0.0000 0.0000 0.0000
# 4 0.0000 0.0000 0.0000 18.8073 0.0000 0.0000
# 5 0.0000 0.0000 0.0000 0.0000 33.3943 0.0000
# 6 0.0000 0.0000 0.0000 0.0000 0.0000 15.8760
#
#
#
# Elastic Compliance Matrix: (Units=1/GPa)
#
#
# Indices 1 2 3 4 5 6 
#
# 1 0.030846 -0.005430 -0.006227 0.000000 0.000000 0.000000
# 2 -0.005430 0.034058 -0.005123 0.000000 0.000000 0.000000
# 3 -0.006227 -0.005123 0.009299 0.000000 0.000000 0.000000
# 4 0.000000 0.000000 0.000000 0.053171 0.000000 0.000000
# 5 0.000000 0.000000 0.000000 0.000000 0.029945 0.000000
# 6 0.000000 0.000000 0.000000 0.000000 0.000000 0.062988
#
#
# Mechanical properties :
#
#
# Convention : Reuss Voigt Hill
#
# Bulk Modulus (GPa) = 24.60320 40.96710 32.78515
# Shear Modulus (GPa) = 18.69752 23.54616 21.12184
#
# Velocity S-wave (km/s) = 3.36971 3.78147 3.58151
# Velocity P-wave (km/s) = 5.48465 6.62912 6.08385
#
# Compressibility (1/GPa) = 0.04064512
#
# Stress axis : x y z
#
# Youngs Moduli (GPa) = 32.41881 29.36143 107.53597
#
# Poissons Ratio (x) = 0.15942 0.66963
# Poissons Ratio (y) = 0.17602 0.55088
# Poissons Ratio (z) = 0.20187 0.15041
#
# Static dielectric constant tensor:
#      x y z
#    x 1.558990 0.000000 0.000000 
#    y 0.000000 1.549800 0.000000 
#    z 0.000000 0.000000 1.553670 
# 
# From -- ./inp_files/21545.got.cif
#   From: 2010.05.17/outbox.cif.g08.bks.cpg/sg51_11_cif.got.tgz:21545.got - 2010.06.03 11:52:47.
