data_PCOD9398533
_publ_section_title
;
Structure prediction by ZEFSAII (Michael W. Deem and Ramdas Pophale) SiO2 
 PCOD9398533
Probable space group: P M M A
;
_chemical_formula_sum "Si O2"
_cell_formula_units_Z 64
_cell_length_a 20.359606
_cell_length_b 7.400307
_cell_length_c 19.844182
_cell_angle_alpha 90.000000
_cell_angle_beta 90.000000
_cell_angle_gamma 90.000000
_cell_volume 2989.870013
_symmetry_space_group_name_H-M "P M M A"
_symmetry_group_IT_number 51
_symmetry_cell_setting 'orthorhombic'
loop_
_space_group_symop_operation_xyz
x,y,z
1/2-x,-y,z
1/2+x,-y,-z
-x,y,-z
-x,-y,-z
1/2+x,y,-z
1/2-x,y,z
x,-y,z
loop_
_atom_site_type_symbol
_atom_site_label
_atom_site_fract_x
_atom_site_fract_y
_atom_site_fract_z
Si Si1 0.064533 0.214584 0.924556
Si Si2 0.078107 0.284525 0.777939
Si Si3 0.175824 0.280109 0.511310
Si Si4 0.675473 0.287837 0.800285
Si Si5 0.452722 0.720270 0.438886
Si Si6 0.945423 0.721304 0.714180
Si Si7 0.413799 0.781809 0.071244
Si Si8 0.174816 0.720333 0.663088
O O1 0.099332 0.249134 0.854083
O O2 0.989170 0.282231 0.917188
O O3 0.058385 0.000000 0.932352
O O4 0.098249 0.277468 0.993709
O O5 0.075987 0.500000 0.769910
O O6 0.126885 0.214189 0.720961
O O7 0.004476 0.218668 0.762830
O O8 0.250000 0.219713 0.497781
O O9 0.176866 0.500000 0.510990
O O10 0.120766 0.224696 0.459231
O O11 0.156325 0.225508 0.587203
O O12 0.750000 0.213658 0.801693
O O13 0.681639 0.500000 0.785435
O O14 0.624119 0.215403 0.744360
O O15 0.637670 0.275451 0.872010
O O16 0.500000 0.779884 0.500000
O O17 0.456874 0.500000 0.438665
O O18 0.463771 0.776716 0.361911
O O19 0.943564 0.500000 0.714283
O O20 0.413307 0.000000 0.074155
O O21 0.250000 0.774322 0.674645
O O22 0.173506 0.500000 0.663404
#
# Coordination Sequence:
#
# PCOD9398533 Si02
#       8
#     8   8   8   8   8   8   8   8
#     4   9  18  32  51  73  94 116 148 195 239 273
#     4  10  17  27  46  69  93 125 156 186 229 285
#     4   8  13  21  33  50  76 114 154 186 222 271
#     4  10  20  33  48  69 101 134 161 196 239 279
#     4   9  15  22  34  54  83 119 155 193 231 271
#     4   9  17  27  39  61  92 124 160 194 232 279
#     4   9  18  34  53  71  92 120 156 195 235 279
#     4   8  14  24  38  59  88 119 152 191 232 275
#
# _framework density 21.405612000000001
#
# number of rings (size 3 to 8) (size 9 to 14) (size 15 to 20)
#    0.000    3.000    1.250    2.250    0.000    4.250 
#    0.000    4.375    0.000    2.625    0.000    0.000 
#    0.000    9.000    0.000    2.000    0.000    0.500 
#
# Total GULP energy -356932.675615 kJ/mol
# GULP energy per Si atom -5577.073056 kJ/mol
# Density = 2.135689 g / cm^3
# Si number density = 21.405612 Si / 1000 Ang^3
#
#
#
# Elastic Constant Matrix: (Units=GPa)
#
#
# Indices 1 2 3 4 5 6 
#
# 1 48.7116 -0.1076 39.1967 0.0000 0.0000 0.0000
# 2 -0.1076 69.4836 -6.4583 0.0000 0.0000 0.0000
# 3 39.1967 -6.4583 132.6007 0.0000 0.0000 0.0000
# 4 0.0000 0.0000 0.0000 83.5572 0.0000 0.0000
# 5 0.0000 0.0000 0.0000 0.0000 32.0835 0.0000
# 6 0.0000 0.0000 0.0000 0.0000 0.0000 -3.7084
#
#
#
# Elastic Compliance Matrix: (Units=1/GPa)
#
#
# Indices 1 2 3 4 5 6 
#
# 1 0.026970 -0.000702 -0.008007 0.000000 0.000000 0.000000
# 2 -0.000702 0.014476 0.000913 0.000000 0.000000 0.000000
# 3 -0.008007 0.000913 0.009953 0.000000 0.000000 0.000000
# 4 0.000000 0.000000 0.000000 0.011968 0.000000 0.000000
# 5 0.000000 0.000000 0.000000 0.000000 0.031169 0.000000
# 6 0.000000 0.000000 0.000000 0.000000 0.000000 -0.269661
#
#
# Mechanical properties :
#
#
# Convention : Reuss Voigt Hill
#
# Bulk Modulus (GPa) = 27.92851 35.11750 31.52300
# Shear Modulus (GPa) = -33.87571 36.93082 1.52756
#
# Velocity S-wave (km/s) = -3.98246 4.15816 0.84568
# Velocity P-wave (km/s) = 2.84096 6.28451 3.96384
#
# Compressibility (1/GPa) = 0.03580571
#
# Stress axis : x y z
#
# Youngs Moduli (GPa) = 37.07819 69.08168 100.47610
#
# Poissons Ratio (x) = 0.04852 0.80447
# Poissons Ratio (y) = 0.02604 -0.09170
# Poissons Ratio (z) = 0.29687 -0.06305
#
# Static dielectric constant tensor:
#      x y z
#    x 1.759160 0.000000 0.000000 
#    y 0.000000 1.847600 0.000000 
#    z 0.000000 0.000000 1.774580 
# 
# From -- ./inp_files/30730.got.cif
#   From: 2010.05.17/outbox.cif.g08.bks.cpg/sg51_16_cif.got.tgz:30730.got - 2010.06.03 11:52:47.
