data_PCOD9398118
_publ_section_title
;
Structure prediction by ZEFSAII (Michael W. Deem and Ramdas Pophale) SiO2 
 PCOD9398118
Probable space group: P B A N
;
_chemical_formula_sum "Si O2"
_cell_formula_units_Z 32
_cell_length_a 8.783422
_cell_length_b 10.245503
_cell_length_c 15.923378
_cell_angle_alpha 90.000000
_cell_angle_beta 90.000000
_cell_angle_gamma 90.000000
_cell_volume 1432.953965
_symmetry_space_group_name_H-M "P B A N"
_symmetry_group_IT_number 50
_space_group.IT_coordinate_system_code '2'
_symmetry_cell_setting 'orthorhombic'
loop_
_space_group_symop_operation_xyz
x,y,z
1/2-x,1/2-y,z
x,1/2-y,-z
1/2-x,y,-z
-x,-y,-z
1/2+x,1/2+y,-z
-x,1/2+y,z
1/2+x,-y,z
loop_
_atom_site_type_symbol
_atom_site_label
_atom_site_fract_x
_atom_site_fract_y
_atom_site_fract_z
Si Si1 0.475377 0.493880 0.297823
Si Si2 0.216357 0.596947 0.407485
Si Si3 0.421115 0.875291 0.961871
Si Si4 0.072997 0.267458 0.198218
O O1 0.311246 0.540694 0.328836
O O2 0.545469 0.430985 0.381252
O O3 0.476292 0.377426 0.228480
O O4 0.565392 0.625400 0.272002
O O5 0.250000 0.750000 0.409225
O O6 0.250000 0.543285 0.500000
O O7 0.452541 0.839832 0.865088
O O8 0.503211 0.750000 0.000000
O O9 0.250000 0.879532 0.000000
O O10 0.500000 0.000000 0.000000
O O11 0.250000 0.250000 0.168856
#
# Coordination Sequence:
#
# PCOD9398118 Si02
#       4
#     8   8   8   8
#     4  12  24  46  71 108 145 191 252 297 368 436
#     4  11  24  43  69 105 151 198 245 308 369 433
#     4  11  28  49  74 107 144 187 239 296 369 441
#     4  12  27  45  77 106 147 191 242 307 368 444
#
# _framework density 22.331489999999999
#
# number of rings (size 3 to 8) (size 9 to 14) (size 15 to 20)
#    0.000    0.500    5.000    2.250    7.000    4.000 
#    0.000    1.250    0.000    0.000    0.000    0.000 
#    0.000    0.000    0.000    0.000    0.000    0.000 
#
# Total GULP energy -178233.700027 kJ/mol
# GULP energy per Si atom -5569.803126 kJ/mol
# Density = 2.228066 g / cm^3
# Si number density = 22.331490 Si / 1000 Ang^3
#
#
#
# Elastic Constant Matrix: (Units=GPa)
#
#
# Indices 1 2 3 4 5 6 
#
# 1 79.7225 26.0276 15.2185 0.0000 0.0000 0.0000
# 2 26.0276 162.3395 22.8772 0.0000 0.0000 0.0000
# 3 15.2185 22.8772 69.9431 0.0000 0.0000 0.0000
# 4 0.0000 0.0000 0.0000 15.1410 0.0000 0.0000
# 5 0.0000 0.0000 0.0000 0.0000 34.9019 0.0000
# 6 0.0000 0.0000 0.0000 0.0000 0.0000 11.2326
#
#
#
# Elastic Compliance Matrix: (Units=1/GPa)
#
#
# Indices 1 2 3 4 5 6 
#
# 1 0.013596 -0.001848 -0.002354 0.000000 0.000000 0.000000
# 2 -0.001848 0.006709 -0.001792 0.000000 0.000000 0.000000
# 3 -0.002354 -0.001792 0.015396 0.000000 0.000000 0.000000
# 4 0.000000 0.000000 0.000000 0.066046 0.000000 0.000000
# 5 0.000000 0.000000 0.000000 0.000000 0.028652 0.000000
# 6 0.000000 0.000000 0.000000 0.000000 0.000000 0.089027
#
#
# Mechanical properties :
#
#
# Convention : Reuss Voigt Hill
#
# Bulk Modulus (GPa) = 42.17211 48.91685 45.54448
# Shear Modulus (GPa) = 20.89275 28.78055 24.83665
#
# Velocity S-wave (km/s) = 3.06203 3.59386 3.33856
# Velocity P-wave (km/s) = 5.60598 6.25888 5.94140
#
# Compressibility (1/GPa) = 0.02371235
#
# Stress axis : x y z
#
# Youngs Moduli (GPa) = 73.54993 149.05791 64.95326
#
# Poissons Ratio (x) = 0.27548 0.15289
# Poissons Ratio (y) = 0.13593 0.11641
# Poissons Ratio (z) = 0.17312 0.26714
#
# Static dielectric constant tensor:
#      x y z
#    x 2.049380 0.000000 0.000000 
#    y 0.000000 1.807380 0.000000 
#    z 0.000000 0.000000 2.052340 
# 
# From -- ./inp_files/24344.got.cif
#   From: 2010.05.17/outbox.cif.g08.bks.cpg/sg50_13_cif.got.tgz:24344.got - 2010.06.03 11:33:33.
