data_PCOD9398938
_publ_section_title
;
Structure prediction by ZEFSAII (Michael W. Deem and Ramdas Pophale) SiO2 
 PCOD9398938
Probable space group: P M M A
;
_chemical_formula_sum "Si O2"
_cell_formula_units_Z 64
_cell_length_a 27.032167
_cell_length_b 9.064675
_cell_length_c 17.588776
_cell_angle_alpha 90.000000
_cell_angle_beta 90.000000
_cell_angle_gamma 90.000000
_cell_volume 4309.915123
_symmetry_space_group_name_H-M "P M M A"
_symmetry_group_IT_number 51
_symmetry_cell_setting 'orthorhombic'
loop_
_space_group_symop_operation_xyz
x,y,z
1/2-x,-y,z
1/2+x,-y,-z
-x,y,-z
-x,-y,-z
1/2+x,y,-z
1/2-x,y,z
x,-y,z
loop_
_atom_site_type_symbol
_atom_site_label
_atom_site_fract_x
_atom_site_fract_y
_atom_site_fract_z
Si Si1 0.104550 0.323184 0.019224
Si Si2 0.130735 0.171255 0.785610
Si Si3 0.036995 0.828909 0.898817
Si Si4 0.941840 0.675371 0.827964
Si Si5 0.574783 0.822237 0.361735
Si Si6 0.693853 0.677408 0.089362
Si Si7 0.059101 0.330120 0.483431
Si Si8 0.540369 0.823689 0.670827
O O1 0.097499 0.500000 0.008769
O O2 0.061094 0.238539 0.974540
O O3 0.155777 0.280550 0.978097
O O4 0.100075 0.293123 0.108757
O O5 0.080963 0.175726 0.836653
O O6 0.113872 0.224491 0.702546
O O7 0.171276 0.261050 0.832300
O O8 0.145927 0.000000 0.780186
O O9 0.992137 0.733476 0.866981
O O10 0.022439 0.000000 0.908568
O O11 0.944524 0.500000 0.816057
O O12 0.937706 0.756198 0.747632
O O13 0.582575 0.748033 0.443288
O O14 0.518649 0.786968 0.333916
O O15 0.576825 0.000000 0.368648
O O16 0.750000 0.728240 0.077101
O O17 0.693875 0.500000 0.092607
O O18 0.074518 0.500000 0.476579
O O19 0.065035 0.243618 0.404605
O O20 0.000000 0.327997 0.500000
O O21 0.544324 0.000000 0.671068
#
# Coordination Sequence:
#
# PCOD9398938 Si02
#       8
#     8   8   8   8   8   8   8   8
#     4   9  19  32  43  60  83 110 141 177 221 263
#     4   9  17  29  44  64  87 112 144 178 215 258
#     4  10  18  29  42  59  83 113 146 178 211 251
#     4  11  20  28  40  58  85 115 145 180 217 255
#     4   9  16  28  42  58  83 114 146 178 210 248
#     4   9  18  33  50  65  83 109 142 180 222 266
#     4   9  17  27  39  59  83 111 148 181 210 244
#     4  10  18  29  42  57  82 117 152 181 212 247
#
# _framework density 14.84948
#
# number of rings (size 3 to 8) (size 9 to 14) (size 15 to 20)
#    0.000    2.500    1.250    1.875    0.000    5.750 
#    0.000    0.000    0.000    0.000    0.000    0.000 
#    0.000    1.000    0.000    5.250    0.000    2.625 
#
# Total GULP energy -356676.314898 kJ/mol
# GULP energy per Si atom -5573.067420 kJ/mol
# Density = 1.481568 g / cm^3
# Si number density = 14.849480 Si / 1000 Ang^3
#
#
#
# Elastic Constant Matrix: (Units=GPa)
#
#
# Indices 1 2 3 4 5 6 
#
# 1 47.8222 20.5172 37.5922 0.0000 0.0000 0.0000
# 2 20.5172 43.5768 51.2345 0.0000 0.0000 0.0000
# 3 37.5922 51.2345 147.5484 0.0000 0.0000 0.0000
# 4 0.0000 0.0000 0.0000 27.5514 0.0000 0.0000
# 5 0.0000 0.0000 0.0000 0.0000 11.0762 0.0000
# 6 0.0000 0.0000 0.0000 0.0000 0.0000 11.9380
#
#
#
# Elastic Compliance Matrix: (Units=1/GPa)
#
#
# Indices 1 2 3 4 5 6 
#
# 1 0.027713 -0.008021 -0.004275 0.000000 0.000000 0.000000
# 2 -0.008021 0.041102 -0.012229 0.000000 0.000000 0.000000
# 3 -0.004275 -0.012229 0.012113 0.000000 0.000000 0.000000
# 4 0.000000 0.000000 0.000000 0.036296 0.000000 0.000000
# 5 0.000000 0.000000 0.000000 0.000000 0.090284 0.000000
# 6 0.000000 0.000000 0.000000 0.000000 0.000000 0.083766
#
#
# Mechanical properties :
#
#
# Convention : Reuss Voigt Hill
#
# Bulk Modulus (GPa) = 31.37020 50.84835 41.10928
# Shear Modulus (GPa) = 14.24704 18.75337 16.50020
#
# Velocity S-wave (km/s) = 3.10083 3.55758 3.33703
# Velocity P-wave (km/s) = 5.83022 7.15486 6.52624
#
# Compressibility (1/GPa) = 0.03187739
#
# Stress axis : x y z
#
# Youngs Moduli (GPa) = 36.08417 24.32964 82.55657
#
# Poissons Ratio (x) = 0.19516 0.35295
# Poissons Ratio (y) = 0.28945 1.00955
# Poissons Ratio (z) = 0.15427 0.29752
#
# Static dielectric constant tensor:
#      x y z
#    x 1.470440 0.000000 0.000000 
#    y 0.000000 1.497690 0.000000 
#    z 0.000000 0.000000 1.506270 
# 
# From -- ./inp_files/30818.got.cif
#   From: 2010.05.17/outbox.cif.g08.bks.cpg/sg51_16_cif.got.tgz:30818.got - 2010.06.03 11:52:47.
