data_PCOD9398942
_publ_section_title
;
Structure prediction by ZEFSAII (Michael W. Deem and Ramdas Pophale) SiO2 
 PCOD9398942
Probable space group: P M M A
;
_chemical_formula_sum "Si O2"
_cell_formula_units_Z 64
_cell_length_a 22.285013
_cell_length_b 9.152103
_cell_length_c 20.824303
_cell_angle_alpha 90.000000
_cell_angle_beta 90.000000
_cell_angle_gamma 90.000000
_cell_volume 4247.215186
_symmetry_space_group_name_H-M "P M M A"
_symmetry_group_IT_number 51
_symmetry_cell_setting 'orthorhombic'
loop_
_space_group_symop_operation_xyz
x,y,z
1/2-x,-y,z
1/2+x,-y,-z
-x,y,-z
-x,-y,-z
1/2+x,y,-z
1/2-x,y,z
x,-y,z
loop_
_atom_site_type_symbol
_atom_site_label
_atom_site_fract_x
_atom_site_fract_y
_atom_site_fract_z
Si Si1 0.819535 0.174193 0.640901
Si Si2 0.082501 0.175597 0.465342
Si Si3 0.408846 0.831397 0.115525
Si Si4 0.031568 0.327093 0.732731
Si Si5 0.038762 0.676146 0.586555
Si Si6 0.553252 0.831994 0.139793
Si Si7 0.109757 0.673686 0.245160
Si Si8 0.072280 0.331605 0.987726
O O1 0.750000 0.211847 0.631935
O O2 0.859364 0.204206 0.577902
O O3 0.848059 0.258023 0.700907
O O4 0.823975 0.000000 0.653129
O O5 0.083249 0.250791 0.535147
O O6 0.025413 0.250045 0.430122
O O7 0.073763 0.000000 0.470473
O O8 0.481089 0.828239 0.127338
O O9 0.380968 0.746291 0.175641
O O10 0.390200 0.000000 0.114544
O O11 0.399007 0.754477 0.047235
O O12 0.038927 0.500000 0.744568
O O13 0.053179 0.293613 0.660856
O O14 0.061711 0.239352 0.790563
O O15 0.959805 0.297505 0.735263
O O16 0.034989 0.500000 0.578148
O O17 0.581923 0.743689 0.080941
O O18 0.572119 0.000000 0.138628
O O19 0.117430 0.500000 0.241290
O O20 0.090870 0.500000 0.987298
O O21 0.000000 0.328943 0.000000
#
# Coordination Sequence:
#
# PCOD9398942 Si02
#       8
#     8   8   8   8   8   8   8   8
#     4  10  21  35  48  62  84 113 143 179 222 264
#     4  10  19  30  45  64  83 106 140 177 215 261
#     4   9  16  25  37  53  74 102 136 173 209 243
#     4   9  17  27  39  57  81 109 137 170 211 254
#     4  10  18  29  45  63  86 111 137 174 219 261
#     4   9  16  23  34  52  75 104 137 171 204 242
#     4  10  18  29  43  60  80 104 140 178 214 256
#     4   9  15  23  34  49  72 103 137 171 204 239
#
# _framework density 15.068695999999999
#
# number of rings (size 3 to 8) (size 9 to 14) (size 15 to 20)
#    0.000    2.500    1.250    3.000    0.000    6.750 
#    0.000    0.000    0.000    0.000    0.000    0.000 
#    0.000    0.000    0.000    1.125    0.000   19.375 
#
# Total GULP energy -356607.317782 kJ/mol
# GULP energy per Si atom -5571.989340 kJ/mol
# Density = 1.503440 g / cm^3
# Si number density = 15.068696 Si / 1000 Ang^3
#
#
#
# Elastic Constant Matrix: (Units=GPa)
#
#
# Indices 1 2 3 4 5 6 
#
# 1 38.4186 33.0506 39.2668 0.0000 0.0000 0.0000
# 2 33.0506 95.8299 89.2384 0.0000 0.0000 0.0000
# 3 39.2668 89.2384 170.4398 0.0000 0.0000 0.0000
# 4 0.0000 0.0000 0.0000 32.5396 0.0000 0.0000
# 5 0.0000 0.0000 0.0000 0.0000 8.1692 0.0000
# 6 0.0000 0.0000 0.0000 0.0000 0.0000 8.0537
#
#
#
# Elastic Compliance Matrix: (Units=1/GPa)
#
#
# Indices 1 2 3 4 5 6 
#
# 1 0.038176 -0.009711 -0.003711 0.000000 0.000000 0.000000
# 2 -0.009711 0.022834 -0.009718 0.000000 0.000000 0.000000
# 3 -0.003711 -0.009718 0.011810 0.000000 0.000000 0.000000
# 4 0.000000 0.000000 0.000000 0.030732 0.000000 0.000000
# 5 0.000000 0.000000 0.000000 0.000000 0.122411 0.000000
# 6 0.000000 0.000000 0.000000 0.000000 0.000000 0.124167
#
#
# Mechanical properties :
#
#
# Convention : Reuss Voigt Hill
#
# Bulk Modulus (GPa) = 37.67816 69.75555 53.71685
# Shear Modulus (GPa) = 12.33788 19.29465 15.81627
#
# Velocity S-wave (km/s) = 2.86453 3.58221 3.24328
# Velocity P-wave (km/s) = 5.99994 7.96881 7.05341
#
# Compressibility (1/GPa) = 0.02654058
#
# Stress axis : x y z
#
# Youngs Moduli (GPa) = 26.19462 43.79432 84.67204
#
# Poissons Ratio (x) = 0.42528 0.31420
# Poissons Ratio (y) = 0.25437 0.82285
# Poissons Ratio (z) = 0.09720 0.42560
#
# Static dielectric constant tensor:
#      x y z
#    x 1.461420 0.000000 0.000000 
#    y 0.000000 1.504720 0.000000 
#    z 0.000000 0.000000 1.508260 
# 
# From -- ./inp_files/34126.got.cif
#   From: 2010.05.17/outbox.cif.g08.bks.cpg/sg51_18_cif.got.tgz:34126.got - 2010.06.03 11:52:47.
