data_PCOD9398222
_publ_section_title
;
Structure prediction by ZEFSAII (Michael W. Deem and Ramdas Pophale) SiO2 
 PCOD9398222
Probable space group: P B A N
;
_chemical_formula_sum "Si O2"
_cell_formula_units_Z 16
_cell_length_a 16.573915
_cell_length_b 7.474675
_cell_length_c 5.038925
_cell_angle_alpha 90.000000
_cell_angle_beta 90.000000
_cell_angle_gamma 90.000000
_cell_volume 624.245350
_symmetry_space_group_name_H-M "P B A N"
_symmetry_group_IT_number 50
_space_group.IT_coordinate_system_code '2'
_symmetry_cell_setting 'orthorhombic'
loop_
_space_group_symop_operation_xyz
x,y,z
1/2-x,1/2-y,z
x,1/2-y,-z
1/2-x,y,-z
-x,-y,-z
1/2+x,1/2+y,-z
-x,1/2+y,z
1/2+x,-y,z
loop_
_atom_site_type_symbol
_atom_site_label
_atom_site_fract_x
_atom_site_fract_y
_atom_site_fract_z
Si Si1 0.582814 0.750000 0.500000
Si Si2 0.535780 0.250000 0.000000
Si Si3 0.835181 0.954043 0.894824
O O1 0.520449 0.736411 0.257132
O O2 0.641949 0.585101 0.584962
O O3 0.594510 0.420232 0.002411
O O4 0.835508 0.750000 0.000000
O O5 0.750000 0.026996 0.000000
#
# Coordination Sequence:
#
# PCOD9398222 Si02
#       3
#     4   4   8
#     4  12  26  51  77 114 148 200 252 316 371 452
#     4  12  27  50  77 110 150 200 256 308 373 452
#     4  11  27  49  76 110 155 196 251 307 383 442
#
# _framework density 25.630949000000001
#
# number of rings (size 3 to 8) (size 9 to 14) (size 15 to 20)
#    0.000    0.500    2.500    3.750    7.000    4.000 
#    0.000    2.500    0.000    0.000    0.000    0.000 
#    0.000    0.000    0.000    0.000    0.000    0.000 
#
# Total GULP energy -89408.541175 kJ/mol
# GULP energy per Si atom -5588.033823 kJ/mol
# Density = 2.557261 g / cm^3
# Si number density = 25.630949 Si / 1000 Ang^3
#
#
#
# Elastic Constant Matrix: (Units=GPa)
#
#
# Indices 1 2 3 4 5 6 
#
# 1 265.3703 49.9795 112.2291 0.0000 0.0000 0.0000
# 2 49.9795 116.2567 44.0437 0.0000 0.0000 0.0000
# 3 112.2291 44.0437 200.8905 0.0000 0.0000 0.0000
# 4 0.0000 0.0000 0.0000 12.9179 0.0000 0.0000
# 5 0.0000 0.0000 0.0000 0.0000 24.0139 0.0000
# 6 0.0000 0.0000 0.0000 0.0000 0.0000 12.7259
#
#
#
# Elastic Compliance Matrix: (Units=1/GPa)
#
#
# Indices 1 2 3 4 5 6 
#
# 1 0.005086 -0.001211 -0.002576 0.000000 0.000000 0.000000
# 2 -0.001211 0.009669 -0.001444 0.000000 0.000000 0.000000
# 3 -0.002576 -0.001444 0.006733 0.000000 0.000000 0.000000
# 4 0.000000 0.000000 0.000000 0.077412 0.000000 0.000000
# 5 0.000000 0.000000 0.000000 0.000000 0.041643 0.000000
# 6 0.000000 0.000000 0.000000 0.000000 0.000000 0.078580
#
#
# Mechanical properties :
#
#
# Convention : Reuss Voigt Hill
#
# Bulk Modulus (GPa) = 90.67656 110.55800 100.61728
# Shear Modulus (GPa) = 21.43549 35.01588 28.22569
#
# Velocity S-wave (km/s) = 2.89504 3.70017 3.32209
# Velocity P-wave (km/s) = 6.82859 7.84112 7.35231
#
# Compressibility (1/GPa) = 0.01102821
#
# Stress axis : x y z
#
# Youngs Moduli (GPa) = 196.63277 103.42371 148.51608
#
# Poissons Ratio (x) = 0.12520 0.38254
# Poissons Ratio (y) = 0.23803 0.21439
# Poissons Ratio (z) = 0.50647 0.14930
#
# Static dielectric constant tensor:
#      x y z
#    x 2.078880 0.000000 0.000000 
#    y 0.000000 2.087170 0.000000 
#    z 0.000000 0.000000 2.244910 
# 
# From -- ./inp_files/582.got.cif
#   From: 2010.05.17/outbox.cif.g08.bks.cpg/sg50_1_cif.got.tgz:582.got - 2010.06.03 11:33:33.
