data_PCOD9398974
_publ_section_title
;
Structure prediction by ZEFSAII (Michael W. Deem and Ramdas Pophale) SiO2 
 PCOD9398974
Probable space group: P M M A
;
_chemical_formula_sum "Si O2"
_cell_formula_units_Z 32
_cell_length_a 8.412463
_cell_length_b 16.144534
_cell_length_c 14.797163
_cell_angle_alpha 90.000000
_cell_angle_beta 90.000000
_cell_angle_gamma 90.000000
_cell_volume 2009.681057
_symmetry_space_group_name_H-M "P M M A"
_symmetry_group_IT_number 51
_symmetry_cell_setting 'orthorhombic'
loop_
_space_group_symop_operation_xyz
x,y,z
1/2-x,-y,z
1/2+x,-y,-z
-x,y,-z
-x,-y,-z
1/2+x,y,-z
1/2-x,y,z
x,-y,z
loop_
_atom_site_type_symbol
_atom_site_label
_atom_site_fract_x
_atom_site_fract_y
_atom_site_fract_z
Si Si1 0.944168 0.662949 0.787683
Si Si2 0.059344 0.824330 0.103373
Si Si3 0.061010 0.000000 0.896519
Si Si4 0.441599 0.403731 0.402053
Si Si5 0.942010 0.500000 0.897688
O O1 0.750000 0.663519 0.787799
O O2 0.996134 0.747188 0.836102
O O3 0.995573 0.648953 0.684310
O O4 0.994438 0.582707 0.845371
O O5 0.250000 0.825038 0.100769
O O6 0.001435 0.912914 0.141055
O O7 0.000000 0.814718 0.000000
O O8 0.250000 0.000000 0.896216
O O9 0.000000 0.000000 0.000000
O O10 0.500000 0.375331 0.500000
O O11 0.250000 0.403648 0.402381
O O12 0.492492 0.500000 0.389981
O O13 0.750000 0.500000 0.897021
O O14 0.000000 0.500000 0.000000
#
# Coordination Sequence:
#
# PCOD9398974 Si02
#       5
#     8   8   4   8   4
#     4   9  17  29  46  64  88 122 153 178 217 267
#     4  10  18  29  45  66  90 119 152 185 219 261
#     4  10  18  30  46  64  87 116 147 186 229 264
#     4   9  16  29  47  65  86 115 150 187 223 261
#     4  10  18  30  43  60  88 124 155 180 209 252
#
# _framework density 15.922924999999999
#
# number of rings (size 3 to 8) (size 9 to 14) (size 15 to 20)
#    0.000    2.500    1.250    4.125    0.000    0.000 
#    0.000    5.000    0.000    0.000    0.000    0.875 
#    0.000    0.000    0.000    0.000    0.000    0.000 
#
# Total GULP energy -178356.627471 kJ/mol
# GULP energy per Si atom -5573.644608 kJ/mol
# Density = 1.588668 g / cm^3
# Si number density = 15.922925 Si / 1000 Ang^3
#
#
#
# Elastic Constant Matrix: (Units=GPa)
#
#
# Indices 1 2 3 4 5 6 
#
# 1 30.7330 24.6882 16.3794 0.0000 0.0000 0.0000
# 2 24.6882 156.6019 81.4037 0.0000 0.0000 0.0000
# 3 16.3794 81.4037 128.0326 0.0000 0.0000 0.0000
# 4 0.0000 0.0000 0.0000 9.0964 0.0000 0.0000
# 5 0.0000 0.0000 0.0000 0.0000 21.3217 0.0000
# 6 0.0000 0.0000 0.0000 0.0000 0.0000 14.2873
#
#
#
# Elastic Compliance Matrix: (Units=1/GPa)
#
#
# Indices 1 2 3 4 5 6 
#
# 1 0.037461 -0.005100 -0.001550 0.000000 0.000000 0.000000
# 2 -0.005100 0.010232 -0.005853 0.000000 0.000000 0.000000
# 3 -0.001550 -0.005853 0.011730 0.000000 0.000000 0.000000
# 4 0.000000 0.000000 0.000000 0.109934 0.000000 0.000000
# 5 0.000000 0.000000 0.000000 0.000000 0.046901 0.000000
# 6 0.000000 0.000000 0.000000 0.000000 0.000000 0.069992
#
#
# Mechanical properties :
#
#
# Convention : Reuss Voigt Hill
#
# Bulk Modulus (GPa) = 29.05504 62.25669 45.65587
# Shear Modulus (GPa) = 15.49284 21.80080 18.64682
#
# Velocity S-wave (km/s) = 3.12266 3.70421 3.42580
# Velocity P-wave (km/s) = 5.59359 7.58146 6.66209
#
# Compressibility (1/GPa) = 0.03441743
#
# Stress axis : x y z
#
# Youngs Moduli (GPa) = 26.69426 97.73028 85.24935
#
# Poissons Ratio (x) = 0.49844 0.13212
# Poissons Ratio (y) = 0.13614 0.49898
# Poissons Ratio (z) = 0.04137 0.57204
#
# Static dielectric constant tensor:
#      x y z
#    x 1.553210 0.000000 0.000000 
#    y 0.000000 1.549980 0.000000 
#    z 0.000000 0.000000 1.516720 
# 
# From -- ./inp_files/20243.got.cif
#   From: 2010.05.17/outbox.cif.g08.bks.cpg/sg51_11_cif.got.tgz:20243.got - 2010.06.03 11:52:47.
