data_PCOD9398465
_publ_section_title
;
Structure prediction by ZEFSAII (Michael W. Deem and Ramdas Pophale) SiO2 
 PCOD9398465
Probable space group: P M M A
;
_chemical_formula_sum "Si O2"
_cell_formula_units_Z 64
_cell_length_a 14.437610
_cell_length_b 8.675099
_cell_length_c 32.685147
_cell_angle_alpha 90.000000
_cell_angle_beta 90.000000
_cell_angle_gamma 90.000000
_cell_volume 4093.739358
_symmetry_space_group_name_H-M "P M M A"
_symmetry_group_IT_number 51
_symmetry_cell_setting 'orthorhombic'
loop_
_space_group_symop_operation_xyz
x,y,z
1/2-x,-y,z
1/2+x,-y,-z
-x,y,-z
-x,-y,-z
1/2+x,y,-z
1/2-x,y,z
x,-y,z
loop_
_atom_site_type_symbol
_atom_site_label
_atom_site_fract_x
_atom_site_fract_y
_atom_site_fract_z
Si Si1 0.357580 0.315819 0.185006
Si Si2 0.137704 0.177789 0.271572
Si Si3 0.644524 0.188053 0.064782
Si Si4 0.964451 0.186812 0.892437
Si Si5 0.642408 0.315825 0.641723
Si Si6 0.359856 0.184820 0.026283
Si Si7 0.460457 0.813798 0.436365
Si Si8 0.144810 0.812401 0.519324
O O1 0.250000 0.264597 0.179401
O O2 0.358403 0.500000 0.184949
O O3 0.391120 0.256826 0.229249
O O4 0.418672 0.252799 0.148044
O O5 0.250000 0.184487 0.271402
O O6 0.109625 0.258264 0.313781
O O7 0.109326 0.000000 0.271825
O O8 0.750000 0.238576 0.071670
O O9 0.570668 0.231718 0.098948
O O10 0.645583 0.000000 0.063334
O O11 0.613241 0.239948 0.019188
O O12 0.910381 0.241995 0.933251
O O13 0.958492 0.000000 0.890622
O O14 0.750000 0.263860 0.635892
O O15 0.642085 0.500000 0.641298
O O16 0.579555 0.252620 0.605316
O O17 0.250000 0.210098 0.030109
O O18 0.375870 0.000000 0.025835
O O19 0.564948 0.764945 0.448634
O O20 0.393942 0.769087 0.474447
O O21 0.459585 0.000000 0.434193
O O22 0.250000 0.758293 0.526166
O O23 0.146466 0.000000 0.520107
#
# Coordination Sequence:
#
# PCOD9398465 Si02
#       8
#     8   8   8   8   8   8   8   8
#     4  10  20  32  44  61  89 118 138 163 207 260
#     4   9  17  30  48  67  86 110 141 174 206 248
#     4   8  14  24  38  59  86 112 140 178 218 246
#     4  10  17  25  42  65  85 109 144 179 207 244
#     4  10  19  29  42  63  92 121 145 174 216 260
#     4   8  13  21  35  58  86 111 137 173 212 245
#     4   9  16  26  43  65  86 115 156 193 222 257
#     4   8  14  25  41  62  89 119 152 192 231 259
#
# _framework density 15.633628
#
# number of rings (size 3 to 8) (size 9 to 14) (size 15 to 20)
#    0.000    3.000    0.000    3.750    0.000    5.500 
#    0.000    1.250    0.000    3.000    0.000    2.625 
#    0.000    7.000    0.000    0.000    0.000    0.000 
#
# Total GULP energy -356430.899253 kJ/mol
# GULP energy per Si atom -5569.232801 kJ/mol
# Density = 1.559805 g / cm^3
# Si number density = 15.633628 Si / 1000 Ang^3
#
#
#
# Elastic Constant Matrix: (Units=GPa)
#
#
# Indices 1 2 3 4 5 6 
#
# 1 77.2008 26.8287 88.8115 0.0000 0.0000 0.0000
# 2 26.8287 20.2629 32.8758 0.0000 0.0000 0.0000
# 3 88.8115 32.8758 150.1814 0.0000 0.0000 0.0000
# 4 0.0000 0.0000 0.0000 -40.0114 0.0000 0.0000
# 5 0.0000 0.0000 0.0000 0.0000 26.0823 0.0000
# 6 0.0000 0.0000 0.0000 0.0000 0.0000 10.2913
#
#
#
# Elastic Compliance Matrix: (Units=1/GPa)
#
#
# Indices 1 2 3 4 5 6 
#
# 1 0.048770 -0.027573 -0.022805 0.000000 0.000000 0.000000
# 2 -0.027573 0.092122 -0.003861 0.000000 0.000000 0.000000
# 3 -0.022805 -0.003861 0.020990 0.000000 0.000000 0.000000
# 4 0.000000 0.000000 0.000000 -0.024993 0.000000 0.000000
# 5 0.000000 0.000000 0.000000 0.000000 0.038340 0.000000
# 6 0.000000 0.000000 0.000000 0.000000 0.000000 0.097170
#
#
# Mechanical properties :
#
#
# Convention : Reuss Voigt Hill
#
# Bulk Modulus (GPa) = 18.72476 60.51968 39.62222
# Shear Modulus (GPa) = 12.54151 5.88104 9.21128
#
# Velocity S-wave (km/s) = 2.83541 1.94164 2.42997
# Velocity P-wave (km/s) = 4.76683 6.61981 5.76821
#
# Compressibility (1/GPa) = 0.05340521
#
# Stress axis : x y z
#
# Youngs Moduli (GPa) = 20.50459 10.85514 47.64279
#
# Poissons Ratio (x) = 0.29931 1.08647
# Poissons Ratio (y) = 0.56537 0.18394
# Poissons Ratio (z) = 0.46760 0.04191
#
# Static dielectric constant tensor:
#      x y z
#    x 1.531390 0.000000 0.000000 
#    y 0.000000 1.529420 0.000000 
#    z 0.000000 0.000000 1.509530 
# 
# From -- ./inp_files/37789.got.cif
#   From: 2010.05.17/outbox.cif.g08.bks.cpg/sg51_19_cif.got.tgz:37789.got - 2010.06.03 11:52:47.
