data_PCOD9398330
_publ_section_title
;
Structure prediction by ZEFSAII (Michael W. Deem and Ramdas Pophale) SiO2 
 PCOD9398330
Probable space group: P B A N
;
_chemical_formula_sum "Si O2"
_cell_formula_units_Z 48
_cell_length_a 15.000000
_cell_length_b 18.000000
_cell_length_c 9.000000
_cell_angle_alpha 90.000000
_cell_angle_beta 90.000000
_cell_angle_gamma 90.000000
_cell_volume 2430.000000
_symmetry_space_group_name_H-M "P B A N"
_symmetry_group_IT_number 50
_space_group.IT_coordinate_system_code '2'
_symmetry_cell_setting 'orthorhombic'
loop_
_space_group_symop_operation_xyz
x,y,z
1/2-x,1/2-y,z
x,1/2-y,-z
1/2-x,y,-z
-x,-y,-z
1/2+x,1/2+y,-z
-x,1/2+y,z
1/2+x,-y,z
loop_
_atom_site_type_symbol
_atom_site_label
_atom_site_fract_x
_atom_site_fract_y
_atom_site_fract_z
Si Si1 0.413812 0.426098 0.648892
Si Si2 0.508828 0.133363 0.894523
Si Si3 0.797013 0.119101 0.661419
Si Si4 0.411495 0.469590 0.321923
Si Si5 0.320189 0.964511 0.132228
Si Si6 0.527737 0.202563 0.223050
O O1 0.389272 0.427424 0.475198
O O2 0.495141 0.485581 0.662391
O O3 0.341670 0.464247 0.761029
O O4 0.453413 0.344605 0.685544
O O5 0.427911 0.086656 0.816357
O O6 0.585370 0.070286 0.917382
O O7 0.524101 0.207317 0.790202
O O8 0.507202 0.169485 0.058364
O O9 0.750000 0.130941 0.500000
O O10 0.718427 0.107426 0.779007
O O11 0.875187 0.176249 0.711098
O O12 0.841851 0.037305 0.679259
O O13 0.250000 0.981287 0.000000
#
# Coordination Sequence:
#
# PCOD9398330 Si02
#       6
#     8   8   8   8   8   8
#     4   9  19  35  56  81 109 148 197 238 272 339
#     4  10  22  38  55  83 117 157 193 234 287 347
#     4  11  21  37  58  87 117 149 187 241 296 343
#     4   9  19  35  57  79 111 147 196 239 275 335
#     4  11  21  35  58  87 115 151 190 239 297 343
#     4  10  22  38  56  82 118 155 195 234 283 352
#
# _framework density 19.753086
#
# number of rings (size 3 to 8) (size 9 to 14) (size 15 to 20)
#    0.000    2.000    3.333    0.000    4.667    3.333 
#    0.000    0.833    0.000    1.000    0.000    0.000 
#    0.000    0.000    0.000    0.000    0.000    0.000 
#
# Total GULP energy -267253.719061 kJ/mol
# GULP energy per Si atom -5567.785814 kJ/mol
# Density = 1.970813 g / cm^3
# Si number density = 19.753086 Si / 1000 Ang^3
#
#
#
# Elastic Constant Matrix: (Units=GPa)
#
#
# Indices 1 2 3 4 5 6 
#
# 1 38.3437 14.8505 17.4557 0.0000 0.0000 0.0000
# 2 14.8505 75.8219 8.6191 0.0000 0.0000 0.0000
# 3 17.4557 8.6191 83.5866 0.0000 0.0000 0.0000
# 4 0.0000 0.0000 0.0000 37.0974 0.0000 0.0000
# 5 0.0000 0.0000 0.0000 0.0000 32.4924 0.0000
# 6 0.0000 0.0000 0.0000 0.0000 0.0000 24.0727
#
#
#
# Elastic Compliance Matrix: (Units=1/GPa)
#
#
# Indices 1 2 3 4 5 6 
#
# 1 0.030840 -0.005371 -0.005887 0.000000 0.000000 0.000000
# 2 -0.005371 0.014281 -0.000351 0.000000 0.000000 0.000000
# 3 -0.005887 -0.000351 0.013229 0.000000 0.000000 0.000000
# 4 0.000000 0.000000 0.000000 0.026956 0.000000 0.000000
# 5 0.000000 0.000000 0.000000 0.000000 0.030776 0.000000
# 6 0.000000 0.000000 0.000000 0.000000 0.000000 0.041541
#
#
# Mechanical properties :
#
#
# Convention : Reuss Voigt Hill
#
# Bulk Modulus (GPa) = 28.46365 31.06699 29.76532
# Shear Modulus (GPa) = 25.96711 29.18763 27.57737
#
# Velocity S-wave (km/s) = 3.62965 3.84816 3.74050
# Velocity P-wave (km/s) = 5.65746 5.95871 5.81004
#
# Compressibility (1/GPa) = 0.03513253
#
# Stress axis : x y z
#
# Youngs Moduli (GPa) = 32.42542 70.02459 75.59069
#
# Poissons Ratio (x) = 0.37611 0.44497
# Poissons Ratio (y) = 0.17416 0.02652
# Poissons Ratio (z) = 0.19088 0.02457
#
# Static dielectric constant tensor:
#      x y z
#    x 1.784530 0.000000 0.000000 
#    y 0.000000 1.670570 0.000000 
#    z 0.000000 0.000000 1.776290 
# 
# From -- ./inp_files/12952.got.cif
#   From: 2010.05.17/outbox.ucp.g08.bks.cvg/sg50_7_cif.got.tgz:12952.got - 2010.06.11 16:26:39.
