data_PCOD9398910
_publ_section_title
;
Structure prediction by ZEFSAII (Michael W. Deem and Ramdas Pophale) SiO2 
 PCOD9398910
Probable space group: P M M A
;
_chemical_formula_sum "Si O2"
_cell_formula_units_Z 40
_cell_length_a 25.416994
_cell_length_b 8.955559
_cell_length_c 10.488251
_cell_angle_alpha 90.000000
_cell_angle_beta 90.000000
_cell_angle_gamma 90.000000
_cell_volume 2387.371241
_symmetry_space_group_name_H-M "P M M A"
_symmetry_group_IT_number 51
_symmetry_cell_setting 'orthorhombic'
loop_
_space_group_symop_operation_xyz
x,y,z
1/2-x,-y,z
1/2+x,-y,-z
-x,y,-z
-x,-y,-z
1/2+x,y,-z
1/2-x,y,z
x,-y,z
loop_
_atom_site_type_symbol
_atom_site_label
_atom_site_fract_x
_atom_site_fract_y
_atom_site_fract_z
Si Si1 0.634117 0.677764 0.720630
Si Si2 0.971428 0.820067 0.629352
Si Si3 0.358357 0.321649 0.977340
Si Si4 0.537200 0.179014 0.121002
Si Si5 0.750000 0.320753 0.736808
Si Si6 0.750000 0.177466 0.015933
O O1 0.626351 0.500000 0.711803
O O2 0.587127 0.758238 0.648407
O O3 0.632837 0.717232 0.872083
O O4 0.693670 0.711292 0.673319
O O5 0.006461 0.775935 0.751464
O O6 0.000000 0.770680 0.500000
O O7 0.968641 0.000000 0.628458
O O8 0.353828 0.500000 0.970355
O O9 0.304061 0.246870 0.932166
O O10 0.407980 0.261697 0.899934
O O11 0.546039 0.000000 0.124265
O O12 0.500000 0.211264 0.000000
O O13 0.750000 0.500000 0.767311
O O14 0.750000 0.229837 0.868210
O O15 0.750000 0.000000 0.026453
#
# Coordination Sequence:
#
# PCOD9398910 Si02
#       6
#     8   8   8   8   4   4
#     4   9  17  30  49  72 100 130 164 206 249 299
#     4  10  21  35  50  71 103 136 167 209 257 300
#     4  10  19  31  49  74 104 133 167 210 256 301
#     4  10  19  32  51  74  99 130 170 212 248 294
#     4   8  16  30  46  71 102 131 162 206 256 294
#     4  10  18  28  46  73 104 135 166 204 254 304
#
# _framework density 16.754829000000001
#
# number of rings (size 3 to 8) (size 9 to 14) (size 15 to 20)
#    0.000    2.400    2.000    2.700    0.000    4.800 
#    0.000    0.000    0.000    1.200    0.000    7.000 
#    0.000    0.000    0.000    0.000    0.000    0.000 
#
# Total GULP energy -222955.525866 kJ/mol
# GULP energy per Si atom -5573.888147 kJ/mol
# Density = 1.671669 g / cm^3
# Si number density = 16.754829 Si / 1000 Ang^3
#
#
#
# Elastic Constant Matrix: (Units=GPa)
#
#
# Indices 1 2 3 4 5 6 
#
# 1 193.1948 59.8533 60.9031 0.0000 0.0000 0.0000
# 2 59.8533 36.0682 24.3896 0.0000 0.0000 0.0000
# 3 60.9031 24.3896 78.8167 0.0000 0.0000 0.0000
# 4 0.0000 0.0000 0.0000 10.9897 0.0000 0.0000
# 5 0.0000 0.0000 0.0000 0.0000 17.6841 0.0000
# 6 0.0000 0.0000 0.0000 0.0000 0.0000 34.8769
#
#
#
# Elastic Compliance Matrix: (Units=1/GPa)
#
#
# Indices 1 2 3 4 5 6 
#
# 1 0.011471 -0.016493 -0.003760 0.000000 0.000000 0.000000
# 2 -0.016493 0.058776 -0.005443 0.000000 0.000000 0.000000
# 3 -0.003760 -0.005443 0.017278 0.000000 0.000000 0.000000
# 4 0.000000 0.000000 0.000000 0.090994 0.000000 0.000000
# 5 0.000000 0.000000 0.000000 0.000000 0.056548 0.000000
# 6 0.000000 0.000000 0.000000 0.000000 0.000000 0.028672
#
#
# Mechanical properties :
#
#
# Convention : Reuss Voigt Hill
#
# Bulk Modulus (GPa) = 27.67699 66.48575 47.08137
# Shear Modulus (GPa) = 15.28225 23.57239 19.42732
#
# Velocity S-wave (km/s) = 3.02339 3.75494 3.40885
# Velocity P-wave (km/s) = 5.36121 7.65291 6.60718
#
# Compressibility (1/GPa) = 0.03613110
#
# Stress axis : x y z
#
# Youngs Moduli (GPa) = 87.17420 17.01378 57.87806
#
# Poissons Ratio (x) = 0.28061 0.21764
# Poissons Ratio (y) = 1.43779 0.31505
# Poissons Ratio (z) = 0.32780 0.09261
#
# Static dielectric constant tensor:
#      x y z
#    x 1.581530 0.000000 0.000000 
#    y 0.000000 1.555180 0.000000 
#    z 0.000000 0.000000 1.547030 
# 
# From -- ./inp_files/12214.got.cif
#   From: 2010.05.17/outbox.cif.g08.bks.cpg/sg51_7_cif.got.tgz:12214.got - 2010.06.03 11:52:47.
