data_PCOD9398945
_publ_section_title
;
Structure prediction by ZEFSAII (Michael W. Deem and Ramdas Pophale) SiO2 
 PCOD9398945
Probable space group: P M M A
;
_chemical_formula_sum "Si O2"
_cell_formula_units_Z 64
_cell_length_a 24.133790
_cell_length_b 7.671814
_cell_length_c 19.969323
_cell_angle_alpha 90.000000
_cell_angle_beta 90.000000
_cell_angle_gamma 90.000000
_cell_volume 3697.319115
_symmetry_space_group_name_H-M "P M M A"
_symmetry_group_IT_number 51
_symmetry_cell_setting 'orthorhombic'
loop_
_space_group_symop_operation_xyz
x,y,z
1/2-x,-y,z
1/2+x,-y,-z
-x,y,-z
-x,-y,-z
1/2+x,y,-z
1/2-x,y,z
x,-y,z
loop_
_atom_site_type_symbol
_atom_site_label
_atom_site_fract_x
_atom_site_fract_y
_atom_site_fract_z
Si Si1 0.687343 0.791615 0.887894
Si Si2 0.370661 0.209881 0.247768
Si Si3 0.912665 0.213226 0.524883
Si Si4 0.000908 0.293964 0.749472
Si Si5 0.813110 0.213513 0.614659
Si Si6 0.521148 0.286565 0.104689
Si Si7 0.977028 0.792630 0.398775
Si Si8 0.086885 0.290620 0.022162
O O1 0.750000 0.724287 0.895367
O O2 0.657481 0.723185 0.820457
O O3 0.646430 0.759651 0.949834
O O4 0.691109 0.000000 0.880132
O O5 0.435490 0.252197 0.251792
O O6 0.338593 0.269954 0.314105
O O7 0.366707 0.000000 0.247155
O O8 0.854851 0.270868 0.556217
O O9 0.963295 0.269736 0.573389
O O10 0.930067 0.271080 0.450358
O O11 0.911481 0.000000 0.525654
O O12 0.006248 0.500000 0.752646
O O13 0.028068 0.239763 0.679620
O O14 0.025316 0.223021 0.819271
O O15 0.750000 0.270762 0.606757
O O16 0.812983 0.000000 0.615120
O O17 0.521440 0.500000 0.105146
O O18 0.461649 0.232981 0.073536
O O19 0.567761 0.230473 0.051473
O O20 0.978553 0.000000 0.407312
O O21 0.084761 0.500000 0.021451
#
# Coordination Sequence:
#
# PCOD9398945 Si02
#       8
#     8   8   8   8   8   8   8   8
#     4  10  20  31  43  65  96 123 147 181 221 257
#     4  10  18  29  43  61  89 123 152 173 202 254
#     4   8  14  25  42  62  84 112 145 181 213 246
#     4  11  19  28  44  67  90 114 143 180 221 259
#     4   9  15  24  42  65  84 109 149 185 207 235
#     4   8  16  29  46  64  86 113 144 186 228 258
#     4   9  16  28  44  61  85 115 145 176 214 259
#     4   9  16  31  49  63  82 115 153 185 218 260
#
# _framework density 17.309837999999999
#
# number of rings (size 3 to 8) (size 9 to 14) (size 15 to 20)
#    0.000    2.750    2.500    2.250    0.000    1.750 
#    0.000    3.750    0.000    1.125    0.000    0.875 
#    0.000    3.000    0.000    0.000    0.000    0.000 
#
# Total GULP energy -356737.433009 kJ/mol
# GULP energy per Si atom -5574.022391 kJ/mol
# Density = 1.727044 g / cm^3
# Si number density = 17.309838 Si / 1000 Ang^3
#
#
#
# Elastic Constant Matrix: (Units=GPa)
#
#
# Indices 1 2 3 4 5 6 
#
# 1 167.4111 23.6315 116.1760 0.0000 0.0000 0.0000
# 2 23.6315 32.8525 15.5454 0.0000 0.0000 0.0000
# 3 116.1760 15.5454 188.9574 0.0000 0.0000 0.0000
# 4 0.0000 0.0000 0.0000 28.6420 0.0000 0.0000
# 5 0.0000 0.0000 0.0000 0.0000 -12.1198 0.0000
# 6 0.0000 0.0000 0.0000 0.0000 0.0000 10.9178
#
#
#
# Elastic Compliance Matrix: (Units=1/GPa)
#
#
# Indices 1 2 3 4 5 6 
#
# 1 0.011147 -0.004969 -0.006445 0.000000 0.000000 0.000000
# 2 -0.004969 0.033887 0.000267 0.000000 0.000000 0.000000
# 3 -0.006445 0.000267 0.009233 0.000000 0.000000 0.000000
# 4 0.000000 0.000000 0.000000 0.034914 0.000000 0.000000
# 5 0.000000 0.000000 0.000000 0.000000 -0.082510 0.000000
# 6 0.000000 0.000000 0.000000 0.000000 0.000000 0.091593
#
#
# Mechanical properties :
#
#
# Convention : Reuss Voigt Hill
#
# Bulk Modulus (GPa) = 31.27573 77.76966 54.52269
# Shear Modulus (GPa) = 38.10554 21.07921 29.59238
#
# Velocity S-wave (km/s) = 4.69698 3.49343 4.13918
# Velocity P-wave (km/s) = 6.89368 7.82928 7.37633
#
# Compressibility (1/GPa) = 0.03197368
#
# Stress axis : x y z
#
# Youngs Moduli (GPa) = 89.70962 29.50999 108.31157
#
# Poissons Ratio (x) = 0.14663 0.69804
# Poissons Ratio (y) = 0.44575 -0.02893
# Poissons Ratio (z) = 0.57816 -0.00788
#
# Static dielectric constant tensor:
#      x y z
#    x 1.740740 0.000000 0.000000 
#    y 0.000000 1.647070 0.000000 
#    z 0.000000 0.000000 1.523370 
# 
# From -- ./inp_files/30897.got.cif
#   From: 2010.05.17/outbox.cif.g08.bks.cpg/sg51_16_cif.got.tgz:30897.got - 2010.06.03 11:52:47.
