data_PCOD9398427
_publ_section_title
;
Structure prediction by ZEFSAII (Michael W. Deem and Ramdas Pophale) SiO2 
 PCOD9398427
Probable space group: P M M A
;
_chemical_formula_sum "Si O2"
_cell_formula_units_Z 64
_cell_length_a 15.984365
_cell_length_b 15.615421
_cell_length_c 14.401840
_cell_angle_alpha 90.000000
_cell_angle_beta 90.000000
_cell_angle_gamma 90.000000
_cell_volume 3594.736549
_symmetry_space_group_name_H-M "P M M A"
_symmetry_group_IT_number 51
_symmetry_cell_setting 'orthorhombic'
loop_
_space_group_symop_operation_xyz
x,y,z
1/2-x,-y,z
1/2+x,-y,-z
-x,y,-z
-x,-y,-z
1/2+x,y,-z
1/2-x,y,z
x,-y,z
loop_
_atom_site_type_symbol
_atom_site_label
_atom_site_fract_x
_atom_site_fract_y
_atom_site_fract_z
Si Si1 0.658442 0.626128 0.831266
Si Si2 0.595409 0.595716 0.033165
Si Si3 0.658800 0.822163 0.875360
Si Si4 0.487127 0.903097 0.887697
Si Si5 0.344937 0.226637 0.904706
Si Si6 0.841126 0.602506 0.547211
Si Si7 0.340871 0.398189 0.675624
Si Si8 0.978921 0.402148 0.683279
O O1 0.750000 0.598639 0.797522
O O2 0.654635 0.728996 0.828920
O O3 0.581202 0.594209 0.771736
O O4 0.647856 0.598386 0.937804
O O5 0.599778 0.500000 0.074371
O O6 0.628236 0.673780 0.094618
O O7 0.500000 0.612243 0.000000
O O8 0.750000 0.861456 0.856359
O O9 0.577975 0.876623 0.849779
O O10 0.655827 0.800535 0.985759
O O11 0.415820 0.834540 0.862244
O O12 0.463886 0.000000 0.862638
O O13 0.500000 0.900940 0.000000
O O14 0.250000 0.215218 0.870677
O O15 0.750000 0.636722 0.577494
O O16 0.840273 0.500000 0.565623
O O17 0.845905 0.611273 0.436522
O O18 0.920899 0.637746 0.602642
O O19 0.250000 0.362463 0.705526
O O20 0.337412 0.500000 0.697386
O O21 0.430961 0.363014 0.706752
O O22 0.997559 0.500000 0.652750
#
# Coordination Sequence:
#
# PCOD9398427 Si02
#       8
#     8   8   8   8   8   8   8   8
#     4  10  19  29  41  57  78 102 128 165 212 255
#     4  10  19  30  44  57  72 101 139 175 211 251
#     4   8  15  27  40  54  75 100 120 144 187 241
#     4   9  16  26  42  62  80  96 118 153 195 241
#     4   9  16  26  40  57  78 100 121 151 192 240
#     4   8  13  21  33  51  75  99 125 161 204 248
#     4   8  14  24  36  49  69 100 133 165 204 246
#     4  10  17  23  35  55  76  99 132 173 209 242
#
# _framework density 17.803809000000001
#
# number of rings (size 3 to 8) (size 9 to 14) (size 15 to 20)
#    0.000    3.000    0.000    4.875    0.000    4.250 
#    0.000    2.500    0.000    3.750    0.000    5.250 
#    0.000    0.000    0.000    0.000    0.000    2.500 
#
# Total GULP energy -356559.517996 kJ/mol
# GULP energy per Si atom -5571.242469 kJ/mol
# Density = 1.776329 g / cm^3
# Si number density = 17.803809 Si / 1000 Ang^3
#
#
#
# Elastic Constant Matrix: (Units=GPa)
#
#
# Indices 1 2 3 4 5 6 
#
# 1 189.9893 46.1499 21.0958 0.0000 0.0000 0.0000
# 2 46.1499 71.2985 -0.3117 0.0000 0.0000 0.0000
# 3 21.0958 -0.3117 29.9412 0.0000 0.0000 0.0000
# 4 0.0000 0.0000 0.0000 -1.9536 0.0000 0.0000
# 5 0.0000 0.0000 0.0000 0.0000 14.1835 0.0000
# 6 0.0000 0.0000 0.0000 0.0000 0.0000 7.6561
#
#
#
# Elastic Compliance Matrix: (Units=1/GPa)
#
#
# Indices 1 2 3 4 5 6 
#
# 1 0.006898 -0.004486 -0.004907 0.000000 0.000000 0.000000
# 2 -0.004486 0.016944 0.003337 0.000000 0.000000 0.000000
# 3 -0.004907 0.003337 0.036891 0.000000 0.000000 0.000000
# 4 0.000000 0.000000 0.000000 -0.511877 0.000000 0.000000
# 5 0.000000 0.000000 0.000000 0.000000 0.070504 0.000000
# 6 0.000000 0.000000 0.000000 0.000000 0.000000 0.130614
#
#
# Mechanical properties :
#
#
# Convention : Reuss Voigt Hill
#
# Bulk Modulus (GPa) = 20.56718 47.23301 33.90009
# Shear Modulus (GPa) = -22.55237 18.93021 -1.81108
#
# Velocity S-wave (km/s) = -3.56296 3.26432 -1.00968
# Velocity P-wave (km/s) = 2.31279 6.38710 4.20987
#
# Compressibility (1/GPa) = 0.04862116
#
# Stress axis : x y z
#
# Youngs Moduli (GPa) = 144.96762 59.01766 27.10696
#
# Poissons Ratio (x) = 0.26478 0.13301
# Poissons Ratio (y) = 0.65039 -0.09047
# Poissons Ratio (z) = 0.71135 -0.19697
#
# Static dielectric constant tensor:
#      x y z
#    x 1.696400 0.000000 0.000000 
#    y 0.000000 1.594850 0.000000 
#    z 0.000000 0.000000 1.623810 
# 
# From -- ./inp_files/24456.got.cif
#   From: 2010.05.17/outbox.cif.g08.bks.cpg/sg51_13_cif.got.tgz:24456.got - 2010.06.03 11:52:47.
