data_PCOD9398178
_publ_section_title
;
Structure prediction by ZEFSAII (Michael W. Deem and Ramdas Pophale) SiO2 
 PCOD9398178
Probable space group: P B A N
;
_chemical_formula_sum "Si O2"
_cell_formula_units_Z 32
_cell_length_a 18.699138
_cell_length_b 9.083255
_cell_length_c 8.040778
_cell_angle_alpha 90.000000
_cell_angle_beta 90.000000
_cell_angle_gamma 90.000000
_cell_volume 1365.718414
_symmetry_space_group_name_H-M "P B A N"
_symmetry_group_IT_number 50
_space_group.IT_coordinate_system_code '2'
_symmetry_cell_setting 'orthorhombic'
loop_
_space_group_symop_operation_xyz
x,y,z
1/2-x,1/2-y,z
x,1/2-y,-z
1/2-x,y,-z
-x,-y,-z
1/2+x,1/2+y,-z
-x,1/2+y,z
1/2+x,-y,z
loop_
_atom_site_type_symbol
_atom_site_label
_atom_site_fract_x
_atom_site_fract_y
_atom_site_fract_z
Si Si1 0.104075 0.104558 0.695951
Si Si2 0.274965 0.583074 0.811049
Si Si3 0.350142 0.421515 0.316758
Si Si4 0.039428 0.613493 0.880974
O O1 0.116106 0.080754 0.500191
O O2 0.143010 0.255711 0.749857
O O3 0.021740 0.137302 0.741143
O O4 0.142887 0.965726 0.784269
O O5 0.250000 0.750000 0.773000
O O6 0.230536 0.476343 0.690502
O O7 0.250000 0.554987 0.000000
O O8 0.393594 0.536901 0.204620
O O9 0.056461 0.750000 0.000000
O O10 0.000000 0.500000 0.000000
#
# Coordination Sequence:
#
# PCOD9398178 Si02
#       4
#     8   8   8   8
#     4  11  25  46  68 100 139 183 230 285 352 420
#     4  11  26  43  69 101 137 179 232 289 347 412
#     4  11  25  45  70  99 138 184 230 285 352 420
#     4  12  25  44  71 100 138 180 230 286 345 415
#
# _framework density 23.430890999999999
#
# number of rings (size 3 to 8) (size 9 to 14) (size 15 to 20)
#    0.000    0.750    2.500    3.750    7.000    5.000 
#    0.000    0.000    0.000    0.000    0.000    0.000 
#    0.000    0.000    0.000    0.000    0.000    0.000 
#
# Total GULP energy -179073.169863 kJ/mol
# GULP energy per Si atom -5596.036558 kJ/mol
# Density = 2.337756 g / cm^3
# Si number density = 23.430891 Si / 1000 Ang^3
#
#
#
# Elastic Constant Matrix: (Units=GPa)
#
#
# Indices 1 2 3 4 5 6 
#
# 1 105.6646 36.6574 24.7846 0.0000 0.0000 0.0000
# 2 36.6574 142.8243 37.2672 0.0000 0.0000 0.0000
# 3 24.7846 37.2672 66.2788 0.0000 0.0000 0.0000
# 4 0.0000 0.0000 0.0000 35.6843 0.0000 0.0000
# 5 0.0000 0.0000 0.0000 0.0000 41.2443 0.0000
# 6 0.0000 0.0000 0.0000 0.0000 0.0000 42.4509
#
#
#
# Elastic Compliance Matrix: (Units=1/GPa)
#
#
# Indices 1 2 3 4 5 6 
#
# 1 0.010851 -0.002023 -0.002920 0.000000 0.000000 0.000000
# 2 -0.002023 0.008583 -0.004069 0.000000 0.000000 0.000000
# 3 -0.002920 -0.004069 0.018468 0.000000 0.000000 0.000000
# 4 0.000000 0.000000 0.000000 0.028024 0.000000 0.000000
# 5 0.000000 0.000000 0.000000 0.000000 0.024246 0.000000
# 6 0.000000 0.000000 0.000000 0.000000 0.000000 0.023557
#
#
# Mechanical properties :
#
#
# Convention : Reuss Voigt Hill
#
# Bulk Modulus (GPa) = 50.31110 56.90955 53.61033
# Shear Modulus (GPa) = 36.13307 38.27979 37.20643
#
# Velocity S-wave (km/s) = 3.93123 4.04633 3.98920
# Velocity P-wave (km/s) = 6.49037 6.79495 6.64441
#
# Compressibility (1/GPa) = 0.01987633
#
# Stress axis : x y z
#
# Youngs Moduli (GPa) = 92.16034 116.51410 54.14819
#
# Poissons Ratio (x) = 0.23571 0.15812
# Poissons Ratio (y) = 0.18644 0.22035
# Poissons Ratio (z) = 0.26911 0.47414
#
# Static dielectric constant tensor:
#      x y z
#    x 1.903650 0.000000 0.000000 
#    y 0.000000 1.889090 0.000000 
#    z 0.000000 0.000000 1.891120 
# 
# From -- ./inp_files/14848.got.cif
#   From: 2010.05.17/outbox.cif.g08.bks.cpg/sg50_8_cif.got.tgz:14848.got - 2010.06.03 11:33:33.
