data_PCOD9398897
_publ_section_title
;
Structure prediction by ZEFSAII (Michael W. Deem and Ramdas Pophale) SiO2 
 PCOD9398897
Probable space group: P M M A
;
_chemical_formula_sum "Si O2"
_cell_formula_units_Z 64
_cell_length_a 8.935292
_cell_length_b 14.642437
_cell_length_c 29.626963
_cell_angle_alpha 90.000000
_cell_angle_beta 90.000000
_cell_angle_gamma 90.000000
_cell_volume 3876.227415
_symmetry_space_group_name_H-M "P M M A"
_symmetry_group_IT_number 51
_symmetry_cell_setting 'orthorhombic'
loop_
_space_group_symop_operation_xyz
x,y,z
1/2-x,-y,z
1/2+x,-y,-z
-x,y,-z
-x,-y,-z
1/2+x,y,-z
1/2-x,y,z
x,-y,z
loop_
_atom_site_type_symbol
_atom_site_label
_atom_site_fract_x
_atom_site_fract_y
_atom_site_fract_z
Si Si1 0.575779 0.890626 0.685473
Si Si2 0.428496 0.893281 0.589204
Si Si3 0.077520 0.111097 0.046157
Si Si4 0.925581 0.609547 0.374081
Si Si5 0.572465 0.277418 0.546363
Si Si6 0.930096 0.106449 0.140115
Si Si7 0.431881 0.397146 0.728614
Si Si8 0.568756 0.788228 0.230100
O O1 0.750000 0.864552 0.680124
O O2 0.485594 0.870343 0.639676
O O3 0.502502 0.842801 0.728378
O O4 0.569278 0.000000 0.691933
O O5 0.250000 0.881615 0.586580
O O6 0.510208 0.824050 0.555989
O O7 0.463870 0.000000 0.580775
O O8 0.250000 0.138476 0.046763
O O9 0.996990 0.138140 0.092483
O O10 0.071649 0.000000 0.045448
O O11 0.000000 0.142824 0.000000
O O12 0.750000 0.635587 0.378265
O O13 0.934858 0.500000 0.379657
O O14 0.018923 0.661487 0.411626
O O15 0.975849 0.629051 0.322655
O O16 0.500000 0.312086 0.500000
O O17 0.250000 0.276631 0.457133
O O18 0.750000 0.108930 0.137027
O O19 0.976993 0.167163 0.182717
O O20 0.973399 0.000000 0.147600
O O21 0.250000 0.400618 0.727751
O O22 0.484790 0.500000 0.738537
O O23 0.474686 0.317515 0.762891
O O24 0.750000 0.794909 0.233184
#
# Coordination Sequence:
#
# PCOD9398897 Si02
#       8
#     8   8   8   8   8   8   8   8
#     4  10  20  32  47  70  99 128 158 193 233 278
#     4  10  21  38  58  76  96 125 161 198 234 276
#     4   9  16  26  41  59  81 115 158 200 240 280
#     4   9  18  35  58  80 102 128 159 196 237 283
#     4  12  25  39  56  77 102 128 155 191 235 285
#     4   9  17  27  38  58  91 127 163 200 235 275
#     4   8  15  29  50  74  96 120 153 192 232 274
#     4  10  18  28  46  69  95 129 164 198 236 279
#
# _framework density 16.510898999999998
#
# number of rings (size 3 to 8) (size 9 to 14) (size 15 to 20)
#    0.000    2.375    0.000    4.125    0.000    5.750 
#    0.000    1.250    0.000    1.125    0.000    0.000 
#    0.000    0.500    0.000    0.875    0.000    1.250 
#
# Total GULP energy -357106.760335 kJ/mol
# GULP energy per Si atom -5579.793130 kJ/mol
# Density = 1.647332 g / cm^3
# Si number density = 16.510899 Si / 1000 Ang^3
#
#
#
# Elastic Constant Matrix: (Units=GPa)
#
#
# Indices 1 2 3 4 5 6 
#
# 1 55.7012 26.3254 34.6641 0.0000 0.0000 0.0000
# 2 26.3254 55.8606 55.3969 0.0000 0.0000 0.0000
# 3 34.6641 55.3969 105.0407 0.0000 0.0000 0.0000
# 4 0.0000 0.0000 0.0000 16.2312 0.0000 0.0000
# 5 0.0000 0.0000 0.0000 0.0000 25.4573 0.0000
# 6 0.0000 0.0000 0.0000 0.0000 0.0000 14.5926
#
#
#
# Elastic Compliance Matrix: (Units=1/GPa)
#
#
# Indices 1 2 3 4 5 6 
#
# 1 0.023904 -0.007217 -0.004083 0.000000 0.000000 0.000000
# 2 -0.007217 0.039709 -0.018560 0.000000 0.000000 0.000000
# 3 -0.004083 -0.018560 0.020656 0.000000 0.000000 0.000000
# 4 0.000000 0.000000 0.000000 0.061610 0.000000 0.000000
# 5 0.000000 0.000000 0.000000 0.000000 0.039281 0.000000
# 6 0.000000 0.000000 0.000000 0.000000 0.000000 0.068528
#
#
# Mechanical properties :
#
#
# Convention : Reuss Voigt Hill
#
# Bulk Modulus (GPa) = 40.73341 49.93060 45.33200
# Shear Modulus (GPa) = 15.54770 17.93730 16.74250
#
# Velocity S-wave (km/s) = 3.07198 3.29962 3.18783
# Velocity P-wave (km/s) = 6.10794 6.69502 6.40821
#
# Compressibility (1/GPa) = 0.02454987
#
# Stress axis : x y z
#
# Youngs Moduli (GPa) = 41.83336 25.18323 48.41243
#
# Poissons Ratio (x) = 0.18174 0.19765
# Poissons Ratio (y) = 0.30190 0.89855
# Poissons Ratio (z) = 0.17079 0.46741
#
# Static dielectric constant tensor:
#      x y z
#    x 1.552040 0.000000 0.000000 
#    y 0.000000 1.565140 0.000000 
#    z 0.000000 0.000000 1.539130 
# 
# From -- ./inp_files/37681.got.cif
#   From: 2010.05.17/outbox.cif.g08.bks.cpg/sg51_19_cif.got.tgz:37681.got - 2010.06.03 11:52:47.
