data_PCOD9398066
_publ_section_title
;
Structure prediction by ZEFSAII (Michael W. Deem and Ramdas Pophale) SiO2 
 PCOD9398066
Probable space group: P B A N
;
_chemical_formula_sum "Si O2"
_cell_formula_units_Z 40
_cell_length_a 16.649769
_cell_length_b 8.277226
_cell_length_c 12.236049
_cell_angle_alpha 90.000000
_cell_angle_beta 90.000000
_cell_angle_gamma 90.000000
_cell_volume 1686.297644
_symmetry_space_group_name_H-M "P B A N"
_symmetry_group_IT_number 50
_space_group.IT_coordinate_system_code '2'
_symmetry_cell_setting 'orthorhombic'
loop_
_space_group_symop_operation_xyz
x,y,z
1/2-x,1/2-y,z
x,1/2-y,-z
1/2-x,y,-z
-x,-y,-z
1/2+x,1/2+y,-z
-x,1/2+y,z
1/2+x,-y,z
loop_
_atom_site_type_symbol
_atom_site_label
_atom_site_fract_x
_atom_site_fract_y
_atom_site_fract_z
Si Si1 0.164174 0.563141 0.536029
Si Si2 0.407536 0.402188 0.267558
Si Si3 0.410753 0.528049 0.046056
Si Si4 0.163415 0.832921 0.846812
Si Si5 0.418333 0.466195 0.667026
O O1 0.163303 0.750000 0.500000
O O2 0.250000 0.494764 0.500000
O O3 0.149672 0.518850 0.661434
O O4 0.094635 0.487781 0.461623
O O5 0.390950 0.399698 0.138922
O O6 0.404388 0.220271 0.308585
O O7 0.495812 0.474849 0.289858
O O8 0.400868 0.695043 0.116067
O O9 0.500000 0.500000 0.000000
O O10 0.349756 0.540415 0.945362
O O11 0.250000 0.750000 0.848498
O O12 0.143408 0.919636 0.733695
#
# Coordination Sequence:
#
# PCOD9398066 Si02
#       5
#     8   8   8   8   8
#     4  11  26  48  76 107 149 200 248 309 382 453
#     4  12  26  46  74 114 149 195 253 313 373 451
#     4  11  23  43  74 106 144 192 251 304 369 450
#     4  11  26  47  74 108 151 202 247 313 385 452
#     4  12  26  45  77 109 150 195 250 310 374 454
#
# _framework density 23.720604000000002
#
# number of rings (size 3 to 8) (size 9 to 14) (size 15 to 20)
#    0.000    0.600    2.000    6.000    8.400    2.400 
#    3.600    0.000    0.000    9.600    0.000    0.000 
#    0.000    0.000    0.000    0.000    0.000    0.000 
#
# Total GULP energy -223986.932416 kJ/mol
# GULP energy per Si atom -5599.673310 kJ/mol
# Density = 2.366661 g / cm^3
# Si number density = 23.720604 Si / 1000 Ang^3
#
#
#
# Elastic Constant Matrix: (Units=GPa)
#
#
# Indices 1 2 3 4 5 6 
#
# 1 132.9228 24.4881 41.3054 0.0000 0.0000 0.0000
# 2 24.4881 90.4987 4.8892 0.0000 0.0000 0.0000
# 3 41.3054 4.8892 118.5115 0.0000 0.0000 0.0000
# 4 0.0000 0.0000 0.0000 41.8075 0.0000 0.0000
# 5 0.0000 0.0000 0.0000 0.0000 33.7539 0.0000
# 6 0.0000 0.0000 0.0000 0.0000 0.0000 21.7044
#
#
#
# Elastic Compliance Matrix: (Units=1/GPa)
#
#
# Indices 1 2 3 4 5 6 
#
# 1 0.008867 -0.002237 -0.002998 0.000000 0.000000 0.000000
# 2 -0.002237 0.011639 0.000300 0.000000 0.000000 0.000000
# 3 -0.002998 0.000300 0.009471 0.000000 0.000000 0.000000
# 4 0.000000 0.000000 0.000000 0.023919 0.000000 0.000000
# 5 0.000000 0.000000 0.000000 0.000000 0.029626 0.000000
# 6 0.000000 0.000000 0.000000 0.000000 0.000000 0.046074
#
#
# Mechanical properties :
#
#
# Convention : Reuss Voigt Hill
#
# Bulk Modulus (GPa) = 49.73904 53.69983 51.71943
# Shear Modulus (GPa) = 34.20697 37.53652 35.87175
#
# Velocity S-wave (km/s) = 3.80159 3.98231 3.89300
# Velocity P-wave (km/s) = 6.34694 6.62063 6.48523
#
# Compressibility (1/GPa) = 0.02010493
#
# Stress axis : x y z
#
# Youngs Moduli (GPa) = 112.77753 85.91728 105.58991
#
# Poissons Ratio (x) = 0.19223 0.31658
# Poissons Ratio (y) = 0.25232 -0.03164
# Poissons Ratio (z) = 0.33813 -0.02574
#
# Static dielectric constant tensor:
#      x y z
#    x 1.891530 0.000000 0.000000 
#    y 0.000000 1.931970 0.000000 
#    z 0.000000 0.000000 1.917700 
# 
# From -- ./inp_files/18764.got.cif
#   From: 2010.05.17/outbox.cif.g08.bks.cpg/sg50_10_cif.got.tgz:18764.got - 2010.06.03 11:33:33.
