data_PCOD9398524
_publ_section_title
;
Structure prediction by ZEFSAII (Michael W. Deem and Ramdas Pophale) SiO2 
 PCOD9398524
Probable space group: P M M A
;
_chemical_formula_sum "Si O2"
_cell_formula_units_Z 44
_cell_length_a 15.759305
_cell_length_b 12.643525
_cell_length_c 13.413232
_cell_angle_alpha 90.000000
_cell_angle_beta 90.000000
_cell_angle_gamma 90.000000
_cell_volume 2672.628952
_symmetry_space_group_name_H-M "P M M A"
_symmetry_group_IT_number 51
_symmetry_cell_setting 'orthorhombic'
loop_
_space_group_symop_operation_xyz
x,y,z
1/2-x,-y,z
1/2+x,-y,-z
-x,y,-z
-x,-y,-z
1/2+x,y,-z
1/2-x,y,z
x,-y,z
loop_
_atom_site_type_symbol
_atom_site_label
_atom_site_fract_x
_atom_site_fract_y
_atom_site_fract_z
Si Si1 0.750000 0.687596 0.301260
Si Si2 0.649308 0.383322 0.892538
Si Si3 0.906107 0.623742 0.663534
Si Si4 0.250000 0.123033 0.850206
Si Si5 0.750000 0.630592 0.528446
Si Si6 0.567129 0.376298 0.232923
Si Si7 0.917793 0.782624 0.050388
O O1 0.750000 0.801686 0.247206
O O2 0.750000 0.681086 0.419878
O O3 0.835343 0.631175 0.264132
O O4 0.750000 0.384268 0.903236
O O5 0.617092 0.500000 0.921772
O O6 0.628863 0.366783 0.776378
O O7 0.614399 0.294765 0.963980
O O8 0.911631 0.500000 0.637887
O O9 0.834710 0.665337 0.588648
O O10 0.003645 0.658908 0.677517
O O11 0.336550 0.151129 0.911158
O O12 0.250000 0.000000 0.825440
O O13 0.750000 0.500000 0.521623
O O14 0.548238 0.500000 0.208914
O O15 0.555551 0.295369 0.141460
O O16 0.000000 0.838363 0.000000
#
# Coordination Sequence:
#
# PCOD9398524 Si02
#       7
#     4   8   8   4   4   8   8
#     4  10  22  36  50  68  90 130 174 216 254 298
#     4  10  17  27  44  74 115 151 172 190 222 277
#     4   9  17  27  44  70 106 144 167 191 229 275
#     4  10  24  43  55  71  96 121 165 224 271 312
#     4  10  18  31  49  73 102 133 171 204 237 288
#     4  10  19  30  44  72 112 143 166 195 229 281
#     4  11  20  31  53  79 102 136 174 199 242 299
#
# _framework density 16.463190999999998
#
# number of rings (size 3 to 8) (size 9 to 14) (size 15 to 20)
#    0.000    2.000    3.636    1.364    0.000    1.818 
#    0.000    2.727    0.000    0.000    0.000   12.727 
#    0.000    0.000    0.000    0.000    0.000    0.000 
#
# Total GULP energy -244965.217455 kJ/mol
# GULP energy per Si atom -5567.391306 kJ/mol
# Density = 1.642572 g / cm^3
# Si number density = 16.463191 Si / 1000 Ang^3
#
#
#
# Elastic Constant Matrix: (Units=GPa)
#
#
# Indices 1 2 3 4 5 6 
#
# 1 135.8235 24.3351 36.6988 0.0000 0.0000 0.0000
# 2 24.3351 55.0385 14.2690 0.0000 0.0000 0.0000
# 3 36.6988 14.2690 32.7582 0.0000 0.0000 0.0000
# 4 0.0000 0.0000 0.0000 5.3065 0.0000 0.0000
# 5 0.0000 0.0000 0.0000 0.0000 14.4463 0.0000
# 6 0.0000 0.0000 0.0000 0.0000 0.0000 6.8780
#
#
#
# Elastic Compliance Matrix: (Units=1/GPa)
#
#
# Indices 1 2 3 4 5 6 
#
# 1 0.010720 -0.001833 -0.011211 0.000000 0.000000 0.000000
# 2 -0.001833 0.020796 -0.007004 0.000000 0.000000 0.000000
# 3 -0.011211 -0.007004 0.046137 0.000000 0.000000 0.000000
# 4 0.000000 0.000000 0.000000 0.188449 0.000000 0.000000
# 5 0.000000 0.000000 0.000000 0.000000 0.069222 0.000000
# 6 0.000000 0.000000 0.000000 0.000000 0.000000 0.145391
#
#
# Mechanical properties :
#
#
# Convention : Reuss Voigt Hill
#
# Bulk Modulus (GPa) = 26.62725 41.58068 34.10396
# Shear Modulus (GPa) = 9.37504 15.21399 12.29451
#
# Velocity S-wave (km/s) = 2.38891 3.04323 2.73571
# Velocity P-wave (km/s) = 4.88038 6.13677 5.54428
#
# Compressibility (1/GPa) = 0.03755552
#
# Stress axis : x y z
#
# Youngs Moduli (GPa) = 93.28211 48.08700 21.67435
#
# Poissons Ratio (x) = 0.08816 0.24299
# Poissons Ratio (y) = 0.17102 0.15182
# Poissons Ratio (z) = 1.04580 0.33682
#
# Static dielectric constant tensor:
#      x y z
#    x 1.644870 0.000000 0.000000 
#    y 0.000000 1.526470 0.000000 
#    z 0.000000 0.000000 1.551200 
# 
# From -- ./inp_files/16360.got.cif
#   From: 2010.05.17/outbox.cif.g08.bks.cpg/sg51_9_cif.got.tgz:16360.got - 2010.06.03 11:52:47.
