data_PCOD9398683
_publ_section_title
;
Structure prediction by ZEFSAII (Michael W. Deem and Ramdas Pophale) SiO2 
 PCOD9398683
Probable space group: P M M A
;
_chemical_formula_sum "Si O2"
_cell_formula_units_Z 64
_cell_length_a 27.672240
_cell_length_b 9.105268
_cell_length_c 17.503226
_cell_angle_alpha 90.000000
_cell_angle_beta 90.000000
_cell_angle_gamma 90.000000
_cell_volume 4410.168157
_symmetry_space_group_name_H-M "P M M A"
_symmetry_group_IT_number 51
_symmetry_cell_setting 'orthorhombic'
loop_
_space_group_symop_operation_xyz
x,y,z
1/2-x,-y,z
1/2+x,-y,-z
-x,y,-z
-x,-y,-z
1/2+x,y,-z
1/2-x,y,z
x,-y,z
loop_
_atom_site_type_symbol
_atom_site_label
_atom_site_fract_x
_atom_site_fract_y
_atom_site_fract_z
Si Si1 0.694202 0.822511 0.915631
Si Si2 0.617738 0.675289 0.025261
Si Si3 0.057071 0.331014 0.521620
Si Si4 0.577436 0.176295 0.631498
Si Si5 0.940526 0.676286 0.166743
Si Si6 0.453274 0.673237 0.111195
Si Si7 0.465802 0.824727 0.674649
Si Si8 0.123911 0.176406 0.216881
O O1 0.750000 0.777907 0.919851
O O2 0.669465 0.776987 0.834857
O O3 0.691851 0.000000 0.919741
O O4 0.661743 0.755769 0.983366
O O5 0.626716 0.500000 0.025714
O O6 0.603014 0.721758 0.110618
O O7 0.570914 0.699633 0.970903
O O8 0.071733 0.500000 0.531108
O O9 0.082618 0.255318 0.449546
O O10 0.060379 0.242660 0.600490
O O11 0.000000 0.329133 0.500000
O O12 0.523324 0.208833 0.664150
O O13 0.616162 0.223412 0.695631
O O14 0.579705 0.000000 0.620873
O O15 0.937452 0.500000 0.178029
O O16 0.945595 0.755036 0.247760
O O17 0.990578 0.705378 0.121469
O O18 0.446576 0.500000 0.127953
O O19 0.422421 0.766656 0.170725
O O20 0.461053 0.000000 0.675911
O O21 0.123472 0.000000 0.217678
#
# Coordination Sequence:
#
# PCOD9398683 Si02
#       8
#     8   8   8   8   8   8   8   8
#     4   9  18  32  48  64  84 110 140 177 218 256
#     4   9  18  30  43  61  82 109 142 175 213 256
#     4   9  17  27  39  55  77 108 144 176 205 239
#     4   9  16  26  39  56  80 109 141 175 207 244
#     4  10  18  27  40  58  84 113 143 177 211 248
#     4   9  16  26  40  57  81 111 142 174 208 246
#     4  10  18  27  39  56  81 113 146 176 208 244
#     4   9  16  27  42  61  84 110 141 175 212 253
#
# _framework density 14.511919000000001
#
# number of rings (size 3 to 8) (size 9 to 14) (size 15 to 20)
#    0.000    2.750    1.250    1.125    0.000    4.750 
#    0.000    0.000    0.000    3.750    0.000    0.000 
#    0.000    1.000    0.000    5.250    0.000    2.625 
#
# Total GULP energy -356332.029672 kJ/mol
# GULP energy per Si atom -5567.687964 kJ/mol
# Density = 1.447889 g / cm^3
# Si number density = 14.511919 Si / 1000 Ang^3
#
#
#
# Elastic Constant Matrix: (Units=GPa)
#
#
# Indices 1 2 3 4 5 6 
#
# 1 66.3263 27.5450 57.9275 0.0000 0.0000 0.0000
# 2 27.5450 26.7530 46.8387 0.0000 0.0000 0.0000
# 3 57.9275 46.8387 126.9610 0.0000 0.0000 0.0000
# 4 0.0000 0.0000 0.0000 25.8406 0.0000 0.0000
# 5 0.0000 0.0000 0.0000 0.0000 10.9348 0.0000
# 6 0.0000 0.0000 0.0000 0.0000 0.0000 11.8019
#
#
#
# Elastic Compliance Matrix: (Units=1/GPa)
#
#
# Indices 1 2 3 4 5 6 
#
# 1 0.027877 -0.018169 -0.006016 0.000000 0.000000 0.000000
# 2 -0.018169 0.117403 -0.035023 0.000000 0.000000 0.000000
# 3 -0.006016 -0.035023 0.023542 0.000000 0.000000 0.000000
# 4 0.000000 0.000000 0.000000 0.038699 0.000000 0.000000
# 5 0.000000 0.000000 0.000000 0.000000 0.091452 0.000000
# 6 0.000000 0.000000 0.000000 0.000000 0.000000 0.084732
#
#
# Mechanical properties :
#
#
# Convention : Reuss Voigt Hill
#
# Bulk Modulus (GPa) = 19.83886 53.85141 36.84514
# Shear Modulus (GPa) = 9.63534 15.56404 12.59969
#
# Velocity S-wave (km/s) = 2.57954 3.27846 2.94977
# Velocity P-wave (km/s) = 4.75105 7.17774 6.08656
#
# Compressibility (1/GPa) = 0.05040613
#
# Stress axis : x y z
#
# Youngs Moduli (GPa) = 35.87197 8.51765 42.47715
#
# Poissons Ratio (x) = 0.15476 0.25555
# Poissons Ratio (y) = 0.65176 1.48767
# Poissons Ratio (z) = 0.21581 0.29831
#
# Static dielectric constant tensor:
#      x y z
#    x 1.455970 0.000000 0.000000 
#    y 0.000000 1.483790 0.000000 
#    z 0.000000 0.000000 1.491150 
# 
# From -- ./inp_files/26568.got.cif
#   From: 2010.05.17/outbox.cif.g08.bks.cpg/sg51_14_cif.got.tgz:26568.got - 2010.06.03 11:52:47.
