data_PCOD9398350
_publ_section_title
;
Structure prediction by ZEFSAII (Michael W. Deem and Ramdas Pophale) SiO2 
 PCOD9398350
Probable space group: P M M A
;
_chemical_formula_sum "Si O2"
_cell_formula_units_Z 48
_cell_length_a 8.566820
_cell_length_b 32.513173
_cell_length_c 9.118765
_cell_angle_alpha 90.000000
_cell_angle_beta 90.000000
_cell_angle_gamma 90.000000
_cell_volume 2539.890656
_symmetry_space_group_name_H-M "P M M A"
_symmetry_group_IT_number 51
_symmetry_cell_setting 'orthorhombic'
loop_
_space_group_symop_operation_xyz
x,y,z
1/2-x,-y,z
1/2+x,-y,-z
-x,y,-z
-x,-y,-z
1/2+x,y,-z
1/2-x,y,z
x,-y,z
loop_
_atom_site_type_symbol
_atom_site_label
_atom_site_fract_x
_atom_site_fract_y
_atom_site_fract_z
Si Si1 0.563529 0.085191 0.831906
Si Si2 0.938269 0.418139 0.164462
Si Si3 0.563477 0.000000 0.168078
Si Si4 0.936485 0.829720 0.167670
Si Si5 0.562009 0.664462 0.335422
Si Si6 0.061191 0.500000 0.664660
Si Si7 0.436485 0.256351 0.166262
O O1 0.750000 0.084718 0.835283
O O2 0.502174 0.127979 0.764913
O O3 0.499377 0.042662 0.765076
O O4 0.500000 0.085469 0.000000
O O5 0.750000 0.418690 0.160964
O O6 0.986337 0.376534 0.247428
O O7 0.990861 0.458894 0.250786
O O8 0.000000 0.418421 0.000000
O O9 0.750000 0.000000 0.164844
O O10 0.500000 0.000000 0.000000
O O11 0.750000 0.830831 0.165420
O O12 0.996997 0.786562 0.230439
O O13 0.000000 0.829037 0.000000
O O14 0.500000 0.661727 0.500000
O O15 0.750000 0.666840 0.334931
O O16 0.493392 0.704720 0.257814
O O17 0.250000 0.500000 0.661853
O O18 0.000000 0.500000 0.500000
O O19 0.250000 0.254161 0.161559
O O20 0.500000 0.260733 0.000000
#
# Coordination Sequence:
#
# PCOD9398350 Si02
#       7
#     8   8   4   8   8   4   8
#     4  10  16  23  33  49  74 108 150 197 247 302
#     4  10  22  38  59  85 115 147 187 229 272 321
#     4  10  16  22  30  44  68 104 149 196 245 300
#     4  10  17  27  42  62  87 118 157 204 253 307
#     4  11  23  39  57  81 109 142 179 221 270 325
#     4  10  21  38  58  86 118 152 189 230 274 324
#     4  11  21  35  54  77 103 135 173 218 265 318
#
# _framework density 18.898451000000001
#
# number of rings (size 3 to 8) (size 9 to 14) (size 15 to 20)
#    0.000    1.667    0.000   10.000    0.000    3.333 
#    0.000    0.000    0.000    0.000    0.000    0.000 
#    0.000    0.000    0.000    0.750    0.000   11.333 
#
# Total GULP energy -268009.998415 kJ/mol
# GULP energy per Si atom -5583.541634 kJ/mol
# Density = 1.885544 g / cm^3
# Si number density = 18.898451 Si / 1000 Ang^3
#
#
#
# Elastic Constant Matrix: (Units=GPa)
#
#
# Indices 1 2 3 4 5 6 
#
# 1 147.3797 77.0667 28.8959 0.0000 0.0000 0.0000
# 2 77.0667 244.0672 75.4914 0.0000 0.0000 0.0000
# 3 28.8959 75.4914 82.2883 0.0000 0.0000 0.0000
# 4 0.0000 0.0000 0.0000 -16.0582 0.0000 0.0000
# 5 0.0000 0.0000 0.0000 0.0000 22.5152 0.0000
# 6 0.0000 0.0000 0.0000 0.0000 0.0000 20.6841
#
#
#
# Elastic Compliance Matrix: (Units=1/GPa)
#
#
# Indices 1 2 3 4 5 6 
#
# 1 0.008156 -0.002359 -0.000700 0.000000 0.000000 0.000000
# 2 -0.002359 0.006403 -0.005045 0.000000 0.000000 0.000000
# 3 -0.000700 -0.005045 0.017027 0.000000 0.000000 0.000000
# 4 0.000000 0.000000 0.000000 -0.062273 0.000000 0.000000
# 5 0.000000 0.000000 0.000000 0.000000 0.044414 0.000000
# 6 0.000000 0.000000 0.000000 0.000000 0.000000 0.048346
#
#
# Mechanical properties :
#
#
# Convention : Reuss Voigt Hill
#
# Bulk Modulus (GPa) = 65.03271 92.96035 78.99653
# Shear Modulus (GPa) = 59.94695 24.91363 42.43029
#
# Velocity S-wave (km/s) = 5.63821 3.63476 4.74347
# Velocity P-wave (km/s) = 8.76768 8.17995 8.47891
#
# Compressibility (1/GPa) = 0.01537688
#
# Stress axis : x y z
#
# Youngs Moduli (GPa) = 122.61091 156.18552 58.73045
#
# Poissons Ratio (x) = 0.36841 0.04111
# Poissons Ratio (y) = 0.28921 0.29632
# Poissons Ratio (z) = 0.08583 0.78803
#
# Static dielectric constant tensor:
#      x y z
#    x 1.630760 0.000000 0.000000 
#    y 0.000000 1.718710 0.000000 
#    z 0.000000 0.000000 1.639380 
# 
# From -- ./inp_files/6130.got.cif
#   From: 2010.05.17/outbox.cif.g08.bks.cpg/sg51_4_cif.got.tgz:6130.got - 2010.06.03 11:52:47.
