data_PCOD9398078
_publ_section_title
;
Structure prediction by ZEFSAII (Michael W. Deem and Ramdas Pophale) SiO2 
 PCOD9398078
Probable space group: P B A N
;
_chemical_formula_sum "Si O2"
_cell_formula_units_Z 32
_cell_length_a 19.736883
_cell_length_b 8.952250
_cell_length_c 7.833891
_cell_angle_alpha 90.000000
_cell_angle_beta 90.000000
_cell_angle_gamma 90.000000
_cell_volume 1384.166369
_symmetry_space_group_name_H-M "P B A N"
_symmetry_group_IT_number 50
_space_group.IT_coordinate_system_code '2'
_symmetry_cell_setting 'orthorhombic'
loop_
_space_group_symop_operation_xyz
x,y,z
1/2-x,1/2-y,z
x,1/2-y,-z
1/2-x,y,-z
-x,-y,-z
1/2+x,1/2+y,-z
-x,1/2+y,z
1/2+x,-y,z
loop_
_atom_site_type_symbol
_atom_site_label
_atom_site_fract_x
_atom_site_fract_y
_atom_site_fract_z
Si Si1 0.349470 0.658143 0.647832
Si Si2 0.208812 0.382724 0.177642
Si Si3 0.436193 0.586150 0.333175
Si Si4 0.441321 0.253480 0.189082
O O1 0.314286 0.750000 0.500000
O O2 0.301229 0.541413 0.735476
O O3 0.386486 0.789119 0.754377
O O4 0.409038 0.582703 0.529163
O O5 0.250000 0.250000 0.271457
O O6 0.131962 0.323080 0.166884
O O7 0.250000 0.401499 0.000000
O O8 0.432894 0.422991 0.252602
O O9 0.509621 0.659388 0.310895
O O10 0.473086 0.250000 0.000000
#
# Coordination Sequence:
#
# PCOD9398078 Si02
#       4
#     8   8   8   8
#     4   8  22  47  75 114 144 188 254 313 393 436
#     4  11  23  46  75 102 148 208 253 304 371 463
#     4   9  23  41  74 117 144 190 242 329 385 444
#     4  12  22  41  71 110 154 193 258 308 390 449
#
# _framework density 23.118608999999999
#
# number of rings (size 3 to 8) (size 9 to 14) (size 15 to 20)
#    1.500    0.250    2.500    2.250    0.000   10.000 
#    0.000    5.000    5.500    0.000    0.000    0.000 
#    0.000    0.000    0.000    0.000    0.000    0.000 
#
# Total GULP energy -178293.090483 kJ/mol
# GULP energy per Si atom -5571.659078 kJ/mol
# Density = 2.306599 g / cm^3
# Si number density = 23.118609 Si / 1000 Ang^3
#
#
#
# Elastic Constant Matrix: (Units=GPa)
#
#
# Indices 1 2 3 4 5 6 
#
# 1 144.9392 62.0234 46.5054 0.0000 0.0000 0.0000
# 2 62.0234 211.6511 72.6012 0.0000 0.0000 0.0000
# 3 46.5054 72.6012 73.0768 0.0000 0.0000 0.0000
# 4 0.0000 0.0000 0.0000 4.5042 0.0000 0.0000
# 5 0.0000 0.0000 0.0000 0.0000 86.4537 0.0000
# 6 0.0000 0.0000 0.0000 0.0000 0.0000 43.5242
#
#
#
# Elastic Compliance Matrix: (Units=1/GPa)
#
#
# Indices 1 2 3 4 5 6 
#
# 1 0.008807 -0.000999 -0.004612 0.000000 0.000000 0.000000
# 2 -0.000999 0.007281 -0.006598 0.000000 0.000000 0.000000
# 3 -0.004612 -0.006598 0.023174 0.000000 0.000000 0.000000
# 4 0.000000 0.000000 0.000000 0.222014 0.000000 0.000000
# 5 0.000000 0.000000 0.000000 0.000000 0.011567 0.000000
# 6 0.000000 0.000000 0.000000 0.000000 0.000000 0.022976
#
#
# Mechanical properties :
#
#
# Convention : Reuss Voigt Hill
#
# Bulk Modulus (GPa) = 67.36653 87.99191 77.67922
# Shear Modulus (GPa) = 15.37594 43.46556 29.42075
#
# Velocity S-wave (km/s) = 2.58173 4.34073 3.57122
# Velocity P-wave (km/s) = 6.17170 7.95401 7.11885
#
# Compressibility (1/GPa) = 0.01484417
#
# Stress axis : x y z
#
# Youngs Moduli (GPa) = 113.54971 137.35229 43.15137
#
# Poissons Ratio (x) = 0.13716 0.19903
# Poissons Ratio (y) = 0.11339 0.28470
# Poissons Ratio (z) = 0.52374 0.90620
#
# Static dielectric constant tensor:
#      x y z
#    x 1.927160 0.000000 0.000000 
#    y 0.000000 2.064730 0.000000 
#    z 0.000000 0.000000 1.942050 
# 
# From -- ./inp_files/14850.got.cif
#   From: 2010.05.17/outbox.cif.g08.bks.cpg/sg50_8_cif.got.tgz:14850.got - 2010.06.03 11:33:33.
