data_PCOD9398875
_publ_section_title
;
Structure prediction by ZEFSAII (Michael W. Deem and Ramdas Pophale) SiO2 
 PCOD9398875
Probable space group: P M M A
;
_chemical_formula_sum "Si O2"
_cell_formula_units_Z 64
_cell_length_a 8.815225
_cell_length_b 24.058036
_cell_length_c 19.499819
_cell_angle_alpha 90.000000
_cell_angle_beta 90.000000
_cell_angle_gamma 90.000000
_cell_volume 4135.463122
_symmetry_space_group_name_H-M "P M M A"
_symmetry_group_IT_number 51
_symmetry_cell_setting 'orthorhombic'
loop_
_space_group_symop_operation_xyz
x,y,z
1/2-x,-y,z
1/2+x,-y,-z
-x,y,-z
-x,-y,-z
1/2+x,y,-z
1/2-x,y,z
x,-y,z
loop_
_atom_site_type_symbol
_atom_site_label
_atom_site_fract_x
_atom_site_fract_y
_atom_site_fract_z
Si Si1 0.068907 0.435117 0.575076
Si Si2 0.932182 0.665613 0.653066
Si Si3 0.569292 0.243862 0.071677
Si Si4 0.931508 0.771481 0.424903
Si Si5 0.566991 0.064139 0.217484
Si Si6 0.067761 0.886188 0.928267
Si Si7 0.569124 0.272139 0.788716
Si Si8 0.568565 0.836270 0.698616
O O1 0.250000 0.427226 0.572964
O O2 0.037697 0.500000 0.590208
O O3 0.000000 0.422998 0.500000
O O4 0.994497 0.393297 0.628793
O O5 0.750000 0.668374 0.645976
O O6 0.970362 0.682056 0.731403
O O7 0.005070 0.713353 0.605385
O O8 0.750000 0.245482 0.067934
O O9 0.522348 0.178736 0.079553
O O10 0.512217 0.275603 0.138715
O O11 0.500000 0.263927 0.000000
O O12 0.750000 0.769882 0.427273
O O13 0.000000 0.780182 0.500000
O O14 0.988826 0.818311 0.371834
O O15 0.750000 0.070697 0.221634
O O16 0.521317 0.081055 0.139899
O O17 0.489821 0.106432 0.269953
O O18 0.529704 0.000000 0.230545
O O19 0.250000 0.888371 0.932910
O O20 0.000000 0.906936 0.000000
O O21 0.750000 0.273417 0.799348
O O22 0.531362 0.212994 0.752890
O O23 0.750000 0.836344 0.689398
#
# Coordination Sequence:
#
# PCOD9398875 Si02
#       8
#     8   8   8   8   8   8   8   8
#     4  10  20  33  49  70  99 138 179 213 244 281
#     4  10  20  33  49  73 103 133 166 204 244 283
#     4  10  18  28  45  66  92 124 158 193 236 286
#     4  11  21  34  53  75 100 126 155 192 238 286
#     4  10  20  34  50  68  92 122 157 195 235 284
#     4   9  18  30  44  65  90 120 156 193 233 278
#     4   9  18  31  47  68  94 123 156 197 240 284
#     4  10  20  34  51  71  95 120 153 193 237 288
#
# _framework density 15.475897
#
# number of rings (size 3 to 8) (size 9 to 14) (size 15 to 20)
#    0.000    2.125    1.250    3.750    0.000    4.750 
#    0.000    0.000    0.000    0.375    0.000    0.000 
#    0.000    0.500    0.000    1.625    0.000    2.375 
#
# Total GULP energy -357138.779794 kJ/mol
# GULP energy per Si atom -5580.293434 kJ/mol
# Density = 1.544067 g / cm^3
# Si number density = 15.475897 Si / 1000 Ang^3
#
#
#
# Elastic Constant Matrix: (Units=GPa)
#
#
# Indices 1 2 3 4 5 6 
#
# 1 63.5798 42.5707 62.0358 0.0000 0.0000 0.0000
# 2 42.5707 80.6276 59.8955 0.0000 0.0000 0.0000
# 3 62.0358 59.8955 139.3803 0.0000 0.0000 0.0000
# 4 0.0000 0.0000 0.0000 24.7622 0.0000 0.0000
# 5 0.0000 0.0000 0.0000 0.0000 30.0130 0.0000
# 6 0.0000 0.0000 0.0000 0.0000 0.0000 21.4107
#
#
#
# Elastic Compliance Matrix: (Units=1/GPa)
#
#
# Indices 1 2 3 4 5 6 
#
# 1 0.031892 -0.009245 -0.010222 0.000000 0.000000 0.000000
# 2 -0.009245 0.020899 -0.004866 0.000000 0.000000 0.000000
# 3 -0.010222 -0.004866 0.013815 0.000000 0.000000 0.000000
# 4 0.000000 0.000000 0.000000 0.040384 0.000000 0.000000
# 5 0.000000 0.000000 0.000000 0.000000 0.033319 0.000000
# 6 0.000000 0.000000 0.000000 0.000000 0.000000 0.046706
#
#
# Mechanical properties :
#
#
# Convention : Reuss Voigt Hill
#
# Bulk Modulus (GPa) = 55.74058 68.06574 61.90316
# Shear Modulus (GPa) = 20.69020 23.17623 21.93321
#
# Velocity S-wave (km/s) = 3.66037 3.87404 3.76872
# Velocity P-wave (km/s) = 7.34577 8.00551 7.68272
#
# Compressibility (1/GPa) = 0.01794025
#
# Stress axis : x y z
#
# Youngs Moduli (GPa) = 31.35577 47.84946 72.38476
#
# Poissons Ratio (x) = 0.44239 0.73989
# Poissons Ratio (y) = 0.28990 0.35221
# Poissons Ratio (z) = 0.32051 0.23283
#
# Static dielectric constant tensor:
#      x y z
#    x 1.517340 0.000000 0.000000 
#    y 0.000000 1.501310 0.000000 
#    z 0.000000 0.000000 1.506790 
# 
# From -- ./inp_files/28486.got.cif
#   From: 2010.05.17/outbox.cif.g08.bks.cpg/sg51_15_cif.got.tgz:28486.got - 2010.06.03 11:52:47.
