data_PCOD9398000
_publ_section_title
;
Structure prediction by ZEFSAII (Michael W. Deem and Ramdas Pophale) SiO2 
 PCOD9398000
Probable space group: P B A N
;
_chemical_formula_sum "Si O2"
_cell_formula_units_Z 58
_cell_length_a 16.774754
_cell_length_b 9.411733
_cell_length_c 17.113628
_cell_angle_alpha 90.000000
_cell_angle_beta 90.000000
_cell_angle_gamma 90.000000
_cell_volume 2701.891131
_symmetry_space_group_name_H-M "P B A N"
_symmetry_group_IT_number 50
_space_group.IT_coordinate_system_code '2'
_symmetry_cell_setting 'orthorhombic'
loop_
_space_group_symop_operation_xyz
x,y,z
1/2-x,1/2-y,z
x,1/2-y,-z
1/2-x,y,-z
-x,-y,-z
1/2+x,1/2+y,-z
-x,1/2+y,z
1/2+x,-y,z
loop_
_atom_site_type_symbol
_atom_site_label
_atom_site_fract_x
_atom_site_fract_y
_atom_site_fract_z
Si Si1 0.833376 0.804597 0.715888
Si Si2 0.033213 0.620882 0.945279
Si Si3 0.038613 0.215273 0.590206
Si Si4 0.943057 0.068155 0.326469
Si Si5 0.916186 0.050919 0.786509
Si Si6 0.750000 0.750000 0.000000
Si Si7 0.167925 0.838275 0.785287
Si Si8 0.865020 0.879660 0.128132
O O1 0.750000 0.750000 0.686388
O O2 0.894393 0.783791 0.645749
O O3 0.849717 0.709779 0.793152
O O4 0.843964 0.964521 0.747370
O O5 0.086937 0.541550 0.880689
O O6 0.954558 0.663527 0.896227
O O7 0.063395 0.750000 0.000000
O O8 0.000000 0.500000 0.000000
O O9 0.046149 0.250000 0.500000
O O10 0.961384 0.285315 0.629640
O O11 0.043006 0.049832 0.607993
O O12 0.853625 0.073086 0.292676
O O13 0.004490 0.014868 0.255907
O O14 0.901855 0.219236 0.779874
O O15 0.806494 0.661531 0.941977
O O16 0.250000 0.750000 0.791412
O O17 0.150536 0.953723 0.852598
#
# Coordination Sequence:
#
# PCOD9398000 Si02
#       8
#     8   8   8   8   8   2   8   8
#     4  11  23  42  70  94 131 185 229 283 351 425
#     4  12  24  38  62  95 130 172 229 289 339 399
#     4  11  23  41  70 105 137 176 232 294 345 421
#     4  11  22  43  70  98 139 185 233 284 355 425
#     4  11  24  42  66  96 133 181 240 287 346 426
#     4  12  28  44  70 100 138 192 228 288 364 412
#     4  12  25  42  69 103 137 183 236 295 348 423
#     4  12  24  44  68  95 137 184 231 283 347 422
#
# _framework density 21.466445
#
# number of rings (size 3 to 8) (size 9 to 14) (size 15 to 20)
#    0.000    0.552    5.517    2.897    1.931    0.276 
#    0.000    1.724    0.000    0.414    0.000    0.000 
#    0.000    0.000    0.000    0.000    0.000    0.000 
#
# Total GULP energy -323585.681195 kJ/mol
# GULP energy per Si atom -5579.063469 kJ/mol
# Density = 2.141759 g / cm^3
# Si number density = 21.466445 Si / 1000 Ang^3
#
#
#
# Elastic Constant Matrix: (Units=GPa)
#
#
# Indices 1 2 3 4 5 6 
#
# 1 58.4562 5.5703 21.3881 0.0000 0.0000 0.0000
# 2 5.5703 87.1860 17.7031 0.0000 0.0000 0.0000
# 3 21.3881 17.7031 131.3388 0.0000 0.0000 0.0000
# 4 0.0000 0.0000 0.0000 24.4841 0.0000 0.0000
# 5 0.0000 0.0000 0.0000 0.0000 21.1135 0.0000
# 6 0.0000 0.0000 0.0000 0.0000 0.0000 13.1789
#
#
#
# Elastic Compliance Matrix: (Units=1/GPa)
#
#
# Indices 1 2 3 4 5 6 
#
# 1 0.018219 -0.000577 -0.002889 0.000000 0.000000 0.000000
# 2 -0.000577 0.011811 -0.001498 0.000000 0.000000 0.000000
# 3 -0.002889 -0.001498 0.008286 0.000000 0.000000 0.000000
# 4 0.000000 0.000000 0.000000 0.040843 0.000000 0.000000
# 5 0.000000 0.000000 0.000000 0.000000 0.047363 0.000000
# 6 0.000000 0.000000 0.000000 0.000000 0.000000 0.075879
#
#
# Mechanical properties :
#
#
# Convention : Reuss Voigt Hill
#
# Bulk Modulus (GPa) = 35.22718 40.70044 37.96381
# Shear Modulus (GPa) = 22.54365 27.24327 24.89346
#
# Velocity S-wave (km/s) = 3.24417 3.56632 3.40905
# Velocity P-wave (km/s) = 5.52076 5.99661 5.76360
#
# Compressibility (1/GPa) = 0.02838717
#
# Stress axis : x y z
#
# Youngs Moduli (GPa) = 54.88803 84.66844 120.68140
#
# Poissons Ratio (x) = 0.04889 0.34866
# Poissons Ratio (y) = 0.03169 0.18077
# Poissons Ratio (z) = 0.15858 0.12683
#
# Static dielectric constant tensor:
#      x y z
#    x 1.642130 0.000000 0.000000 
#    y 0.000000 1.933140 0.000000 
#    z 0.000000 0.000000 1.839290 
# 
# From -- ./inp_files/29699.got.cif
#   From: 2010.05.17/outbox.cif.g08.bks.cpg/sg50_15_cif.got.tgz:29699.got - 2010.06.03 11:33:33.
