data_PCOD9398831
_publ_section_title
;
Structure prediction by ZEFSAII (Michael W. Deem and Ramdas Pophale) SiO2 
 PCOD9398831
Probable space group: P M M A
;
_chemical_formula_sum "Si O2"
_cell_formula_units_Z 52
_cell_length_a 24.708851
_cell_length_b 15.217856
_cell_length_c 8.224888
_cell_angle_alpha 90.000000
_cell_angle_beta 90.000000
_cell_angle_gamma 90.000000
_cell_volume 3092.687318
_symmetry_space_group_name_H-M "P M M A"
_symmetry_group_IT_number 51
_symmetry_cell_setting 'orthorhombic'
loop_
_space_group_symop_operation_xyz
x,y,z
1/2-x,-y,z
1/2+x,-y,-z
-x,y,-z
-x,-y,-z
1/2+x,y,-z
1/2-x,y,z
x,-y,z
loop_
_atom_site_type_symbol
_atom_site_label
_atom_site_fract_x
_atom_site_fract_y
_atom_site_fract_z
Si Si1 0.867327 0.096760 0.538844
Si Si2 0.500000 0.650158 0.500000
Si Si3 0.813020 0.100850 0.873338
Si Si4 0.957432 0.401643 0.849499
Si Si5 0.074911 0.217246 0.668300
Si Si6 0.595312 0.232713 0.968789
Si Si7 0.473740 0.899010 0.232860
O O1 0.823189 0.108112 0.679165
O O2 0.872670 0.170590 0.404754
O O3 0.924972 0.100658 0.635113
O O4 0.861615 0.000000 0.466015
O O5 0.514649 0.603769 0.670878
O O6 0.449436 0.711994 0.545938
O O7 0.750000 0.108308 0.912343
O O8 0.831384 0.000000 0.915531
O O9 0.849476 0.177877 0.947859
O O10 0.934449 0.500000 0.867376
O O11 0.915393 0.321005 0.866104
O O12 0.000000 0.389701 0.000000
O O13 0.086639 0.256155 0.844213
O O14 0.027669 0.144894 0.697495
O O15 0.550492 0.162510 0.907714
O O16 0.482980 0.000000 0.186491
#
# Coordination Sequence:
#
# PCOD9398831 Si02
#       7
#     8   4   8   8   8   8   8
#     4   9  17  28  43  68  99 138 179 213 254 308
#     4  12  19  34  51  76 110 154 179 220 255 312
#     4   9  19  37  57  74  99 139 186 234 282 326
#     4  11  22  37  55  79 112 148 185 221 263 321
#     4  12  19  28  48  74 112 144 173 214 262 323
#     4  11  20  34  50  75 105 139 182 225 266 318
#     4  10  18  28  43  67 104 143 172 201 248 312
#
# _framework density 16.813855
#
# number of rings (size 3 to 8) (size 9 to 14) (size 15 to 20)
#    0.000    1.538    4.615    3.462    0.000    4.308 
#    0.000    0.769    0.000    2.308    0.000    0.000 
#    0.000    0.308    0.000    0.000    0.000    0.000 
#
# Total GULP energy -289846.723248 kJ/mol
# GULP energy per Si atom -5573.975447 kJ/mol
# Density = 1.677559 g / cm^3
# Si number density = 16.813855 Si / 1000 Ang^3
#
#
#
# Elastic Constant Matrix: (Units=GPa)
#
#
# Indices 1 2 3 4 5 6 
#
# 1 51.0576 31.3117 5.6106 0.0000 0.0000 0.0000
# 2 31.3117 100.8049 23.1138 0.0000 0.0000 0.0000
# 3 5.6106 23.1138 83.7071 0.0000 0.0000 0.0000
# 4 0.0000 0.0000 0.0000 16.2103 0.0000 0.0000
# 5 0.0000 0.0000 0.0000 0.0000 12.3578 0.0000
# 6 0.0000 0.0000 0.0000 0.0000 0.0000 14.9646
#
#
#
# Elastic Compliance Matrix: (Units=1/GPa)
#
#
# Indices 1 2 3 4 5 6 
#
# 1 0.024213 -0.007632 0.000485 0.000000 0.000000 0.000000
# 2 -0.007632 0.012996 -0.003077 0.000000 0.000000 0.000000
# 3 0.000485 -0.003077 0.012764 0.000000 0.000000 0.000000
# 4 0.000000 0.000000 0.000000 0.061689 0.000000 0.000000
# 5 0.000000 0.000000 0.000000 0.000000 0.080920 0.000000
# 6 0.000000 0.000000 0.000000 0.000000 0.000000 0.066824
#
#
# Mechanical properties :
#
#
# Convention : Reuss Voigt Hill
#
# Bulk Modulus (GPa) = 33.87116 39.51576 36.69346
# Shear Modulus (GPa) = 17.25938 20.40876 18.83407
#
# Velocity S-wave (km/s) = 3.20738 3.48775 3.35050
# Velocity P-wave (km/s) = 5.82279 6.30652 6.06947
#
# Compressibility (1/GPa) = 0.02952364
#
# Stress axis : x y z
#
# Youngs Moduli (GPa) = 41.30021 76.94467 78.34768
#
# Poissons Ratio (x) = 0.58725 -0.03796
# Poissons Ratio (y) = 0.31521 0.24108
# Poissons Ratio (z) = -0.02001 0.23677
#
# Static dielectric constant tensor:
#      x y z
#    x 1.558870 0.000000 0.000000 
#    y 0.000000 1.580920 0.000000 
#    z 0.000000 0.000000 1.635060 
# 
# From -- ./inp_files/12459.got.cif
#   From: 2010.05.17/outbox.cif.g08.bks.cpg/sg51_7_cif.got.tgz:12459.got - 2010.06.03 11:52:47.
