data_PCOD9398777
_publ_section_title
;
Structure prediction by ZEFSAII (Michael W. Deem and Ramdas Pophale) SiO2 
 PCOD9398777
Probable space group: P M M A
;
_chemical_formula_sum "Si O2"
_cell_formula_units_Z 56
_cell_length_a 29.462983
_cell_length_b 7.710828
_cell_length_c 14.093505
_cell_angle_alpha 90.000000
_cell_angle_beta 90.000000
_cell_angle_gamma 90.000000
_cell_volume 3201.818759
_symmetry_space_group_name_H-M "P M M A"
_symmetry_group_IT_number 51
_symmetry_cell_setting 'orthorhombic'
loop_
_space_group_symop_operation_xyz
x,y,z
1/2-x,-y,z
1/2+x,-y,-z
-x,y,-z
-x,-y,-z
1/2+x,y,-z
1/2-x,y,z
x,-y,z
loop_
_atom_site_type_symbol
_atom_site_label
_atom_site_fract_x
_atom_site_fract_y
_atom_site_fract_z
Si Si1 0.980901 0.787325 0.399004
Si Si2 0.800597 0.291913 0.998767
Si Si3 0.198837 0.209881 0.780550
Si Si4 0.972699 0.204263 0.794265
Si Si5 0.938520 0.701141 0.113169
Si Si6 0.606448 0.709333 0.918809
Si Si7 0.391292 0.199515 0.695083
O O1 0.012806 0.734721 0.310545
O O2 0.000000 0.730452 0.500000
O O3 0.929828 0.725543 0.374132
O O4 0.979836 0.000000 0.399598
O O5 0.750000 0.223026 0.978571
O O6 0.799013 0.500000 0.988549
O O7 0.810719 0.255972 0.109623
O O8 0.842149 0.228035 0.934652
O O9 0.250000 0.270160 0.758513
O O10 0.158466 0.276960 0.713441
O O11 0.198548 0.000000 0.775404
O O12 0.921589 0.236061 0.826939
O O13 0.007774 0.287687 0.868957
O O14 0.981502 0.000000 0.797593
O O15 0.924631 0.500000 0.120425
O O16 0.915082 0.796688 0.201308
O O17 0.921628 0.767641 0.012130
O O18 0.606924 0.500000 0.919202
O O19 0.384668 0.000000 0.665741
#
# Coordination Sequence:
#
# PCOD9398777 Si02
#       7
#     8   8   8   8   8   8   8
#     4   8  15  29  46  62  80 103 137 178 216 256
#     4   9  17  29  43  59  82 115 152 177 197 237
#     4   9  16  25  38  59  87 113 137 169 208 247
#     4  10  20  30  43  63  82 108 142 174 209 252
#     4  10  18  28  41  59  86 117 142 168 205 242
#     4  10  19  29  41  60  86 116 143 171 206 239
#     4   9  16  26  42  63  84 110 142 173 208 252
#
# _framework density 17.490058999999999
#
# number of rings (size 3 to 8) (size 9 to 14) (size 15 to 20)
#    0.000    2.714    1.429    2.143    0.000    3.429 
#    0.000    0.000    0.000   10.714    0.000    1.000 
#    0.000    3.429    0.000    0.000    0.000    0.000 
#
# Total GULP energy -312053.761160 kJ/mol
# GULP energy per Si atom -5572.388592 kJ/mol
# Density = 1.745025 g / cm^3
# Si number density = 17.490059 Si / 1000 Ang^3
#
#
#
# Elastic Constant Matrix: (Units=GPa)
#
#
# Indices 1 2 3 4 5 6 
#
# 1 159.8546 1.8906 66.8431 0.0000 0.0000 0.0000
# 2 1.8906 32.8023 2.4600 0.0000 0.0000 0.0000
# 3 66.8431 2.4600 69.6345 0.0000 0.0000 0.0000
# 4 0.0000 0.0000 0.0000 17.9177 0.0000 0.0000
# 5 0.0000 0.0000 0.0000 0.0000 23.4357 0.0000
# 6 0.0000 0.0000 0.0000 0.0000 0.0000 18.0739
#
#
#
# Elastic Compliance Matrix: (Units=1/GPa)
#
#
# Indices 1 2 3 4 5 6 
#
# 1 0.010451 0.000150 -0.010037 0.000000 0.000000 0.000000
# 2 0.000150 0.030569 -0.001224 0.000000 0.000000 0.000000
# 3 -0.010037 -0.001224 0.024039 0.000000 0.000000 0.000000
# 4 0.000000 0.000000 0.000000 0.055811 0.000000 0.000000
# 5 0.000000 0.000000 0.000000 0.000000 0.042670 0.000000
# 6 0.000000 0.000000 0.000000 0.000000 0.000000 0.055328
#
#
# Mechanical properties :
#
#
# Convention : Reuss Voigt Hill
#
# Bulk Modulus (GPa) = 23.34470 44.96429 34.15450
# Shear Modulus (GPa) = 19.57949 24.62531 22.10240
#
# Velocity S-wave (km/s) = 3.34947 3.75635 3.55873
# Velocity P-wave (km/s) = 5.32306 6.67666 6.03791
#
# Compressibility (1/GPa) = 0.04283628
#
# Stress axis : x y z
#
# Youngs Moduli (GPa) = 95.68423 32.71306 41.59909
#
# Poissons Ratio (x) = -0.00492 0.41755
# Poissons Ratio (y) = -0.01439 0.05093
# Poissons Ratio (z) = 0.96042 0.04005
#
# Static dielectric constant tensor:
#      x y z
#    x 1.658120 0.000000 0.000000 
#    y 0.000000 1.647310 0.000000 
#    z 0.000000 0.000000 1.559870 
# 
# From -- ./inp_files/26523.got.cif
#   From: 2010.05.17/outbox.cif.g08.bks.cpg/sg51_14_cif.got.tgz:26523.got - 2010.06.03 11:52:47.
