data_PCOD9398460
_publ_section_title
;
Structure prediction by ZEFSAII (Michael W. Deem and Ramdas Pophale) SiO2 
 PCOD9398460
Probable space group: P M M A
;
_chemical_formula_sum "Si O2"
_cell_formula_units_Z 64
_cell_length_a 31.897749
_cell_length_b 7.404270
_cell_length_c 14.815691
_cell_angle_alpha 90.000000
_cell_angle_beta 90.000000
_cell_angle_gamma 90.000000
_cell_volume 3499.163174
_symmetry_space_group_name_H-M "P M M A"
_symmetry_group_IT_number 51
_symmetry_cell_setting 'orthorhombic'
loop_
_space_group_symop_operation_xyz
x,y,z
1/2-x,-y,z
1/2+x,-y,-z
-x,y,-z
-x,-y,-z
1/2+x,y,-z
1/2-x,y,z
x,-y,z
loop_
_atom_site_type_symbol
_atom_site_label
_atom_site_fract_x
_atom_site_fract_y
_atom_site_fract_z
Si Si1 0.297458 0.281722 0.844871
Si Si2 0.956298 0.710775 0.958737
Si Si3 0.877098 0.704365 0.060929
Si Si4 0.116035 0.779924 0.567608
Si Si5 0.979218 0.217870 0.759052
Si Si6 0.541128 0.779293 0.558084
Si Si7 0.923981 0.218651 0.241249
Si Si8 0.797011 0.213951 0.365944
O O1 0.250000 0.220606 0.862337
O O2 0.298184 0.500000 0.848874
O O3 0.331863 0.213118 0.915810
O O4 0.307464 0.234497 0.740631
O O5 0.955896 0.500000 0.986580
O O6 0.957342 0.722129 0.850961
O O7 0.913243 0.789713 0.998844
O O8 0.000000 0.786777 0.000000
O O9 0.869620 0.500000 0.027153
O O10 0.898345 0.700221 0.159419
O O11 0.084262 0.721217 0.489465
O O12 0.094344 0.730621 0.662154
O O13 0.164113 0.716221 0.574885
O O14 0.117087 0.000000 0.564164
O O15 0.962206 0.278654 0.662025
O O16 0.027742 0.272686 0.765387
O O17 0.978142 0.000000 0.758618
O O18 0.500000 0.724400 0.500000
O O19 0.540455 0.000000 0.557176
O O20 0.921602 0.000000 0.233943
O O21 0.750000 0.288772 0.380028
O O22 0.794706 0.000000 0.382799
#
# Coordination Sequence:
#
# PCOD9398460 Si02
#       8
#     8   8   8   8   8   8   8   8
#     4   9  17  28  42  61  84 108 137 174 209 243
#     4  10  20  32  44  59  84 117 144 168 209 259
#     4  10  19  30  43  60  83 116 146 166 203 256
#     4   9  15  24  39  60  86 114 138 165 203 244
#     4  10  19  29  44  65  85 109 145 184 210 235
#     4   9  15  25  41  62  85 108 137 172 208 242
#     4  10  17  25  41  64  87 110 140 175 208 238
#     4   9  16  25  39  61  87 112 137 164 200 249
#
# _framework density 18.290087
#
# number of rings (size 3 to 8) (size 9 to 14) (size 15 to 20)
#    0.000    2.500    3.750    0.000    0.000    0.750 
#    0.000    0.000    0.000    1.875    0.000    0.875 
#    0.000    1.000    0.000    0.000    0.000    0.000 
#
# Total GULP energy -356898.110696 kJ/mol
# GULP energy per Si atom -5576.532980 kJ/mol
# Density = 1.824846 g / cm^3
# Si number density = 18.290087 Si / 1000 Ang^3
#
#
#
# Elastic Constant Matrix: (Units=GPa)
#
#
# Indices 1 2 3 4 5 6 
#
# 1 159.6207 3.8620 59.4577 0.0000 0.0000 0.0000
# 2 3.8620 60.6035 -3.8129 0.0000 0.0000 0.0000
# 3 59.4577 -3.8129 94.5317 0.0000 0.0000 0.0000
# 4 0.0000 0.0000 0.0000 17.3976 0.0000 0.0000
# 5 0.0000 0.0000 0.0000 0.0000 29.8829 0.0000
# 6 0.0000 0.0000 0.0000 0.0000 0.0000 0.9141
#
#
#
# Elastic Compliance Matrix: (Units=1/GPa)
#
#
# Indices 1 2 3 4 5 6 
#
# 1 0.008225 -0.000852 -0.005208 0.000000 0.000000 0.000000
# 2 -0.000852 0.016631 0.001207 0.000000 0.000000 0.000000
# 3 -0.005208 0.001207 0.013903 0.000000 0.000000 0.000000
# 4 0.000000 0.000000 0.000000 0.057479 0.000000 0.000000
# 5 0.000000 0.000000 0.000000 0.000000 0.033464 0.000000
# 6 0.000000 0.000000 0.000000 0.000000 0.000000 1.094029
#
#
# Mechanical properties :
#
#
# Convention : Reuss Voigt Hill
#
# Bulk Modulus (GPa) = 34.42016 48.19662 41.30839
# Shear Modulus (GPa) = 4.02213 26.65551 15.33882
#
# Velocity S-wave (km/s) = 1.48454 3.82170 2.89907
# Velocity P-wave (km/s) = 4.66887 6.77365 5.81724
#
# Compressibility (1/GPa) = 0.02905274
#
# Stress axis : x y z
#
# Youngs Moduli (GPa) = 121.57522 60.12904 71.92830
#
# Poissons Ratio (x) = 0.05122 0.37459
# Poissons Ratio (y) = 0.10356 -0.08679
# Poissons Ratio (z) = 0.63315 -0.07255
#
# Static dielectric constant tensor:
#      x y z
#    x 1.676860 0.000000 0.000000 
#    y 0.000000 1.761630 0.000000 
#    z 0.000000 0.000000 1.590070 
# 
# From -- ./inp_files/26603.got.cif
#   From: 2010.05.17/outbox.cif.g08.bks.cpg/sg51_14_cif.got.tgz:26603.got - 2010.06.03 11:52:47.
