data_PCOD9398823
_publ_section_title
;
Structure prediction by ZEFSAII (Michael W. Deem and Ramdas Pophale) SiO2 
 PCOD9398823
Probable space group: P M M A
;
_chemical_formula_sum "Si O2"
_cell_formula_units_Z 52
_cell_length_a 8.683441
_cell_length_b 18.572011
_cell_length_c 18.884101
_cell_angle_alpha 90.000000
_cell_angle_beta 90.000000
_cell_angle_gamma 90.000000
_cell_volume 3045.419362
_symmetry_space_group_name_H-M "P M M A"
_symmetry_group_IT_number 51
_symmetry_cell_setting 'orthorhombic'
loop_
_space_group_symop_operation_xyz
x,y,z
1/2-x,-y,z
1/2+x,-y,-z
-x,y,-z
-x,-y,-z
1/2+x,y,-z
1/2-x,y,z
x,-y,z
loop_
_atom_site_type_symbol
_atom_site_label
_atom_site_fract_x
_atom_site_fract_y
_atom_site_fract_z
Si Si1 0.063780 0.706062 0.422103
Si Si2 0.437142 0.579724 0.138898
Si Si3 0.065596 0.849982 0.649229
Si Si4 0.925478 0.366487 0.715038
Si Si5 0.566772 0.273842 0.076120
Si Si6 0.435765 0.000000 0.578866
Si Si7 0.426052 0.207816 0.212833
O O1 0.250000 0.705449 0.421878
O O2 0.007393 0.648401 0.362660
O O3 0.000000 0.691959 0.500000
O O4 0.008448 0.784651 0.395563
O O5 0.250000 0.587864 0.139351
O O6 0.473995 0.500000 0.111773
O O7 0.492672 0.586784 0.220941
O O8 0.506717 0.645889 0.095776
O O9 0.250000 0.843412 0.644309
O O10 0.016519 0.926919 0.618408
O O11 0.013857 0.840945 0.730519
O O12 0.750000 0.392188 0.704507
O O13 0.921230 0.286747 0.749968
O O14 0.750000 0.274331 0.074814
O O15 0.506832 0.221399 0.138106
O O16 0.500000 0.253686 0.000000
O O17 0.500000 0.000000 0.500000
O O18 0.250000 0.000000 0.576283
O O19 0.250000 0.184219 0.203510
#
# Coordination Sequence:
#
# PCOD9398823 Si02
#       7
#     8   8   8   8   8   4   8
#     4  10  18  28  43  64  89 118 155 202 249 290
#     4   9  17  31  50  69  91 123 161 198 238 288
#     4  10  19  32  48  69  96 129 165 199 238 284
#     4   7  13  26  43  62  84 111 147 191 236 280
#     4  11  21  33  50  73 101 129 157 195 239 283
#     4  10  22  34  46  68 103 140 173 206 240 282
#     4   9  17  32  51  71  94 122 158 198 238 283
#
# _framework density 17.074824
#
# number of rings (size 3 to 8) (size 9 to 14) (size 15 to 20)
#    0.000    2.615    0.000    5.077    0.000    3.077 
#    0.000    0.769    0.000    0.462    0.000    0.538 
#    0.000    0.000    0.000    0.000    0.000    0.462 
#
# Total GULP energy -289706.760912 kJ/mol
# GULP energy per Si atom -5571.283864 kJ/mol
# Density = 1.703596 g / cm^3
# Si number density = 17.074824 Si / 1000 Ang^3
#
#
#
# Elastic Constant Matrix: (Units=GPa)
#
#
# Indices 1 2 3 4 5 6 
#
# 1 59.7867 6.9636 29.8821 0.0000 0.0000 0.0000
# 2 6.9636 30.8037 15.2281 0.0000 0.0000 0.0000
# 3 29.8821 15.2281 133.5649 0.0000 0.0000 0.0000
# 4 0.0000 0.0000 0.0000 17.5693 0.0000 0.0000
# 5 0.0000 0.0000 0.0000 0.0000 29.8787 0.0000
# 6 0.0000 0.0000 0.0000 0.0000 0.0000 14.4874
#
#
#
# Elastic Compliance Matrix: (Units=1/GPa)
#
#
# Indices 1 2 3 4 5 6 
#
# 1 0.018988 -0.002323 -0.003983 0.000000 0.000000 0.000000
# 2 -0.002323 0.034687 -0.003435 0.000000 0.000000 0.000000
# 3 -0.003983 -0.003435 0.008770 0.000000 0.000000 0.000000
# 4 0.000000 0.000000 0.000000 0.056918 0.000000 0.000000
# 5 0.000000 0.000000 0.000000 0.000000 0.033469 0.000000
# 6 0.000000 0.000000 0.000000 0.000000 0.000000 0.069025
#
#
# Mechanical properties :
#
#
# Convention : Reuss Voigt Hill
#
# Bulk Modulus (GPa) = 23.27668 36.47811 29.87740
# Shear Modulus (GPa) = 19.55729 23.85918 21.70823
#
# Velocity S-wave (km/s) = 3.38803 3.74214 3.56948
# Velocity P-wave (km/s) = 5.38208 6.33100 5.87573
#
# Compressibility (1/GPa) = 0.04296145
#
# Stress axis : x y z
#
# Youngs Moduli (GPa) = 52.66605 28.82925 114.02813
#
# Poissons Ratio (x) = 0.06698 0.45419
# Poissons Ratio (y) = 0.12236 0.39168
# Poissons Ratio (z) = 0.20978 0.09903
#
# Static dielectric constant tensor:
#      x y z
#    x 1.584320 0.000000 0.000000 
#    y 0.000000 1.571900 0.000000 
#    z 0.000000 0.000000 1.600010 
# 
# From -- ./inp_files/27908.got.cif
#   From: 2010.05.17/outbox.cif.g08.bks.cpg/sg51_14_cif.got.tgz:27908.got - 2010.06.03 11:52:47.
