data_PCOD9398452
_publ_section_title
;
Structure prediction by ZEFSAII (Michael W. Deem and Ramdas Pophale) SiO2 
 PCOD9398452
Probable space group: P M M A
;
_chemical_formula_sum "Si O2"
_cell_formula_units_Z 56
_cell_length_a 22.638617
_cell_length_b 9.270781
_cell_length_c 18.119720
_cell_angle_alpha 90.000000
_cell_angle_beta 90.000000
_cell_angle_gamma 90.000000
_cell_volume 3802.924440
_symmetry_space_group_name_H-M "P M M A"
_symmetry_group_IT_number 51
_symmetry_cell_setting 'orthorhombic'
loop_
_space_group_symop_operation_xyz
x,y,z
1/2-x,-y,z
1/2+x,-y,-z
-x,y,-z
-x,-y,-z
1/2+x,y,-z
1/2-x,y,z
x,-y,z
loop_
_atom_site_type_symbol
_atom_site_label
_atom_site_fract_x
_atom_site_fract_y
_atom_site_fract_z
Si Si1 0.094571 0.673151 0.371756
Si Si2 0.463937 0.170552 0.835007
Si Si3 0.067749 0.333883 0.530218
Si Si4 0.681028 0.672451 0.760469
Si Si5 0.930671 0.334090 0.023550
Si Si6 0.600734 0.171081 0.879839
Si Si7 0.972035 0.172449 0.332441
O O1 0.082665 0.500000 0.370093
O O2 0.104596 0.710529 0.457836
O O3 0.148218 0.703691 0.316871
O O4 0.036457 0.755788 0.343604
O O5 0.429397 0.261067 0.896297
O O6 0.534235 0.194597 0.848168
O O7 0.450639 0.207321 0.750199
O O8 0.453556 0.000000 0.846774
O O9 0.080872 0.500000 0.549467
O O10 0.068435 0.235235 0.602202
O O11 0.000000 0.329777 0.500000
O O12 0.750000 0.709159 0.758063
O O13 0.675567 0.500000 0.773154
O O14 0.646685 0.756044 0.824535
O O15 0.911364 0.500000 0.024927
O O16 0.897873 0.244020 0.960299
O O17 0.000000 0.331944 0.000000
O O18 0.609914 0.000000 0.884911
O O19 0.977352 0.000000 0.338480
#
# Coordination Sequence:
#
# PCOD9398452 Si02
#       7
#     8   8   8   8   8   8   8
#     4   9  17  29  42  55  79 111 141 175 214 252
#     4   9  17  27  39  59  86 113 139 168 207 253
#     4   8  15  26  38  55  78 108 140 168 206 254
#     4  10  20  32  46  63  82 109 148 188 218 246
#     4   9  17  27  41  61  81 107 142 173 205 250
#     4  10  18  30  44  58  82 113 141 174 215 255
#     4  10  17  25  39  61  85 110 140 171 205 249
#
# _framework density 14.725509000000001
#
# number of rings (size 3 to 8) (size 9 to 14) (size 15 to 20)
#    0.000    2.714    1.429    2.143    0.000    6.286 
#    0.000    0.000    0.000    0.000    0.000    0.000 
#    0.000    1.143    0.000   10.571    0.000    2.857 
#
# Total GULP energy -311890.147002 kJ/mol
# GULP energy per Si atom -5569.466911 kJ/mol
# Density = 1.469199 g / cm^3
# Si number density = 14.725509 Si / 1000 Ang^3
#
#
#
# Elastic Constant Matrix: (Units=GPa)
#
#
# Indices 1 2 3 4 5 6 
#
# 1 45.2667 31.6705 45.7385 0.0000 0.0000 0.0000
# 2 31.6705 61.4022 76.5629 0.0000 0.0000 0.0000
# 3 45.7385 76.5629 165.3436 0.0000 0.0000 0.0000
# 4 0.0000 0.0000 0.0000 29.2950 0.0000 0.0000
# 5 0.0000 0.0000 0.0000 0.0000 11.1259 0.0000
# 6 0.0000 0.0000 0.0000 0.0000 0.0000 12.0520
#
#
#
# Elastic Compliance Matrix: (Units=1/GPa)
#
#
# Indices 1 2 3 4 5 6 
#
# 1 0.035245 -0.014249 -0.003152 0.000000 0.000000 0.000000
# 2 -0.014249 0.044297 -0.016570 0.000000 0.000000 0.000000
# 3 -0.003152 -0.016570 0.014593 0.000000 0.000000 0.000000
# 4 0.000000 0.000000 0.000000 0.034135 0.000000 0.000000
# 5 0.000000 0.000000 0.000000 0.000000 0.089880 0.000000
# 6 0.000000 0.000000 0.000000 0.000000 0.000000 0.082974
#
#
# Mechanical properties :
#
#
# Convention : Reuss Voigt Hill
#
# Bulk Modulus (GPa) = 38.17830 64.43957 51.30894
# Shear Modulus (GPa) = 13.23459 18.36396 15.79928
#
# Velocity S-wave (km/s) = 3.00117 3.53524 3.27910
# Velocity P-wave (km/s) = 6.16379 7.77942 7.01825
#
# Compressibility (1/GPa) = 0.02619289
#
# Stress axis : x y z
#
# Youngs Moduli (GPa) = 28.37272 22.57475 68.52732
#
# Poissons Ratio (x) = 0.32167 0.21597
# Poissons Ratio (y) = 0.40429 1.13551
# Poissons Ratio (z) = 0.08942 0.37407
#
# Static dielectric constant tensor:
#      x y z
#    x 1.450850 0.000000 0.000000 
#    y 0.000000 1.491230 0.000000 
#    z 0.000000 0.000000 1.507900 
# 
# From -- ./inp_files/30351.got.cif
#   From: 2010.05.17/outbox.cif.g08.bks.cpg/sg51_16_cif.got.tgz:30351.got - 2010.06.03 11:52:47.
