data_PCOD9398126
_publ_section_title
;
Structure prediction by ZEFSAII (Michael W. Deem and Ramdas Pophale) SiO2 
 PCOD9398126
Probable space group: P B A N
;
_chemical_formula_sum "Si O2"
_cell_formula_units_Z 40
_cell_length_a 9.604938
_cell_length_b 9.091423
_cell_length_c 19.438919
_cell_angle_alpha 90.000000
_cell_angle_beta 90.000000
_cell_angle_gamma 90.000000
_cell_volume 1697.456059
_symmetry_space_group_name_H-M "P B A N"
_symmetry_group_IT_number 50
_space_group.IT_coordinate_system_code '2'
_symmetry_cell_setting 'orthorhombic'
loop_
_space_group_symop_operation_xyz
x,y,z
1/2-x,1/2-y,z
x,1/2-y,-z
1/2-x,y,-z
-x,-y,-z
1/2+x,1/2+y,-z
-x,1/2+y,z
1/2+x,-y,z
loop_
_atom_site_type_symbol
_atom_site_label
_atom_site_fract_x
_atom_site_fract_y
_atom_site_fract_z
Si Si1 0.064667 0.073176 0.835200
Si Si2 0.404629 0.306495 0.576250
Si Si3 0.913129 0.298847 0.923579
Si Si4 0.351186 0.630846 0.611619
Si Si5 0.792959 0.080167 0.754287
O O1 0.013892 0.223463 0.868021
O O2 0.951224 0.048955 0.774427
O O3 0.068882 0.967129 0.902171
O O4 0.208734 0.038414 0.798800
O O5 0.250000 0.250000 0.590787
O O6 0.443097 0.250000 0.500000
O O7 0.401512 0.482520 0.575720
O O8 0.512848 0.229201 0.627822
O O9 0.750000 0.250000 0.917340
O O10 0.954224 0.250000 0.000000
O O11 0.250000 0.750000 0.575922
O O12 0.260868 0.574155 0.676377
O O13 0.750000 0.250000 0.773036
#
# Coordination Sequence:
#
# PCOD9398126 Si02
#       5
#     8   8   8   8   8
#     4  12  21  47  66  98 137 184 227 291 353 415
#     4  11  25  46  73 108 147 191 242 292 358 428
#     4  11  24  44  67  99 140 182 233 294 352 423
#     4  11  26  46  72 109 145 191 240 300 360 427
#     4  11  26  44  68 102 145 179 233 286 359 420
#
# _framework density 23.564675999999999
#
# number of rings (size 3 to 8) (size 9 to 14) (size 15 to 20)
#    0.000    0.800    4.000    2.400    8.400    2.800 
#    0.000    1.000    0.000    0.000    0.000    0.000 
#    0.000    0.000    0.000    0.000    0.000    0.000 
#
# Total GULP energy -223338.837092 kJ/mol
# GULP energy per Si atom -5583.470927 kJ/mol
# Density = 2.351104 g / cm^3
# Si number density = 23.564676 Si / 1000 Ang^3
#
#
#
# Elastic Constant Matrix: (Units=GPa)
#
#
# Indices 1 2 3 4 5 6 
#
# 1 75.9985 17.3354 -10.3597 0.0000 0.0000 0.0000
# 2 17.3354 112.9853 4.7095 0.0000 0.0000 0.0000
# 3 -10.3597 4.7095 104.8304 0.0000 0.0000 0.0000
# 4 0.0000 0.0000 0.0000 13.5368 0.0000 0.0000
# 5 0.0000 0.0000 0.0000 0.0000 19.6878 0.0000
# 6 0.0000 0.0000 0.0000 0.0000 0.0000 34.4548
#
#
#
# Elastic Compliance Matrix: (Units=1/GPa)
#
#
# Indices 1 2 3 4 5 6 
#
# 1 0.013857 -0.002187 0.001468 0.000000 0.000000 0.000000
# 2 -0.002187 0.009213 -0.000630 0.000000 0.000000 0.000000
# 3 0.001468 -0.000630 0.009713 0.000000 0.000000 0.000000
# 4 0.000000 0.000000 0.000000 0.073873 0.000000 0.000000
# 5 0.000000 0.000000 0.000000 0.000000 0.050793 0.000000
# 6 0.000000 0.000000 0.000000 0.000000 0.000000 0.029024
#
#
# Mechanical properties :
#
#
# Convention : Reuss Voigt Hill
#
# Bulk Modulus (GPa) = 33.24138 35.24274 34.24206
# Shear Modulus (GPa) = 25.10062 32.34449 28.72256
#
# Velocity S-wave (km/s) = 3.26725 3.70886 3.49504
# Velocity P-wave (km/s) = 5.32638 5.77313 5.55425
#
# Compressibility (1/GPa) = 0.03008299
#
# Stress axis : x y z
#
# Youngs Moduli (GPa) = 72.16496 108.54738 102.95944
#
# Poissons Ratio (x) = 0.23742 -0.15111
# Poissons Ratio (y) = 0.15785 0.06487
# Poissons Ratio (z) = -0.10591 0.06839
#
# Static dielectric constant tensor:
#      x y z
#    x 1.850480 0.000000 0.000000 
#    y 0.000000 1.920090 0.000000 
#    z 0.000000 0.000000 1.954270 
# 
# From -- ./inp_files/31571.got.cif
#   From: 2010.05.17/outbox.cif.g08.bks.cpg/sg50_16_cif.got.tgz:31571.got - 2010.06.03 11:33:33.
