data_PCOD9398568
_publ_section_title
;
Structure prediction by ZEFSAII (Michael W. Deem and Ramdas Pophale) SiO2 
 PCOD9398568
Probable space group: P M M A
;
_chemical_formula_sum "Si O2"
_cell_formula_units_Z 64
_cell_length_a 24.026432
_cell_length_b 8.141298
_cell_length_c 19.899671
_cell_angle_alpha 90.000000
_cell_angle_beta 90.000000
_cell_angle_gamma 90.000000
_cell_volume 3892.501867
_symmetry_space_group_name_H-M "P M M A"
_symmetry_group_IT_number 51
_symmetry_cell_setting 'orthorhombic'
loop_
_space_group_symop_operation_xyz
x,y,z
1/2-x,-y,z
1/2+x,-y,-z
-x,y,-z
-x,-y,-z
1/2+x,y,-z
1/2-x,y,z
x,-y,z
loop_
_atom_site_type_symbol
_atom_site_label
_atom_site_fract_x
_atom_site_fract_y
_atom_site_fract_z
Si Si1 0.686839 0.804238 0.884177
Si Si2 0.372843 0.302188 0.252610
Si Si3 0.913044 0.198195 0.524669
Si Si4 0.000725 0.302123 0.750132
Si Si5 0.812955 0.697739 0.611847
Si Si6 0.523886 0.299718 0.103534
Si Si7 0.977579 0.802226 0.395333
Si Si8 0.088074 0.301793 0.025099
O O1 0.750000 0.740990 0.891594
O O2 0.659193 0.740722 0.815419
O O3 0.645846 0.758168 0.944928
O O4 0.689009 0.000000 0.879881
O O5 0.375293 0.500000 0.256712
O O6 0.436564 0.241868 0.251471
O O7 0.340403 0.240907 0.318500
O O8 0.854309 0.257466 0.551756
O O9 0.932101 0.252143 0.450328
O O10 0.962261 0.253557 0.575626
O O11 0.913204 0.000000 0.525244
O O12 0.999015 0.500000 0.752862
O O13 0.028306 0.243922 0.819695
O O14 0.029428 0.253789 0.680679
O O15 0.750000 0.758957 0.603999
O O16 0.810812 0.500000 0.616138
O O17 0.524871 0.500000 0.103188
O O18 0.463276 0.252686 0.073913
O O19 0.569976 0.246040 0.049455
O O20 0.978161 0.000000 0.396204
O O21 0.089190 0.500000 0.025371
#
# Coordination Sequence:
#
# PCOD9398568 Si02
#       8
#     8   8   8   8   8   8   8   8
#     4  11  23  34  44  64  95 127 160 197 230 263
#     4  10  19  32  48  66  92 128 163 189 220 269
#     4   9  18  32  47  64  90 124 159 191 226 272
#     4  10  17  28  48  73  95 120 152 187 229 275
#     4  10  20  32  46  67  94 122 157 198 231 263
#     4   8  15  28  48  71  93 116 149 190 231 272
#     4   9  18  31  46  66  93 123 154 190 230 273
#     4   9  16  31  51  67  88 121 155 190 228 271
#
# _framework density 16.441867999999999
#
# number of rings (size 3 to 8) (size 9 to 14) (size 15 to 20)
#    0.000    2.500    2.500    2.250    0.000    3.250 
#    0.000    3.125    0.000    0.000    0.000    0.875 
#    0.000    1.000    0.000    0.000    0.000    0.000 
#
# Total GULP energy -356800.330063 kJ/mol
# GULP energy per Si atom -5575.005157 kJ/mol
# Density = 1.640445 g / cm^3
# Si number density = 16.441868 Si / 1000 Ang^3
#
#
#
# Elastic Constant Matrix: (Units=GPa)
#
#
# Indices 1 2 3 4 5 6 
#
# 1 86.6266 2.7913 64.9661 0.0000 0.0000 0.0000
# 2 2.7913 3.1624 5.9485 0.0000 0.0000 0.0000
# 3 64.9661 5.9485 155.7662 0.0000 0.0000 0.0000
# 4 0.0000 0.0000 0.0000 157.6563 0.0000 0.0000
# 5 0.0000 0.0000 0.0000 0.0000 19.9716 0.0000
# 6 0.0000 0.0000 0.0000 0.0000 0.0000 22.7828
#
#
#
# Elastic Compliance Matrix: (Units=1/GPa)
#
#
# Indices 1 2 3 4 5 6 
#
# 1 0.016807 -0.001777 -0.006942 0.000000 0.000000 0.000000
# 2 -0.001777 0.340877 -0.012277 0.000000 0.000000 0.000000
# 3 -0.006942 -0.012277 0.009784 0.000000 0.000000 0.000000
# 4 0.000000 0.000000 0.000000 0.006343 0.000000 0.000000
# 5 0.000000 0.000000 0.000000 0.000000 0.050071 0.000000
# 6 0.000000 0.000000 0.000000 0.000000 0.000000 0.043893
#
#
# Mechanical properties :
#
#
# Convention : Reuss Voigt Hill
#
# Bulk Modulus (GPa) = 3.07241 43.66302 23.36772
# Shear Modulus (GPa) = 8.08723 51.53876 29.81300
#
# Velocity S-wave (km/s) = 2.22022 5.60483 4.26283
# Velocity P-wave (km/s) = 2.90606 8.27642 6.20259
#
# Compressibility (1/GPa) = 0.32547706
#
# Stress axis : x y z
#
# Youngs Moduli (GPa) = 59.49814 2.93361 102.20731
#
# Poissons Ratio (x) = 0.00521 0.70952
# Poissons Ratio (y) = 0.10573 1.25475
# Poissons Ratio (z) = 0.41304 0.03601
#
# Static dielectric constant tensor:
#      x y z
#    x 1.540520 0.000000 0.000000 
#    y 0.000000 1.584560 0.000000 
#    z 0.000000 0.000000 1.563670 
# 
# From -- ./inp_files/30898.got.cif
#   From: 2010.05.17/outbox.cif.g08.bks.cpg/sg51_16_cif.got.tgz:30898.got - 2010.06.03 11:52:47.
