data_PCOD9398067
_publ_section_title
;
Structure prediction by ZEFSAII (Michael W. Deem and Ramdas Pophale) SiO2 
 PCOD9398067
Probable space group: P B A N
;
_chemical_formula_sum "Si O2"
_cell_formula_units_Z 24
_cell_length_a 8.426502
_cell_length_b 10.536819
_cell_length_c 11.808036
_cell_angle_alpha 90.000000
_cell_angle_beta 90.000000
_cell_angle_gamma 90.000000
_cell_volume 1048.418116
_symmetry_space_group_name_H-M "P B A N"
_symmetry_group_IT_number 50
_space_group.IT_coordinate_system_code '2'
_symmetry_cell_setting 'orthorhombic'
loop_
_space_group_symop_operation_xyz
x,y,z
1/2-x,1/2-y,z
x,1/2-y,-z
1/2-x,y,-z
-x,-y,-z
1/2+x,1/2+y,-z
-x,1/2+y,z
1/2+x,-y,z
loop_
_atom_site_type_symbol
_atom_site_label
_atom_site_fract_x
_atom_site_fract_y
_atom_site_fract_z
Si Si1 0.926580 0.873799 0.950809
Si Si2 0.478431 0.648548 0.695891
Si Si3 0.652614 0.091568 0.383466
O O1 0.936432 0.858962 0.816295
O O2 0.012717 0.750000 0.000000
O O3 0.750000 0.874054 0.000000
O O4 0.000000 0.000000 0.000000
O O5 0.567240 0.543474 0.620122
O O6 0.464429 0.790388 0.643929
O O7 0.295494 0.602194 0.707724
O O8 0.750000 0.108930 0.500000
#
# Coordination Sequence:
#
# PCOD9398067 Si02
#       3
#     8   8   8
#     4  11  24  42  65  98 132 176 230 281 339 404
#     4  11  23  44  68  98 139 180 228 287 342 410
#     4  11  25  45  70 104 139 183 232 283 349 418
#
# _framework density 22.891629999999999
#
# number of rings (size 3 to 8) (size 9 to 14) (size 15 to 20)
#    0.000    1.000    0.000    7.000    0.000    7.333 
#    0.000    3.333    0.000    0.000    0.000    0.000 
#    0.000    0.000    0.000    0.000    0.000    0.000 
#
# Total GULP energy -134188.084775 kJ/mol
# GULP energy per Si atom -5591.170199 kJ/mol
# Density = 2.283953 g / cm^3
# Si number density = 22.891630 Si / 1000 Ang^3
#
#
#
# Elastic Constant Matrix: (Units=GPa)
#
#
# Indices 1 2 3 4 5 6 
#
# 1 82.1152 60.5058 43.5628 0.0000 0.0000 0.0000
# 2 60.5058 202.9318 79.3488 0.0000 0.0000 0.0000
# 3 43.5628 79.3488 172.8971 0.0000 0.0000 0.0000
# 4 0.0000 0.0000 0.0000 35.0344 0.0000 0.0000
# 5 0.0000 0.0000 0.0000 0.0000 36.4794 0.0000
# 6 0.0000 0.0000 0.0000 0.0000 0.0000 48.1117
#
#
#
# Elastic Compliance Matrix: (Units=1/GPa)
#
#
# Indices 1 2 3 4 5 6 
#
# 1 0.016318 -0.003970 -0.002289 0.000000 0.000000 0.000000
# 2 -0.003970 0.006971 -0.002199 0.000000 0.000000 0.000000
# 3 -0.002289 -0.002199 0.007370 0.000000 0.000000 0.000000
# 4 0.000000 0.000000 0.000000 0.028543 0.000000 0.000000
# 5 0.000000 0.000000 0.000000 0.000000 0.027413 0.000000
# 6 0.000000 0.000000 0.000000 0.000000 0.000000 0.020785
#
#
# Mechanical properties :
#
#
# Convention : Reuss Voigt Hill
#
# Bulk Modulus (GPa) = 72.77023 91.64210 82.20616
# Shear Modulus (GPa) = 38.79031 42.22687 40.50859
#
# Velocity S-wave (km/s) = 4.12092 4.29959 4.21120
# Velocity P-wave (km/s) = 7.38246 8.04789 7.72234
#
# Compressibility (1/GPa) = 0.01374188
#
# Stress axis : x y z
#
# Youngs Moduli (GPa) = 61.28233 143.44365 135.68767
#
# Poissons Ratio (x) = 0.56949 0.31064
# Poissons Ratio (y) = 0.24330 0.29839
# Poissons Ratio (z) = 0.14030 0.31545
#
# Static dielectric constant tensor:
#      x y z
#    x 1.878800 0.000000 0.000000 
#    y 0.000000 1.901790 0.000000 
#    z 0.000000 0.000000 1.949890 
# 
# From -- ./inp_files/18141.got.cif
#   From: 2010.05.17/outbox.cif.g08.bks.cpg/sg50_10_cif.got.tgz:18141.got - 2010.06.03 11:33:33.
