data_PCOD9398341
_publ_section_title
;
Structure prediction by ZEFSAII (Michael W. Deem and Ramdas Pophale) SiO2 
 PCOD9398341
Probable space group: P M M A
;
_chemical_formula_sum "Si O2"
_cell_formula_units_Z 26
_cell_length_a 5.452448
_cell_length_b 31.089223
_cell_length_c 7.213575
_cell_angle_alpha 90.000000
_cell_angle_beta 90.000000
_cell_angle_gamma 90.000000
_cell_volume 1222.790207
_symmetry_space_group_name_H-M "P M M A"
_symmetry_group_IT_number 51
_symmetry_cell_setting 'orthorhombic'
loop_
_space_group_symop_operation_xyz
x,y,z
1/2-x,-y,z
1/2+x,-y,-z
-x,y,-z
-x,-y,-z
1/2+x,y,-z
1/2-x,y,z
x,-y,z
loop_
_atom_site_type_symbol
_atom_site_label
_atom_site_fract_x
_atom_site_fract_y
_atom_site_fract_z
Si Si1 0.750000 0.323827 0.196183
Si Si2 0.750000 0.000000 0.622263
Si Si3 0.250000 0.221809 0.798130
Si Si4 0.250000 0.452293 0.122311
Si Si5 0.250000 0.094051 0.376900
Si Si6 0.250000 0.359136 0.227603
Si Si7 0.250000 0.814143 0.215312
O O1 0.750000 0.272766 0.171153
O O2 0.501778 0.338498 0.293622
O O3 0.750000 0.347214 0.994408
O O4 0.750000 0.953249 0.718189
O O5 0.500000 0.000000 0.500000
O O6 0.500995 0.206303 0.706380
O O7 0.250000 0.199173 0.999642
O O8 0.250000 0.500000 0.209427
O O9 0.250000 0.410343 0.249800
O O10 0.500000 0.449431 0.000000
O O11 0.500000 0.096707 0.500000
O O12 0.250000 0.134964 0.243784
#
# Coordination Sequence:
#
# PCOD9398341 Si02
#       7
#     4   2   4   4   4   4   4
#     4  10  16  23  36  49  70  91 132 167 206 240
#     4   8  16  30  48  68  90 110 142 176 210 246
#     4  10  19  30  43  64  85 119 143 176 222 250
#     4  10  16  22  28  39  59  85 119 161 218 256
#     4  10  19  32  50  72  91 115 142 178 216 250
#     4  10  14  22  31  46  61  89 121 170 211 236
#     4  10  18  30  46  63  90 113 144 172 212 264
#
# _framework density 21.262846
#
# number of rings (size 3 to 8) (size 9 to 14) (size 15 to 20)
#    0.000    2.154    3.077    5.538    0.000    0.000 
#    0.000    0.000    0.000    3.692    0.000    0.000 
#    0.000    0.000    0.000    0.000    0.000    0.000 
#
# Total GULP energy -144956.386058 kJ/mol
# GULP energy per Si atom -5575.245618 kJ/mol
# Density = 2.121445 g / cm^3
# Si number density = 21.262846 Si / 1000 Ang^3
#
#
#
# Elastic Constant Matrix: (Units=GPa)
#
#
# Indices 1 2 3 4 5 6 
#
# 1 230.7096 49.9671 14.4681 0.0000 0.0000 0.0000
# 2 49.9671 245.9979 24.1313 0.0000 0.0000 0.0000
# 3 14.4681 24.1313 64.0899 0.0000 0.0000 0.0000
# 4 0.0000 0.0000 0.0000 -37.0672 0.0000 0.0000
# 5 0.0000 0.0000 0.0000 0.0000 -15.0135 0.0000
# 6 0.0000 0.0000 0.0000 0.0000 0.0000 39.5581
#
#
#
# Elastic Compliance Matrix: (Units=1/GPa)
#
#
# Indices 1 2 3 4 5 6 
#
# 1 0.004565 -0.000858 -0.000707 0.000000 0.000000 0.000000
# 2 -0.000858 0.004382 -0.001456 0.000000 0.000000 0.000000
# 3 -0.000707 -0.001456 0.016311 0.000000 0.000000 0.000000
# 4 0.000000 0.000000 0.000000 -0.026978 0.000000 0.000000
# 5 0.000000 0.000000 0.000000 0.000000 -0.066607 0.000000
# 6 0.000000 0.000000 0.000000 0.000000 0.000000 0.025279
#
#
# Mechanical properties :
#
#
# Convention : Reuss Voigt Hill
#
# Bulk Modulus (GPa) = 52.04338 79.77003 65.90671
# Shear Modulus (GPa) = -163.40237 27.64419 -67.87909
#
# Velocity S-wave (km/s) = -8.77585 3.60963 -5.65625
# Velocity P-wave (km/s) = 8.84071 7.41418 3.40500
#
# Compressibility (1/GPa) = 0.01921474
#
# Stress axis : x y z
#
# Youngs Moduli (GPa) = 219.07748 228.19776 61.30777
#
# Poissons Ratio (x) = 0.19574 0.04337
# Poissons Ratio (y) = 0.18792 0.08929
# Poissons Ratio (z) = 0.15499 0.33233
#
# Static dielectric constant tensor:
#      x y z
#    x 1.783470 0.000000 0.000000 
#    y 0.000000 1.749180 0.000000 
#    z 0.000000 0.000000 2.011610 
# 
# From -- ./inp_files/4234.got.cif
#   From: 2010.05.17/outbox.cif.g08.bks.cpg/sg51_3_cif.got.tgz:4234.got - 2010.06.03 11:52:47.
