data_PCOD9398331
_publ_section_title
;
Structure prediction by ZEFSAII (Michael W. Deem and Ramdas Pophale) SiO2 
 PCOD9398331
Probable space group: P B A N
;
_chemical_formula_sum "Si O2"
_cell_formula_units_Z 48
_cell_length_a 30.000000
_cell_length_b 9.000000
_cell_length_c 9.000000
_cell_angle_alpha 90.000000
_cell_angle_beta 90.000000
_cell_angle_gamma 90.000000
_cell_volume 2430.000000
_symmetry_space_group_name_H-M "P B A N"
_symmetry_group_IT_number 50
_space_group.IT_coordinate_system_code '2'
_symmetry_cell_setting 'orthorhombic'
loop_
_space_group_symop_operation_xyz
x,y,z
1/2-x,1/2-y,z
x,1/2-y,-z
1/2-x,y,-z
-x,-y,-z
1/2+x,1/2+y,-z
-x,1/2+y,z
1/2+x,-y,z
loop_
_atom_site_type_symbol
_atom_site_label
_atom_site_fract_x
_atom_site_fract_y
_atom_site_fract_z
Si Si1 0.701843 0.947055 0.843871
Si Si2 0.879662 0.030206 0.611835
Si Si3 0.977536 0.468071 0.338899
Si Si4 0.197062 0.096063 0.190202
Si Si5 0.374386 0.871570 0.289738
Si Si6 0.964747 0.323180 0.840786
O O1 0.752530 0.960126 0.787348
O O2 0.692976 0.774160 0.809976
O O3 0.671772 0.070289 0.770475
O O4 0.691415 0.957193 0.019884
O O5 0.927198 0.970975 0.666055
O O6 0.874235 0.201797 0.659155
O O7 0.883438 0.028869 0.434551
O O8 0.837830 0.955326 0.688263
O O9 0.972844 0.295282 0.293661
O O10 0.000000 0.500000 0.500000
O O11 0.004519 0.541647 0.205683
O O12 0.413987 0.879634 0.171018
O O13 0.972956 0.250000 0.000000
#
# Coordination Sequence:
#
# PCOD9398331 Si02
#       6
#     8   8   8   8   8   8
#     4   9  20  39  62  88 122 160 196 253 304 357
#     4  10  22  39  59  87 121 160 202 248 302 370
#     4  11  22  43  63  86 125 168 202 255 314 376
#     4   9  20  40  61  88 123 157 203 247 302 366
#     4  10  22  38  60  88 120 159 200 249 307 360
#     4  11  24  41  63  91 124 160 212 262 312 370
#
# _framework density 19.753086
#
# number of rings (size 3 to 8) (size 9 to 14) (size 15 to 20)
#    0.000    2.000    1.667    2.000    4.667    3.333 
#    6.000    5.000    0.000    0.000    0.000    0.000 
#    0.000    0.000    0.000    0.000    0.000    0.000 
#
# Total GULP energy -267331.503940 kJ/mol
# GULP energy per Si atom -5569.406332 kJ/mol
# Density = 1.970813 g / cm^3
# Si number density = 19.753086 Si / 1000 Ang^3
#
#
#
# Elastic Constant Matrix: (Units=GPa)
#
#
# Indices 1 2 3 4 5 6 
#
# 1 -61.0587 27.3744 60.5010 0.0000 0.0000 0.0000
# 2 27.3744 12.6807 16.9194 0.0000 0.0000 0.0000
# 3 60.5010 16.9194 48.9190 0.0000 0.0000 0.0000
# 4 0.0000 0.0000 0.0000 24.8035 0.0000 0.0000
# 5 0.0000 0.0000 0.0000 0.0000 27.7877 0.0000
# 6 0.0000 0.0000 0.0000 0.0000 0.0000 26.8323
#
#
#
# Elastic Compliance Matrix: (Units=1/GPa)
#
#
# Indices 1 2 3 4 5 6 
#
# 1 -0.007044 0.006652 0.006410 0.000000 0.000000 0.000000
# 2 0.006652 0.140155 -0.056702 0.000000 0.000000 0.000000
# 3 0.006410 -0.056702 0.032125 0.000000 0.000000 0.000000
# 4 0.000000 0.000000 0.000000 0.040317 0.000000 0.000000
# 5 0.000000 0.000000 0.000000 0.000000 0.035987 0.000000
# 6 0.000000 0.000000 0.000000 0.000000 0.000000 0.037269
#
#
# Mechanical properties :
#
#
# Convention : Reuss Voigt Hill
#
# Bulk Modulus (GPa) = 12.82740 23.34783 18.08761
# Shear Modulus (GPa) = 12.75270 8.93446 10.84358
#
# Velocity S-wave (km/s) = 2.54363 2.12906 2.34552
# Velocity P-wave (km/s) = 3.89034 4.22958 4.06350
#
# Compressibility (1/GPa) = 0.07795814
#
# Stress axis : x y z
#
# Youngs Moduli (GPa) = -141.97454 7.13494 31.12845
#
# Poissons Ratio (x) = -0.04746 -0.19955
# Poissons Ratio (y) = 0.94442 1.76504
# Poissons Ratio (z) = 0.91012 0.40456
#
# Static dielectric constant tensor:
#      x y z
#    x 1.852550 0.000000 0.000000 
#    y 0.000000 1.692190 0.000000 
#    z 0.000000 0.000000 1.706490 
# 
# From -- ./inp_files/10066.got.cif
#   From: 2010.05.17/outbox.ucp.g08.bks.cvg/sg50_6_cif.got.tgz:10066.got - 2010.06.11 16:26:39.
