data_PCOD9398286
_publ_section_title
;
Structure prediction by ZEFSAII (Michael W. Deem and Ramdas Pophale) SiO2 
 PCOD9398286
Probable space group: P B A N
;
_chemical_formula_sum "Si O2"
_cell_formula_units_Z 26
_cell_length_a 8.626615
_cell_length_b 28.099386
_cell_length_c 5.410962
_cell_angle_alpha 90.000000
_cell_angle_beta 90.000000
_cell_angle_gamma 90.000000
_cell_volume 1311.631175
_symmetry_space_group_name_H-M "P B A N"
_symmetry_group_IT_number 50
_space_group.IT_coordinate_system_code '2'
_symmetry_cell_setting 'orthorhombic'
loop_
_space_group_symop_operation_xyz
x,y,z
1/2-x,1/2-y,z
x,1/2-y,-z
1/2-x,y,-z
-x,-y,-z
1/2+x,1/2+y,-z
-x,1/2+y,z
1/2+x,-y,z
loop_
_atom_site_type_symbol
_atom_site_label
_atom_site_fract_x
_atom_site_fract_y
_atom_site_fract_z
Si Si1 0.435514 0.946461 0.506821
Si Si2 0.932976 0.600471 0.005291
Si Si3 0.750000 0.250000 0.500000
Si Si4 0.077327 0.699334 0.894092
O O1 0.250000 0.946431 0.500000
O O2 0.490098 0.924518 0.767338
O O3 0.500000 0.000000 0.500000
O O4 0.498804 0.918154 0.265956
O O5 0.968979 0.656140 0.961414
O O6 0.750000 0.591245 0.000000
O O7 0.872819 0.287025 0.381019
O O8 0.022508 0.750000 0.000000
O O9 0.250000 0.689362 0.000000
#
# Coordination Sequence:
#
# PCOD9398286 Si02
#       4
#     8   8   2   8
#     4  12  26  47  71  98 132 176 223 275 331 397
#     4  12  26  43  68 102 138 175 219 275 334 395
#     4   8  18  36  64  96 128 172 228 276 314 404
#     4   9  20  37  63  94 131 172 226 265 332 387
#
# _framework density 19.822645000000001
#
# number of rings (size 3 to 8) (size 9 to 14) (size 15 to 20)
#    0.000    1.538    0.000    6.462   10.769    0.615 
#    0.000    0.000    0.000    0.000    0.000    0.000 
#    0.000    0.000    0.000    0.000    0.000    0.000 
#
# Total GULP energy -144943.193241 kJ/mol
# GULP energy per Si atom -5574.738202 kJ/mol
# Density = 1.977753 g / cm^3
# Si number density = 19.822645 Si / 1000 Ang^3
#
#
#
# Elastic Constant Matrix: (Units=GPa)
#
#
# Indices 1 2 3 4 5 6 
#
# 1 148.1222 33.9801 34.4186 0.0000 0.0000 0.0000
# 2 33.9801 83.4426 28.4864 0.0000 0.0000 0.0000
# 3 34.4186 28.4864 96.9472 0.0000 0.0000 0.0000
# 4 0.0000 0.0000 0.0000 62.8885 0.0000 0.0000
# 5 0.0000 0.0000 0.0000 0.0000 33.4893 0.0000
# 6 0.0000 0.0000 0.0000 0.0000 0.0000 -10.8652
#
#
#
# Elastic Compliance Matrix: (Units=1/GPa)
#
#
# Indices 1 2 3 4 5 6 
#
# 1 0.007793 -0.002478 -0.002039 0.000000 0.000000 0.000000
# 2 -0.002478 0.014108 -0.003266 0.000000 0.000000 0.000000
# 3 -0.002039 -0.003266 0.011998 0.000000 0.000000 0.000000
# 4 0.000000 0.000000 0.000000 0.015901 0.000000 0.000000
# 5 0.000000 0.000000 0.000000 0.000000 0.029860 0.000000
# 6 0.000000 0.000000 0.000000 0.000000 0.000000 -0.092037
#
#
# Mechanical properties :
#
#
# Convention : Reuss Voigt Hill
#
# Bulk Modulus (GPa) = 54.53971 58.03137 56.28554
# Shear Modulus (GPa) = 537.57930 32.54430 285.06180
#
# Velocity S-wave (km/s) = 16.48585 4.05628 12.00493
# Velocity P-wave (km/s) = 19.74718 7.16077 14.85308
#
# Compressibility (1/GPa) = 0.01833526
#
# Stress axis : x y z
#
# Youngs Moduli (GPa) = 128.31509 70.88096 83.34494
#
# Poissons Ratio (x) = 0.17562 0.16992
# Poissons Ratio (y) = 0.31792 0.27219
# Poissons Ratio (z) = 0.26161 0.23149
#
# Static dielectric constant tensor:
#      x y z
#    x 1.653520 0.000000 0.000000 
#    y 0.000000 1.686470 0.000000 
#    z 0.000000 0.000000 2.615570 
# 
# From -- ./inp_files/831.got.cif
#   From: 2010.05.17/outbox.cif.g08.bks.cpg/sg50_1_cif.got.tgz:831.got - 2010.06.03 11:33:33.
