data_PCOD9398163
_publ_section_title
;
Structure prediction by ZEFSAII (Michael W. Deem and Ramdas Pophale) SiO2 
 PCOD9398163
Probable space group: P B A N
;
_chemical_formula_sum "Si O2"
_cell_formula_units_Z 40
_cell_length_a 24.452873
_cell_length_b 9.119746
_cell_length_c 8.491647
_cell_angle_alpha 90.000000
_cell_angle_beta 90.000000
_cell_angle_gamma 90.000000
_cell_volume 1893.671169
_symmetry_space_group_name_H-M "P B A N"
_symmetry_group_IT_number 50
_space_group.IT_coordinate_system_code '2'
_symmetry_cell_setting 'orthorhombic'
loop_
_space_group_symop_operation_xyz
x,y,z
1/2-x,1/2-y,z
x,1/2-y,-z
1/2-x,y,-z
-x,-y,-z
1/2+x,1/2+y,-z
-x,1/2+y,z
1/2+x,-y,z
loop_
_atom_site_type_symbol
_atom_site_label
_atom_site_fract_x
_atom_site_fract_y
_atom_site_fract_z
Si Si1 0.584568 0.621802 0.801912
Si Si2 0.198423 0.918206 0.705552
Si Si3 0.395742 0.051661 0.148846
Si Si4 0.525582 0.119156 0.614690
Si Si5 0.820393 0.069319 0.655286
O O1 0.613089 0.780246 0.801243
O O2 0.526513 0.658453 0.722408
O O3 0.625088 0.504509 0.722348
O O4 0.576284 0.563086 0.979078
O O5 0.180511 0.969213 0.530453
O O6 0.185521 0.744263 0.686941
O O7 0.260693 0.972645 0.722700
O O8 0.162879 0.975751 0.849396
O O9 0.430329 0.956957 0.273337
O O10 0.545531 0.250000 0.500000
O O11 0.500000 0.000000 0.500000
#
# Coordination Sequence:
#
# PCOD9398163 Si02
#       5
#     8   8   8   8   8
#     4  11  25  43  61  92 133 166 208 262 327 386
#     4   9  20  39  64  95 124 165 216 259 315 373
#     4  11  25  42  63  92 129 169 209 263 323 388
#     4  12  25  44  67  92 121 166 216 265 317 383
#     4   9  20  39  65  93 126 165 213 266 308 376
#
# _framework density 21.122993999999998
#
# number of rings (size 3 to 8) (size 9 to 14) (size 15 to 20)
#    0.000    1.600    2.000    3.000    5.600    2.400 
#    0.000    6.000    0.000    0.000    0.000    0.000 
#    0.000    0.000    0.000    0.000    0.000    0.000 
#
# Total GULP energy -223007.623235 kJ/mol
# GULP energy per Si atom -5575.190581 kJ/mol
# Density = 2.107492 g / cm^3
# Si number density = 21.122994 Si / 1000 Ang^3
#
#
#
# Elastic Constant Matrix: (Units=GPa)
#
#
# Indices 1 2 3 4 5 6 
#
# 1 74.9701 12.5063 23.9083 0.0000 0.0000 0.0000
# 2 12.5063 51.6921 27.8976 0.0000 0.0000 0.0000
# 3 23.9083 27.8976 68.3241 0.0000 0.0000 0.0000
# 4 0.0000 0.0000 0.0000 35.2219 0.0000 0.0000
# 5 0.0000 0.0000 0.0000 0.0000 10.6407 0.0000
# 6 0.0000 0.0000 0.0000 0.0000 0.0000 23.8450
#
#
#
# Elastic Compliance Matrix: (Units=1/GPa)
#
#
# Indices 1 2 3 4 5 6 
#
# 1 0.015056 -0.001025 -0.004850 0.000000 0.000000 0.000000
# 2 -0.001025 0.024883 -0.009801 0.000000 0.000000 0.000000
# 3 -0.004850 -0.009801 0.020335 0.000000 0.000000 0.000000
# 4 0.000000 0.000000 0.000000 0.028391 0.000000 0.000000
# 5 0.000000 0.000000 0.000000 0.000000 0.093979 0.000000
# 6 0.000000 0.000000 0.000000 0.000000 0.000000 0.041937
#
#
# Mechanical properties :
#
#
# Convention : Reuss Voigt Hill
#
# Bulk Modulus (GPa) = 34.57627 35.95677 35.26652
# Shear Modulus (GPa) = 18.82702 22.65313 20.74007
#
# Velocity S-wave (km/s) = 2.98871 3.27836 3.13688
# Velocity P-wave (km/s) = 5.32113 5.60266 5.46371
#
# Compressibility (1/GPa) = 0.02892157
#
# Stress axis : x y z
#
# Youngs Moduli (GPa) = 66.41717 40.18809 49.17571
#
# Poissons Ratio (x) = 0.04120 0.23850
# Poissons Ratio (y) = 0.06809 0.48199
# Poissons Ratio (z) = 0.32212 0.39390
#
# Static dielectric constant tensor:
#      x y z
#    x 1.604000 0.000000 0.000000 
#    y 0.000000 1.752120 0.000000 
#    z 0.000000 0.000000 1.679610 
# 
# From -- ./inp_files/9484.got.cif
#   From: 2010.05.17/outbox.cif.g08.bks.cpg/sg50_5_cif.got.tgz:9484.got - 2010.06.03 11:33:33.
