data_PCOD9398362
_publ_section_title
;
Structure prediction by ZEFSAII (Michael W. Deem and Ramdas Pophale) SiO2 
 PCOD9398362
Probable space group: P M M A
;
_chemical_formula_sum "Si O2"
_cell_formula_units_Z 48
_cell_length_a 8.924277
_cell_length_b 21.449752
_cell_length_c 20.217073
_cell_angle_alpha 90.000000
_cell_angle_beta 90.000000
_cell_angle_gamma 90.000000
_cell_volume 3870.023448
_symmetry_space_group_name_H-M "P M M A"
_symmetry_group_IT_number 51
_symmetry_cell_setting 'orthorhombic'
loop_
_space_group_symop_operation_xyz
x,y,z
1/2-x,-y,z
1/2+x,-y,-z
-x,y,-z
-x,-y,-z
1/2+x,y,-z
1/2-x,y,z
x,-y,z
loop_
_atom_site_type_symbol
_atom_site_label
_atom_site_fract_x
_atom_site_fract_y
_atom_site_fract_z
Si Si1 0.429117 0.124372 0.426628
Si Si2 0.930289 0.500000 0.427578
Si Si3 0.430213 0.426969 0.794923
Si Si4 0.929784 0.000000 0.425441
Si Si5 0.923192 0.424173 0.932200
Si Si6 0.931102 0.376214 0.345741
Si Si7 0.928656 0.264114 0.573313
O O1 0.500000 0.127884 0.500000
O O2 0.250000 0.114254 0.430749
O O3 0.507601 0.064156 0.394419
O O4 0.456754 0.193871 0.399602
O O5 0.750000 0.500000 0.432836
O O6 0.973039 0.437972 0.387377
O O7 0.000000 0.500000 0.500000
O O8 0.250000 0.425379 0.799405
O O9 0.472220 0.500000 0.784938
O O10 0.497998 0.404672 0.864188
O O11 0.475797 0.388446 0.730246
O O12 0.000000 0.000000 0.500000
O O13 0.750000 0.000000 0.428785
O O14 0.750000 0.406503 0.931749
O O15 0.931720 0.500000 0.932720
O O16 0.000000 0.402485 0.000000
O O17 0.750000 0.370892 0.347979
O O18 0.003865 0.316395 0.379381
O O19 0.750000 0.271544 0.566791
O O20 0.000000 0.269913 0.500000
#
# Coordination Sequence:
#
# PCOD9398362 Si02
#       7
#     8   4   8   4   8   8   8
#     4   9  16  26  38  52  71  92 113 140 176 217
#     4  10  20  32  42  54  67  86 117 154 197 238
#     4   9  16  28  43  56  72  94 117 146 184 225
#     4  10  16  22  36  56  74  90 110 136 169 212
#     4   9  16  25  38  57  77  95 114 138 170 213
#     4  10  19  31  44  55  71  93 120 154 194 234
#     4  10  20  31  42  55  71  93 122 155 191 229
#
# _framework density 12.403025
#
# number of rings (size 3 to 8) (size 9 to 14) (size 15 to 20)
#    0.000    2.500    0.833    3.750    0.000    6.667 
#    0.000    0.000    0.000    0.000    0.000    0.000 
#    0.000    0.000    0.000    0.000    0.000    0.000 
#
# Total GULP energy -267311.497529 kJ/mol
# GULP energy per Si atom -5568.989532 kJ/mol
# Density = 1.237480 g / cm^3
# Si number density = 12.403025 Si / 1000 Ang^3
#
#
#
# Elastic Constant Matrix: (Units=GPa)
#
#
# Indices 1 2 3 4 5 6 
#
# 1 52.8579 42.4905 36.4246 0.0000 0.0000 0.0000
# 2 42.4905 96.2874 44.0918 0.0000 0.0000 0.0000
# 3 36.4246 44.0918 92.0028 0.0000 0.0000 0.0000
# 4 0.0000 0.0000 0.0000 1.2824 0.0000 0.0000
# 5 0.0000 0.0000 0.0000 0.0000 18.8775 0.0000
# 6 0.0000 0.0000 0.0000 0.0000 0.0000 17.0551
#
#
#
# Elastic Compliance Matrix: (Units=1/GPa)
#
#
# Indices 1 2 3 4 5 6 
#
# 1 0.033224 -0.011067 -0.007850 0.000000 0.000000 0.000000
# 2 -0.011067 0.016992 -0.003762 0.000000 0.000000 0.000000
# 3 -0.007850 -0.003762 0.015780 0.000000 0.000000 0.000000
# 4 0.000000 0.000000 0.000000 0.779785 0.000000 0.000000
# 5 0.000000 0.000000 0.000000 0.000000 0.052973 0.000000
# 6 0.000000 0.000000 0.000000 0.000000 0.000000 0.058634
#
#
# Mechanical properties :
#
#
# Convention : Reuss Voigt Hill
#
# Bulk Modulus (GPa) = 48.45246 54.12909 51.29077
# Shear Modulus (GPa) = 4.95233 15.31906 10.13570
#
# Velocity S-wave (km/s) = 2.00038 3.51822 2.86176
# Velocity P-wave (km/s) = 6.66972 7.76147 7.23622
#
# Compressibility (1/GPa) = 0.02063879
#
# Stress axis : x y z
#
# Youngs Moduli (GPa) = 30.09838 58.85181 63.37154
#
# Poissons Ratio (x) = 0.65130 0.49747
# Poissons Ratio (y) = 0.33309 0.23839
# Poissons Ratio (z) = 0.23627 0.22139
#
# Static dielectric constant tensor:
#      x y z
#    x 1.418630 0.000000 0.000000 
#    y 0.000000 1.425080 0.000000 
#    z 0.000000 0.000000 1.381540 
# 
# From -- ./inp_files/28144.got.cif
#   From: 2010.05.17/outbox.cif.g08.bks.cpg/sg51_15_cif.got.tgz:28144.got - 2010.06.03 11:52:47.
