data_PCOD9398038
_publ_section_title
;
Structure prediction by ZEFSAII (Michael W. Deem and Ramdas Pophale) SiO2 
 PCOD9398038
Probable space group: P B A N
;
_chemical_formula_sum "Si O2"
_cell_formula_units_Z 26
_cell_length_a 9.656969
_cell_length_b 13.464857
_cell_length_c 8.350788
_cell_angle_alpha 90.000000
_cell_angle_beta 90.000000
_cell_angle_gamma 90.000000
_cell_volume 1085.850514
_symmetry_space_group_name_H-M "P B A N"
_symmetry_group_IT_number 50
_space_group.IT_coordinate_system_code '2'
_symmetry_cell_setting 'orthorhombic'
loop_
_space_group_symop_operation_xyz
x,y,z
1/2-x,1/2-y,z
x,1/2-y,-z
1/2-x,y,-z
-x,-y,-z
1/2+x,1/2+y,-z
-x,1/2+y,z
1/2+x,-y,z
loop_
_atom_site_type_symbol
_atom_site_label
_atom_site_fract_x
_atom_site_fract_y
_atom_site_fract_z
Si Si1 0.831614 0.038003 0.661112
Si Si2 0.250000 0.750000 0.234650
Si Si3 0.511885 0.250000 0.000000
Si Si4 0.120776 0.101723 0.756245
Si Si5 0.750000 0.750000 0.500000
O O1 0.750000 0.008326 0.500000
O O2 0.805807 0.155173 0.675148
O O3 0.995146 0.032594 0.690793
O O4 0.752748 0.967901 0.786589
O O5 0.378964 0.790583 0.130670
O O6 0.426394 0.334931 0.910284
O O7 0.158431 0.182376 0.618669
#
# Coordination Sequence:
#
# PCOD9398038 Si02
#       5
#     8   4   4   8   2
#     4  11  23  41  73 111 142 191 237 302 347 429
#     4   9  21  40  70 105 148 187 244 283 366 413
#     4   9  22  45  66 102 142 198 228 302 352 434
#     4  11  26  45  74 103 150 181 251 285 372 414
#     4  12  28  46  70 106 144 198 238 304 348 440
#
# _framework density 23.944365000000001
#
# number of rings (size 3 to 8) (size 9 to 14) (size 15 to 20)
#    0.000    1.538    1.538    1.385    8.615    1.846 
#    0.000    9.231    0.000    1.846    0.000    0.000 
#    0.000    0.000    0.000    0.000    0.000    0.000 
#
# Total GULP energy -145221.961830 kJ/mol
# GULP energy per Si atom -5585.460070 kJ/mol
# Density = 2.388987 g / cm^3
# Si number density = 23.944365 Si / 1000 Ang^3
#
#
#
# Elastic Constant Matrix: (Units=GPa)
#
#
# Indices 1 2 3 4 5 6 
#
# 1 182.2517 58.1591 42.6188 0.0000 0.0000 0.0000
# 2 58.1591 85.8889 25.5540 0.0000 0.0000 0.0000
# 3 42.6188 25.5540 77.6698 0.0000 0.0000 0.0000
# 4 0.0000 0.0000 0.0000 12.6649 0.0000 0.0000
# 5 0.0000 0.0000 0.0000 0.0000 -56.3443 0.0000
# 6 0.0000 0.0000 0.0000 0.0000 0.0000 40.8841
#
#
#
# Elastic Compliance Matrix: (Units=1/GPa)
#
#
# Indices 1 2 3 4 5 6 
#
# 1 0.007478 -0.004260 -0.002702 0.000000 0.000000 0.000000
# 2 -0.004260 0.015333 -0.002707 0.000000 0.000000 0.000000
# 3 -0.002702 -0.002707 0.015248 0.000000 0.000000 0.000000
# 4 0.000000 0.000000 0.000000 0.078958 0.000000 0.000000
# 5 0.000000 0.000000 0.000000 0.000000 -0.017748 0.000000
# 6 0.000000 0.000000 0.000000 0.000000 0.000000 0.024459
#
#
# Mechanical properties :
#
#
# Convention : Reuss Voigt Hill
#
# Bulk Modulus (GPa) = 53.41455 66.49713 59.95584
# Shear Modulus (GPa) = 33.48795 14.07283 23.78039
#
# Velocity S-wave (km/s) = 3.74381 2.42694 3.15485
# Velocity P-wave (km/s) = 6.40658 5.97371 6.19393
#
# Compressibility (1/GPa) = 0.01872149
#
# Stress axis : x y z
#
# Youngs Moduli (GPa) = 133.72335 65.21896 65.58124
#
# Poissons Ratio (x) = 0.27783 0.17719
# Poissons Ratio (y) = 0.56965 0.17754
# Poissons Ratio (z) = 0.36130 0.17656
#
# Static dielectric constant tensor:
#      x y z
#    x 2.003620 0.000000 0.000000 
#    y 0.000000 1.847170 0.000000 
#    z 0.000000 0.000000 2.017700 
# 
# From -- ./inp_files/8865.got.cif
#   From: 2010.05.17/outbox.cif.g08.bks.cpg/sg50_5_cif.got.tgz:8865.got - 2010.06.03 11:33:33.
