data_PCOD9398674
_publ_section_title
;
Structure prediction by ZEFSAII (Michael W. Deem and Ramdas Pophale) SiO2 
 PCOD9398674
Probable space group: P M M A
;
_chemical_formula_sum "Si O2"
_cell_formula_units_Z 60
_cell_length_a 14.159692
_cell_length_b 20.203878
_cell_length_c 12.127247
_cell_angle_alpha 90.000000
_cell_angle_beta 90.000000
_cell_angle_gamma 90.000000
_cell_volume 3469.371186
_symmetry_space_group_name_H-M "P M M A"
_symmetry_group_IT_number 51
_symmetry_cell_setting 'orthorhombic'
loop_
_space_group_symop_operation_xyz
x,y,z
1/2-x,-y,z
1/2+x,-y,-z
-x,y,-z
-x,-y,-z
1/2+x,y,-z
1/2-x,y,z
x,-y,z
loop_
_atom_site_type_symbol
_atom_site_label
_atom_site_fract_x
_atom_site_fract_y
_atom_site_fract_z
Si Si1 0.500000 0.372799 0.500000
Si Si2 0.637965 0.886901 0.552018
Si Si3 0.138483 0.424727 0.085030
Si Si4 0.522294 0.425923 0.261256
Si Si5 0.863082 0.328991 0.114626
Si Si6 0.455461 0.074791 0.680112
Si Si7 0.139364 0.256997 0.532310
Si Si8 0.863846 0.800677 0.226472
O O1 0.506892 0.414837 0.389783
O O2 0.586798 0.321832 0.506179
O O3 0.750000 0.898601 0.570154
O O4 0.606505 0.915360 0.432429
O O5 0.563856 0.914312 0.640849
O O6 0.620477 0.807912 0.541497
O O7 0.250000 0.418858 0.108439
O O8 0.122736 0.500000 0.040562
O O9 0.074746 0.418370 0.192928
O O10 0.111936 0.368421 0.996816
O O11 0.558535 0.500000 0.240354
O O12 0.592535 0.371727 0.212605
O O13 0.750000 0.331010 0.123645
O O14 0.890001 0.252152 0.131710
O O15 0.419378 0.130492 0.764672
O O16 0.443134 0.000000 0.719518
O O17 0.250000 0.268723 0.531502
O O18 0.113963 0.235913 0.657153
O O19 0.750000 0.812466 0.224104
#
# Coordination Sequence:
#
# PCOD9398674 Si02
#       8
#     4   8   8   8   8   8   8   8
#     4  12  21  32  50  68 105 148 174 204 247 314
#     4   9  17  27  42  63  91 131 182 227 258 301
#     4   9  19  37  58  79 104 133 169 219 277 322
#     4  11  23  35  51  77 107 138 172 212 262 319
#     4  10  19  34  57  77  96 129 173 225 274 310
#     4  10  18  26  41  65  98 136 169 209 266 320
#     4   9  17  30  46  65  90 132 179 217 257 297
#     4   9  17  30  47  69  95 126 169 218 264 306
#
# _framework density 17.2942
#
# number of rings (size 3 to 8) (size 9 to 14) (size 15 to 20)
#    0.000    2.267    1.333    4.600    0.000    4.267 
#    0.000    0.000    0.000    2.400    0.000    0.000 
#    0.000    2.133    0.000    0.533    0.000    2.667 
#
# Total GULP energy -334532.960828 kJ/mol
# GULP energy per Si atom -5575.549347 kJ/mol
# Density = 1.725484 g / cm^3
# Si number density = 17.294200 Si / 1000 Ang^3
#
#
#
# Elastic Constant Matrix: (Units=GPa)
#
#
# Indices 1 2 3 4 5 6 
#
# 1 59.3813 39.9424 12.6887 0.0000 0.0000 0.0000
# 2 39.9424 122.3365 30.6141 0.0000 0.0000 0.0000
# 3 12.6887 30.6141 51.2820 0.0000 0.0000 0.0000
# 4 0.0000 0.0000 0.0000 -22.9090 0.0000 0.0000
# 5 0.0000 0.0000 0.0000 0.0000 12.5332 0.0000
# 6 0.0000 0.0000 0.0000 0.0000 0.0000 -24.5495
#
#
#
# Elastic Compliance Matrix: (Units=1/GPa)
#
#
# Indices 1 2 3 4 5 6 
#
# 1 0.021657 -0.006736 -0.001337 0.000000 0.000000 0.000000
# 2 -0.006736 0.011705 -0.005321 0.000000 0.000000 0.000000
# 3 -0.001337 -0.005321 0.023007 0.000000 0.000000 0.000000
# 4 0.000000 0.000000 0.000000 -0.043651 0.000000 0.000000
# 5 0.000000 0.000000 0.000000 0.000000 0.079788 0.000000
# 6 0.000000 0.000000 0.000000 0.000000 0.000000 -0.040734
#
#
# Mechanical properties :
#
#
# Convention : Reuss Voigt Hill
#
# Bulk Modulus (GPa) = 33.80577 44.38780 39.09679
# Shear Modulus (GPa) = 56.54734 2.99860 29.77297
#
# Velocity S-wave (km/s) = 5.72436 1.31820 4.15367
# Velocity P-wave (km/s) = 7.95493 5.29517 6.75721
#
# Compressibility (1/GPa) = 0.02958074
#
# Stress axis : x y z
#
# Youngs Moduli (GPa) = 46.17392 85.43276 43.46445
#
# Poissons Ratio (x) = 0.57551 0.05812
# Poissons Ratio (y) = 0.31105 0.23127
# Poissons Ratio (z) = 0.06174 0.45458
#
# Static dielectric constant tensor:
#      x y z
#    x 1.614870 0.000000 0.000000 
#    y 0.000000 1.606460 0.000000 
#    z 0.000000 0.000000 1.582730 
# 
# From -- ./inp_files/16908.got.cif
#   From: 2010.05.17/outbox.cif.g08.bks.cpg/sg51_9_cif.got.tgz:16908.got - 2010.06.03 11:52:47.
