data_PCOD9398471
_publ_section_title
;
Structure prediction by ZEFSAII (Michael W. Deem and Ramdas Pophale) SiO2 
 PCOD9398471
Probable space group: P M M A
;
_chemical_formula_sum "Si O2"
_cell_formula_units_Z 44
_cell_length_a 8.493170
_cell_length_b 31.122925
_cell_length_c 7.759379
_cell_angle_alpha 90.000000
_cell_angle_beta 90.000000
_cell_angle_gamma 90.000000
_cell_volume 2051.054443
_symmetry_space_group_name_H-M "P M M A"
_symmetry_group_IT_number 51
_symmetry_cell_setting 'orthorhombic'
loop_
_space_group_symop_operation_xyz
x,y,z
1/2-x,-y,z
1/2+x,-y,-z
-x,y,-z
-x,-y,-z
1/2+x,y,-z
1/2-x,y,z
x,-y,z
loop_
_atom_site_type_symbol
_atom_site_label
_atom_site_fract_x
_atom_site_fract_y
_atom_site_fract_z
Si Si1 0.940753 0.500000 0.301446
Si Si2 0.940459 0.592222 0.301838
Si Si3 0.936599 0.138295 0.307315
Si Si4 0.561102 0.046090 0.806160
Si Si5 0.939208 0.684925 0.301456
Si Si6 0.436813 0.226150 0.301625
O O1 0.750000 0.500000 0.302030
O O2 0.993238 0.546141 0.225616
O O3 0.000000 0.500000 0.500000
O O4 0.750000 0.592419 0.303831
O O5 0.989629 0.638476 0.225816
O O6 0.000000 0.592026 0.500000
O O7 0.750000 0.140164 0.300005
O O8 0.000000 0.141615 0.500000
O O9 0.992274 0.091140 0.254101
O O10 0.002870 0.181577 0.219248
O O11 0.750000 0.048718 0.799541
O O12 0.514708 0.000000 0.721385
O O13 0.500000 0.043115 0.000000
O O14 0.750000 0.687657 0.302668
O O15 0.000000 0.683866 0.500000
O O16 0.005758 0.728841 0.222285
O O17 0.500000 0.227248 0.500000
O O18 0.250000 0.225250 0.307285
#
# Coordination Sequence:
#
# PCOD9398471 Si02
#       6
#     4   8   8   8   8   8
#     4   8  12  18  24  32  46  68 100 142 191 238
#     4   8  13  18  25  35  50  73 105 146 192 242
#     4  11  21  34  52  74 100 128 159 197 239 281
#     4  10  21  38  58  79 103 131 162 194 229 272
#     4   9  14  20  29  43  62  87 119 156 201 253
#     4  10  17  26  39  56  79 106 136 173 218 267
#
# _framework density 21.452380999999999
#
# number of rings (size 3 to 8) (size 9 to 14) (size 15 to 20)
#    0.000    2.545    0.000    6.545    0.000    2.182 
#    0.000    0.000    0.000    0.000    0.000    0.000 
#    0.000    0.000    0.000    0.000    0.000    0.000 
#
# Total GULP energy -244976.142286 kJ/mol
# GULP energy per Si atom -5567.639597 kJ/mol
# Density = 2.140355 g / cm^3
# Si number density = 21.452381 Si / 1000 Ang^3
#
#
#
# Elastic Constant Matrix: (Units=GPa)
#
#
# Indices 1 2 3 4 5 6 
#
# 1 109.3680 76.1149 -2.7511 0.0000 0.0000 0.0000
# 2 76.1149 321.6548 22.4539 0.0000 0.0000 0.0000
# 3 -2.7511 22.4539 22.6494 0.0000 0.0000 0.0000
# 4 0.0000 0.0000 0.0000 -414.8819 0.0000 0.0000
# 5 0.0000 0.0000 0.0000 0.0000 6.3776 0.0000
# 6 0.0000 0.0000 0.0000 0.0000 0.0000 40.6806
#
#
#
# Elastic Compliance Matrix: (Units=1/GPa)
#
#
# Indices 1 2 3 4 5 6 
#
# 1 0.011329 -0.002983 0.004334 0.000000 0.000000 0.000000
# 2 -0.002983 0.004126 -0.004452 0.000000 0.000000 0.000000
# 3 0.004334 -0.004452 0.049092 0.000000 0.000000 0.000000
# 4 0.000000 0.000000 0.000000 -0.002410 0.000000 0.000000
# 5 0.000000 0.000000 0.000000 0.000000 0.156800 0.000000
# 6 0.000000 0.000000 0.000000 0.000000 0.000000 0.024582
#
#
# Mechanical properties :
#
#
# Convention : Reuss Voigt Hill
#
# Bulk Modulus (GPa) = 17.14042 71.70087 44.42064
# Shear Modulus (GPa) = 18.57569 -49.70779 -15.56605
#
# Velocity S-wave (km/s) = 2.94582 -4.81887 -2.69664
# Velocity P-wave (km/s) = 4.42468 1.59179 3.32502
#
# Compressibility (1/GPa) = 0.05834163
#
# Stress axis : x y z
#
# Youngs Moduli (GPa) = 88.27166 242.38403 20.37007
#
# Poissons Ratio (x) = 0.72310 -0.08827
# Poissons Ratio (y) = 0.26334 0.09070
# Poissons Ratio (z) = -0.38253 1.07920
#
# Static dielectric constant tensor:
#      x y z
#    x 1.680780 0.000000 0.000000 
#    y 0.000000 1.974940 0.000000 
#    z 0.000000 0.000000 1.835860 
# 
# From -- ./inp_files/5894.got.cif
#   From: 2010.05.17/outbox.cif.g08.bks.cpg/sg51_3_cif.got.tgz:5894.got - 2010.06.03 11:52:47.
