data_PCOD9398417
_publ_section_title
;
Structure prediction by ZEFSAII (Michael W. Deem and Ramdas Pophale) SiO2 
 PCOD9398417
Probable space group: P M M A
;
_chemical_formula_sum "Si O2"
_cell_formula_units_Z 64
_cell_length_a 28.895114
_cell_length_b 19.383309
_cell_length_c 6.449050
_cell_angle_alpha 90.000000
_cell_angle_beta 90.000000
_cell_angle_gamma 90.000000
_cell_volume 3612.002776
_symmetry_space_group_name_H-M "P M M A"
_symmetry_group_IT_number 51
_symmetry_cell_setting 'orthorhombic'
loop_
_space_group_symop_operation_xyz
x,y,z
1/2-x,-y,z
1/2+x,-y,-z
-x,y,-z
-x,-y,-z
1/2+x,y,-z
1/2-x,y,z
x,-y,z
loop_
_atom_site_type_symbol
_atom_site_label
_atom_site_fract_x
_atom_site_fract_y
_atom_site_fract_z
Si Si1 0.046835 0.193911 0.879180
Si Si2 0.575488 0.301843 0.408564
Si Si3 0.606787 0.816488 0.726087
Si Si4 0.351575 0.650860 0.933804
Si Si5 0.444995 0.920761 0.543025
Si Si6 0.697185 0.748027 0.731735
Si Si7 0.802287 0.385059 0.451107
Si Si8 0.104634 0.577850 0.318408
O O1 0.038249 0.261371 0.733478
O O2 0.061660 0.130153 0.736180
O O3 0.086647 0.202479 0.049858
O O4 0.000000 0.177936 0.000000
O O5 0.590276 0.244665 0.574479
O O6 0.615586 0.316419 0.241038
O O7 0.572063 0.371599 0.543948
O O8 0.583502 0.886413 0.644748
O O9 0.662021 0.811484 0.710636
O O10 0.314503 0.610401 0.791960
O O11 0.323489 0.703713 0.077382
O O12 0.384046 0.607661 0.090378
O O13 0.500000 0.918181 0.500000
O O14 0.432080 0.000000 0.579439
O O15 0.750000 0.767691 0.766742
O O16 0.696033 0.694327 0.537695
O O17 0.750000 0.409521 0.494076
O O18 0.844617 0.420538 0.571665
O O19 0.087264 0.500000 0.310823
#
# Coordination Sequence:
#
# PCOD9398417 Si02
#       8
#     8   8   8   8   8   8   8   8
#     4  11  21  34  59  88 112 145 179 223 277 330
#     4  10  19  34  54  74 110 139 180 233 278 331
#     4  11  19  36  55  83 114 144 186 227 268 325
#     4  10  16  31  48  73  98 138 181 234 276 330
#     4  10  22  37  56  87 125 154 173 205 265 337
#     4  10  18  30  51  79 109 142 185 233 278 318
#     4   9  18  31  46  69 103 139 179 232 284 334
#     4  10  20  32  47  69 101 145 185 227 283 339
#
# _framework density 17.718703000000001
#
# number of rings (size 3 to 8) (size 9 to 14) (size 15 to 20)
#    0.000    1.875    6.250    0.375    0.000    3.500 
#    0.000    0.000    0.000    0.750    0.000    3.500 
#    0.000    0.000    0.000    0.000    0.000    0.000 
#
# Total GULP energy -356382.176919 kJ/mol
# GULP energy per Si atom -5568.471514 kJ/mol
# Density = 1.767837 g / cm^3
# Si number density = 17.718703 Si / 1000 Ang^3
#
#
#
# Elastic Constant Matrix: (Units=GPa)
#
#
# Indices 1 2 3 4 5 6 
#
# 1 30.7634 24.4523 7.2267 0.0000 0.0000 0.0000
# 2 24.4523 90.1976 36.0675 0.0000 0.0000 0.0000
# 3 7.2267 36.0675 102.8362 0.0000 0.0000 0.0000
# 4 0.0000 0.0000 0.0000 3.3390 0.0000 0.0000
# 5 0.0000 0.0000 0.0000 0.0000 20.6716 0.0000
# 6 0.0000 0.0000 0.0000 0.0000 0.0000 14.4065
#
#
#
# Elastic Compliance Matrix: (Units=1/GPa)
#
#
# Indices 1 2 3 4 5 6 
#
# 1 0.041561 -0.011747 0.001199 0.000000 0.000000 0.000000
# 2 -0.011747 0.016215 -0.004862 0.000000 0.000000 0.000000
# 3 0.001199 -0.004862 0.011345 0.000000 0.000000 0.000000
# 4 0.000000 0.000000 0.000000 0.299489 0.000000 0.000000
# 5 0.000000 0.000000 0.000000 0.000000 0.048376 0.000000
# 6 0.000000 0.000000 0.000000 0.000000 0.000000 0.069413
#
#
# Mechanical properties :
#
#
# Convention : Reuss Voigt Hill
#
# Bulk Modulus (GPa) = 26.10733 39.92113 33.01423
# Shear Modulus (GPa) = 9.43422 18.08680 13.76051
#
# Velocity S-wave (km/s) = 2.30998 3.19842 2.78979
# Velocity P-wave (km/s) = 4.67771 6.01825 5.38982
#
# Compressibility (1/GPa) = 0.03830341
#
# Stress axis : x y z
#
# Youngs Moduli (GPa) = 24.06082 61.67010 88.14417
#
# Poissons Ratio (x) = 0.72442 -0.10570
# Poissons Ratio (y) = 0.28264 0.42853
# Poissons Ratio (z) = -0.02885 0.29982
#
# Static dielectric constant tensor:
#      x y z
#    x 1.637800 0.000000 0.000000 
#    y 0.000000 1.615480 0.000000 
#    z 0.000000 0.000000 1.633360 
# 
# From -- ./inp_files/4114.got.cif
#   From: 2010.05.17/outbox.cif.g08.bks.cpg/sg51_3_cif.got.tgz:4114.got - 2010.06.03 11:52:47.
