data_PCOD9398373
_publ_section_title
;
Structure prediction by ZEFSAII (Michael W. Deem and Ramdas Pophale) SiO2 
 PCOD9398373
Probable space group: P M M A
;
_chemical_formula_sum "Si O2"
_cell_formula_units_Z 44
_cell_length_a 8.649150
_cell_length_b 29.469528
_cell_length_c 9.871856
_cell_angle_alpha 90.000000
_cell_angle_beta 90.000000
_cell_angle_gamma 90.000000
_cell_volume 2516.201522
_symmetry_space_group_name_H-M "P M M A"
_symmetry_group_IT_number 51
_symmetry_cell_setting 'orthorhombic'
loop_
_space_group_symop_operation_xyz
x,y,z
1/2-x,-y,z
1/2+x,-y,-z
-x,y,-z
-x,-y,-z
1/2+x,y,-z
1/2-x,y,z
x,-y,z
loop_
_atom_site_type_symbol
_atom_site_label
_atom_site_fract_x
_atom_site_fract_y
_atom_site_fract_z
Si Si1 0.066161 0.500000 0.154389
Si Si2 0.434794 0.770618 0.348511
Si Si3 0.063546 0.948903 0.849725
Si Si4 0.064327 0.693496 0.846844
Si Si5 0.436294 0.131567 0.650806
Si Si6 0.434708 0.592439 0.846907
O O1 0.250000 0.500000 0.148099
O O2 0.006450 0.452850 0.217816
O O3 0.000000 0.500000 0.000000
O O4 0.500000 0.762913 0.500000
O O5 0.250000 0.771872 0.353720
O O6 0.492516 0.731660 0.248187
O O7 0.498598 0.819761 0.303191
O O8 0.250000 0.948216 0.854836
O O9 0.014322 0.909472 0.747829
O O10 0.015669 0.000000 0.807765
O O11 0.000000 0.940907 0.000000
O O12 0.250000 0.697860 0.851200
O O13 0.028045 0.642575 0.791988
O O14 0.000000 0.697268 0.000000
O O15 0.500000 0.123913 0.500000
O O16 0.250000 0.133784 0.647020
O O17 0.250000 0.587312 0.851599
O O18 0.500000 0.593900 0.000000
#
# Coordination Sequence:
#
# PCOD9398373 Si02
#       6
#     4   8   8   8   8   8
#     4  10  16  22  36  58  89 126 163 200 243 296
#     4  11  22  37  56  76 102 135 172 213 257 307
#     4   9  19  35  54  77 105 136 169 206 248 296
#     4  10  20  34  52  76 104 134 170 212 258 306
#     4  10  20  35  54  76 103 132 168 211 252 299
#     4   9  16  26  41  62  92 126 161 202 247 296
#
# _framework density 17.486675999999999
#
# number of rings (size 3 to 8) (size 9 to 14) (size 15 to 20)
#    0.000    2.182    0.000    6.273    0.000    4.727 
#    0.000    1.818    0.000    0.000    0.000    0.636 
#    0.000    0.000    0.000    0.000    0.000    0.000 
#
# Total GULP energy -245362.174530 kJ/mol
# GULP energy per Si atom -5576.413057 kJ/mol
# Density = 1.744688 g / cm^3
# Si number density = 17.486676 Si / 1000 Ang^3
#
#
#
# Elastic Constant Matrix: (Units=GPa)
#
#
# Indices 1 2 3 4 5 6 
#
# 1 95.9939 72.5371 30.9073 0.0000 0.0000 0.0000
# 2 72.5371 213.6831 86.5431 0.0000 0.0000 0.0000
# 3 30.9073 86.5431 47.9402 0.0000 0.0000 0.0000
# 4 0.0000 0.0000 0.0000 -23.7834 0.0000 0.0000
# 5 0.0000 0.0000 0.0000 0.0000 25.3436 0.0000
# 6 0.0000 0.0000 0.0000 0.0000 0.0000 6.8741
#
#
#
# Elastic Compliance Matrix: (Units=1/GPa)
#
#
# Indices 1 2 3 4 5 6 
#
# 1 0.014047 -0.004093 -0.001667 0.000000 0.000000 0.000000
# 2 -0.004093 0.018598 -0.030936 0.000000 0.000000 0.000000
# 3 -0.001667 -0.030936 0.077780 0.000000 0.000000 0.000000
# 4 0.000000 0.000000 0.000000 -0.042046 0.000000 0.000000
# 5 0.000000 0.000000 0.000000 0.000000 0.039458 0.000000
# 6 0.000000 0.000000 0.000000 0.000000 0.000000 0.145473
#
#
# Mechanical properties :
#
#
# Convention : Reuss Voigt Hill
#
# Bulk Modulus (GPa) = 27.00220 81.95470 54.47845
# Shear Modulus (GPa) = 14.74728 12.86218 13.80473
#
# Velocity S-wave (km/s) = 2.90719 2.71503 2.81275
# Velocity P-wave (km/s) = 5.17147 7.53639 6.46302
#
# Compressibility (1/GPa) = 0.03703402
#
# Stress axis : x y z
#
# Youngs Moduli (GPa) = 71.18900 53.76779 12.85683
#
# Poissons Ratio (x) = 0.22010 0.02143
# Poissons Ratio (y) = 0.29141 0.39773
# Poissons Ratio (z) = 0.11865 1.66334
#
# Static dielectric constant tensor:
#      x y z
#    x 1.584330 0.000000 0.000000 
#    y 0.000000 1.642390 0.000000 
#    z 0.000000 0.000000 1.554200 
# 
# From -- ./inp_files/5843.got.cif
#   From: 2010.05.17/outbox.cif.g08.bks.cpg/sg51_3_cif.got.tgz:5843.got - 2010.06.03 11:52:47.
