data_PCOD9398952
_publ_section_title
;
Structure prediction by ZEFSAII (Michael W. Deem and Ramdas Pophale) SiO2 
 PCOD9398952
Probable space group: P M M A
;
_chemical_formula_sum "Si O2"
_cell_formula_units_Z 64
_cell_length_a 17.070924
_cell_length_b 14.152739
_cell_length_c 15.740431
_cell_angle_alpha 90.000000
_cell_angle_beta 90.000000
_cell_angle_gamma 90.000000
_cell_volume 3802.893353
_symmetry_space_group_name_H-M "P M M A"
_symmetry_group_IT_number 51
_symmetry_cell_setting 'orthorhombic'
loop_
_space_group_symop_operation_xyz
x,y,z
1/2-x,-y,z
1/2+x,-y,-z
-x,y,-z
-x,-y,-z
1/2+x,y,-z
1/2-x,y,z
x,-y,z
loop_
_atom_site_type_symbol
_atom_site_label
_atom_site_fract_x
_atom_site_fract_y
_atom_site_fract_z
Si Si1 0.834907 0.609160 0.496799
Si Si2 0.084236 0.391420 0.331737
Si Si3 0.341889 0.210255 0.719407
Si Si4 0.882653 0.389928 0.173702
Si Si5 0.844927 0.106045 0.105865
Si Si6 0.931257 0.608780 0.857404
Si Si7 0.460116 0.746105 0.583879
Si Si8 0.841058 0.713348 0.003105
O O1 0.750000 0.647841 0.473278
O O2 0.839032 0.500000 0.471421
O O3 0.847957 0.612664 0.598192
O O4 0.904414 0.665645 0.455132
O O5 0.051026 0.500000 0.336991
O O6 0.108361 0.377797 0.234580
O O7 0.023135 0.310695 0.359463
O O8 0.250000 0.196340 0.698738
O O9 0.353804 0.317993 0.753678
O O10 0.362976 0.145071 0.800209
O O11 0.402638 0.193670 0.643251
O O12 0.866412 0.500000 0.191527
O O13 0.976237 0.378314 0.160238
O O14 0.845342 0.355667 0.085008
O O15 0.750000 0.104599 0.101733
O O16 0.873998 0.000000 0.092004
O O17 0.869155 0.185020 0.038044
O O18 0.920114 0.500000 0.884955
O O19 0.895709 0.674925 0.928891
O O20 0.500000 0.791635 0.500000
O O21 0.750000 0.719016 0.976261
#
# Coordination Sequence:
#
# PCOD9398952 Si02
#       8
#     8   8   8   8   8   8   8   8
#     4   9  17  27  40  59  86 120 159 203 236 259
#     4   9  17  29  42  58  83 126 170 193 221 270
#     4  10  19  30  49  75  95 118 157 200 234 274
#     4  10  19  31  45  64  94 130 160 190 234 279
#     4   8  16  33  54  73  95 120 146 187 242 290
#     4  10  19  30  45  63  91 134 169 191 225 276
#     4  10  18  29  44  63  91 123 153 189 236 287
#     4  10  20  31  46  70  93 117 155 198 234 273
#
# _framework density 16.829291999999999
#
# number of rings (size 3 to 8) (size 9 to 14) (size 15 to 20)
#    0.000    2.500    1.250    2.625    0.000    5.250 
#    0.000    1.250    0.000    6.375    0.000    0.000 
#    0.000    0.000    0.000   25.500    0.000    0.000 
#
# Total GULP energy -356669.848480 kJ/mol
# GULP energy per Si atom -5572.966383 kJ/mol
# Density = 1.679099 g / cm^3
# Si number density = 16.829292 Si / 1000 Ang^3
#
#
#
# Elastic Constant Matrix: (Units=GPa)
#
#
# Indices 1 2 3 4 5 6 
#
# 1 35.6023 10.4854 14.3262 0.0000 0.0000 0.0000
# 2 10.4854 60.2685 25.0694 0.0000 0.0000 0.0000
# 3 14.3262 25.0694 74.9247 0.0000 0.0000 0.0000
# 4 0.0000 0.0000 0.0000 10.8686 0.0000 0.0000
# 5 0.0000 0.0000 0.0000 0.0000 22.3859 0.0000
# 6 0.0000 0.0000 0.0000 0.0000 0.0000 5.3727
#
#
#
# Elastic Compliance Matrix: (Units=1/GPa)
#
#
# Indices 1 2 3 4 5 6 
#
# 1 0.031019 -0.003403 -0.004792 0.000000 0.000000 0.000000
# 2 -0.003403 0.019648 -0.005924 0.000000 0.000000 0.000000
# 3 -0.004792 -0.005924 0.016245 0.000000 0.000000 0.000000
# 4 0.000000 0.000000 0.000000 0.092008 0.000000 0.000000
# 5 0.000000 0.000000 0.000000 0.000000 0.044671 0.000000
# 6 0.000000 0.000000 0.000000 0.000000 0.000000 0.186127
#
#
# Mechanical properties :
#
#
# Convention : Reuss Voigt Hill
#
# Bulk Modulus (GPa) = 25.85706 30.06194 27.95950
# Shear Modulus (GPa) = 11.60504 15.78642 13.69573
#
# Velocity S-wave (km/s) = 2.62882 3.06605 2.85582
# Velocity P-wave (km/s) = 4.96104 5.51687 5.24633
#
# Compressibility (1/GPa) = 0.03867416
#
# Stress axis : x y z
#
# Youngs Moduli (GPa) = 32.23857 50.89456 61.55719
#
# Poissons Ratio (x) = 0.17320 0.29500
# Poissons Ratio (y) = 0.10971 0.36464
# Poissons Ratio (z) = 0.15450 0.30148
#
# Static dielectric constant tensor:
#      x y z
#    x 1.592020 0.000000 0.000000 
#    y 0.000000 1.553730 0.000000 
#    z 0.000000 0.000000 1.595160 
# 
# From -- ./inp_files/25323.got.cif
#   From: 2010.05.17/outbox.cif.g08.bks.cpg/sg51_13_cif.got.tgz:25323.got - 2010.06.03 11:52:47.
