data_PCOD9398476
_publ_section_title
;
Structure prediction by ZEFSAII (Michael W. Deem and Ramdas Pophale) SiO2 
 PCOD9398476
Probable space group: P M M A
;
_chemical_formula_sum "Si O2"
_cell_formula_units_Z 56
_cell_length_a 29.317793
_cell_length_b 7.624641
_cell_length_c 14.169153
_cell_angle_alpha 90.000000
_cell_angle_beta 90.000000
_cell_angle_gamma 90.000000
_cell_volume 3167.339115
_symmetry_space_group_name_H-M "P M M A"
_symmetry_group_IT_number 51
_symmetry_cell_setting 'orthorhombic'
loop_
_space_group_symop_operation_xyz
x,y,z
1/2-x,-y,z
1/2+x,-y,-z
-x,y,-z
-x,-y,-z
1/2+x,y,-z
1/2-x,y,z
x,-y,z
loop_
_atom_site_type_symbol
_atom_site_label
_atom_site_fract_x
_atom_site_fract_y
_atom_site_fract_z
Si Si1 0.104262 0.787526 0.202669
Si Si2 0.801225 0.786254 0.727710
Si Si3 0.028404 0.706056 0.706372
Si Si4 0.484760 0.707564 0.100777
Si Si5 0.941757 0.795414 0.604307
Si Si6 0.893042 0.788003 0.417545
Si Si7 0.698773 0.786307 0.508906
O O1 0.156906 0.730334 0.206267
O O2 0.068903 0.730132 0.122671
O O3 0.082493 0.723392 0.301850
O O4 0.103491 0.000000 0.202170
O O5 0.750000 0.727867 0.752575
O O6 0.810359 0.735886 0.618238
O O7 0.800839 0.000000 0.728483
O O8 0.018951 0.500000 0.706450
O O9 0.080380 0.733643 0.676297
O O10 0.012081 0.779013 0.807655
O O11 0.995260 0.783689 0.625834
O O12 0.494610 0.500000 0.098502
O O13 0.500000 0.781577 0.000000
O O14 0.922882 0.721576 0.507039
O O15 0.929074 0.000000 0.601560
O O16 0.841654 0.728921 0.440017
O O17 0.892989 0.000000 0.416698
O O18 0.750000 0.728794 0.484437
O O19 0.698734 0.000000 0.508521
#
# Coordination Sequence:
#
# PCOD9398476 Si02
#       7
#     8   8   8   8   8   8   8
#     4   9  15  25  43  67  89 110 139 173 206 242
#     4   8  12  20  37  62  90 116 141 168 197 235
#     4  10  20  30  41  59  80 105 138 173 209 250
#     4   9  19  35  49  59  77 107 141 177 220 266
#     4   9  16  26  39  58  86 116 141 164 194 233
#     4  10  17  26  41  61  86 115 142 168 198 232
#     4   8  13  22  38  60  85 115 149 174 192 227
#
# _framework density 17.680456
#
# number of rings (size 3 to 8) (size 9 to 14) (size 15 to 20)
#    0.000    3.000    1.429    1.714    0.000    3.143 
#    0.000    0.000    0.000    0.857    0.000    3.000 
#    0.000    8.000    0.000    0.000    0.000    0.000 
#
# Total GULP energy -311918.839835 kJ/mol
# GULP energy per Si atom -5569.979283 kJ/mol
# Density = 1.764021 g / cm^3
# Si number density = 17.680456 Si / 1000 Ang^3
#
#
#
# Elastic Constant Matrix: (Units=GPa)
#
#
# Indices 1 2 3 4 5 6 
#
# 1 134.1459 -10.2806 64.0231 0.0000 0.0000 0.0000
# 2 -10.2806 32.3957 4.3647 0.0000 0.0000 0.0000
# 3 64.0231 4.3647 72.1956 0.0000 0.0000 0.0000
# 4 0.0000 0.0000 0.0000 9.6770 0.0000 0.0000
# 5 0.0000 0.0000 0.0000 0.0000 20.5318 0.0000
# 6 0.0000 0.0000 0.0000 0.0000 0.0000 43.0310
#
#
#
# Elastic Compliance Matrix: (Units=1/GPa)
#
#
# Indices 1 2 3 4 5 6 
#
# 1 0.014057 0.006191 -0.012840 0.000000 0.000000 0.000000
# 2 0.006191 0.033848 -0.007536 0.000000 0.000000 0.000000
# 3 -0.012840 -0.007536 0.025694 0.000000 0.000000 0.000000
# 4 0.000000 0.000000 0.000000 0.103338 0.000000 0.000000
# 5 0.000000 0.000000 0.000000 0.000000 0.048705 0.000000
# 6 0.000000 0.000000 0.000000 0.000000 0.000000 0.023239
#
#
# Mechanical properties :
#
#
# Convention : Reuss Voigt Hill
#
# Bulk Modulus (GPa) = 22.11036 39.43905 30.77470
# Shear Modulus (GPa) = 17.10404 26.68995 21.89699
#
# Velocity S-wave (km/s) = 3.11368 3.88954 3.52303
# Velocity P-wave (km/s) = 5.04572 6.52122 5.83034
#
# Compressibility (1/GPa) = 0.04522767
#
# Stress axis : x y z
#
# Youngs Moduli (GPa) = 71.13797 29.54354 38.92029
#
# Poissons Ratio (x) = -0.18290 0.49974
# Poissons Ratio (y) = -0.44041 0.29332
# Poissons Ratio (z) = 0.91342 0.22265
#
# Static dielectric constant tensor:
#      x y z
#    x 1.642840 0.000000 0.000000 
#    y 0.000000 1.667580 0.000000 
#    z 0.000000 0.000000 1.596510 
# 
# From -- ./inp_files/26480.got.cif
#   From: 2010.05.17/outbox.cif.g08.bks.cpg/sg51_14_cif.got.tgz:26480.got - 2010.06.03 11:52:47.
