data_PCOD9398043
_publ_section_title
;
Structure prediction by ZEFSAII (Michael W. Deem and Ramdas Pophale) SiO2 
 PCOD9398043
Probable space group: P B A N
;
_chemical_formula_sum "Si O2"
_cell_formula_units_Z 40
_cell_length_a 15.573914
_cell_length_b 9.587981
_cell_length_c 12.543097
_cell_angle_alpha 90.000000
_cell_angle_beta 90.000000
_cell_angle_gamma 90.000000
_cell_volume 1872.965241
_symmetry_space_group_name_H-M "P B A N"
_symmetry_group_IT_number 50
_space_group.IT_coordinate_system_code '2'
_symmetry_cell_setting 'orthorhombic'
loop_
_space_group_symop_operation_xyz
x,y,z
1/2-x,1/2-y,z
x,1/2-y,-z
1/2-x,y,-z
-x,-y,-z
1/2+x,1/2+y,-z
-x,1/2+y,z
1/2+x,-y,z
loop_
_atom_site_type_symbol
_atom_site_label
_atom_site_fract_x
_atom_site_fract_y
_atom_site_fract_z
Si Si1 0.946029 0.741839 0.890124
Si Si2 0.646564 0.526765 0.240712
Si Si3 0.805257 0.980108 0.890618
Si Si4 0.101501 0.779217 0.242640
Si Si5 0.018961 0.375985 0.421168
O O1 0.912346 0.589742 0.855495
O O2 0.011681 0.785503 0.800021
O O3 0.870318 0.852297 0.906607
O O4 0.996778 0.750000 0.000000
O O5 0.740416 0.570202 0.202164
O O6 0.655853 0.360545 0.254597
O O7 0.598755 0.588810 0.343350
O O8 0.856996 0.112412 0.841264
O O9 0.750000 0.008207 0.000000
O O10 0.067073 0.850670 0.350003
O O11 0.038231 0.250000 0.500000
O O12 0.000000 0.500000 0.500000
#
# Coordination Sequence:
#
# PCOD9398043 Si02
#       5
#     8   8   8   8   8
#     4  11  23  42  66  97 141 194 236 283 348 431
#     4  11  24  42  69 105 138 186 236 299 358 415
#     4  12  26  45  68 106 154 188 231 300 364 427
#     4  11  26  43  72 104 139 188 250 288 354 450
#     4  11  23  48  78 103 141 190 244 304 357 426
#
# _framework density 21.35651
#
# number of rings (size 3 to 8) (size 9 to 14) (size 15 to 20)
#    0.000    0.800    4.000    3.600    5.600    2.400 
#    0.000    1.000    4.400    0.000    0.000    0.000 
#    0.000    0.000    0.000    0.000    0.000    0.000 
#
# Total GULP energy -223037.945662 kJ/mol
# GULP energy per Si atom -5575.948642 kJ/mol
# Density = 2.130790 g / cm^3
# Si number density = 21.356510 Si / 1000 Ang^3
#
#
#
# Elastic Constant Matrix: (Units=GPa)
#
#
# Indices 1 2 3 4 5 6 
#
# 1 56.8933 15.6758 35.0382 0.0000 0.0000 0.0000
# 2 15.6758 136.6094 64.3394 0.0000 0.0000 0.0000
# 3 35.0382 64.3394 141.5275 0.0000 0.0000 0.0000
# 4 0.0000 0.0000 0.0000 36.8531 0.0000 0.0000
# 5 0.0000 0.0000 0.0000 0.0000 40.4082 0.0000
# 6 0.0000 0.0000 0.0000 0.0000 0.0000 32.4440
#
#
#
# Elastic Compliance Matrix: (Units=1/GPa)
#
#
# Indices 1 2 3 4 5 6 
#
# 1 0.020739 0.000049 -0.005157 0.000000 0.000000 0.000000
# 2 0.000049 0.009315 -0.004247 0.000000 0.000000 0.000000
# 3 -0.005157 -0.004247 0.010273 0.000000 0.000000 0.000000
# 4 0.000000 0.000000 0.000000 0.027135 0.000000 0.000000
# 5 0.000000 0.000000 0.000000 0.000000 0.024747 0.000000
# 6 0.000000 0.000000 0.000000 0.000000 0.000000 0.030822
#
#
# Mechanical properties :
#
#
# Convention : Reuss Voigt Hill
#
# Bulk Modulus (GPa) = 46.25804 62.79299 54.52551
# Shear Modulus (GPa) = 33.56929 36.60617 35.08773
#
# Velocity S-wave (km/s) = 3.96896 4.14460 4.05773
# Velocity P-wave (km/s) = 6.53533 7.23669 6.89493
#
# Compressibility (1/GPa) = 0.02161786
#
# Stress axis : x y z
#
# Youngs Moduli (GPa) = 48.21822 107.35897 97.34350
#
# Poissons Ratio (x) = -0.00524 0.50196
# Poissons Ratio (y) = -0.00235 0.41337
# Poissons Ratio (z) = 0.24864 0.45590
#
# Static dielectric constant tensor:
#      x y z
#    x 1.861650 0.000000 0.000000 
#    y 0.000000 1.800980 0.000000 
#    z 0.000000 0.000000 1.804700 
# 
# From -- ./inp_files/18737.got.cif
#   From: 2010.05.17/outbox.cif.g08.bks.cpg/sg50_10_cif.got.tgz:18737.got - 2010.06.03 11:33:33.
