data_PCOD9398756
_publ_section_title
;
Structure prediction by ZEFSAII (Michael W. Deem and Ramdas Pophale) SiO2 
 PCOD9398756
Probable space group: P M M A
;
_chemical_formula_sum "Si O2"
_cell_formula_units_Z 64
_cell_length_a 30.923066
_cell_length_b 9.025099
_cell_length_c 14.890598
_cell_angle_alpha 90.000000
_cell_angle_beta 90.000000
_cell_angle_gamma 90.000000
_cell_volume 4155.723662
_symmetry_space_group_name_H-M "P M M A"
_symmetry_group_IT_number 51
_symmetry_cell_setting 'orthorhombic'
loop_
_space_group_symop_operation_xyz
x,y,z
1/2-x,-y,z
1/2+x,-y,-z
-x,y,-z
-x,-y,-z
1/2+x,y,-z
1/2-x,y,z
x,-y,z
loop_
_atom_site_type_symbol
_atom_site_label
_atom_site_fract_x
_atom_site_fract_y
_atom_site_fract_z
Si Si1 0.923342 0.168230 0.262130
Si Si2 0.619717 0.675333 0.424728
Si Si3 0.456963 0.181072 0.055096
Si Si4 0.799675 0.823248 0.349455
Si Si5 0.526758 0.826712 0.743247
Si Si6 0.042968 0.678658 0.444569
Si Si7 0.621525 0.174275 0.068907
Si Si8 0.800152 0.675787 0.154422
O O1 0.904363 0.284112 0.331902
O O2 0.903458 0.186294 0.163863
O O3 0.974710 0.181071 0.256360
O O4 0.912682 0.000000 0.293109
O O5 0.626531 0.500000 0.431356
O O6 0.665404 0.757697 0.417745
O O7 0.586255 0.723150 0.502040
O O8 0.458364 0.228140 0.158846
O O9 0.458049 0.000000 0.054217
O O10 0.500000 0.228238 0.000000
O O11 0.412884 0.226189 0.005368
O O12 0.750000 0.786665 0.372996
O O13 0.808003 0.755162 0.250421
O O14 0.803795 0.000000 0.343571
O O15 0.542425 0.740571 0.655788
O O16 0.538832 0.000000 0.734975
O O17 0.041547 0.500000 0.442386
O O18 0.000000 0.728358 0.500000
O O19 0.665838 0.262273 0.082699
O O20 0.630775 0.000000 0.053974
O O21 0.750000 0.704302 0.130201
O O22 0.805821 0.500000 0.166178
#
# Coordination Sequence:
#
# PCOD9398756 Si02
#       8
#     8   8   8   8   8   8   8   8
#     4  10  18  27  44  70  97 127 163 198 233 275
#     4  11  21  32  48  68  94 132 166 197 236 281
#     4   9  16  29  48  71  98 126 158 196 238 281
#     4  10  20  33  49  70  97 125 154 194 242 289
#     4  10  19  31  49  71  95 128 168 205 236 276
#     4  10  21  35  47  65  97 133 164 198 242 283
#     4  10  18  29  48  71  96 129 162 195 236 282
#     4  10  20  32  46  67  97 129 160 195 234 281
#
# _framework density 15.400447
#
# number of rings (size 3 to 8) (size 9 to 14) (size 15 to 20)
#    0.000    2.000    3.750    1.125    0.000    2.750 
#    0.000    0.625    0.000    0.750    0.000    0.875 
#    0.000    1.000    0.000    0.000    0.000    0.000 
#
# Total GULP energy -356908.482077 kJ/mol
# GULP energy per Si atom -5576.695032 kJ/mol
# Density = 1.536540 g / cm^3
# Si number density = 15.400447 Si / 1000 Ang^3
#
#
#
# Elastic Constant Matrix: (Units=GPa)
#
#
# Indices 1 2 3 4 5 6 
#
# 1 120.6757 39.4557 62.5341 0.0000 0.0000 0.0000
# 2 39.4557 30.0044 29.4386 0.0000 0.0000 0.0000
# 3 62.5341 29.4386 96.7738 0.0000 0.0000 0.0000
# 4 0.0000 0.0000 0.0000 257.5504 0.0000 0.0000
# 5 0.0000 0.0000 0.0000 0.0000 23.7130 0.0000
# 6 0.0000 0.0000 0.0000 0.0000 0.0000 18.3167
#
#
#
# Elastic Compliance Matrix: (Units=1/GPa)
#
#
# Indices 1 2 3 4 5 6 
#
# 1 0.016547 -0.016063 -0.005806 0.000000 0.000000 0.000000
# 2 -0.016063 0.063100 -0.008815 0.000000 0.000000 0.000000
# 3 -0.005806 -0.008815 0.016767 0.000000 0.000000 0.000000
# 4 0.000000 0.000000 0.000000 0.003883 0.000000 0.000000
# 5 0.000000 0.000000 0.000000 0.000000 0.042171 0.000000
# 6 0.000000 0.000000 0.000000 0.000000 0.000000 0.054595
#
#
# Mechanical properties :
#
#
# Convention : Reuss Voigt Hill
#
# Bulk Modulus (GPa) = 28.53448 56.70118 42.61783
# Shear Modulus (GPa) = 18.51065 67.65107 43.08086
#
# Velocity S-wave (km/s) = 3.47068 6.63501 5.29476
# Velocity P-wave (km/s) = 5.88468 9.77730 8.06923
#
# Compressibility (1/GPa) = 0.03504532
#
# Stress axis : x y z
#
# Youngs Moduli (GPa) = 60.43236 15.84776 59.64071
#
# Poissons Ratio (x) = 0.25456 0.34630
# Poissons Ratio (y) = 0.97072 0.52576
# Poissons Ratio (z) = 0.35090 0.13971
#
# Static dielectric constant tensor:
#      x y z
#    x 1.528580 0.000000 0.000000 
#    y 0.000000 1.524560 0.000000 
#    z 0.000000 0.000000 1.490930 
# 
# From -- ./inp_files/26682.got.cif
#   From: 2010.05.17/outbox.cif.g08.bks.cpg/sg51_14_cif.got.tgz:26682.got - 2010.06.03 11:52:47.
