data_PCOD9398355
_publ_section_title
;
Structure prediction by ZEFSAII (Michael W. Deem and Ramdas Pophale) SiO2 
 PCOD9398355
Probable space group: P M M A
;
_chemical_formula_sum "Si O2"
_cell_formula_units_Z 40
_cell_length_a 8.678774
_cell_length_b 21.704564
_cell_length_c 14.675312
_cell_angle_alpha 90.000000
_cell_angle_beta 90.000000
_cell_angle_gamma 90.000000
_cell_volume 2764.373930
_symmetry_space_group_name_H-M "P M M A"
_symmetry_group_IT_number 51
_symmetry_cell_setting 'orthorhombic'
loop_
_space_group_symop_operation_xyz
x,y,z
1/2-x,-y,z
1/2+x,-y,-z
-x,y,-z
-x,-y,-z
1/2+x,y,-z
1/2-x,y,z
x,-y,z
loop_
_atom_site_type_symbol
_atom_site_label
_atom_site_fract_x
_atom_site_fract_y
_atom_site_fract_z
Si Si1 0.564337 0.261940 0.397638
Si Si2 0.935791 0.500000 0.398299
Si Si3 0.065304 0.874361 0.602991
Si Si4 0.433517 0.000000 0.396334
Si Si5 0.934320 0.571866 0.901922
Si Si6 0.063664 0.620012 0.717351
O O1 0.500000 0.269080 0.500000
O O2 0.750000 0.264314 0.404397
O O3 0.524826 0.193590 0.360257
O O4 0.513336 0.317581 0.333126
O O5 0.750000 0.500000 0.402595
O O6 0.984140 0.561047 0.343375
O O7 0.000000 0.500000 0.500000
O O8 0.250000 0.880774 0.600444
O O9 0.000000 0.872300 0.500000
O O10 0.994000 0.936037 0.646090
O O11 0.500000 0.000000 0.500000
O O12 0.250000 0.000000 0.400508
O O13 0.750000 0.574242 0.903891
O O14 0.981512 0.500000 0.887572
O O15 0.997950 0.610871 0.817966
O O16 0.000000 0.590930 0.000000
O O17 0.250000 0.619939 0.722163
#
# Coordination Sequence:
#
# PCOD9398355 Si02
#       6
#     8   4   8   4   8   8
#     4   9  18  29  42  59  83 114 147 178 211 249
#     4  10  20  30  43  60  83 112 143 178 212 242
#     4   9  15  24  36  52  74 103 137 173 208 244
#     4  10  16  22  34  52  72  98 133 174 211 244
#     4  10  20  33  50  69  85 104 132 171 217 264
#     4  10  19  32  46  63  85 112 141 175 215 254
#
# _framework density 14.469822000000001
#
# number of rings (size 3 to 8) (size 9 to 14) (size 15 to 20)
#    0.000    2.400    1.000    3.900    0.000    3.200 
#    0.000    0.000    0.000    0.000    0.000    0.000 
#    0.000    0.000    0.000    0.900    0.000   10.100 
#
# Total GULP energy -222856.416874 kJ/mol
# GULP energy per Si atom -5571.410422 kJ/mol
# Density = 1.443689 g / cm^3
# Si number density = 14.469822 Si / 1000 Ang^3
#
#
#
# Elastic Constant Matrix: (Units=GPa)
#
#
# Indices 1 2 3 4 5 6 
#
# 1 36.7392 38.6286 21.0784 0.0000 0.0000 0.0000
# 2 38.6286 152.5905 59.4486 0.0000 0.0000 0.0000
# 3 21.0784 59.4486 84.2151 0.0000 0.0000 0.0000
# 4 0.0000 0.0000 0.0000 3.1370 0.0000 0.0000
# 5 0.0000 0.0000 0.0000 0.0000 21.0226 0.0000
# 6 0.0000 0.0000 0.0000 0.0000 0.0000 14.4858
#
#
#
# Elastic Compliance Matrix: (Units=1/GPa)
#
#
# Indices 1 2 3 4 5 6 
#
# 1 0.037929 -0.008143 -0.003745 0.000000 0.000000 0.000000
# 2 -0.008143 0.010788 -0.005577 0.000000 0.000000 0.000000
# 3 -0.003745 -0.005577 0.016749 0.000000 0.000000 0.000000
# 4 0.000000 0.000000 0.000000 0.318776 0.000000 0.000000
# 5 0.000000 0.000000 0.000000 0.000000 0.047568 0.000000
# 6 0.000000 0.000000 0.000000 0.000000 0.000000 0.069033
#
#
# Mechanical properties :
#
#
# Convention : Reuss Voigt Hill
#
# Bulk Modulus (GPa) = 32.74901 56.87291 44.81096
# Shear Modulus (GPa) = 9.15833 18.02170 13.59002
#
# Velocity S-wave (km/s) = 2.51853 3.53295 3.06796
# Velocity P-wave (km/s) = 5.58024 7.48546 6.60194
#
# Compressibility (1/GPa) = 0.03053527
#
# Stress axis : x y z
#
# Youngs Moduli (GPa) = 26.36497 92.69866 59.70598
#
# Poissons Ratio (x) = 0.75482 0.22362
# Poissons Ratio (y) = 0.21468 0.33299
# Poissons Ratio (z) = 0.09875 0.51699
#
# Static dielectric constant tensor:
#      x y z
#    x 1.484910 0.000000 0.000000 
#    y 0.000000 1.534240 0.000000 
#    z 0.000000 0.000000 1.432230 
# 
# From -- ./inp_files/21346.got.cif
#   From: 2010.05.17/outbox.cif.g08.bks.cpg/sg51_11_cif.got.tgz:21346.got - 2010.06.03 11:52:47.
