data_PCOD9398445
_publ_section_title
;
Structure prediction by ZEFSAII (Michael W. Deem and Ramdas Pophale) SiO2 
 PCOD9398445
Probable space group: P M M A
;
_chemical_formula_sum "Si O2"
_cell_formula_units_Z 64
_cell_length_a 23.354155
_cell_length_b 8.885032
_cell_length_c 20.959166
_cell_angle_alpha 90.000000
_cell_angle_beta 90.000000
_cell_angle_gamma 90.000000
_cell_volume 4349.077551
_symmetry_space_group_name_H-M "P M M A"
_symmetry_group_IT_number 51
_symmetry_cell_setting 'orthorhombic'
loop_
_space_group_symop_operation_xyz
x,y,z
1/2-x,-y,z
1/2+x,-y,-z
-x,y,-z
-x,-y,-z
1/2+x,y,-z
1/2-x,y,z
x,-y,z
loop_
_atom_site_type_symbol
_atom_site_label
_atom_site_fract_x
_atom_site_fract_y
_atom_site_fract_z
Si Si1 0.434017 0.325055 0.524198
Si Si2 0.022813 0.679595 0.783759
Si Si3 0.817125 0.180966 0.715885
Si Si4 0.471733 0.820647 0.649680
Si Si5 0.607310 0.319854 0.825998
Si Si6 0.951269 0.680970 0.077265
Si Si7 0.099136 0.819373 0.397351
Si Si8 0.923384 0.180265 0.953041
O O1 0.500000 0.311333 0.500000
O O2 0.420533 0.500000 0.531005
O O3 0.433419 0.244989 0.592580
O O4 0.397677 0.251854 0.467380
O O5 0.024350 0.500000 0.774200
O O6 0.042271 0.760008 0.719638
O O7 0.058589 0.714019 0.848059
O O8 0.956269 0.719902 0.798886
O O9 0.750000 0.214171 0.711652
O O10 0.846832 0.263077 0.775127
O O11 0.851035 0.224154 0.651523
O O12 0.824161 0.000000 0.723733
O O13 0.537828 0.775761 0.633868
O O14 0.469020 0.000000 0.648491
O O15 0.608767 0.500000 0.833944
O O16 0.614550 0.240362 0.894594
O O17 0.954067 0.500000 0.069466
O O18 0.013968 0.751461 0.063843
O O19 0.910961 0.753077 0.023330
O O20 0.098942 0.000000 0.404005
O O21 0.925351 0.000000 0.954599
#
# Coordination Sequence:
#
# PCOD9398445 Si02
#       8
#     8   8   8   8   8   8   8   8
#     4   9  17  27  40  57  77 102 132 167 204 246
#     4   9  17  26  38  56  80 109 137 168 202 241
#     4  10  20  33  47  63  83 107 138 178 219 255
#     4  10  17  25  40  59  80 106 136 170 204 245
#     4  10  19  30  43  57  77 106 139 175 212 249
#     4   9  16  26  37  54  79 106 135 167 202 238
#     4   9  17  29  42  58  78 103 134 170 209 249
#     4  10  17  25  39  56  75 101 136 172 205 242
#
# _framework density 14.715764
#
# number of rings (size 3 to 8) (size 9 to 14) (size 15 to 20)
#    0.000    2.500    1.250    4.125    0.000    5.250 
#    0.000    0.000    0.000    0.000    0.000    0.000 
#    0.000    0.000    0.000    1.125    0.000   18.250 
#
# Total GULP energy -356442.214693 kJ/mol
# GULP energy per Si atom -5569.409605 kJ/mol
# Density = 1.468227 g / cm^3
# Si number density = 14.715764 Si / 1000 Ang^3
#
#
#
# Elastic Constant Matrix: (Units=GPa)
#
#
# Indices 1 2 3 4 5 6 
#
# 1 32.2240 19.5465 36.8449 0.0000 0.0000 0.0000
# 2 19.5465 56.3955 64.5297 0.0000 0.0000 0.0000
# 3 36.8449 64.5297 169.1787 0.0000 0.0000 0.0000
# 4 0.0000 0.0000 0.0000 25.7007 0.0000 0.0000
# 5 0.0000 0.0000 0.0000 0.0000 11.0838 0.0000
# 6 0.0000 0.0000 0.0000 0.0000 0.0000 80.4645
#
#
#
# Elastic Compliance Matrix: (Units=1/GPa)
#
#
# Indices 1 2 3 4 5 6 
#
# 1 0.043010 -0.007433 -0.006532 0.000000 0.000000 0.000000
# 2 -0.007433 0.032749 -0.010873 0.000000 0.000000 0.000000
# 3 -0.006532 -0.010873 0.011481 0.000000 0.000000 0.000000
# 4 0.000000 0.000000 0.000000 0.038909 0.000000 0.000000
# 5 0.000000 0.000000 0.000000 0.000000 0.090222 0.000000
# 6 0.000000 0.000000 0.000000 0.000000 0.000000 0.012428
#
#
# Mechanical properties :
#
#
# Convention : Reuss Voigt Hill
#
# Bulk Modulus (GPa) = 26.62094 55.51562 41.06828
# Shear Modulus (GPa) = 17.18238 32.57492 24.87865
#
# Velocity S-wave (km/s) = 3.42075 4.71000 4.11617
# Velocity P-wave (km/s) = 5.80787 8.20890 7.11046
#
# Compressibility (1/GPa) = 0.03756441
#
# Stress axis : x y z
#
# Youngs Moduli (GPa) = 23.25036 30.53525 87.10383
#
# Poissons Ratio (x) = 0.22698 0.56894
# Poissons Ratio (y) = 0.17283 0.94704
# Poissons Ratio (z) = 0.15187 0.33200
#
# Static dielectric constant tensor:
#      x y z
#    x 1.452410 0.000000 0.000000 
#    y 0.000000 1.489530 0.000000 
#    z 0.000000 0.000000 1.525300 
# 
# From -- ./inp_files/34216.got.cif
#   From: 2010.05.17/outbox.cif.g08.bks.cpg/sg51_18_cif.got.tgz:34216.got - 2010.06.03 11:52:47.
