data_PCOD9398139
_publ_section_title
;
Structure prediction by ZEFSAII (Michael W. Deem and Ramdas Pophale) SiO2 
 PCOD9398139
Probable space group: P B A N
;
_chemical_formula_sum "Si O2"
_cell_formula_units_Z 30
_cell_length_a 13.149869
_cell_length_b 5.392760
_cell_length_c 19.988707
_cell_angle_alpha 90.000000
_cell_angle_beta 90.000000
_cell_angle_gamma 90.000000
_cell_volume 1417.480918
_symmetry_space_group_name_H-M "P B A N"
_symmetry_group_IT_number 50
_space_group.IT_coordinate_system_code '2'
_symmetry_cell_setting 'orthorhombic'
loop_
_space_group_symop_operation_xyz
x,y,z
1/2-x,1/2-y,z
x,1/2-y,-z
1/2-x,y,-z
-x,-y,-z
1/2+x,1/2+y,-z
-x,1/2+y,z
1/2+x,-y,z
loop_
_atom_site_type_symbol
_atom_site_label
_atom_site_fract_x
_atom_site_fract_y
_atom_site_fract_z
Si Si1 0.945432 0.666490 0.715384
Si Si2 0.135506 0.360796 0.430953
Si Si3 0.750000 0.250000 0.107890
Si Si4 0.750000 0.750000 0.804692
Si Si5 0.750000 0.250000 0.500000
Si Si6 0.569552 0.250000 0.000000
O O1 0.925241 0.680242 0.635823
O O2 0.846538 0.736487 0.756639
O O3 0.975029 0.384035 0.731685
O O4 0.250000 0.250000 0.423994
O O5 0.091496 0.250000 0.500000
O O6 0.168118 0.636889 0.448281
O O7 0.752594 0.501534 0.150917
O O8 0.647727 0.253464 0.062613
O O9 0.500000 0.500000 0.000000
#
# Coordination Sequence:
#
# PCOD9398139 Si02
#       6
#     8   8   4   4   2   4
#     4  12  28  43  67  98 129 180 235 282 347 408
#     4   9  20  39  63  91 122 171 219 295 358 413
#     4  11  26  45  76 105 141 196 220 264 351 384
#     4  12  26  49  67  98 150 184 232 280 320 414
#     4   8  18  34  68  84 120 170 214 274 386 408
#     4  11  24  45  76 116 148 173 228 285 318 392
#
# _framework density 21.164306
#
# number of rings (size 3 to 8) (size 9 to 14) (size 15 to 20)
#    0.000    1.600    1.333    3.200    7.467   10.667 
#    0.000    0.000    0.000    0.000    0.000    0.000 
#    0.000    0.000    0.000    0.000    0.000    0.000 
#
# Total GULP energy -167375.142144 kJ/mol
# GULP energy per Si atom -5579.171405 kJ/mol
# Density = 2.111613 g / cm^3
# Si number density = 21.164306 Si / 1000 Ang^3
#
#
#
# Elastic Constant Matrix: (Units=GPa)
#
#
# Indices 1 2 3 4 5 6 
#
# 1 94.6496 38.5766 47.6326 0.0000 0.0000 0.0000
# 2 38.5766 123.8435 58.2263 0.0000 0.0000 0.0000
# 3 47.6326 58.2263 115.0834 0.0000 0.0000 0.0000
# 4 0.0000 0.0000 0.0000 39.5041 0.0000 0.0000
# 5 0.0000 0.0000 0.0000 0.0000 233.8009 0.0000
# 6 0.0000 0.0000 0.0000 0.0000 0.0000 339.5150
#
#
#
# Elastic Compliance Matrix: (Units=1/GPa)
#
#
# Indices 1 2 3 4 5 6 
#
# 1 0.013752 -0.002109 -0.004625 0.000000 0.000000 0.000000
# 2 -0.002109 0.010919 -0.004651 0.000000 0.000000 0.000000
# 3 -0.004625 -0.004651 0.012957 0.000000 0.000000 0.000000
# 4 0.000000 0.000000 0.000000 0.025314 0.000000 0.000000
# 5 0.000000 0.000000 0.000000 0.000000 0.004277 0.000000
# 6 0.000000 0.000000 0.000000 0.000000 0.000000 0.002945
#
#
# Mechanical properties :
#
#
# Convention : Reuss Voigt Hill
#
# Bulk Modulus (GPa) = 67.30824 69.16085 68.23454
# Shear Modulus (GPa) = 51.07909 135.17338 93.12623
#
# Velocity S-wave (km/s) = 4.91802 8.00045 6.64056
# Velocity P-wave (km/s) = 8.00756 10.86701 9.54497
#
# Compressibility (1/GPa) = 0.01485702
#
# Stress axis : x y z
#
# Youngs Moduli (GPa) = 72.71413 91.58709 77.17943
#
# Poissons Ratio (x) = 0.19319 0.35694
# Poissons Ratio (y) = 0.15338 0.35897
# Poissons Ratio (z) = 0.33629 0.42599
#
# Static dielectric constant tensor:
#      x y z
#    x 1.757930 0.000000 0.000000 
#    y 0.000000 1.677490 0.000000 
#    z 0.000000 0.000000 1.731930 
# 
# From -- ./inp_files/27931.got.cif
#   From: 2010.05.17/outbox.cif.g08.bks.cpg/sg50_14_cif.got.tgz:27931.got - 2010.06.03 11:33:33.
