data_PCOD9398027
_publ_section_title
;
Structure prediction by ZEFSAII (Michael W. Deem and Ramdas Pophale) SiO2 
 PCOD9398027
Probable space group: P B A N
;
_chemical_formula_sum "Si O2"
_cell_formula_units_Z 56
_cell_length_a 9.207964
_cell_length_b 15.719198
_cell_length_c 17.649471
_cell_angle_alpha 90.000000
_cell_angle_beta 90.000000
_cell_angle_gamma 90.000000
_cell_volume 2554.616366
_symmetry_space_group_name_H-M "P B A N"
_symmetry_group_IT_number 50
_space_group.IT_coordinate_system_code '2'
_symmetry_cell_setting 'orthorhombic'
loop_
_space_group_symop_operation_xyz
x,y,z
1/2-x,1/2-y,z
x,1/2-y,-z
1/2-x,y,-z
-x,-y,-z
1/2+x,1/2+y,-z
-x,1/2+y,z
1/2+x,-y,z
loop_
_atom_site_type_symbol
_atom_site_label
_atom_site_fract_x
_atom_site_fract_y
_atom_site_fract_z
Si Si1 0.424072 0.919908 0.339175
Si Si2 0.574265 0.094821 0.334447
Si Si3 0.208872 0.626006 0.916559
Si Si4 0.550381 0.840685 0.821763
Si Si5 0.472371 0.651462 0.822966
Si Si6 0.919522 0.743846 0.409387
Si Si7 0.707522 0.576900 0.915393
O O1 0.248322 0.914867 0.343757
O O2 0.467394 0.905349 0.251459
O O3 0.502549 0.843192 0.383611
O O4 0.490125 0.010667 0.362528
O O5 0.527158 0.110410 0.246948
O O6 0.512306 0.177684 0.376700
O O7 0.310025 0.665469 0.852053
O O8 0.224385 0.524062 0.912213
O O9 0.045668 0.648794 0.896850
O O10 0.250000 0.653820 0.000000
O O11 0.549227 0.740694 0.804306
O O12 0.701057 0.881157 0.847125
O O13 0.546091 0.604221 0.893694
O O14 0.750000 0.750000 0.383407
O O15 0.919175 0.750000 0.500000
O O16 0.750000 0.605536 0.000000
#
# Coordination Sequence:
#
# PCOD9398027 Si02
#       7
#     8   8   8   8   8   8   8
#     4  12  26  46  75 110 150 196 245 298 359 427
#     4  12  26  46  75 110 150 196 245 298 359 427
#     4  11  23  41  63  89 131 180 233 295 357 423
#     4  12  25  40  64  96 133 178 238 297 356 430
#     4  12  25  40  64  96 133 178 238 297 356 430
#     4  11  27  51  81 117 152 189 234 285 354 435
#     4  11  25  43  61  91 131 182 239 299 369 431
#
# _framework density 21.921099000000002
#
# number of rings (size 3 to 8) (size 9 to 14) (size 15 to 20)
#    0.000    0.429    2.857    5.571    4.000    7.429 
#    0.000    0.000    0.000    0.000    0.000    0.000 
#    0.000    0.000    0.000    0.000    0.000    0.000 
#
# Total GULP energy -313405.404664 kJ/mol
# GULP energy per Si atom -5596.525083 kJ/mol
# Density = 2.187121 g / cm^3
# Si number density = 21.921099 Si / 1000 Ang^3
#
#
#
# Elastic Constant Matrix: (Units=GPa)
#
#
# Indices 1 2 3 4 5 6 
#
# 1 120.7333 52.6764 21.4578 0.0000 0.0000 0.0000
# 2 52.6764 159.0209 20.2829 0.0000 0.0000 0.0000
# 3 21.4578 20.2829 66.2083 0.0000 0.0000 0.0000
# 4 0.0000 0.0000 0.0000 -1.0348 0.0000 0.0000
# 5 0.0000 0.0000 0.0000 0.0000 36.2258 0.0000
# 6 0.0000 0.0000 0.0000 0.0000 0.0000 29.5062
#
#
#
# Elastic Compliance Matrix: (Units=1/GPa)
#
#
# Indices 1 2 3 4 5 6 
#
# 1 0.010013 -0.003021 -0.002320 0.000000 0.000000 0.000000
# 2 -0.003021 0.007456 -0.001305 0.000000 0.000000 0.000000
# 3 -0.002320 -0.001305 0.016255 0.000000 0.000000 0.000000
# 4 0.000000 0.000000 0.000000 -0.966415 0.000000 0.000000
# 5 0.000000 0.000000 0.000000 0.000000 0.027605 0.000000
# 6 0.000000 0.000000 0.000000 0.000000 0.000000 0.033891
#
#
# Mechanical properties :
#
#
# Convention : Reuss Voigt Hill
#
# Bulk Modulus (GPa) = 48.94083 59.42187 54.18135
# Shear Modulus (GPa) = -5.87480 29.70915 11.91718
#
# Velocity S-wave (km/s) = -1.63884 3.68540 2.33414
# Velocity P-wave (km/s) = 4.33513 6.72871 5.65990
#
# Compressibility (1/GPa) = 0.02043284
#
# Stress axis : x y z
#
# Youngs Moduli (GPa) = 99.86947 134.12655 61.51789
#
# Poissons Ratio (x) = 0.40520 0.14270
# Poissons Ratio (y) = 0.30171 0.08028
# Poissons Ratio (z) = 0.23167 0.17503
#
# Static dielectric constant tensor:
#      x y z
#    x 2.902540 0.000000 0.000000 
#    y 0.000000 1.799690 0.000000 
#    z 0.000000 0.000000 1.778300 
# 
# From -- ./inp_files/30639.got.cif
#   From: 2010.05.17/outbox.cif.g08.bks.cpg/sg50_16_cif.got.tgz:30639.got - 2010.06.03 11:33:33.
