data_PCOD9398241
_publ_section_title
;
Structure prediction by ZEFSAII (Michael W. Deem and Ramdas Pophale) SiO2 
 PCOD9398241
Probable space group: P B A N
;
_chemical_formula_sum "Si O2"
_cell_formula_units_Z 30
_cell_length_a 13.371447
_cell_length_b 8.665448
_cell_length_c 10.986253
_cell_angle_alpha 90.000000
_cell_angle_beta 90.000000
_cell_angle_gamma 90.000000
_cell_volume 1272.972506
_symmetry_space_group_name_H-M "P B A N"
_symmetry_group_IT_number 50
_space_group.IT_coordinate_system_code '2'
_symmetry_cell_setting 'orthorhombic'
loop_
_space_group_symop_operation_xyz
x,y,z
1/2-x,1/2-y,z
x,1/2-y,-z
1/2-x,y,-z
-x,-y,-z
1/2+x,1/2+y,-z
-x,1/2+y,z
1/2+x,-y,z
loop_
_atom_site_type_symbol
_atom_site_label
_atom_site_fract_x
_atom_site_fract_y
_atom_site_fract_z
Si Si1 0.786444 0.987022 0.378576
Si Si2 0.556344 0.750000 0.500000
Si Si3 0.125107 0.447552 0.810912
Si Si4 0.750000 0.750000 0.000000
Si Si5 0.428066 0.793750 0.256661
O O1 0.750000 0.073421 0.500000
O O2 0.835176 0.093847 0.276727
O O3 0.870758 0.875336 0.435768
O O4 0.691021 0.911575 0.311150
O O5 0.480294 0.788027 0.390115
O O6 0.104919 0.630183 0.797062
O O7 0.016138 0.371437 0.818721
O O8 0.186012 0.366296 0.917235
#
# Coordination Sequence:
#
# PCOD9398241 Si02
#       5
#     8   4   8   2   8
#     4  12  24  43  76 119 166 201 244 309 387 474
#     4  12  21  40  71 116 164 206 239 302 381 474
#     4  12  28  51  78 108 155 203 262 330 389 461
#     4  12  32  56  80 108 142 204 282 342 400 448
#     4  12  25  46  75 115 155 205 253 312 393 471
#
# _framework density 23.566890000000001
#
# number of rings (size 3 to 8) (size 9 to 14) (size 15 to 20)
#    0.000    0.000    5.333    5.200    0.000    2.133 
#    0.000    1.333    0.000    0.000    0.000    0.000 
#    0.000    0.000    0.000    0.000    0.000    0.000 
#
# Total GULP energy -167694.448383 kJ/mol
# GULP energy per Si atom -5589.814946 kJ/mol
# Density = 2.351325 g / cm^3
# Si number density = 23.566890 Si / 1000 Ang^3
#
#
#
# Elastic Constant Matrix: (Units=GPa)
#
#
# Indices 1 2 3 4 5 6 
#
# 1 132.6550 70.7289 38.3615 0.0000 0.0000 0.0000
# 2 70.7289 171.2373 54.6829 0.0000 0.0000 0.0000
# 3 38.3615 54.6829 87.8257 0.0000 0.0000 0.0000
# 4 0.0000 0.0000 0.0000 -21.5851 0.0000 0.0000
# 5 0.0000 0.0000 0.0000 0.0000 11.0200 0.0000
# 6 0.0000 0.0000 0.0000 0.0000 0.0000 33.2826
#
#
#
# Elastic Compliance Matrix: (Units=1/GPa)
#
#
# Indices 1 2 3 4 5 6 
#
# 1 0.010010 -0.003418 -0.002244 0.000000 0.000000 0.000000
# 2 -0.003418 0.008456 -0.003772 0.000000 0.000000 0.000000
# 3 -0.002244 -0.003772 0.014715 0.000000 0.000000 0.000000
# 4 0.000000 0.000000 0.000000 -0.046328 0.000000 0.000000
# 5 0.000000 0.000000 0.000000 0.000000 0.090744 0.000000
# 6 0.000000 0.000000 0.000000 0.000000 0.000000 0.030046
#
#
# Mechanical properties :
#
#
# Convention : Reuss Voigt Hill
#
# Bulk Modulus (GPa) = 69.86812 79.91830 74.89321
# Shear Modulus (GPa) = 38.08605 19.73982 28.91293
#
# Velocity S-wave (km/s) = 4.02441 2.89729 3.50644
# Velocity P-wave (km/s) = 7.16280 6.72140 6.94561
#
# Compressibility (1/GPa) = 0.01431268
#
# Stress axis : x y z
#
# Youngs Moduli (GPa) = 99.90407 118.25676 67.95752
#
# Poissons Ratio (x) = 0.40418 0.15250
# Poissons Ratio (y) = 0.34145 0.25635
# Poissons Ratio (z) = 0.22419 0.44609
#
# Static dielectric constant tensor:
#      x y z
#    x 1.935010 0.000000 0.000000 
#    y 0.000000 1.938640 0.000000 
#    z 0.000000 0.000000 1.880670 
# 
# From -- ./inp_files/20745.got.cif
#   From: 2010.05.17/outbox.cif.g08.bks.cpg/sg50_11_cif.got.tgz:20745.got - 2010.06.03 11:33:33.
