data_PCOD9398206
_publ_section_title
;
Structure prediction by ZEFSAII (Michael W. Deem and Ramdas Pophale) SiO2 
 PCOD9398206
Probable space group: P B A N
;
_chemical_formula_sum "Si O2"
_cell_formula_units_Z 22
_cell_length_a 11.286005
_cell_length_b 12.137862
_cell_length_c 6.794724
_cell_angle_alpha 90.000000
_cell_angle_beta 90.000000
_cell_angle_gamma 90.000000
_cell_volume 930.795456
_symmetry_space_group_name_H-M "P B A N"
_symmetry_group_IT_number 50
_space_group.IT_coordinate_system_code '2'
_symmetry_cell_setting 'orthorhombic'
loop_
_space_group_symop_operation_xyz
x,y,z
1/2-x,1/2-y,z
x,1/2-y,-z
1/2-x,y,-z
-x,-y,-z
1/2+x,1/2+y,-z
-x,1/2+y,z
1/2+x,-y,z
loop_
_atom_site_type_symbol
_atom_site_label
_atom_site_fract_x
_atom_site_fract_y
_atom_site_fract_z
Si Si1 0.250000 0.539513 0.000000
Si Si2 0.180291 0.137564 0.694852
Si Si3 0.568236 0.294927 0.793021
Si Si4 0.250000 0.750000 0.500000
O O1 0.316448 0.457617 0.853731
O O2 0.157589 0.611014 0.872270
O O3 0.250000 0.250000 0.753342
O O4 0.250000 0.100048 0.500000
O O5 0.042627 0.164967 0.667731
O O6 0.650513 0.212986 0.662952
O O7 0.519036 0.250000 0.000000
#
# Coordination Sequence:
#
# PCOD9398206 Si02
#       4
#     4   8   8   2
#     4  12  24  44  70 108 138 184 232 292 356 410
#     4  11  26  46  69 101 139 188 235 285 349 417
#     4  12  25  46  72 104 143 185 234 294 350 421
#     4  12  22  44  70  98 146 180 246 278 360 410
#
# _framework density 23.635698000000001
#
# number of rings (size 3 to 8) (size 9 to 14) (size 15 to 20)
#    0.000    0.364    3.636    6.000    2.545    1.455 
#    0.000    0.000    0.000    0.000    0.000    0.000 
#    0.000    0.000    0.000    0.000    0.000    0.000 
#
# Total GULP energy -122584.046812 kJ/mol
# GULP energy per Si atom -5572.002128 kJ/mol
# Density = 2.358190 g / cm^3
# Si number density = 23.635698 Si / 1000 Ang^3
#
#
#
# Elastic Constant Matrix: (Units=GPa)
#
#
# Indices 1 2 3 4 5 6 
#
# 1 192.3918 22.2858 49.4128 0.0000 0.0000 0.0000
# 2 22.2858 73.6064 8.2430 0.0000 0.0000 0.0000
# 3 49.4128 8.2430 115.8575 0.0000 0.0000 0.0000
# 4 0.0000 0.0000 0.0000 44.4477 0.0000 0.0000
# 5 0.0000 0.0000 0.0000 0.0000 44.5578 0.0000
# 6 0.0000 0.0000 0.0000 0.0000 0.0000 -83.5167
#
#
#
# Elastic Compliance Matrix: (Units=1/GPa)
#
#
# Indices 1 2 3 4 5 6 
#
# 1 0.006006 -0.001544 -0.002452 0.000000 0.000000 0.000000
# 2 -0.001544 0.014092 -0.000344 0.000000 0.000000 0.000000
# 3 -0.002452 -0.000344 0.009701 0.000000 0.000000 0.000000
# 4 0.000000 0.000000 0.000000 0.022498 0.000000 0.000000
# 5 0.000000 0.000000 0.000000 0.000000 0.022443 0.000000
# 6 0.000000 0.000000 0.000000 0.000000 0.000000 -0.011974
#
#
# Mechanical properties :
#
#
# Convention : Reuss Voigt Hill
#
# Bulk Modulus (GPa) = 47.34897 60.19321 53.77109
# Shear Modulus (GPa) = 63.70515 21.22538 42.46526
#
# Velocity S-wave (km/s) = 5.19725 2.99995 4.24330
# Velocity P-wave (km/s) = 7.48943 6.12552 6.84155
#
# Compressibility (1/GPa) = 0.02111979
#
# Stress axis : x y z
#
# Youngs Moduli (GPa) = 166.49247 70.96340 103.07728
#
# Poissons Ratio (x) = 0.10956 0.25273
# Poissons Ratio (y) = 0.25706 0.03547
# Poissons Ratio (z) = 0.40821 0.02442
#
# Static dielectric constant tensor:
#      x y z
#    x 1.862570 0.000000 0.000000 
#    y 0.000000 1.920860 0.000000 
#    z 0.000000 0.000000 1.950160 
# 
# From -- ./inp_files/1581.got.cif
#   From: 2010.05.17/outbox.cif.g08.bks.cpg/sg50_1_cif.got.tgz:1581.got - 2010.06.03 11:33:33.
