data_PCOD9398380
_publ_section_title
;
Structure prediction by ZEFSAII (Michael W. Deem and Ramdas Pophale) SiO2 
 PCOD9398380
Probable space group: P M M A
;
_chemical_formula_sum "Si O2"
_cell_formula_units_Z 40
_cell_length_a 8.621872
_cell_length_b 21.580879
_cell_length_c 14.632345
_cell_angle_alpha 90.000000
_cell_angle_beta 90.000000
_cell_angle_gamma 90.000000
_cell_volume 2722.604971
_symmetry_space_group_name_H-M "P M M A"
_symmetry_group_IT_number 51
_symmetry_cell_setting 'orthorhombic'
loop_
_space_group_symop_operation_xyz
x,y,z
1/2-x,-y,z
1/2+x,-y,-z
-x,y,-z
-x,-y,-z
1/2+x,y,-z
1/2-x,y,z
x,-y,z
loop_
_atom_site_type_symbol
_atom_site_label
_atom_site_fract_x
_atom_site_fract_y
_atom_site_fract_z
Si Si1 0.437321 0.000000 0.397696
Si Si2 0.063346 0.757547 0.396763
Si Si3 0.564562 0.071937 0.098732
Si Si4 0.564591 0.627779 0.396006
Si Si5 0.435396 0.500000 0.395657
Si Si6 0.437007 0.879215 0.283474
O O1 0.500000 0.000000 0.500000
O O2 0.487851 0.061462 0.343451
O O3 0.250000 0.000000 0.400717
O O4 0.250000 0.753126 0.401423
O O5 0.018872 0.816133 0.334937
O O6 0.000000 0.766307 0.500000
O O7 0.995577 0.693096 0.357931
O O8 0.750000 0.073128 0.096616
O O9 0.503486 0.112368 0.182457
O O10 0.514075 0.000000 0.113939
O O11 0.500000 0.090992 0.000000
O O12 0.500000 0.628854 0.500000
O O13 0.750000 0.625693 0.397717
O O14 0.498091 0.564241 0.353901
O O15 0.250000 0.500000 0.398287
O O16 0.500000 0.500000 0.500000
O O17 0.250000 0.880760 0.278318
#
# Coordination Sequence:
#
# PCOD9398380 Si02
#       6
#     4   8   8   8   4   8
#     4  10  20  32  45  62  85 114 147 186 222 256
#     4  10  19  30  43  61  85 118 152 185 221 260
#     4  10  20  33  51  71  88 108 136 176 224 274
#     4  10  17  26  39  56  79 109 144 182 218 257
#     4  10  16  24  38  56  78 104 139 182 219 256
#     4  10  20  33  48  64  87 115 146 183 224 265
#
# _framework density 14.691812000000001
#
# number of rings (size 3 to 8) (size 9 to 14) (size 15 to 20)
#    0.000    2.000    1.000    6.900    0.000    3.200 
#    0.000    0.000    0.000    0.000    0.000    0.000 
#    0.000    0.000    0.000    0.900    0.000   12.100 
#
# Total GULP energy -223056.968483 kJ/mol
# GULP energy per Si atom -5576.424212 kJ/mol
# Density = 1.465837 g / cm^3
# Si number density = 14.691812 Si / 1000 Ang^3
#
#
#
# Elastic Constant Matrix: (Units=GPa)
#
#
# Indices 1 2 3 4 5 6 
#
# 1 71.6112 51.1810 25.5936 0.0000 0.0000 0.0000
# 2 51.1810 153.3056 56.8579 0.0000 0.0000 0.0000
# 3 25.5936 56.8579 81.7038 0.0000 0.0000 0.0000
# 4 0.0000 0.0000 0.0000 3.0170 0.0000 0.0000
# 5 0.0000 0.0000 0.0000 0.0000 21.1391 0.0000
# 6 0.0000 0.0000 0.0000 0.0000 0.0000 21.7987
#
#
#
# Elastic Compliance Matrix: (Units=1/GPa)
#
#
# Indices 1 2 3 4 5 6 
#
# 1 0.018586 -0.005453 -0.002027 0.000000 0.000000 0.000000
# 2 -0.005453 0.010392 -0.005524 0.000000 0.000000 0.000000
# 3 -0.002027 -0.005524 0.016718 0.000000 0.000000 0.000000
# 4 0.000000 0.000000 0.000000 0.331454 0.000000 0.000000
# 5 0.000000 0.000000 0.000000 0.000000 0.047306 0.000000
# 6 0.000000 0.000000 0.000000 0.000000 0.000000 0.045874
#
#
# Mechanical properties :
#
#
# Convention : Reuss Voigt Hill
#
# Bulk Modulus (GPa) = 50.79120 63.76509 57.27814
# Shear Modulus (GPa) = 9.94230 20.72350 15.33290
#
# Velocity S-wave (km/s) = 2.60421 3.75980 3.23404
# Velocity P-wave (km/s) = 6.60974 7.89583 7.28124
#
# Compressibility (1/GPa) = 0.01968845
#
# Stress axis : x y z
#
# Youngs Moduli (GPa) = 53.80326 96.22726 59.81465
#
# Poissons Ratio (x) = 0.52474 0.12126
# Poissons Ratio (y) = 0.29340 0.33040
# Poissons Ratio (z) = 0.10907 0.53153
#
# Static dielectric constant tensor:
#      x y z
#    x 1.492740 0.000000 0.000000 
#    y 0.000000 1.535830 0.000000 
#    z 0.000000 0.000000 1.446100 
# 
# From -- ./inp_files/21329.got.cif
#   From: 2010.05.17/outbox.cif.g08.bks.cpg/sg51_11_cif.got.tgz:21329.got - 2010.06.03 11:52:47.
