data_PCOD9398629
_publ_section_title
;
Structure prediction by ZEFSAII (Michael W. Deem and Ramdas Pophale) SiO2 
 PCOD9398629
Probable space group: P M M A
;
_chemical_formula_sum "Si O2"
_cell_formula_units_Z 64
_cell_length_a 7.640803
_cell_length_b 16.096623
_cell_length_c 24.555050
_cell_angle_alpha 90.000000
_cell_angle_beta 90.000000
_cell_angle_gamma 90.000000
_cell_volume 3020.053232
_symmetry_space_group_name_H-M "P M M A"
_symmetry_group_IT_number 51
_symmetry_cell_setting 'orthorhombic'
loop_
_space_group_symop_operation_xyz
x,y,z
1/2-x,-y,z
1/2+x,-y,-z
-x,y,-z
-x,-y,-z
1/2+x,y,-z
1/2-x,y,z
x,-y,z
loop_
_atom_site_type_symbol
_atom_site_label
_atom_site_fract_x
_atom_site_fract_y
_atom_site_fract_z
Si Si1 0.964027 0.907836 0.132417
Si Si2 0.460075 0.749974 0.936419
Si Si3 0.038241 0.848179 0.748777
Si Si4 0.036688 0.344616 0.749257
Si Si5 0.047594 0.253490 0.562666
Si Si6 0.964738 0.592416 0.368397
Si Si7 0.545177 0.090813 0.629894
Si Si8 0.964147 0.592508 0.132721
O O1 0.750000 0.906970 0.131897
O O2 0.024763 0.832830 0.094105
O O3 0.017321 0.889775 0.194704
O O4 0.020150 0.000000 0.115507
O O5 0.250000 0.750058 0.930087
O O6 0.524373 0.666656 0.906435
O O7 0.500000 0.750476 0.000000
O O8 0.250000 0.849325 0.747704
O O9 0.982667 0.751830 0.748272
O O10 0.977418 0.892760 0.694123
O O11 0.250000 0.345067 0.749665
O O12 0.981179 0.388964 0.693816
O O13 0.981348 0.387215 0.805379
O O14 0.250000 0.272769 0.562394
O O15 0.966843 0.333035 0.593565
O O16 0.000000 0.242246 0.500000
O O17 0.024671 0.169516 0.597043
O O18 0.750000 0.593127 0.367879
O O19 0.018851 0.500000 0.385371
O O20 0.750000 0.088349 0.617549
O O21 0.468837 0.000000 0.616251
O O22 0.750000 0.593073 0.132234
O O23 0.020354 0.500000 0.116717
#
# Coordination Sequence:
#
# PCOD9398629 Si02
#       8
#     8   8   8   8   8   8   8   8
#     4   9  17  30  51  77 103 132 170 219 268 317
#     4  10  20  34  50  70  99 134 179 223 265 315
#     4  10  17  31  57  86 110 137 174 218 272 327
#     4   9  14  25  49  81 110 135 169 214 264 318
#     4  11  23  40  61  84 112 148 191 233 275 319
#     4   9  17  30  52  84 117 144 173 215 268 324
#     4  11  24  40  58  83 115 149 183 222 273 330
#     4   9  16  27  47  75 105 135 168 213 265 314
#
# _framework density 21.191680999999999
#
# number of rings (size 3 to 8) (size 9 to 14) (size 15 to 20)
#    0.000    2.250    2.500    1.500    0.000    4.000 
#    0.000    0.625    0.000    1.875    0.000    0.000 
#    0.000    0.000    0.000    0.000    0.000    0.000 
#
# Total GULP energy -357422.941426 kJ/mol
# GULP energy per Si atom -5584.733460 kJ/mol
# Density = 2.114345 g / cm^3
# Si number density = 21.191681 Si / 1000 Ang^3
#
#
#
# Elastic Constant Matrix: (Units=GPa)
#
#
# Indices 1 2 3 4 5 6 
#
# 1 33.2774 -4.6790 -4.4167 0.0000 0.0000 0.0000
# 2 -4.6790 192.0670 88.1908 0.0000 0.0000 0.0000
# 3 -4.4167 88.1908 153.7634 0.0000 0.0000 0.0000
# 4 0.0000 0.0000 0.0000 -0.3667 0.0000 0.0000
# 5 0.0000 0.0000 0.0000 0.0000 16.9553 0.0000
# 6 0.0000 0.0000 0.0000 0.0000 0.0000 -17.0349
#
#
#
# Elastic Compliance Matrix: (Units=1/GPa)
#
#
# Indices 1 2 3 4 5 6 
#
# 1 0.030195 0.000458 0.000605 0.000000 0.000000 0.000000
# 2 0.000458 0.007075 -0.004045 0.000000 0.000000 0.000000
# 3 0.000605 -0.004045 0.008841 0.000000 0.000000 0.000000
# 4 0.000000 0.000000 0.000000 -2.727181 0.000000 0.000000
# 5 0.000000 0.000000 0.000000 0.000000 0.058979 0.000000
# 6 0.000000 0.000000 0.000000 0.000000 0.000000 -0.058703
#
#
# Mechanical properties :
#
#
# Convention : Reuss Voigt Hill
#
# Bulk Modulus (GPa) = 24.90874 59.69977 42.30425
# Shear Modulus (GPa) = -1.87868 19.91159 9.01646
#
# Velocity S-wave (km/s) = -0.94257 3.06861 2.06493
# Velocity P-wave (km/s) = 3.25499 6.38652 5.06866
#
# Compressibility (1/GPa) = 0.04014655
#
# Stress axis : x y z
#
# Youngs Moduli (GPa) = 33.11801 141.34637 113.11397
#
# Poissons Ratio (x) = -0.06473 -0.06840
# Poissons Ratio (y) = -0.01517 0.45750
# Poissons Ratio (z) = -0.02003 0.57169
#
# Static dielectric constant tensor:
#      x y z
#    x 1.806530 0.000000 0.000000 
#    y 0.000000 1.832490 0.000000 
#    z 0.000000 0.000000 1.754060 
# 
# From -- ./inp_files/34889.got.cif
#   From: 2010.05.17/outbox.cif.g08.bks.cpg/sg51_18_cif.got.tgz:34889.got - 2010.06.03 11:52:47.
