data_PCOD9398958
_publ_section_title
;
Structure prediction by ZEFSAII (Michael W. Deem and Ramdas Pophale) SiO2 
 PCOD9398958
Probable space group: P M M A
;
_chemical_formula_sum "Si O2"
_cell_formula_units_Z 64
_cell_length_a 21.617969
_cell_length_b 9.235346
_cell_length_c 20.938743
_cell_angle_alpha 90.000000
_cell_angle_beta 90.000000
_cell_angle_gamma 90.000000
_cell_volume 4180.407969
_symmetry_space_group_name_H-M "P M M A"
_symmetry_group_IT_number 51
_symmetry_cell_setting 'orthorhombic'
loop_
_space_group_symop_operation_xyz
x,y,z
1/2-x,-y,z
1/2+x,-y,-z
-x,y,-z
-x,-y,-z
1/2+x,y,-z
1/2-x,y,z
x,-y,z
loop_
_atom_site_type_symbol
_atom_site_label
_atom_site_fract_x
_atom_site_fract_y
_atom_site_fract_z
Si Si1 0.574727 0.832852 0.510724
Si Si2 0.108500 0.829923 0.744330
Si Si3 0.091531 0.332860 0.616061
Si Si4 0.958164 0.175325 0.906411
Si Si5 0.960237 0.829403 0.764549
Si Si6 0.557741 0.333419 0.637301
Si Si7 0.093869 0.825004 0.960276
Si Si8 0.176337 0.670582 0.860108
O O1 0.500000 0.831912 0.500000
O O2 0.602794 0.745757 0.451191
O O3 0.585765 0.755325 0.578237
O O4 0.594223 0.000000 0.511166
O O5 0.118478 0.754690 0.675916
O O6 0.145984 0.749447 0.799387
O O7 0.035078 0.818782 0.759876
O O8 0.123741 0.000000 0.742370
O O9 0.111487 0.500000 0.615557
O O10 0.016848 0.332283 0.626189
O O11 0.942454 0.225137 0.835190
O O12 0.028601 0.212584 0.925819
O O13 0.957272 0.000000 0.904317
O O14 0.914747 0.217387 0.965574
O O15 0.932396 0.741657 0.705529
O O16 0.945079 0.000000 0.758273
O O17 0.577752 0.500000 0.636673
O O18 0.147501 0.744849 0.922712
O O19 0.100918 0.000000 0.956380
O O20 0.250000 0.686901 0.858708
O O21 0.161229 0.500000 0.858789
#
# Coordination Sequence:
#
# PCOD9398958 Si02
#       8
#     8   8   8   8   8   8   8   8
#     4   9  15  23  34  49  70 101 140 174 201 236
#     4  10  18  29  45  61  77 103 142 179 210 254
#     4   9  16  25  37  53  76 103 131 170 212 246
#     4   8  14  26  46  67  86 106 134 176 221 258
#     4   9  15  25  40  59  81 107 135 169 211 254
#     4   9  16  23  32  50  76 106 137 169 204 242
#     4   9  16  30  49  66  82 106 140 176 214 263
#     4  11  23  35  45  60  86 115 142 179 224 263
#
# _framework density 15.309511000000001
#
# number of rings (size 3 to 8) (size 9 to 14) (size 15 to 20)
#    0.000    2.750    1.250    2.625    0.000    6.000 
#    0.000    1.875    0.000    0.000    0.000    0.000 
#    0.000    0.000    0.000    1.125    0.000   19.625 
#
# Total GULP energy -356495.474085 kJ/mol
# GULP energy per Si atom -5570.241783 kJ/mol
# Density = 1.527467 g / cm^3
# Si number density = 15.309511 Si / 1000 Ang^3
#
#
#
# Elastic Constant Matrix: (Units=GPa)
#
#
# Indices 1 2 3 4 5 6 
#
# 1 17.9471 25.6725 20.6673 0.0000 0.0000 0.0000
# 2 25.6725 110.1191 79.5667 0.0000 0.0000 0.0000
# 3 20.6673 79.5667 171.0924 0.0000 0.0000 0.0000
# 4 0.0000 0.0000 0.0000 8.4320 0.0000 0.0000
# 5 0.0000 0.0000 0.0000 0.0000 5.7903 0.0000
# 6 0.0000 0.0000 0.0000 0.0000 0.0000 12.5952
#
#
#
# Elastic Compliance Matrix: (Units=1/GPa)
#
#
# Indices 1 2 3 4 5 6 
#
# 1 0.083875 -0.018424 -0.001564 0.000000 0.000000 0.000000
# 2 -0.018424 0.017724 -0.006017 0.000000 0.000000 0.000000
# 3 -0.001564 -0.006017 0.008832 0.000000 0.000000 0.000000
# 4 0.000000 0.000000 0.000000 0.118596 0.000000 0.000000
# 5 0.000000 0.000000 0.000000 0.000000 0.172702 0.000000
# 6 0.000000 0.000000 0.000000 0.000000 0.000000 0.079395
#
#
# Mechanical properties :
#
#
# Convention : Reuss Voigt Hill
#
# Bulk Modulus (GPa) = 17.11713 61.21907 39.16810
# Shear Modulus (GPa) = 9.04802 16.91365 12.98084
#
# Velocity S-wave (km/s) = 2.43370 3.32743 2.91502
# Velocity P-wave (km/s) = 4.37060 7.40519 6.08025
#
# Compressibility (1/GPa) = 0.05842100
#
# Stress axis : x y z
#
# Youngs Moduli (GPa) = 11.92254 56.42077 113.22647
#
# Poissons Ratio (x) = 1.03951 0.17703
# Poissons Ratio (y) = 0.21966 0.68128
# Poissons Ratio (z) = 0.01864 0.33948
#
# Static dielectric constant tensor:
#      x y z
#    x 1.468530 0.000000 0.000000 
#    y 0.000000 1.509930 0.000000 
#    z 0.000000 0.000000 1.525710 
# 
# From -- ./inp_files/34093.got.cif
#   From: 2010.05.17/outbox.cif.g08.bks.cpg/sg51_18_cif.got.tgz:34093.got - 2010.06.03 11:52:47.
