data_PCOD9398640
_publ_section_title
;
Structure prediction by ZEFSAII (Michael W. Deem and Ramdas Pophale) SiO2 
 PCOD9398640
Probable space group: P M M A
;
_chemical_formula_sum "Si O2"
_cell_formula_units_Z 64
_cell_length_a 7.582849
_cell_length_b 16.170988
_cell_length_c 24.312878
_cell_angle_alpha 90.000000
_cell_angle_beta 90.000000
_cell_angle_gamma 90.000000
_cell_volume 2981.297621
_symmetry_space_group_name_H-M "P M M A"
_symmetry_group_IT_number 51
_symmetry_cell_setting 'orthorhombic'
loop_
_space_group_symop_operation_xyz
x,y,z
1/2-x,-y,z
1/2+x,-y,-z
-x,y,-z
-x,-y,-z
1/2+x,y,-z
1/2-x,y,z
x,-y,z
loop_
_atom_site_type_symbol
_atom_site_label
_atom_site_fract_x
_atom_site_fract_y
_atom_site_fract_z
Si Si1 0.461787 0.750147 0.935714
Si Si2 0.036480 0.338004 0.750000
Si Si3 0.534395 0.592450 0.132304
Si Si4 0.956555 0.090613 0.128786
Si Si5 0.961787 0.750147 0.435714
Si Si6 0.034395 0.592450 0.632304
Si Si7 0.045427 0.144014 0.250000
Si Si8 0.456555 0.909387 0.628786
O O1 0.250000 0.749685 0.928201
O O2 0.526628 0.665340 0.907934
O O3 0.532265 0.831079 0.903998
O O4 0.500000 0.753693 0.000000
O O5 0.250000 0.336081 0.750000
O O6 0.980925 0.383557 0.805677
O O7 0.980925 0.383557 0.694323
O O8 0.976296 0.243111 0.750000
O O9 0.750000 0.591976 0.131599
O O10 0.476039 0.500000 0.117829
O O11 0.750000 0.086820 0.114082
O O12 0.966895 0.109007 0.193730
O O13 0.034098 0.000000 0.117138
O O14 0.750000 0.749685 0.428201
O O15 0.026628 0.665340 0.407934
O O16 0.032265 0.831078 0.403998
O O17 0.000000 0.753693 0.500000
O O18 0.250000 0.591976 0.631599
O O19 0.976039 0.500000 0.617829
O O20 0.250000 0.122251 0.250000
O O21 0.966895 0.109007 0.306270
O O22 0.250000 0.913180 0.614082
O O23 0.534098 0.000000 0.617138
#
# Coordination Sequence:
#
# PCOD9398640 Si02
#       8
#     8   8   8   8   8   8   8   8
#     4  10  21  37  56  80 110 145 187 230 272 321
#     4  10  17  33  59  83 110 145 184 223 271 329
#     4   9  17  31  56  86 110 138 182 230 272 321
#     4  10  21  39  61  82 107 145 188 226 269 327
#     4  10  21  37  56  80 110 145 187 230 272 321
#     4   9  17  31  56  86 110 138 182 230 272 321
#     4  12  23  34  55  87 120 146 174 220 280 332
#     4  10  21  39  61  82 107 145 188 226 269 327
#
# _framework density 21.467162999999999
#
# number of rings (size 3 to 8) (size 9 to 14) (size 15 to 20)
#    0.000    2.000    2.500    1.875    0.000    5.500 
#    0.000    0.000    0.000    3.000    0.000    0.000 
#    0.000    0.000    0.000    0.000    0.000    0.000 
#
# Total GULP energy -357605.770449 kJ/mol
# GULP energy per Si atom -5587.590163 kJ/mol
# Density = 2.141830 g / cm^3
# Si number density = 21.467163 Si / 1000 Ang^3
#
#
#
# Elastic Constant Matrix: (Units=GPa)
#
#
# Indices 1 2 3 4 5 6 
#
# 1 48.2250 6.2005 -10.0399 0.0000 0.0000 0.0000
# 2 6.2005 244.1874 102.1839 0.0000 0.0000 0.0000
# 3 -10.0399 102.1839 149.1944 0.0000 0.0000 0.0000
# 4 0.0000 0.0000 0.0000 52.5810 0.0000 0.0000
# 5 0.0000 0.0000 0.0000 0.0000 15.7878 0.0000
# 6 0.0000 0.0000 0.0000 0.0000 0.0000 -8.5632
#
#
#
# Elastic Compliance Matrix: (Units=1/GPa)
#
#
# Indices 1 2 3 4 5 6 
#
# 1 0.021474 -0.001612 0.002549 0.000000 0.000000 0.000000
# 2 -0.001612 0.005861 -0.004123 0.000000 0.000000 0.000000
# 3 0.002549 -0.004123 0.009698 0.000000 0.000000 0.000000
# 4 0.000000 0.000000 0.000000 0.019018 0.000000 0.000000
# 5 0.000000 0.000000 0.000000 0.000000 0.063340 0.000000
# 6 0.000000 0.000000 0.000000 0.000000 0.000000 -0.116779
#
#
# Mechanical properties :
#
#
# Convention : Reuss Voigt Hill
#
# Bulk Modulus (GPa) = 32.61378 70.92177 51.76778
# Shear Modulus (GPa) = 260.33590 34.84526 147.59058
#
# Velocity S-wave (km/s) = 11.02429 4.03325 8.30066
# Velocity P-wave (km/s) = 13.31435 7.40260 10.77197
#
# Compressibility (1/GPa) = 0.03066188
#
# Stress axis : x y z
#
# Youngs Moduli (GPa) = 46.56772 170.60482 103.11303
#
# Poissons Ratio (x) = 0.27502 -0.26285
# Poissons Ratio (y) = 0.07507 0.42514
# Poissons Ratio (z) = -0.11871 0.70341
#
# Static dielectric constant tensor:
#      x y z
#    x 1.792850 0.000000 0.000000 
#    y 0.000000 1.787630 0.000000 
#    z 0.000000 0.000000 1.716680 
# 
# From -- ./inp_files/34820.got.cif
#   From: 2010.05.17/outbox.cif.g08.bks.cpg/sg51_18_cif.got.tgz:34820.got - 2010.06.03 11:52:47.
