data_PCOD9398793
_publ_section_title
;
Structure prediction by ZEFSAII (Michael W. Deem and Ramdas Pophale) SiO2 
 PCOD9398793
Probable space group: P M M A
;
_chemical_formula_sum "Si O2"
_cell_formula_units_Z 64
_cell_length_a 27.467213
_cell_length_b 8.664034
_cell_length_c 17.635797
_cell_angle_alpha 90.000000
_cell_angle_beta 90.000000
_cell_angle_gamma 90.000000
_cell_volume 4196.911723
_symmetry_space_group_name_H-M "P M M A"
_symmetry_group_IT_number 51
_symmetry_cell_setting 'orthorhombic'
loop_
_space_group_symop_operation_xyz
x,y,z
1/2-x,-y,z
1/2+x,-y,-z
-x,y,-z
-x,-y,-z
1/2+x,y,-z
1/2-x,y,z
x,-y,z
loop_
_atom_site_type_symbol
_atom_site_label
_atom_site_fract_x
_atom_site_fract_y
_atom_site_fract_z
Si Si1 0.075724 0.816338 0.357518
Si Si2 0.380745 0.684161 0.215322
Si Si3 0.463197 0.183908 0.671660
Si Si4 0.439282 0.317082 0.832209
Si Si5 0.804890 0.686962 0.909577
Si Si6 0.558242 0.677907 0.484976
Si Si7 0.608250 0.686719 0.018697
Si Si8 0.538245 0.817552 0.894585
O O1 0.113610 0.733174 0.302075
O O2 0.081376 0.770415 0.445297
O O3 0.020481 0.767454 0.332849
O O4 0.079087 0.000000 0.348517
O O5 0.388603 0.500000 0.207195
O O6 0.331304 0.723545 0.170223
O O7 0.423032 0.774688 0.170708
O O8 0.440602 0.235013 0.751213
O O9 0.436035 0.254130 0.598898
O O10 0.462946 0.000000 0.665312
O O11 0.437668 0.500000 0.819563
O O12 0.397544 0.274116 0.892925
O O13 0.489437 0.272634 0.874234
O O14 0.750000 0.746681 0.915631
O O15 0.802693 0.500000 0.913407
O O16 0.842005 0.734801 0.976497
O O17 0.500000 0.684970 0.500000
O O18 0.573310 0.500000 0.487868
O O19 0.603905 0.500000 0.011559
O O20 0.564265 0.762190 0.971324
O O21 0.528842 0.000000 0.895998
#
# Coordination Sequence:
#
# PCOD9398793 Si02
#       8
#     8   8   8   8   8   8   8   8
#     4  10  18  28  42  61  87 116 149 185 215 252
#     4  10  18  28  45  66  87 114 148 183 220 263
#     4  10  19  29  41  59  85 118 153 184 217 252
#     4  11  20  29  42  59  85 116 149 184 217 257
#     4   8  15  30  50  68  86 109 141 183 227 267
#     4   9  17  28  42  59  82 115 152 184 214 249
#     4   9  19  32  45  63  83 110 145 181 221 265
#     4  11  20  29  41  59  84 115 147 181 219 258
#
# _framework density 15.249309
#
# number of rings (size 3 to 8) (size 9 to 14) (size 15 to 20)
#    0.000    2.250    1.250    4.125    0.000    5.000 
#    0.000    0.000    0.000    9.375    0.000    0.000 
#    0.000    1.000    0.000    8.500    0.000    2.375 
#
# Total GULP energy -356751.777546 kJ/mol
# GULP energy per Si atom -5574.246524 kJ/mol
# Density = 1.521460 g / cm^3
# Si number density = 15.249309 Si / 1000 Ang^3
#
#
#
# Elastic Constant Matrix: (Units=GPa)
#
#
# Indices 1 2 3 4 5 6 
#
# 1 47.0600 1.4754 30.3296 0.0000 0.0000 0.0000
# 2 1.4754 21.6107 12.9676 0.0000 0.0000 0.0000
# 3 30.3296 12.9676 113.6838 0.0000 0.0000 0.0000
# 4 0.0000 0.0000 0.0000 20.3205 0.0000 0.0000
# 5 0.0000 0.0000 0.0000 0.0000 9.2144 0.0000
# 6 0.0000 0.0000 0.0000 0.0000 0.0000 3.4891
#
#
#
# Elastic Compliance Matrix: (Units=1/GPa)
#
#
# Indices 1 2 3 4 5 6 
#
# 1 0.025791 0.002542 -0.007171 0.000000 0.000000 0.000000
# 2 0.002542 0.049924 -0.006373 0.000000 0.000000 0.000000
# 3 -0.007171 -0.006373 0.011436 0.000000 0.000000 0.000000
# 4 0.000000 0.000000 0.000000 0.049211 0.000000 0.000000
# 5 0.000000 0.000000 0.000000 0.000000 0.108526 0.000000
# 6 0.000000 0.000000 0.000000 0.000000 0.000000 0.286606
#
#
# Mechanical properties :
#
#
# Convention : Reuss Voigt Hill
#
# Bulk Modulus (GPa) = 15.34956 30.21108 22.78032
# Shear Modulus (GPa) = 8.69241 15.77691 12.23466
#
# Velocity S-wave (km/s) = 2.39010 3.22001 2.83558
# Velocity P-wave (km/s) = 4.20765 5.80337 5.06870
#
# Compressibility (1/GPa) = 0.06514844
#
# Stress axis : x y z
#
# Youngs Moduli (GPa) = 38.77278 20.03045 87.44035
#
# Poissons Ratio (x) = -0.05092 0.62702
# Poissons Ratio (y) = -0.09857 0.55725
# Poissons Ratio (z) = 0.27803 0.12765
#
# Static dielectric constant tensor:
#      x y z
#    x 1.491040 0.000000 0.000000 
#    y 0.000000 1.508580 0.000000 
#    z 0.000000 0.000000 1.538740 
# 
# From -- ./inp_files/26714.got.cif
#   From: 2010.05.17/outbox.cif.g08.bks.cpg/sg51_14_cif.got.tgz:26714.got - 2010.06.03 11:52:47.
