data_PCOD9398160
_publ_section_title
;
Structure prediction by ZEFSAII (Michael W. Deem and Ramdas Pophale) SiO2 
 PCOD9398160
Probable space group: P B A N
;
_chemical_formula_sum "Si O2"
_cell_formula_units_Z 48
_cell_length_a 14.713149
_cell_length_b 11.604230
_cell_length_c 14.559359
_cell_angle_alpha 90.000000
_cell_angle_beta 90.000000
_cell_angle_gamma 90.000000
_cell_volume 2485.788738
_symmetry_space_group_name_H-M "P B A N"
_symmetry_group_IT_number 50
_space_group.IT_coordinate_system_code '2'
_symmetry_cell_setting 'orthorhombic'
loop_
_space_group_symop_operation_xyz
x,y,z
1/2-x,1/2-y,z
x,1/2-y,-z
1/2-x,y,-z
-x,-y,-z
1/2+x,1/2+y,-z
-x,1/2+y,z
1/2+x,-y,z
loop_
_atom_site_type_symbol
_atom_site_label
_atom_site_fract_x
_atom_site_fract_y
_atom_site_fract_z
Si Si1 0.144615 0.254973 0.207165
Si Si2 0.388424 0.489404 0.897891
Si Si3 0.604100 0.746799 0.599592
Si Si4 0.753671 0.950951 0.598080
Si Si5 0.395946 0.013674 0.887717
Si Si6 0.749926 0.384249 0.772750
O O1 0.250000 0.250000 0.241110
O O2 0.138411 0.365510 0.142805
O O3 0.075312 0.263826 0.294085
O O4 0.127638 0.139532 0.150922
O O5 0.495986 0.500532 0.883898
O O6 0.332347 0.583208 0.840854
O O7 0.368107 0.496992 0.005876
O O8 0.553426 0.750000 0.500000
O O9 0.676383 0.851867 0.590572
O O10 0.653587 0.622520 0.605897
O O11 0.750000 0.013832 0.500000
O O12 0.741255 0.034793 0.683255
O O13 0.341262 0.922735 0.826214
O O14 0.750000 0.250000 0.750177
#
# Coordination Sequence:
#
# PCOD9398160 Si02
#       6
#     8   8   8   8   8   8
#     4  12  19  37  66  90 113 149 198 253 292 339
#     4  11  25  41  59  87 120 158 200 245 294 349
#     4   9  14  27  59  92 113 138 187 247 297 342
#     4   9  16  32  57  88 117 147 191 238 293 353
#     4  11  25  41  59  87 120 158 200 245 294 349
#     4  12  24  40  60  85 121 163 194 241 301 352
#
# _framework density 19.309766
#
# number of rings (size 3 to 8) (size 9 to 14) (size 15 to 20)
#    0.000    1.333    6.667    2.000    2.333    2.333 
#    0.000    0.000    0.000    4.000    0.000    0.000 
#    0.000    0.000    0.000    0.000    0.000    0.000 
#
# Total GULP energy -267580.245123 kJ/mol
# GULP energy per Si atom -5574.588440 kJ/mol
# Density = 1.926582 g / cm^3
# Si number density = 19.309766 Si / 1000 Ang^3
#
#
#
# Elastic Constant Matrix: (Units=GPa)
#
#
# Indices 1 2 3 4 5 6 
#
# 1 45.4316 6.6472 22.6905 0.0000 0.0000 0.0000
# 2 6.6472 95.3804 29.8139 0.0000 0.0000 0.0000
# 3 22.6905 29.8139 141.0541 0.0000 0.0000 0.0000
# 4 0.0000 0.0000 0.0000 6.6567 0.0000 0.0000
# 5 0.0000 0.0000 0.0000 0.0000 -28.7919 0.0000
# 6 0.0000 0.0000 0.0000 0.0000 0.0000 6.0276
#
#
#
# Elastic Compliance Matrix: (Units=1/GPa)
#
#
# Indices 1 2 3 4 5 6 
#
# 1 0.023956 -0.000498 -0.003748 0.000000 0.000000 0.000000
# 2 -0.000498 0.011236 -0.002295 0.000000 0.000000 0.000000
# 3 -0.003748 -0.002295 0.008178 0.000000 0.000000 0.000000
# 4 0.000000 0.000000 0.000000 0.150223 0.000000 0.000000
# 5 0.000000 0.000000 0.000000 0.000000 -0.034732 0.000000
# 6 0.000000 0.000000 0.000000 0.000000 0.000000 0.165905
#
#
# Mechanical properties :
#
#
# Convention : Reuss Voigt Hill
#
# Bulk Modulus (GPa) = 33.01678 44.46325 38.74001
# Shear Modulus (GPa) = 14.37011 11.62612 12.99812
#
# Velocity S-wave (km/s) = 2.73094 2.45640 2.59730
# Velocity P-wave (km/s) = 5.20381 5.57867 5.39450
#
# Compressibility (1/GPa) = 0.03028763
#
# Stress axis : x y z
#
# Youngs Moduli (GPa) = 41.74303 88.99679 122.28630
#
# Poissons Ratio (x) = 0.04431 0.45838
# Poissons Ratio (y) = 0.02078 0.28063
# Poissons Ratio (z) = 0.15647 0.20424
#
# Static dielectric constant tensor:
#      x y z
#    x 1.749000 0.000000 0.000000 
#    y 0.000000 1.632970 0.000000 
#    z 0.000000 0.000000 1.737980 
# 
# From -- ./inp_files/26423.got.cif
#   From: 2010.05.17/outbox.cif.g08.bks.cpg/sg50_14_cif.got.tgz:26423.got - 2010.06.03 11:33:33.
