data_PCOD9398028
_publ_section_title
;
Structure prediction by ZEFSAII (Michael W. Deem and Ramdas Pophale) SiO2 
 PCOD9398028
Probable space group: P B A N
;
_chemical_formula_sum "Si O2"
_cell_formula_units_Z 40
_cell_length_a 12.557265
_cell_length_b 8.318992
_cell_length_c 17.028958
_cell_angle_alpha 90.000000
_cell_angle_beta 90.000000
_cell_angle_gamma 90.000000
_cell_volume 1778.909443
_symmetry_space_group_name_H-M "P B A N"
_symmetry_group_IT_number 50
_space_group.IT_coordinate_system_code '2'
_symmetry_cell_setting 'orthorhombic'
loop_
_space_group_symop_operation_xyz
x,y,z
1/2-x,1/2-y,z
x,1/2-y,-z
1/2-x,y,-z
-x,-y,-z
1/2+x,1/2+y,-z
-x,1/2+y,z
1/2+x,-y,z
loop_
_atom_site_type_symbol
_atom_site_label
_atom_site_fract_x
_atom_site_fract_y
_atom_site_fract_z
Si Si1 0.934467 0.852367 0.296822
Si Si2 0.876246 0.439542 0.024510
Si Si3 0.255007 0.935497 0.658040
Si Si4 0.610628 0.533174 0.794309
Si Si5 0.071209 0.890190 0.444317
O O1 0.887246 0.711297 0.243103
O O2 0.013209 0.808384 0.368576
O O3 0.848080 0.958890 0.340579
O O4 0.999337 0.962770 0.236437
O O5 0.876648 0.496531 0.115018
O O6 0.879056 0.250000 0.000000
O O7 0.750000 0.488951 0.000000
O O8 0.000000 0.500000 0.000000
O O9 0.250000 0.750000 0.637093
O O10 0.340638 0.001925 0.596571
O O11 0.298993 0.941044 0.746293
O O12 0.112770 0.750000 0.500000
O O13 0.000000 0.000000 0.500000
#
# Coordination Sequence:
#
# PCOD9398028 Si02
#       5
#     8   8   8   8   8
#     4  11  23  43  68 102 140 192 250 302 387 453
#     4  11  27  49  78 117 159 201 257 322 404 475
#     4  11  24  41  68  99 133 190 242 300 380 451
#     4  11  24  43  71  99 144 188 240 313 365 476
#     4  11  23  41  64  97 142 185 244 313 375 450
#
# _framework density 22.485686000000001
#
# number of rings (size 3 to 8) (size 9 to 14) (size 15 to 20)
#    0.000    1.000    0.000    7.800    5.600    3.200 
#    3.600    1.000    0.000    0.000    0.000    0.000 
#    0.000    0.000    0.000    0.000    0.000    0.000 
#
# Total GULP energy -222802.522311 kJ/mol
# GULP energy per Si atom -5570.063058 kJ/mol
# Density = 2.243451 g / cm^3
# Si number density = 22.485686 Si / 1000 Ang^3
#
#
#
# Elastic Constant Matrix: (Units=GPa)
#
#
# Indices 1 2 3 4 5 6 
#
# 1 143.6530 35.1534 77.7678 0.0000 0.0000 0.0000
# 2 35.1534 92.3682 37.6968 0.0000 0.0000 0.0000
# 3 77.7678 37.6968 184.2473 0.0000 0.0000 0.0000
# 4 0.0000 0.0000 0.0000 21.6712 0.0000 0.0000
# 5 0.0000 0.0000 0.0000 0.0000 96.2209 0.0000
# 6 0.0000 0.0000 0.0000 0.0000 0.0000 32.0649
#
#
#
# Elastic Compliance Matrix: (Units=1/GPa)
#
#
# Indices 1 2 3 4 5 6 
#
# 1 0.009394 -0.002135 -0.003528 0.000000 0.000000 0.000000
# 2 -0.002135 0.012298 -0.001615 0.000000 0.000000 0.000000
# 3 -0.003528 -0.001615 0.007247 0.000000 0.000000 0.000000
# 4 0.000000 0.000000 0.000000 0.046144 0.000000 0.000000
# 5 0.000000 0.000000 0.000000 0.000000 0.010393 0.000000
# 6 0.000000 0.000000 0.000000 0.000000 0.000000 0.031187
#
#
# Mechanical properties :
#
#
# Convention : Reuss Voigt Hill
#
# Bulk Modulus (GPa) = 69.52990 80.16718 74.84854
# Shear Modulus (GPa) = 36.76128 47.96810 42.36469
#
# Velocity S-wave (km/s) = 4.04775 4.62375 4.34530
# Velocity P-wave (km/s) = 7.26874 8.01469 7.65082
#
# Compressibility (1/GPa) = 0.01438230
#
# Stress axis : x y z
#
# Youngs Moduli (GPa) = 106.45474 81.31462 137.98742
#
# Poissons Ratio (x) = 0.17362 0.48683
# Poissons Ratio (y) = 0.22730 0.22284
# Poissons Ratio (z) = 0.37558 0.13132
#
# Static dielectric constant tensor:
#      x y z
#    x 2.054660 0.000000 0.000000 
#    y 0.000000 2.041270 0.000000 
#    z 0.000000 0.000000 1.779100 
# 
# From -- ./inp_files/29070.got.cif
#   From: 2010.05.17/outbox.cif.g08.bks.cpg/sg50_15_cif.got.tgz:29070.got - 2010.06.03 11:33:33.
