data_PCOD9398480
_publ_section_title
;
Structure prediction by ZEFSAII (Michael W. Deem and Ramdas Pophale) SiO2 
 PCOD9398480
Probable space group: P M M A
;
_chemical_formula_sum "Si O2"
_cell_formula_units_Z 64
_cell_length_a 27.244163
_cell_length_b 9.224422
_cell_length_c 17.430682
_cell_angle_alpha 90.000000
_cell_angle_beta 90.000000
_cell_angle_gamma 90.000000
_cell_volume 4380.533568
_symmetry_space_group_name_H-M "P M M A"
_symmetry_group_IT_number 51
_symmetry_cell_setting 'orthorhombic'
loop_
_space_group_symop_operation_xyz
x,y,z
1/2-x,-y,z
1/2+x,-y,-z
-x,y,-z
-x,-y,-z
1/2+x,y,-z
1/2-x,y,z
x,-y,z
loop_
_atom_site_type_symbol
_atom_site_label
_atom_site_fract_x
_atom_site_fract_y
_atom_site_fract_z
Si Si1 0.192492 0.825894 0.412519
Si Si2 0.055760 0.672787 0.659031
Si Si3 0.887237 0.327549 0.486274
Si Si4 0.575605 0.327575 0.861961
Si Si5 0.039428 0.672662 0.832379
Si Si6 0.558779 0.166578 0.015696
Si Si7 0.125351 0.167784 0.273621
Si Si8 0.959606 0.168354 0.598971
O O1 0.250000 0.794527 0.417429
O O2 0.160548 0.746866 0.477432
O O3 0.169804 0.785593 0.329352
O O4 0.185019 0.000000 0.419782
O O5 0.044568 0.500000 0.655152
O O6 0.102023 0.698811 0.603522
O O7 0.060321 0.709823 0.748643
O O8 0.010116 0.760678 0.624911
O O9 0.885620 0.500000 0.499316
O O10 0.933156 0.258832 0.532259
O O11 0.580047 0.500000 0.867937
O O12 0.519323 0.295701 0.834525
O O13 0.612837 0.263748 0.799592
O O14 0.581673 0.253571 0.944769
O O15 0.044449 0.500000 0.844875
O O16 0.064385 0.757278 0.902197
O O17 0.574930 0.000000 0.016646
O O18 0.500000 0.168235 0.000000
O O19 0.078046 0.173482 0.329565
O O20 0.132753 0.000000 0.250814
O O21 0.965309 0.000000 0.577087
#
# Coordination Sequence:
#
# PCOD9398480 Si02
#       8
#     8   8   8   8   8   8   8   8
#     4   9  19  36  53  67  87 114 144 183 230 273
#     4  10  19  30  42  60  88 120 150 185 223 258
#     4  10  20  31  45  64  87 114 147 183 223 269
#     4  10  17  26  42  60  82 114 149 181 212 253
#     4   9  17  28  40  56  82 117 153 182 214 253
#     4   9  17  27  39  56  81 112 147 184 216 247
#     4   9  17  28  43  64  86 111 144 182 221 261
#     4  10  19  29  42  60  86 118 152 186 220 258
#
# _framework density 14.610093000000001
#
# number of rings (size 3 to 8) (size 9 to 14) (size 15 to 20)
#    0.000    2.500    1.250    2.625    0.000    7.250 
#    0.000    0.000    0.000    0.000    0.000    0.000 
#    0.000    1.000    0.000    7.250    0.000    3.750 
#
# Total GULP energy -356683.580069 kJ/mol
# GULP energy per Si atom -5573.180939 kJ/mol
# Density = 1.457684 g / cm^3
# Si number density = 14.610093 Si / 1000 Ang^3
#
#
#
# Elastic Constant Matrix: (Units=GPa)
#
#
# Indices 1 2 3 4 5 6 
#
# 1 52.8949 35.6698 53.1751 0.0000 0.0000 0.0000
# 2 35.6698 63.0187 67.8739 0.0000 0.0000 0.0000
# 3 53.1751 67.8739 137.6654 0.0000 0.0000 0.0000
# 4 0.0000 0.0000 0.0000 19.3056 0.0000 0.0000
# 5 0.0000 0.0000 0.0000 0.0000 9.8453 0.0000
# 6 0.0000 0.0000 0.0000 0.0000 0.0000 12.3445
#
#
#
# Elastic Compliance Matrix: (Units=1/GPa)
#
#
# Indices 1 2 3 4 5 6 
#
# 1 0.034092 -0.010904 -0.007793 0.000000 0.000000 0.000000
# 2 -0.010904 0.037323 -0.014190 0.000000 0.000000 0.000000
# 3 -0.007793 -0.014190 0.017270 0.000000 0.000000 0.000000
# 4 0.000000 0.000000 0.000000 0.051798 0.000000 0.000000
# 5 0.000000 0.000000 0.000000 0.000000 0.101572 0.000000
# 6 0.000000 0.000000 0.000000 0.000000 0.000000 0.081008
#
#
# Mechanical properties :
#
#
# Convention : Reuss Voigt Hill
#
# Bulk Modulus (GPa) = 43.64366 63.00184 53.32275
# Shear Modulus (GPa) = 12.61116 14.75643 13.68380
#
# Velocity S-wave (km/s) = 2.94118 3.18152 3.06371
# Velocity P-wave (km/s) = 6.43981 7.53073 7.00653
#
# Compressibility (1/GPa) = 0.02291283
#
# Stress axis : x y z
#
# Youngs Moduli (GPa) = 29.33202 26.79290 57.90362
#
# Poissons Ratio (x) = 0.29215 0.45122
# Poissons Ratio (y) = 0.31984 0.82164
# Poissons Ratio (z) = 0.22857 0.38019
#
# Static dielectric constant tensor:
#      x y z
#    x 1.452310 0.000000 0.000000 
#    y 0.000000 1.489430 0.000000 
#    z 0.000000 0.000000 1.493220 
# 
# From -- ./inp_files/31006.got.cif
#   From: 2010.05.17/outbox.cif.g08.bks.cpg/sg51_16_cif.got.tgz:31006.got - 2010.06.03 11:52:47.
