data_PCOD9398719
_publ_section_title
;
Structure prediction by ZEFSAII (Michael W. Deem and Ramdas Pophale) SiO2 
 PCOD9398719
Probable space group: P M M A
;
_chemical_formula_sum "Si O2"
_cell_formula_units_Z 48
_cell_length_a 21.992394
_cell_length_b 8.955281
_cell_length_c 15.631036
_cell_angle_alpha 90.000000
_cell_angle_beta 90.000000
_cell_angle_gamma 90.000000
_cell_volume 3078.502343
_symmetry_space_group_name_H-M "P M M A"
_symmetry_group_IT_number 51
_symmetry_cell_setting 'orthorhombic'
loop_
_space_group_symop_operation_xyz
x,y,z
1/2-x,-y,z
1/2+x,-y,-z
-x,y,-z
-x,-y,-z
1/2+x,y,-z
1/2-x,y,z
x,-y,z
loop_
_atom_site_type_symbol
_atom_site_label
_atom_site_fract_x
_atom_site_fract_y
_atom_site_fract_z
Si Si1 0.597955 0.678116 0.151627
Si Si2 0.956774 0.677910 0.804746
Si Si3 0.820579 0.819226 0.298229
Si Si4 0.072166 0.827591 0.022359
Si Si5 0.587770 0.180834 0.442963
Si Si6 0.046382 0.180419 0.375021
O O1 0.604609 0.500000 0.150568
O O2 0.528930 0.712646 0.183009
O O3 0.644831 0.751744 0.216975
O O4 0.603817 0.743053 0.056069
O O5 0.950208 0.500000 0.806150
O O6 0.922725 0.749317 0.885843
O O7 0.936929 0.745324 0.714291
O O8 0.750000 0.777021 0.300734
O O9 0.857103 0.769620 0.383240
O O10 0.824281 0.000000 0.293789
O O11 0.090954 0.000000 0.026022
O O12 0.000000 0.823708 0.000000
O O13 0.585482 0.227871 0.542042
O O14 0.523404 0.221220 0.399225
O O15 0.588609 0.000000 0.444910
O O16 0.048927 0.000000 0.367044
#
# Coordination Sequence:
#
# PCOD9398719 Si02
#       6
#     8   8   8   8   8   8
#     4  10  19  30  43  62  92 123 148 183 227 273
#     4  10  18  27  41  66  95 120 146 181 227 276
#     4  10  19  31  48  67  88 118 157 195 225 263
#     4   9  17  28  44  64  87 118 151 181 217 266
#     4   8  15  27  43  64  87 115 152 190 229 269
#     4   9  15  26  45  63  86 120 152 185 227 278
#
# _framework density 15.591996999999999
#
# number of rings (size 3 to 8) (size 9 to 14) (size 15 to 20)
#    0.000    2.667    1.667    2.500    0.000    3.667 
#    0.000    2.500    0.000    0.000    0.000    1.167 
#    0.000    6.667    0.000    0.000    0.000    0.000 
#
# Total GULP energy -267429.499810 kJ/mol
# GULP energy per Si atom -5571.447913 kJ/mol
# Density = 1.555651 g / cm^3
# Si number density = 15.591997 Si / 1000 Ang^3
#
#
#
# Elastic Constant Matrix: (Units=GPa)
#
#
# Indices 1 2 3 4 5 6 
#
# 1 65.1732 26.2430 55.5072 0.0000 0.0000 0.0000
# 2 26.2430 32.1611 48.0574 0.0000 0.0000 0.0000
# 3 55.5072 48.0574 182.1660 0.0000 0.0000 0.0000
# 4 0.0000 0.0000 0.0000 -4.6396 0.0000 0.0000
# 5 0.0000 0.0000 0.0000 0.0000 14.7121 0.0000
# 6 0.0000 0.0000 0.0000 0.0000 0.0000 11.9614
#
#
#
# Elastic Compliance Matrix: (Units=1/GPa)
#
#
# Indices 1 2 3 4 5 6 
#
# 1 0.024182 -0.014397 -0.003570 0.000000 0.000000 0.000000
# 2 -0.014397 0.059898 -0.011415 0.000000 0.000000 0.000000
# 3 -0.003570 -0.011415 0.009589 0.000000 0.000000 0.000000
# 4 0.000000 0.000000 0.000000 -0.215537 0.000000 0.000000
# 5 0.000000 0.000000 0.000000 0.000000 0.067971 0.000000
# 6 0.000000 0.000000 0.000000 0.000000 0.000000 0.083602
#
#
# Mechanical properties :
#
#
# Convention : Reuss Voigt Hill
#
# Bulk Modulus (GPa) = 28.64980 59.90171 44.27575
# Shear Modulus (GPa) = 49.94807 14.38630 32.16719
#
# Velocity S-wave (km/s) = 5.66604 3.04085 4.54702
# Velocity P-wave (km/s) = 7.82431 7.12956 7.48500
#
# Compressibility (1/GPa) = 0.03490426
#
# Stress axis : x y z
#
# Youngs Moduli (GPa) = 41.35377 16.69501 104.28887
#
# Poissons Ratio (x) = 0.24036 0.37233
# Poissons Ratio (y) = 0.59537 1.19045
# Poissons Ratio (z) = 0.14764 0.19057
#
# Static dielectric constant tensor:
#      x y z
#    x 1.495410 0.000000 0.000000 
#    y 0.000000 1.517430 0.000000 
#    z 0.000000 0.000000 1.525570 
# 
# From -- ./inp_files/25458.got.cif
#   From: 2010.05.17/outbox.cif.g08.bks.cpg/sg51_13_cif.got.tgz:25458.got - 2010.06.03 11:52:47.
