data_PCOD9398367
_publ_section_title
;
Structure prediction by ZEFSAII (Michael W. Deem and Ramdas Pophale) SiO2 
 PCOD9398367
Probable space group: P M M A
;
_chemical_formula_sum "Si O2"
_cell_formula_units_Z 40
_cell_length_a 8.697622
_cell_length_b 21.521249
_cell_length_c 14.711737
_cell_angle_alpha 90.000000
_cell_angle_beta 90.000000
_cell_angle_gamma 90.000000
_cell_volume 2753.797200
_symmetry_space_group_name_H-M "P M M A"
_symmetry_group_IT_number 51
_symmetry_cell_setting 'orthorhombic'
loop_
_space_group_symop_operation_xyz
x,y,z
1/2-x,-y,z
1/2+x,-y,-z
-x,y,-z
-x,-y,-z
1/2+x,y,-z
1/2-x,y,z
x,-y,z
loop_
_atom_site_type_symbol
_atom_site_label
_atom_site_fract_x
_atom_site_fract_y
_atom_site_fract_z
Si Si1 0.065664 0.264772 0.602542
Si Si2 0.934776 0.572289 0.903815
Si Si3 0.564900 0.618659 0.708843
Si Si4 0.433683 0.126199 0.602344
Si Si5 0.434206 0.500000 0.601738
Si Si6 0.933067 0.000000 0.603310
O O1 0.250000 0.271335 0.597949
O O2 0.031129 0.195058 0.639101
O O3 0.000000 0.270380 0.500000
O O4 0.994512 0.318055 0.664591
O O5 0.750000 0.572750 0.908632
O O6 0.983580 0.500000 0.891622
O O7 0.980819 0.610093 0.814352
O O8 0.000000 0.594477 0.000000
O O9 0.750000 0.615554 0.703090
O O10 0.495363 0.560819 0.653555
O O11 0.500000 0.128528 0.500000
O O12 0.250000 0.118573 0.598668
O O13 0.506708 0.064491 0.645805
O O14 0.250000 0.500000 0.599628
O O15 0.500000 0.500000 0.500000
O O16 0.000000 0.000000 0.500000
O O17 0.750000 0.000000 0.598956
#
# Coordination Sequence:
#
# PCOD9398367 Si02
#       6
#     8   8   8   8   4   4
#     4  10  20  32  45  63  86 118 154 185 219 261
#     4   9  18  33  51  70  89 108 135 173 220 268
#     4  11  21  35  50  66  89 114 143 181 222 264
#     4   9  16  26  39  55  79 108 143 181 216 252
#     4  12  24  36  49  64  85 114 149 186 220 256
#     4  10  16  22  36  56  78 104 141 180 217 254
#
# _framework density 14.525397999999999
#
# number of rings (size 3 to 8) (size 9 to 14) (size 15 to 20)
#    0.000    2.000    1.000    5.400    0.000    4.000 
#    0.000    0.000    0.000    0.000    0.000    0.000 
#    0.000    0.000    0.000    0.900    0.000   11.900 
#
# Total GULP energy -222993.302204 kJ/mol
# GULP energy per Si atom -5574.832555 kJ/mol
# Density = 1.449234 g / cm^3
# Si number density = 14.525398 Si / 1000 Ang^3
#
#
#
# Elastic Constant Matrix: (Units=GPa)
#
#
# Indices 1 2 3 4 5 6 
#
# 1 78.0938 57.3866 34.3763 0.0000 0.0000 0.0000
# 2 57.3866 145.1905 58.4428 0.0000 0.0000 0.0000
# 3 34.3763 58.4428 91.0330 0.0000 0.0000 0.0000
# 4 0.0000 0.0000 0.0000 0.5753 0.0000 0.0000
# 5 0.0000 0.0000 0.0000 0.0000 19.3420 0.0000
# 6 0.0000 0.0000 0.0000 0.0000 0.0000 20.5177
#
#
#
# Elastic Compliance Matrix: (Units=1/GPa)
#
#
# Indices 1 2 3 4 5 6 
#
# 1 0.018682 -0.006128 -0.003121 0.000000 0.000000 0.000000
# 2 -0.006128 0.011298 -0.004939 0.000000 0.000000 0.000000
# 3 -0.003121 -0.004939 0.015334 0.000000 0.000000 0.000000
# 4 0.000000 0.000000 0.000000 1.738274 0.000000 0.000000
# 5 0.000000 0.000000 0.000000 0.000000 0.051701 0.000000
# 6 0.000000 0.000000 0.000000 0.000000 0.000000 0.048738
#
#
# Mechanical properties :
#
#
# Convention : Reuss Voigt Hill
#
# Bulk Modulus (GPa) = 59.03641 68.30318 63.66980
# Shear Modulus (GPa) = 2.60682 19.02779 10.81730
#
# Velocity S-wave (km/s) = 1.34110 3.62327 2.73191
# Velocity P-wave (km/s) = 6.56733 8.03925 7.34028
#
# Compressibility (1/GPa) = 0.01693870
#
# Stress axis : x y z
#
# Youngs Moduli (GPa) = 53.52808 88.51445 65.21348
#
# Poissons Ratio (x) = 0.54240 0.20351
# Poissons Ratio (y) = 0.32801 0.32209
# Poissons Ratio (z) = 0.16704 0.43717
#
# Static dielectric constant tensor:
#      x y z
#    x 1.488610 0.000000 0.000000 
#    y 0.000000 1.518260 0.000000 
#    z 0.000000 0.000000 1.447760 
# 
# From -- ./inp_files/14267.got.cif
#   From: 2010.05.17/outbox.cif.g08.bks.cpg/sg51_8_cif.got.tgz:14267.got - 2010.06.03 11:52:47.
