data_PCOD9398862
_publ_section_title
;
Structure prediction by ZEFSAII (Michael W. Deem and Ramdas Pophale) SiO2 
 PCOD9398862
Probable space group: P M M A
;
_chemical_formula_sum "Si O2"
_cell_formula_units_Z 44
_cell_length_a 8.613872
_cell_length_b 14.175964
_cell_length_c 19.442855
_cell_angle_alpha 90.000000
_cell_angle_beta 90.000000
_cell_angle_gamma 90.000000
_cell_volume 2374.165845
_symmetry_space_group_name_H-M "P M M A"
_symmetry_group_IT_number 51
_symmetry_cell_setting 'orthorhombic'
loop_
_space_group_symop_operation_xyz
x,y,z
1/2-x,-y,z
1/2+x,-y,-z
-x,y,-z
-x,-y,-z
1/2+x,y,-z
1/2-x,y,z
x,-y,z
loop_
_atom_site_type_symbol
_atom_site_label
_atom_site_fract_x
_atom_site_fract_y
_atom_site_fract_z
Si Si1 0.062994 0.892750 0.210724
Si Si2 0.935786 0.785861 0.924474
Si Si3 0.934011 0.711748 0.287134
Si Si4 0.564545 0.000000 0.577792
Si Si5 0.436310 0.800402 0.576944
Si Si6 0.563085 0.605245 0.838436
O O1 0.250000 0.882427 0.220630
O O2 0.029110 0.867254 0.131060
O O3 0.977646 0.812674 0.253853
O O4 0.020629 0.000000 0.227463
O O5 0.750000 0.779884 0.929080
O O6 0.992890 0.687330 0.890174
O O7 0.000000 0.801238 0.000000
O O8 0.750000 0.697381 0.283548
O O9 0.979443 0.721097 0.367186
O O10 0.015383 0.635729 0.238447
O O11 0.500000 0.000000 0.500000
O O12 0.502092 0.099436 0.604704
O O13 0.250000 0.000000 0.420400
O O14 0.500000 0.784764 0.500000
O O15 0.250000 0.807839 0.573470
O O16 0.750000 0.605610 0.841678
O O17 0.507165 0.500000 0.854954
#
# Coordination Sequence:
#
# PCOD9398862 Si02
#       6
#     8   8   8   4   8   8
#     4   9  19  35  52  71  99 139 181 213 246 296
#     4   9  18  32  50  75 106 134 166 207 249 298
#     4  10  21  34  51  77 105 131 165 215 262 300
#     4  10  18  28  44  66  94 130 169 204 243 290
#     4  10  20  33  48  70 102 135 169 210 255 300
#     4   9  19  37  58  77 100 132 168 206 252 309
#
# _framework density 18.532824999999999
#
# number of rings (size 3 to 8) (size 9 to 14) (size 15 to 20)
#    0.000    2.545    0.000    4.091    1.273    7.273 
#    0.000    0.000    0.000    0.545    0.000    0.000 
#    0.000    0.000    0.000    0.000    0.000    0.000 
#
# Total GULP energy -245314.430870 kJ/mol
# GULP energy per Si atom -5575.327974 kJ/mol
# Density = 1.849064 g / cm^3
# Si number density = 18.532825 Si / 1000 Ang^3
#
#
#
# Elastic Constant Matrix: (Units=GPa)
#
#
# Indices 1 2 3 4 5 6 
#
# 1 19.0905 -6.6878 3.6275 0.0000 0.0000 0.0000
# 2 -6.6878 26.5938 -21.5663 0.0000 0.0000 0.0000
# 3 3.6275 -21.5663 66.4602 0.0000 0.0000 0.0000
# 4 0.0000 0.0000 0.0000 14.7655 0.0000 0.0000
# 5 0.0000 0.0000 0.0000 0.0000 27.4230 0.0000
# 6 0.0000 0.0000 0.0000 0.0000 0.0000 18.1563
#
#
#
# Elastic Compliance Matrix: (Units=1/GPa)
#
#
# Indices 1 2 3 4 5 6 
#
# 1 0.057661 0.016215 0.002115 0.000000 0.000000 0.000000
# 2 0.016215 0.055592 0.017154 0.000000 0.000000 0.000000
# 3 0.002115 0.017154 0.020498 0.000000 0.000000 0.000000
# 4 0.000000 0.000000 0.000000 0.067726 0.000000 0.000000
# 5 0.000000 0.000000 0.000000 0.000000 0.036466 0.000000
# 6 0.000000 0.000000 0.000000 0.000000 0.000000 0.055077
#
#
# Mechanical properties :
#
#
# Convention : Reuss Voigt Hill
#
# Bulk Modulus (GPa) = 4.88472 6.98792 5.93632
# Shear Modulus (GPa) = 17.22416 21.18703 19.20560
#
# Velocity S-wave (km/s) = 3.05189 3.38482 3.22266
# Velocity P-wave (km/s) = 3.88074 4.36517 4.13007
#
# Compressibility (1/GPa) = 0.20471992
#
# Stress axis : x y z
#
# Youngs Moduli (GPa) = 17.34278 17.98822 48.78572
#
# Poissons Ratio (x) = -0.29169 -0.10317
# Poissons Ratio (y) = -0.28122 -0.83689
# Poissons Ratio (z) = -0.03667 -0.30858
#
# Static dielectric constant tensor:
#      x y z
#    x 1.629540 0.000000 0.000000 
#    y 0.000000 1.647160 0.000000 
#    z 0.000000 0.000000 1.657770 
# 
# From -- ./inp_files/27342.got.cif
#   From: 2010.05.17/outbox.cif.g08.bks.cpg/sg51_14_cif.got.tgz:27342.got - 2010.06.03 11:52:47.
