data_PCOD9398104
_publ_section_title
;
Structure prediction by ZEFSAII (Michael W. Deem and Ramdas Pophale) SiO2 
 PCOD9398104
Probable space group: P B A N
;
_chemical_formula_sum "Si O2"
_cell_formula_units_Z 58
_cell_length_a 10.059232
_cell_length_b 9.550460
_cell_length_c 29.515441
_cell_angle_alpha 90.000000
_cell_angle_beta 90.000000
_cell_angle_gamma 90.000000
_cell_volume 2835.557060
_symmetry_space_group_name_H-M "P B A N"
_symmetry_group_IT_number 50
_space_group.IT_coordinate_system_code '2'
_symmetry_cell_setting 'orthorhombic'
loop_
_space_group_symop_operation_xyz
x,y,z
1/2-x,1/2-y,z
x,1/2-y,-z
1/2-x,y,-z
-x,-y,-z
1/2+x,1/2+y,-z
-x,1/2+y,z
1/2+x,-y,z
loop_
_atom_site_type_symbol
_atom_site_label
_atom_site_fract_x
_atom_site_fract_y
_atom_site_fract_z
Si Si1 0.250000 0.250000 0.500000
Si Si2 0.909212 0.225136 0.292468
Si Si3 0.258933 0.083333 0.819803
Si Si4 0.507387 0.974907 0.764201
Si Si5 0.550906 0.946384 0.451651
Si Si6 0.596248 0.221147 0.393263
Si Si7 0.310093 0.094744 0.924370
Si Si8 0.413853 0.605937 0.969853
O O1 0.324981 0.146968 0.534081
O O2 0.750000 0.250000 0.289924
O O3 0.945468 0.068768 0.278034
O O4 0.960912 0.263987 0.342640
O O5 0.979256 0.321963 0.255267
O O6 0.250000 0.250000 0.815992
O O7 0.373503 0.029053 0.787014
O O8 0.287840 0.053142 0.872240
O O9 0.121058 0.021567 0.801995
O O10 0.453818 0.839744 0.427086
O O11 0.500000 0.000000 0.500000
O O12 0.574890 0.073665 0.417691
O O13 0.750000 0.250000 0.387129
O O14 0.250000 0.250000 0.934453
O O15 0.469841 0.120367 0.931460
O O16 0.220142 0.976081 0.951823
O O17 0.396184 0.750000 0.000000
O O18 0.500000 0.500000 0.000000
#
# Coordination Sequence:
#
# PCOD9398104 Si02
#       8
#     2   8   8   8   8   8   8   8
#     4  12  24  40  68  96 128 164 234 278 336 404
#     4  11  24  42  66  97 138 171 225 278 332 418
#     4  11  24  42  72 101 139 177 226 287 343 398
#     4  12  22  44  68 101 131 183 222 275 347 409
#     4  12  23  44  67  94 129 174 222 276 338 404
#     4  11  25  43  65  96 132 177 217 278 338 399
#     4  11  25  47  68 106 141 178 236 289 338 409
#     4  12  25  46  73 101 139 189 229 282 346 410
#
# _framework density 20.454536000000001
#
# number of rings (size 3 to 8) (size 9 to 14) (size 15 to 20)
#    0.000    0.552    5.517    2.897    0.000    1.655 
#    0.000    1.379    0.000    0.000    0.000    0.000 
#    0.000    0.000    0.000    0.000    0.000    0.000 
#
# Total GULP energy -323612.652920 kJ/mol
# GULP energy per Si atom -5579.528499 kJ/mol
# Density = 2.040798 g / cm^3
# Si number density = 20.454536 Si / 1000 Ang^3
#
#
#
# Elastic Constant Matrix: (Units=GPa)
#
#
# Indices 1 2 3 4 5 6 
#
# 1 77.1037 11.0951 13.9433 0.0000 0.0000 0.0000
# 2 11.0951 93.4785 18.6836 0.0000 0.0000 0.0000
# 3 13.9433 18.6836 99.4578 0.0000 0.0000 0.0000
# 4 0.0000 0.0000 0.0000 42.8053 0.0000 0.0000
# 5 0.0000 0.0000 0.0000 0.0000 24.3916 0.0000
# 6 0.0000 0.0000 0.0000 0.0000 0.0000 38.0030
#
#
#
# Elastic Compliance Matrix: (Units=1/GPa)
#
#
# Indices 1 2 3 4 5 6 
#
# 1 0.013450 -0.001267 -0.001648 0.000000 0.000000 0.000000
# 2 -0.001267 0.011234 -0.001933 0.000000 0.000000 0.000000
# 3 -0.001648 -0.001933 0.010649 0.000000 0.000000 0.000000
# 4 0.000000 0.000000 0.000000 0.023362 0.000000 0.000000
# 5 0.000000 0.000000 0.000000 0.000000 0.040998 0.000000
# 6 0.000000 0.000000 0.000000 0.000000 0.000000 0.026314
#
#
# Mechanical properties :
#
#
# Convention : Reuss Voigt Hill
#
# Bulk Modulus (GPa) = 39.00471 39.72042 39.36256
# Shear Modulus (GPa) = 34.66286 36.12784 35.39535
#
# Velocity S-wave (km/s) = 4.12105 4.20724 4.16437
# Velocity P-wave (km/s) = 6.46177 6.56218 6.51217
#
# Compressibility (1/GPa) = 0.02563793
#
# Stress axis : x y z
#
# Youngs Moduli (GPa) = 74.35043 89.01272 93.90936
#
# Poissons Ratio (x) = 0.11279 0.15472
# Poissons Ratio (y) = 0.09421 0.18151
# Poissons Ratio (z) = 0.12250 0.17204
#
# Static dielectric constant tensor:
#      x y z
#    x 1.773640 0.000000 0.000000 
#    y 0.000000 1.691540 0.000000 
#    z 0.000000 0.000000 0.382170 
# 
# From -- ./inp_files/32472.got.cif
#   From: 2010.05.17/outbox.cif.g08.bks.cpg/sg50_17_cif.got.tgz:32472.got - 2010.06.03 11:33:33.
