data_PCOD9398254
_publ_section_title
;
Structure prediction by ZEFSAII (Michael W. Deem and Ramdas Pophale) SiO2 
 PCOD9398254
Probable space group: P B A N
;
_chemical_formula_sum "Si O2"
_cell_formula_units_Z 30
_cell_length_a 9.115549
_cell_length_b 13.725384
_cell_length_c 10.012136
_cell_angle_alpha 90.000000
_cell_angle_beta 90.000000
_cell_angle_gamma 90.000000
_cell_volume 1252.662492
_symmetry_space_group_name_H-M "P B A N"
_symmetry_group_IT_number 50
_space_group.IT_coordinate_system_code '2'
_symmetry_cell_setting 'orthorhombic'
loop_
_space_group_symop_operation_xyz
x,y,z
1/2-x,1/2-y,z
x,1/2-y,-z
1/2-x,y,-z
-x,-y,-z
1/2+x,1/2+y,-z
-x,1/2+y,z
1/2+x,-y,z
loop_
_atom_site_type_symbol
_atom_site_label
_atom_site_fract_x
_atom_site_fract_y
_atom_site_fract_z
Si Si1 0.250000 0.090741 0.500000
Si Si2 0.671943 0.030128 0.259978
Si Si3 0.502860 0.288840 0.637827
Si Si4 0.964832 0.113381 0.171429
Si Si5 0.750000 0.250000 0.000000
O O1 0.142286 0.156125 0.588867
O O2 0.344865 0.023573 0.598251
O O3 0.601189 0.136172 0.278398
O O4 0.843865 0.044521 0.240132
O O5 0.597424 0.962327 0.146815
O O6 0.574810 0.250000 0.500000
O O7 0.473892 0.196085 0.729699
O O8 0.865004 0.175000 0.069618
#
# Coordination Sequence:
#
# PCOD9398254 Si02
#       5
#     4   8   8   8   2
#     4  12  23  38  71 116 158 174 233 286 377 458
#     4  12  24  45  69 111 144 198 228 296 363 453
#     4  12  23  41  69 111 152 185 222 293 365 451
#     4  12  27  46  77  99 147 190 256 293 370 423
#     4  12  28  56  70 102 134 204 260 328 348 412
#
# _framework density 23.948988
#
# number of rings (size 3 to 8) (size 9 to 14) (size 15 to 20)
#    0.000    0.000    8.000    2.800    0.000    2.133 
#    0.000    0.000    0.000    6.400    0.000    0.000 
#    0.000    0.000    0.000    0.000    0.000    0.000 
#
# Total GULP energy -167737.718114 kJ/mol
# GULP energy per Si atom -5591.257270 kJ/mol
# Density = 2.389448 g / cm^3
# Si number density = 23.948988 Si / 1000 Ang^3
#
#
#
# Elastic Constant Matrix: (Units=GPa)
#
#
# Indices 1 2 3 4 5 6 
#
# 1 82.6469 27.0364 -3.4461 0.0000 0.0000 0.0000
# 2 27.0364 132.2347 14.7490 0.0000 0.0000 0.0000
# 3 -3.4461 14.7490 36.0122 0.0000 0.0000 0.0000
# 4 0.0000 0.0000 0.0000 22.9141 0.0000 0.0000
# 5 0.0000 0.0000 0.0000 0.0000 35.2436 0.0000
# 6 0.0000 0.0000 0.0000 0.0000 0.0000 8.2491
#
#
#
# Elastic Compliance Matrix: (Units=1/GPa)
#
#
# Indices 1 2 3 4 5 6 
#
# 1 0.013175 -0.002970 0.002477 0.000000 0.000000 0.000000
# 2 -0.002970 0.008594 -0.003804 0.000000 0.000000 0.000000
# 3 0.002477 -0.003804 0.029563 0.000000 0.000000 0.000000
# 4 0.000000 0.000000 0.000000 0.043641 0.000000 0.000000
# 5 0.000000 0.000000 0.000000 0.000000 0.028374 0.000000
# 6 0.000000 0.000000 0.000000 0.000000 0.000000 0.121225
#
#
# Mechanical properties :
#
#
# Convention : Reuss Voigt Hill
#
# Bulk Modulus (GPa) = 23.39830 36.39695 29.89762
# Shear Modulus (GPa) = 18.69780 27.45166 23.07473
#
# Velocity S-wave (km/s) = 2.79719 3.38931 3.10739
# Velocity P-wave (km/s) = 4.49707 5.52696 5.03840
#
# Compressibility (1/GPa) = 0.04273815
#
# Stress axis : x y z
#
# Youngs Moduli (GPa) = 75.90421 116.36296 33.82576
#
# Poissons Ratio (x) = 0.34559 -0.08379
# Poissons Ratio (y) = 0.22543 0.12867
# Poissons Ratio (z) = -0.18802 0.44263
#
# Static dielectric constant tensor:
#      x y z
#    x 1.895600 0.000000 0.000000 
#    y 0.000000 1.931610 0.000000 
#    z 0.000000 0.000000 1.979510 
# 
# From -- ./inp_files/12130.got.cif
#   From: 2010.05.17/outbox.cif.g08.bks.cpg/sg50_7_cif.got.tgz:12130.got - 2010.06.03 11:33:33.
