data_PCOD9398111
_publ_section_title
;
Structure prediction by ZEFSAII (Michael W. Deem and Ramdas Pophale) SiO2 
 PCOD9398111
Probable space group: P B A N
;
_chemical_formula_sum "Si O2"
_cell_formula_units_Z 48
_cell_length_a 9.286088
_cell_length_b 15.813378
_cell_length_c 17.064692
_cell_angle_alpha 90.000000
_cell_angle_beta 90.000000
_cell_angle_gamma 90.000000
_cell_volume 2505.854794
_symmetry_space_group_name_H-M "P B A N"
_symmetry_group_IT_number 50
_space_group.IT_coordinate_system_code '2'
_symmetry_cell_setting 'orthorhombic'
loop_
_space_group_symop_operation_xyz
x,y,z
1/2-x,1/2-y,z
x,1/2-y,-z
1/2-x,y,-z
-x,-y,-z
1/2+x,1/2+y,-z
-x,1/2+y,z
1/2+x,-y,z
loop_
_atom_site_type_symbol
_atom_site_label
_atom_site_fract_x
_atom_site_fract_y
_atom_site_fract_z
Si Si1 0.081004 0.153015 0.413737
Si Si2 0.825367 0.340650 0.077702
Si Si3 0.012391 0.504668 0.302888
Si Si4 0.429120 0.156141 0.403460
Si Si5 0.761757 0.486037 0.193510
Si Si6 0.396552 0.069399 0.046706
O O1 0.021401 0.076385 0.364657
O O2 0.254502 0.150771 0.403527
O O3 0.032875 0.246315 0.385599
O O4 0.036966 0.142379 0.504641
O O5 0.750000 0.250000 0.086235
O O6 0.789600 0.397173 0.152043
O O7 0.995506 0.351774 0.061742
O O8 0.750000 0.378725 0.000000
O O9 0.914507 0.518394 0.225271
O O10 0.004637 0.412876 0.344759
O O11 0.172804 0.516994 0.272649
O O12 0.669512 0.537696 0.129443
O O13 0.250000 0.088722 0.000000
O O14 0.500000 0.000000 0.000000
#
# Coordination Sequence:
#
# PCOD9398111 Si02
#       6
#     8   8   8   8   8   8
#     4   9  19  38  62  88 120 171 224 259 316 388
#     4  11  24  43  65  92 132 167 213 272 325 381
#     4  12  22  37  61  96 129 163 213 266 332 387
#     4   9  19  38  62  86 124 171 215 269 315 382
#     4  12  23  37  63  93 126 167 206 258 331 389
#     4  12  20  41  73  93 122 173 222 262 317 400
#
# _framework density 19.155138999999998
#
# number of rings (size 3 to 8) (size 9 to 14) (size 15 to 20)
#    0.000    1.167    6.667    1.500    0.000    1.333 
#    0.000    1.667    0.000    2.000    0.000    0.000 
#    0.000    0.000    0.000    0.000    0.000    0.000 
#
# Total GULP energy -267401.158364 kJ/mol
# GULP energy per Si atom -5570.857466 kJ/mol
# Density = 1.911154 g / cm^3
# Si number density = 19.155139 Si / 1000 Ang^3
#
#
#
# Elastic Constant Matrix: (Units=GPa)
#
#
# Indices 1 2 3 4 5 6 
#
# 1 88.8499 40.0089 18.3638 0.0000 0.0000 0.0000
# 2 40.0089 99.7056 52.2858 0.0000 0.0000 0.0000
# 3 18.3638 52.2858 72.6868 0.0000 0.0000 0.0000
# 4 0.0000 0.0000 0.0000 16.6461 0.0000 0.0000
# 5 0.0000 0.0000 0.0000 0.0000 10.2532 0.0000
# 6 0.0000 0.0000 0.0000 0.0000 0.0000 14.9642
#
#
#
# Elastic Compliance Matrix: (Units=1/GPa)
#
#
# Indices 1 2 3 4 5 6 
#
# 1 0.013766 -0.005941 0.000796 0.000000 0.000000 0.000000
# 2 -0.005941 0.018669 -0.011928 0.000000 0.000000 0.000000
# 3 0.000796 -0.011928 0.022137 0.000000 0.000000 0.000000
# 4 0.000000 0.000000 0.000000 0.060074 0.000000 0.000000
# 5 0.000000 0.000000 0.000000 0.000000 0.097531 0.000000
# 6 0.000000 0.000000 0.000000 0.000000 0.000000 0.066826
#
#
# Mechanical properties :
#
#
# Convention : Reuss Voigt Hill
#
# Bulk Modulus (GPa) = 48.96054 53.61770 51.28912
# Shear Modulus (GPa) = 15.62712 18.41161 17.01936
#
# Velocity S-wave (km/s) = 2.85935 3.10366 2.98401
# Velocity P-wave (km/s) = 6.04290 6.39497 6.22143
#
# Compressibility (1/GPa) = 0.02042461
#
# Stress axis : x y z
#
# Youngs Moduli (GPa) = 72.64429 53.56616 45.17388
#
# Poissons Ratio (x) = 0.31824 -0.03595
# Poissons Ratio (y) = 0.43159 0.53883
# Poissons Ratio (z) = -0.05781 0.63893
#
# Static dielectric constant tensor:
#      x y z
#    x 1.671980 0.000000 0.000000 
#    y 0.000000 1.669600 0.000000 
#    z 0.000000 0.000000 1.689770 
# 
# From -- ./inp_files/28707.got.cif
#   From: 2010.05.17/outbox.cif.g08.bks.cpg/sg50_15_cif.got.tgz:28707.got - 2010.06.03 11:33:33.
