data_PCOD9398415
_publ_section_title
;
Structure prediction by ZEFSAII (Michael W. Deem and Ramdas Pophale) SiO2 
 PCOD9398415
Probable space group: P M M A
;
_chemical_formula_sum "Si O2"
_cell_formula_units_Z 28
_cell_length_a 7.800859
_cell_length_b 12.059969
_cell_length_c 19.206846
_cell_angle_alpha 90.000000
_cell_angle_beta 90.000000
_cell_angle_gamma 90.000000
_cell_volume 1806.943919
_symmetry_space_group_name_H-M "P M M A"
_symmetry_group_IT_number 51
_symmetry_cell_setting 'orthorhombic'
loop_
_space_group_symop_operation_xyz
x,y,z
1/2-x,-y,z
1/2+x,-y,-z
-x,y,-z
-x,-y,-z
1/2+x,y,-z
1/2-x,y,z
x,-y,z
loop_
_atom_site_type_symbol
_atom_site_label
_atom_site_fract_x
_atom_site_fract_y
_atom_site_fract_z
Si Si1 0.055865 0.364992 0.422056
Si Si2 0.051773 0.243804 0.081901
Si Si3 0.250000 0.365004 0.677760
Si Si4 0.250000 0.367062 0.838959
Si Si5 0.954959 0.000000 0.081907
O O1 0.250000 0.329038 0.407791
O O2 0.055020 0.500000 0.421755
O O3 0.000000 0.331936 0.500000
O O4 0.917670 0.328643 0.365102
O O5 0.250000 0.276914 0.088744
O O6 0.917846 0.319211 0.123049
O O7 0.028778 0.116625 0.107805
O O8 0.000000 0.246149 0.000000
O O9 0.250000 0.500000 0.676853
O O10 0.250000 0.331824 0.758060
O O11 0.250000 0.500000 0.842522
O O12 0.750000 0.000000 0.090001
O O13 0.000000 0.000000 0.000000
#
# Coordination Sequence:
#
# PCOD9398415 Si02
#       5
#     8   8   4   4   4
#     4   9  14  22  40  62  81 108 151 202 246 279
#     4  11  20  36  55  76  95 124 166 215 262 302
#     4   9  18  30  41  59  90 122 162 204 235 279
#     4  11  24  37  47  67 102 145 179 202 235 289
#     4  10  16  30  56  81  99 110 145 212 276 314
#
# _framework density 15.495777
#
# number of rings (size 3 to 8) (size 9 to 14) (size 15 to 20)
#    0.000    2.000    4.286    3.000    0.000    2.286 
#    0.000    2.857    0.000    0.000    0.000    0.000 
#    0.000    0.000    0.000    5.143    0.000    2.571 
#
# Total GULP energy -156017.587747 kJ/mol
# GULP energy per Si atom -5572.056705 kJ/mol
# Density = 1.546051 g / cm^3
# Si number density = 15.495777 Si / 1000 Ang^3
#
#
#
# Elastic Constant Matrix: (Units=GPa)
#
#
# Indices 1 2 3 4 5 6 
#
# 1 183.8237 31.9662 75.1552 0.0000 0.0000 0.0000
# 2 31.9662 50.6449 32.2353 0.0000 0.0000 0.0000
# 3 75.1552 32.2353 111.1841 0.0000 0.0000 0.0000
# 4 0.0000 0.0000 0.0000 -2.6540 0.0000 0.0000
# 5 0.0000 0.0000 0.0000 0.0000 21.9394 0.0000
# 6 0.0000 0.0000 0.0000 0.0000 0.0000 14.5866
#
#
#
# Elastic Compliance Matrix: (Units=1/GPa)
#
#
# Indices 1 2 3 4 5 6 
#
# 1 0.007662 -0.001888 -0.004632 0.000000 0.000000 0.000000
# 2 -0.001888 0.024679 -0.005879 0.000000 0.000000 0.000000
# 3 -0.004632 -0.005879 0.013829 0.000000 0.000000 0.000000
# 4 0.000000 0.000000 0.000000 -0.376795 0.000000 0.000000
# 5 0.000000 0.000000 0.000000 0.000000 0.045580 0.000000
# 6 0.000000 0.000000 0.000000 0.000000 0.000000 0.068556
#
#
# Mechanical properties :
#
#
# Convention : Reuss Voigt Hill
#
# Bulk Modulus (GPa) = 46.78809 69.37400 58.08104
# Shear Modulus (GPa) = -27.09049 20.52747 -3.28151
#
# Velocity S-wave (km/s) = -4.18574 3.64361 -1.45680
# Velocity P-wave (km/s) = 2.62660 7.90999 5.89351
#
# Compressibility (1/GPa) = 0.02137296
#
# Stress axis : x y z
#
# Youngs Moduli (GPa) = 130.51472 40.52047 72.30980
#
# Poissons Ratio (x) = 0.07650 0.33492
# Poissons Ratio (y) = 0.24641 0.42510
# Poissons Ratio (z) = 0.60451 0.23822
#
# Static dielectric constant tensor:
#      x y z
#    x 1.526600 0.000000 0.000000 
#    y 0.000000 1.506610 0.000000 
#    z 0.000000 0.000000 1.499140 
# 
# From -- ./inp_files/26929.got.cif
#   From: 2010.05.17/outbox.cif.g08.bks.cpg/sg51_14_cif.got.tgz:26929.got - 2010.06.03 11:52:47.
