data_PCOD9398941
_publ_section_title
;
Structure prediction by ZEFSAII (Michael W. Deem and Ramdas Pophale) SiO2 
 PCOD9398941
Probable space group: P M M A
;
_chemical_formula_sum "Si O2"
_cell_formula_units_Z 64
_cell_length_a 22.240842
_cell_length_b 9.313621
_cell_length_c 20.837510
_cell_angle_alpha 90.000000
_cell_angle_beta 90.000000
_cell_angle_gamma 90.000000
_cell_volume 4316.339606
_symmetry_space_group_name_H-M "P M M A"
_symmetry_group_IT_number 51
_symmetry_cell_setting 'orthorhombic'
loop_
_space_group_symop_operation_xyz
x,y,z
1/2-x,-y,z
1/2+x,-y,-z
-x,y,-z
-x,-y,-z
1/2+x,y,-z
1/2-x,y,z
x,-y,z
loop_
_atom_site_type_symbol
_atom_site_label
_atom_site_fract_x
_atom_site_fract_y
_atom_site_fract_z
Si Si1 0.035866 0.330524 0.644620
Si Si2 0.028236 0.670696 0.789752
Si Si3 0.429797 0.834763 0.521837
Si Si4 0.396264 0.669131 0.398000
Si Si5 0.556421 0.833013 0.086680
Si Si6 0.821724 0.168318 0.709873
Si Si7 0.387590 0.670725 0.176942
Si Si8 0.585936 0.168129 0.947862
O O1 0.050451 0.500000 0.638713
O O2 0.045467 0.282920 0.717952
O O3 0.070550 0.239318 0.591305
O O4 0.964505 0.318073 0.629271
O O5 0.036859 0.500000 0.793809
O O6 0.062923 0.746019 0.847908
O O7 0.956671 0.695993 0.799940
O O8 0.500000 0.834675 0.500000
O O9 0.396229 0.742007 0.467893
O O10 0.409651 0.000000 0.523225
O O11 0.382222 0.500000 0.401069
O O12 0.352939 0.752139 0.349666
O O13 0.485333 0.825824 0.068974
O O14 0.570829 0.000000 0.096927
O O15 0.590701 0.784379 0.022103
O O16 0.750000 0.178330 0.705429
O O17 0.845169 0.246259 0.773872
O O18 0.838817 0.000000 0.710807
O O19 0.377105 0.500000 0.178165
O O20 0.382466 0.735159 0.105466
O O21 0.603424 0.000000 0.942866
#
# Coordination Sequence:
#
# PCOD9398941 Si02
#       8
#     8   8   8   8   8   8   8   8
#     4   9  16  27  40  58  83 110 138 169 206 247
#     4   9  16  25  37  56  82 108 137 170 204 240
#     4   9  17  27  40  61  82 103 135 169 203 246
#     4  10  18  31  47  60  78 105 136 172 212 252
#     4   8  14  23  35  53  76 104 136 165 197 236
#     4  11  23  35  46  61  81 106 138 178 220 256
#     4  10  18  29  43  59  76 102 138 173 211 250
#     4   8  14  25  38  53  75 102 133 168 202 238
#
# _framework density 14.827379000000001
#
# number of rings (size 3 to 8) (size 9 to 14) (size 15 to 20)
#    0.000    2.750    1.250    2.250    0.000    4.500 
#    0.000    2.500    0.000    0.000    0.000    0.000 
#    0.000    0.000    0.000    1.125    0.000   19.250 
#
# Total GULP energy -356424.499135 kJ/mol
# GULP energy per Si atom -5569.132799 kJ/mol
# Density = 1.479363 g / cm^3
# Si number density = 14.827379 Si / 1000 Ang^3
#
#
#
# Elastic Constant Matrix: (Units=GPa)
#
#
# Indices 1 2 3 4 5 6 
#
# 1 21.2525 30.9735 25.8055 0.0000 0.0000 0.0000
# 2 30.9735 96.0873 79.7114 0.0000 0.0000 0.0000
# 3 25.8055 79.7114 164.9964 0.0000 0.0000 0.0000
# 4 0.0000 0.0000 0.0000 32.4114 0.0000 0.0000
# 5 0.0000 0.0000 0.0000 0.0000 5.7545 0.0000
# 6 0.0000 0.0000 0.0000 0.0000 0.0000 12.0111
#
#
#
# Elastic Compliance Matrix: (Units=1/GPa)
#
#
# Indices 1 2 3 4 5 6 
#
# 1 0.088745 -0.028524 -0.000099 0.000000 0.000000 0.000000
# 2 -0.028524 0.026536 -0.008359 0.000000 0.000000 0.000000
# 3 -0.000099 -0.008359 0.010114 0.000000 0.000000 0.000000
# 4 0.000000 0.000000 0.000000 0.030853 0.000000 0.000000
# 5 0.000000 0.000000 0.000000 0.000000 0.173777 0.000000
# 6 0.000000 0.000000 0.000000 0.000000 0.000000 0.083257
#
#
# Mechanical properties :
#
#
# Convention : Reuss Voigt Hill
#
# Bulk Modulus (GPa) = 19.44354 61.70190 40.57272
# Shear Modulus (GPa) = 9.91296 19.75844 14.83570
#
# Velocity S-wave (km/s) = 2.58845 3.65439 3.16660
# Velocity P-wave (km/s) = 4.69842 7.71427 6.38691
#
# Compressibility (1/GPa) = 0.05143098
#
# Stress axis : x y z
#
# Youngs Moduli (GPa) = 11.26822 37.68468 98.86879
#
# Poissons Ratio (x) = 1.07493 0.00983
# Poissons Ratio (y) = 0.32142 0.82640
# Poissons Ratio (z) = 0.00112 0.31499
#
# Static dielectric constant tensor:
#      x y z
#    x 1.453870 0.000000 0.000000 
#    y 0.000000 1.494040 0.000000 
#    z 0.000000 0.000000 1.507400 
# 
# From -- ./inp_files/34097.got.cif
#   From: 2010.05.17/outbox.cif.g08.bks.cpg/sg51_18_cif.got.tgz:34097.got - 2010.06.03 11:52:47.
