data_PCOD9398474
_publ_section_title
;
Structure prediction by ZEFSAII (Michael W. Deem and Ramdas Pophale) SiO2 
 PCOD9398474
Probable space group: P M M A
;
_chemical_formula_sum "Si O2"
_cell_formula_units_Z 64
_cell_length_a 17.934030
_cell_length_b 17.626148
_cell_length_c 13.275150
_cell_angle_alpha 90.000000
_cell_angle_beta 90.000000
_cell_angle_gamma 90.000000
_cell_volume 4196.379351
_symmetry_space_group_name_H-M "P M M A"
_symmetry_group_IT_number 51
_symmetry_cell_setting 'orthorhombic'
loop_
_space_group_symop_operation_xyz
x,y,z
1/2-x,-y,z
1/2+x,-y,-z
-x,y,-z
-x,-y,-z
1/2+x,y,-z
1/2-x,y,z
x,-y,z
loop_
_atom_site_type_symbol
_atom_site_label
_atom_site_fract_x
_atom_site_fract_y
_atom_site_fract_z
Si Si1 0.514221 0.128777 0.188235
Si Si2 0.336573 0.306723 0.981143
Si Si3 0.937858 0.710154 0.818141
Si Si4 0.042877 0.586666 0.892181
Si Si5 0.335192 0.197118 0.309796
Si Si6 0.051380 0.911165 0.403350
Si Si7 0.360939 0.083328 0.125526
Si Si8 0.169654 0.136314 0.903732
O O1 0.493536 0.217688 0.172710
O O2 0.496275 0.105216 0.302398
O O3 0.450702 0.087970 0.122825
O O4 0.597468 0.111128 0.156764
O O5 0.250000 0.326263 0.002215
O O6 0.380512 0.369083 0.915721
O O7 0.336650 0.226520 0.923458
O O8 0.383707 0.294825 0.084207
O O9 0.885361 0.730793 0.723201
O O10 0.989361 0.635841 0.819590
O O11 0.053763 0.500000 0.859789
O O12 0.000000 0.585593 0.000000
O O13 0.250000 0.214616 0.335176
O O14 0.378649 0.145646 0.391207
O O15 0.336432 0.145124 0.207822
O O16 0.000000 0.897009 0.500000
O O17 0.073836 0.000000 0.403300
O O18 0.338309 0.000000 0.159442
O O19 0.332460 0.100756 0.015049
O O20 0.250000 0.119146 0.856732
#
# Coordination Sequence:
#
# PCOD9398474 Si02
#       8
#     8   8   8   8   8   8   8   8
#     4  10  18  30  48  62  81 116 157 185 227 279
#     4  10  17  26  40  59  88 123 156 188 223 260
#     4   9  16  27  44  62  87 117 150 188 226 268
#     4   9  17  27  41  60  85 124 164 190 215 258
#     4  10  18  29  49  72  90 114 151 192 237 278
#     4   9  19  35  51  66  88 117 151 195 242 280
#     4  10  20  29  41  62  88 115 147 189 229 270
#     4  11  20  28  40  61  89 122 150 180 223 269
#
# _framework density 15.251243000000001
#
# number of rings (size 3 to 8) (size 9 to 14) (size 15 to 20)
#    0.000    2.500    3.750    2.625    0.000    3.500 
#    0.000    0.625    0.000    1.875    0.000    0.000 
#    0.000    8.000    0.000    0.000    0.500    0.000 
#
# Total GULP energy -356484.658069 kJ/mol
# GULP energy per Si atom -5570.072782 kJ/mol
# Density = 1.521653 g / cm^3
# Si number density = 15.251243 Si / 1000 Ang^3
#
#
#
# Elastic Constant Matrix: (Units=GPa)
#
#
# Indices 1 2 3 4 5 6 
#
# 1 121.7600 16.5029 29.9718 0.0000 0.0000 0.0000
# 2 16.5029 73.7010 14.3064 0.0000 0.0000 0.0000
# 3 29.9718 14.3064 31.7343 0.0000 0.0000 0.0000
# 4 0.0000 0.0000 0.0000 13.0335 0.0000 0.0000
# 5 0.0000 0.0000 0.0000 0.0000 14.4692 0.0000
# 6 0.0000 0.0000 0.0000 0.0000 0.0000 0.3015
#
#
#
# Elastic Compliance Matrix: (Units=1/GPa)
#
#
# Indices 1 2 3 4 5 6 
#
# 1 0.010716 -0.000477 -0.009906 0.000000 0.000000 0.000000
# 2 -0.000477 0.014891 -0.006263 0.000000 0.000000 0.000000
# 3 -0.009906 -0.006263 0.043691 0.000000 0.000000 0.000000
# 4 0.000000 0.000000 0.000000 0.076725 0.000000 0.000000
# 5 0.000000 0.000000 0.000000 0.000000 0.069112 0.000000
# 6 0.000000 0.000000 0.000000 0.000000 0.000000 3.317058
#
#
# Mechanical properties :
#
#
# Convention : Reuss Voigt Hill
#
# Bulk Modulus (GPa) = 27.77263 38.75085 33.26174
# Shear Modulus (GPa) = 1.39763 16.65511 9.02637
#
# Velocity S-wave (km/s) = 0.95833 3.30820 2.43543
# Velocity P-wave (km/s) = 4.41295 6.32896 5.45573
#
# Compressibility (1/GPa) = 0.03600667
#
# Stress axis : x y z
#
# Youngs Moduli (GPa) = 93.31980 67.15565 22.88814
#
# Poissons Ratio (x) = 0.03201 0.22673
# Poissons Ratio (y) = 0.04448 0.14335
# Poissons Ratio (z) = 0.92441 0.42059
#
# Static dielectric constant tensor:
#      x y z
#    x 1.550940 0.000000 0.000000 
#    y 0.000000 1.525880 0.000000 
#    z 0.000000 0.000000 1.482330 
# 
# From -- ./inp_files/17680.got.cif
#   From: 2010.05.17/outbox.cif.g08.bks.cpg/sg51_9_cif.got.tgz:17680.got - 2010.06.03 11:52:47.
