data_PCOD9398494
_publ_section_title
;
Structure prediction by ZEFSAII (Michael W. Deem and Ramdas Pophale) SiO2 
 PCOD9398494
Probable space group: P M M A
;
_chemical_formula_sum "Si O2"
_cell_formula_units_Z 48
_cell_length_a 18.962632
_cell_length_b 8.778343
_cell_length_c 16.257378
_cell_angle_alpha 90.000000
_cell_angle_beta 90.000000
_cell_angle_gamma 90.000000
_cell_volume 2706.211074
_symmetry_space_group_name_H-M "P M M A"
_symmetry_group_IT_number 51
_symmetry_cell_setting 'orthorhombic'
loop_
_space_group_symop_operation_xyz
x,y,z
1/2-x,-y,z
1/2+x,-y,-z
-x,y,-z
-x,-y,-z
1/2+x,y,-z
1/2-x,y,z
x,-y,z
loop_
_atom_site_type_symbol
_atom_site_label
_atom_site_fract_x
_atom_site_fract_y
_atom_site_fract_z
Si Si1 0.079888 0.681514 0.583254
Si Si2 0.334809 0.320937 0.904158
Si Si3 0.168656 0.683746 0.088084
Si Si4 0.586088 0.181088 0.248222
Si Si5 0.421263 0.182738 0.235437
Si Si6 0.078958 0.817144 0.417177
O O1 0.074457 0.500000 0.580219
O O2 0.113017 0.736154 0.669024
O O3 0.112921 0.743595 0.498291
O O4 0.001628 0.756197 0.585108
O O5 0.250000 0.309930 0.900010
O O6 0.353252 0.500000 0.895071
O O7 0.370274 0.227851 0.831517
O O8 0.355471 0.269303 0.996327
O O9 0.250000 0.733252 0.099154
O O10 0.168266 0.500000 0.088146
O O11 0.120845 0.743824 0.161204
O O12 0.504081 0.225534 0.233646
O O13 0.587970 0.000000 0.262020
O O14 0.392162 0.222969 0.326652
O O15 0.417691 0.000000 0.228300
O O16 0.077861 0.000000 0.425252
#
# Coordination Sequence:
#
# PCOD9398494 Si02
#       6
#     8   8   8   8   8   8
#     4  10  17  26  44  70  97 128 165 200 239 288
#     4   9  19  36  54  72  96 127 164 203 244 293
#     4   9  19  35  53  72  96 128 164 202 245 293
#     4  10  20  33  49  73 103 131 162 201 246 291
#     4   9  19  32  48  73 102 131 162 200 242 285
#     4   9  16  28  44  66  99 132 161 198 243 288
#
# _framework density 17.736975000000001
#
# number of rings (size 3 to 8) (size 9 to 14) (size 15 to 20)
#    0.000    2.667    0.000    5.500    0.000    6.000 
#    0.000    5.000    0.000    1.000    0.000    4.667 
#    0.000    0.000    0.000    0.000    0.000    0.000 
#
# Total GULP energy -267451.358063 kJ/mol
# GULP energy per Si atom -5571.903293 kJ/mol
# Density = 1.769660 g / cm^3
# Si number density = 17.736975 Si / 1000 Ang^3
#
#
#
# Elastic Constant Matrix: (Units=GPa)
#
#
# Indices 1 2 3 4 5 6 
#
# 1 14.1076 14.4120 36.6333 0.0000 0.0000 0.0000
# 2 14.4120 50.7294 50.1189 0.0000 0.0000 0.0000
# 3 36.6333 50.1189 181.9576 0.0000 0.0000 0.0000
# 4 0.0000 0.0000 0.0000 35.3687 0.0000 0.0000
# 5 0.0000 0.0000 0.0000 0.0000 -26.8410 0.0000
# 6 0.0000 0.0000 0.0000 0.0000 0.0000 23.3624
#
#
#
# Elastic Compliance Matrix: (Units=1/GPa)
#
#
# Indices 1 2 3 4 5 6 
#
# 1 0.160606 -0.018797 -0.027157 0.000000 0.000000 0.000000
# 2 -0.018797 0.029282 -0.004281 0.000000 0.000000 0.000000
# 3 -0.027157 -0.004281 0.012142 0.000000 0.000000 0.000000
# 4 0.000000 0.000000 0.000000 0.028274 0.000000 0.000000
# 5 0.000000 0.000000 0.000000 0.000000 -0.037256 0.000000
# 6 0.000000 0.000000 0.000000 0.000000 0.000000 0.042804
#
#
# Mechanical properties :
#
#
# Convention : Reuss Voigt Hill
#
# Bulk Modulus (GPa) = 9.84643 49.90256 29.87449
# Shear Modulus (GPa) = 13.50710 16.08672 14.79691
#
# Velocity S-wave (km/s) = 2.76256 3.01484 2.89146
# Velocity P-wave (km/s) = 3.96725 6.34940 5.29405
#
# Compressibility (1/GPa) = 0.10155964
#
# Stress axis : x y z
#
# Youngs Moduli (GPa) = 6.22643 34.15025 82.35547
#
# Poissons Ratio (x) = 0.64193 2.23653
# Poissons Ratio (y) = 0.11704 0.35258
# Poissons Ratio (z) = 0.16909 0.14620
#
# Static dielectric constant tensor:
#      x y z
#    x 1.585930 0.000000 0.000000 
#    y 0.000000 1.593280 0.000000 
#    z 0.000000 0.000000 1.655530 
# 
# From -- ./inp_files/24737.got.cif
#   From: 2010.05.17/outbox.cif.g08.bks.cpg/sg51_13_cif.got.tgz:24737.got - 2010.06.03 11:52:47.
