data_PCOD9398651
_publ_section_title
;
Structure prediction by ZEFSAII (Michael W. Deem and Ramdas Pophale) SiO2 
 PCOD9398651
Probable space group: P M M A
;
_chemical_formula_sum "Si O2"
_cell_formula_units_Z 28
_cell_length_a 26.303211
_cell_length_b 5.721181
_cell_length_c 7.117764
_cell_angle_alpha 90.000000
_cell_angle_beta 90.000000
_cell_angle_gamma 90.000000
_cell_volume 1071.119783
_symmetry_space_group_name_H-M "P M M A"
_symmetry_group_IT_number 51
_symmetry_cell_setting 'orthorhombic'
loop_
_space_group_symop_operation_xyz
x,y,z
1/2-x,-y,z
1/2+x,-y,-z
-x,y,-z
-x,-y,-z
1/2+x,y,-z
1/2-x,y,z
x,-y,z
loop_
_atom_site_type_symbol
_atom_site_label
_atom_site_fract_x
_atom_site_fract_y
_atom_site_fract_z
Si Si1 0.691544 0.500000 0.229619
Si Si2 0.155683 0.500000 0.345762
Si Si3 0.310182 0.000000 0.305345
Si Si4 0.555732 0.500000 0.416188
Si Si5 0.060344 0.250417 0.952995
Si Si6 0.311408 0.000000 0.753782
O O1 0.750000 0.500000 0.169078
O O2 0.689305 0.500000 0.458339
O O3 0.669095 0.750708 0.173231
O O4 0.168888 0.254658 0.246778
O O5 0.099057 0.500000 0.429849
O O6 0.319971 0.000000 0.530561
O O7 0.250000 0.000000 0.267873
O O8 0.500000 0.500000 0.500000
O O9 0.562170 0.716923 0.272893
O O10 0.080426 0.500000 0.027934
O O11 0.080219 0.000000 0.017046
O O12 0.000000 0.250340 0.000000
O O13 0.250000 0.000000 0.780047
#
# Coordination Sequence:
#
# PCOD9398651 Si02
#       6
#     4   4   4   4   8   4
#     4   8  12  20  31  44  63  94 135 166 196 246
#     4  10  18  25  39  60  85 122 155 181 232 292
#     4   9  16  28  41  55  78 116 160 190 223 281
#     4  10  21  31  44  70 107 134 154 195 253 304
#     4   8  16  32  50  63  82 125 173 202 224 265
#     4   7  10  16  28  41  55  78 116 160 190 223
#
# _framework density 26.140868999999999
#
# number of rings (size 3 to 8) (size 9 to 14) (size 15 to 20)
#    0.857    2.571    0.000    3.000    2.000    0.571 
#    0.000    0.000    0.000    0.000    0.000    0.000 
#    0.000    0.000    0.000   56.571    0.000    0.000 
#
# Total GULP energy -156314.231849 kJ/mol
# GULP energy per Si atom -5582.651137 kJ/mol
# Density = 2.608137 g / cm^3
# Si number density = 26.140869 Si / 1000 Ang^3
#
#
#
# Elastic Constant Matrix: (Units=GPa)
#
#
# Indices 1 2 3 4 5 6 
#
# 1 144.0527 53.2612 17.7681 0.0000 0.0000 0.0000
# 2 53.2612 360.4673 21.6495 0.0000 0.0000 0.0000
# 3 17.7681 21.6495 110.0548 0.0000 0.0000 0.0000
# 4 0.0000 0.0000 0.0000 1.9266 0.0000 0.0000
# 5 0.0000 0.0000 0.0000 0.0000 5.2647 0.0000
# 6 0.0000 0.0000 0.0000 0.0000 0.0000 -116.2240
#
#
#
# Elastic Compliance Matrix: (Units=1/GPa)
#
#
# Indices 1 2 3 4 5 6 
#
# 1 0.007450 -0.001041 -0.000998 0.000000 0.000000 0.000000
# 2 -0.001041 0.002953 -0.000413 0.000000 0.000000 0.000000
# 3 -0.000998 -0.000413 0.009329 0.000000 0.000000 0.000000
# 4 0.000000 0.000000 0.000000 0.519041 0.000000 0.000000
# 5 0.000000 0.000000 0.000000 0.000000 0.189943 0.000000
# 6 0.000000 0.000000 0.000000 0.000000 0.000000 -0.008604
#
#
# Mechanical properties :
#
#
# Convention : Reuss Voigt Hill
#
# Bulk Modulus (GPa) = 67.43994 88.88138 78.16066
# Shear Modulus (GPa) = 6.84971 12.98655 9.91813
#
# Velocity S-wave (km/s) = 1.62049 2.23130 1.94996
# Velocity P-wave (km/s) = 5.41812 6.38067 5.91899
#
# Compressibility (1/GPa) = 0.01482801
#
# Stress axis : x y z
#
# Youngs Moduli (GPa) = 134.23130 338.66660 107.19587
#
# Poissons Ratio (x) = 0.35249 0.10698
# Poissons Ratio (y) = 0.13971 0.04425
# Poissons Ratio (z) = 0.13396 0.13981
#
# Static dielectric constant tensor:
#      x y z
#    x 1.954350 0.000000 0.000000 
#    y 0.000000 2.099860 0.000000 
#    z 0.000000 0.000000 2.032000 
# 
# From -- ./inp_files/18921.got.cif
#   From: 2010.05.17/outbox.cif.g08.bks.cpg/sg51_10_cif.got.tgz:18921.got - 2010.06.03 11:52:47.
