data_PCOD9398316
_publ_section_title
;
Structure prediction by ZEFSAII (Michael W. Deem and Ramdas Pophale) SiO2 
 PCOD9398316
Probable space group: P B A N
;
_chemical_formula_sum "Si O2"
_cell_formula_units_Z 48
_cell_length_a 12.000000
_cell_length_b 24.000000
_cell_length_c 9.000000
_cell_angle_alpha 90.000000
_cell_angle_beta 90.000000
_cell_angle_gamma 90.000000
_cell_volume 2592.000000
_symmetry_space_group_name_H-M "P B A N"
_symmetry_group_IT_number 50
_space_group.IT_coordinate_system_code '2'
_symmetry_cell_setting 'orthorhombic'
loop_
_space_group_symop_operation_xyz
x,y,z
1/2-x,1/2-y,z
x,1/2-y,-z
1/2-x,y,-z
-x,-y,-z
1/2+x,1/2+y,-z
-x,1/2+y,z
1/2+x,-y,z
loop_
_atom_site_type_symbol
_atom_site_label
_atom_site_fract_x
_atom_site_fract_y
_atom_site_fract_z
Si Si1 0.888142 0.913138 0.167550
Si Si2 0.133597 0.104664 0.183137
Si Si3 0.962353 0.303142 0.816237
Si Si4 0.920196 0.326870 0.158617
Si Si5 0.710635 0.377488 0.333746
Si Si6 0.040522 0.976958 0.661035
O O1 0.763203 0.900451 0.223143
O O2 0.974096 0.863945 0.203582
O O3 0.936121 0.969852 0.235361
O O4 0.880582 0.914468 0.988319
O O5 0.084060 0.167734 0.192215
O O6 0.057384 0.063153 0.278814
O O7 0.944485 0.237320 0.796599
O O8 0.887828 0.334509 0.697653
O O9 0.916027 0.321788 0.978949
O O10 0.811790 0.358153 0.225359
O O11 0.750000 0.370701 0.500000
O O12 0.652895 0.438728 0.327461
O O13 0.000000 0.000000 0.500000
#
# Coordination Sequence:
#
# PCOD9398316 Si02
#       6
#     8   8   8   8   8   8
#     4  10  21  37  61  85 116 151 194 243 281 358
#     4   9  21  40  57  86 115 152 197 232 299 341
#     4   9  20  39  60  86 121 151 187 243 289 360
#     4  10  20  37  62  89 116 151 193 236 301 346
#     4  11  23  37  56  86 115 155 197 240 295 344
#     4  11  24  39  58  79 118 158 197 247 290 347
#
# _framework density 18.518519000000001
#
# number of rings (size 3 to 8) (size 9 to 14) (size 15 to 20)
#    0.000    2.000    0.000    2.500    4.667    3.333 
#    6.000    3.333    0.000    0.000    0.000    4.667 
#    0.000    0.000    0.000    0.000    0.000    0.000 
#
# Total GULP energy -267594.762601 kJ/mol
# GULP energy per Si atom -5574.890888 kJ/mol
# Density = 1.847637 g / cm^3
# Si number density = 18.518519 Si / 1000 Ang^3
#
#
#
# Elastic Constant Matrix: (Units=GPa)
#
#
# Indices 1 2 3 4 5 6 
#
# 1 122.8018 59.5154 31.9342 0.0000 0.0000 0.0000
# 2 59.5154 152.3367 47.7283 0.0000 0.0000 0.0000
# 3 31.9342 47.7283 34.1497 0.0000 0.0000 0.0000
# 4 0.0000 0.0000 0.0000 21.7192 0.0000 0.0000
# 5 0.0000 0.0000 0.0000 0.0000 19.4882 0.0000
# 6 0.0000 0.0000 0.0000 0.0000 0.0000 26.7000
#
#
#
# Elastic Compliance Matrix: (Units=1/GPa)
#
#
# Indices 1 2 3 4 5 6 
#
# 1 0.011068 -0.001924 -0.007661 0.000000 0.000000 0.000000
# 2 -0.001924 0.012012 -0.014990 0.000000 0.000000 0.000000
# 3 -0.007661 -0.014990 0.057397 0.000000 0.000000 0.000000
# 4 0.000000 0.000000 0.000000 0.046042 0.000000 0.000000
# 5 0.000000 0.000000 0.000000 0.000000 0.051313 0.000000
# 6 0.000000 0.000000 0.000000 0.000000 0.000000 0.037453
#
#
# Mechanical properties :
#
#
# Convention : Reuss Voigt Hill
#
# Bulk Modulus (GPa) = 31.92045 65.29379 48.60712
# Shear Modulus (GPa) = 18.18988 24.92216 21.55602
#
# Velocity S-wave (km/s) = 3.13749 3.67249 3.41548
# Velocity P-wave (km/s) = 5.51358 7.30192 6.46984
#
# Compressibility (1/GPa) = 0.03132788
#
# Stress axis : x y z
#
# Youngs Moduli (GPa) = 90.35251 83.24700 17.42245
#
# Poissons Ratio (x) = 0.16014 0.13348
# Poissons Ratio (y) = 0.17381 0.26116
# Poissons Ratio (z) = 0.69220 1.24787
#
# Static dielectric constant tensor:
#      x y z
#    x 1.654520 0.000000 0.000000 
#    y 0.000000 1.635160 0.000000 
#    z 0.000000 0.000000 1.645720 
# 
# From -- ./inp_files/11566.got.cif
#   From: 2010.05.17/outbox.ucp.g08.bks.cvg/sg50_6_cif.got.tgz:11566.got - 2010.06.11 16:26:39.
