data_PCOD9398596
_publ_section_title
;
Structure prediction by ZEFSAII (Michael W. Deem and Ramdas Pophale) SiO2 
 PCOD9398596
Probable space group: P M M A
;
_chemical_formula_sum "Si O2"
_cell_formula_units_Z 40
_cell_length_a 13.638527
_cell_length_b 16.387476
_cell_length_c 7.297846
_cell_angle_alpha 90.000000
_cell_angle_beta 90.000000
_cell_angle_gamma 90.000000
_cell_volume 1631.076126
_symmetry_space_group_name_H-M "P M M A"
_symmetry_group_IT_number 51
_symmetry_cell_setting 'orthorhombic'
loop_
_space_group_symop_operation_xyz
x,y,z
1/2-x,-y,z
1/2+x,-y,-z
-x,y,-z
-x,-y,-z
1/2+x,y,-z
1/2-x,y,z
x,-y,z
loop_
_atom_site_type_symbol
_atom_site_label
_atom_site_fract_x
_atom_site_fract_y
_atom_site_fract_z
Si Si1 0.859608 0.000000 0.834026
Si Si2 0.487935 0.860663 0.255756
Si Si3 0.636295 0.000000 0.393623
Si Si4 0.360756 0.283402 0.311761
Si Si5 0.022142 0.406809 0.778624
Si Si6 0.354802 0.734303 0.872142
O O1 0.918330 0.082653 0.871996
O O2 0.750000 0.000000 0.907182
O O3 0.856289 0.000000 0.612911
O O4 0.411869 0.802248 0.370133
O O5 0.556150 0.792551 0.169855
O O6 0.567165 0.924279 0.337174
O O7 0.750000 0.000000 0.326868
O O8 0.250000 0.292434 0.383194
O O9 0.434447 0.359962 0.327836
O O10 0.351663 0.276415 0.090445
O O11 0.033657 0.500000 0.721517
O O12 0.118324 0.350253 0.771912
O O13 0.000000 0.407231 0.000000
O O14 0.250000 0.767109 0.811559
#
# Coordination Sequence:
#
# PCOD9398596 Si02
#       6
#     4   8   4   8   8   8
#     4  10  21  35  50  67  84 103 133 176 224 270
#     4  10  17  30  48  64  84 113 142 175 215 256
#     4  10  21  35  50  67  84 103 133 176 224 270
#     4   9  17  28  42  62  90 122 152 179 207 244
#     4   8  14  24  38  58  85 118 155 188 212 236
#     4   9  17  28  42  62  90 122 152 179 207 244
#
# _framework density 24.523688
#
# number of rings (size 3 to 8) (size 9 to 14) (size 15 to 20)
#    0.000    2.800    0.000    4.200    0.000    0.800 
#    0.000   12.000    0.000   14.400    0.000    0.000 
#    0.000   51.200    0.000  134.400    0.000    6.400 
#
# Total GULP energy -223488.970074 kJ/mol
# GULP energy per Si atom -5587.224252 kJ/mol
# Density = 2.446787 g / cm^3
# Si number density = 24.523688 Si / 1000 Ang^3
#
#
#
# Elastic Constant Matrix: (Units=GPa)
#
#
# Indices 1 2 3 4 5 6 
#
# 1 211.4478 72.7148 16.8226 0.0000 0.0000 0.0000
# 2 72.7148 187.7503 5.8137 0.0000 0.0000 0.0000
# 3 16.8226 5.8137 67.3652 0.0000 0.0000 0.0000
# 4 0.0000 0.0000 0.0000 8.4964 0.0000 0.0000
# 5 0.0000 0.0000 0.0000 0.0000 22.5635 0.0000
# 6 0.0000 0.0000 0.0000 0.0000 0.0000 15.5886
#
#
#
# Elastic Compliance Matrix: (Units=1/GPa)
#
#
# Indices 1 2 3 4 5 6 
#
# 1 0.005552 -0.002113 -0.001204 0.000000 0.000000 0.000000
# 2 -0.002113 0.006145 -0.000003 0.000000 0.000000 0.000000
# 3 -0.001204 -0.000003 0.015145 0.000000 0.000000 0.000000
# 4 0.000000 0.000000 0.000000 0.117698 0.000000 0.000000
# 5 0.000000 0.000000 0.000000 0.000000 0.044319 0.000000
# 6 0.000000 0.000000 0.000000 0.000000 0.000000 0.064149
#
#
# Mechanical properties :
#
#
# Convention : Reuss Voigt Hill
#
# Bulk Modulus (GPa) = 49.49870 73.02949 61.26410
# Shear Modulus (GPa) = 18.77009 34.07717 26.42363
#
# Velocity S-wave (km/s) = 2.76956 3.73173 3.28605
# Velocity P-wave (km/s) = 5.51862 6.95784 6.27960
#
# Compressibility (1/GPa) = 0.02020255
#
# Stress axis : x y z
#
# Youngs Moduli (GPa) = 180.12563 162.74440 66.02679
#
# Poissons Ratio (x) = 0.34386 0.07950
# Poissons Ratio (y) = 0.38058 0.00018
# Poissons Ratio (z) = 0.21688 0.00043
#
# Static dielectric constant tensor:
#      x y z
#    x 1.918400 0.000000 0.000000 
#    y 0.000000 1.915540 0.000000 
#    z 0.000000 0.000000 2.157720 
# 
# From -- ./inp_files/7991.got.cif
#   From: 2010.05.17/outbox.cif.g08.bks.cpg/sg51_4_cif.got.tgz:7991.got - 2010.06.03 11:52:47.
