data_PCOD9398757
_publ_section_title
;
Structure prediction by ZEFSAII (Michael W. Deem and Ramdas Pophale) SiO2 
 PCOD9398757
Probable space group: P M M A
;
_chemical_formula_sum "Si O2"
_cell_formula_units_Z 64
_cell_length_a 17.950580
_cell_length_b 17.548224
_cell_length_c 12.821090
_cell_angle_alpha 90.000000
_cell_angle_beta 90.000000
_cell_angle_gamma 90.000000
_cell_volume 4038.653591
_symmetry_space_group_name_H-M "P M M A"
_symmetry_group_IT_number 51
_symmetry_cell_setting 'orthorhombic'
loop_
_space_group_symop_operation_xyz
x,y,z
1/2-x,-y,z
1/2+x,-y,-z
-x,y,-z
-x,-y,-z
1/2+x,y,-z
1/2-x,y,z
x,-y,z
loop_
_atom_site_type_symbol
_atom_site_label
_atom_site_fract_x
_atom_site_fract_y
_atom_site_fract_z
Si Si1 0.522153 0.236623 0.380125
Si Si2 0.561316 0.681920 0.798120
Si Si3 0.836069 0.856119 0.121283
Si Si4 0.022801 0.085357 0.755545
Si Si5 0.166336 0.590812 0.085628
Si Si6 0.084365 0.591272 0.869919
Si Si7 0.335419 0.707616 0.735899
Si Si8 0.429373 0.163989 0.075637
O O1 0.500000 0.236490 0.500000
O O2 0.465752 0.289694 0.313991
O O3 0.518479 0.152081 0.329932
O O4 0.604463 0.268503 0.351348
O O5 0.631367 0.627466 0.811783
O O6 0.491773 0.636317 0.848247
O O7 0.580451 0.757493 0.863256
O O8 0.750000 0.880002 0.133558
O O9 0.898070 0.904153 0.184216
O O10 0.843157 0.771347 0.171973
O O11 0.861510 0.855376 0.000773
O O12 0.957823 0.102247 0.840444
O O13 0.016882 0.000000 0.714509
O O14 0.250000 0.618062 0.065958
O O15 0.167035 0.500000 0.095113
O O16 0.115820 0.608490 0.984894
O O17 0.075168 0.500000 0.860316
O O18 0.141820 0.627211 0.786843
O O19 0.250000 0.708589 0.700732
O O20 0.500000 0.175476 0.000000
#
# Coordination Sequence:
#
# PCOD9398757 Si02
#       8
#     8   8   8   8   8   8   8   8
#     4   9  19  35  53  70  85 110 154 198 235 277
#     4  10  18  30  46  64  90 124 160 197 232 266
#     4   9  17  28  44  68  96 126 156 183 217 266
#     4   9  18  31  47  69  95 118 144 184 230 274
#     4  10  19  28  41  67 101 131 156 182 217 267
#     4  10  18  27  44  70  98 127 156 185 223 273
#     4   9  17  30  48  69  94 119 148 194 239 269
#     4   9  16  26  42  64  91 124 154 176 209 264
#
# _framework density 15.846864999999999
#
# number of rings (size 3 to 8) (size 9 to 14) (size 15 to 20)
#    0.000    2.625    0.000    4.875    0.000    6.000 
#    0.000    0.625    0.000   10.125    0.000    0.000 
#    0.000    0.000    0.000    0.000    0.000    0.000 
#
# Total GULP energy -356557.086207 kJ/mol
# GULP energy per Si atom -5571.204472 kJ/mol
# Density = 1.581080 g / cm^3
# Si number density = 15.846865 Si / 1000 Ang^3
#
#
#
# Elastic Constant Matrix: (Units=GPa)
#
#
# Indices 1 2 3 4 5 6 
#
# 1 57.2958 26.8217 50.1004 0.0000 0.0000 0.0000
# 2 26.8217 55.9432 37.5219 0.0000 0.0000 0.0000
# 3 50.1004 37.5219 104.2811 0.0000 0.0000 0.0000
# 4 0.0000 0.0000 0.0000 7.7139 0.0000 0.0000
# 5 0.0000 0.0000 0.0000 0.0000 11.7892 0.0000
# 6 0.0000 0.0000 0.0000 0.0000 0.0000 10.9762
#
#
#
# Elastic Compliance Matrix: (Units=1/GPa)
#
#
# Indices 1 2 3 4 5 6 
#
# 1 0.031844 -0.006599 -0.012925 0.000000 0.000000 0.000000
# 2 -0.006599 0.024929 -0.005800 0.000000 0.000000 0.000000
# 3 -0.012925 -0.005800 0.017886 0.000000 0.000000 0.000000
# 4 0.000000 0.000000 0.000000 0.129637 0.000000 0.000000
# 5 0.000000 0.000000 0.000000 0.000000 0.084824 0.000000
# 6 0.000000 0.000000 0.000000 0.000000 0.000000 0.091107
#
#
# Mechanical properties :
#
#
# Convention : Reuss Voigt Hill
#
# Bulk Modulus (GPa) = 41.64464 49.60090 45.62277
# Shear Modulus (GPa) = 11.39276 12.96758 12.18017
#
# Velocity S-wave (km/s) = 2.68419 2.86371 2.77540
# Velocity P-wave (km/s) = 5.99525 6.50404 6.25482
#
# Compressibility (1/GPa) = 0.02401269
#
# Stress axis : x y z
#
# Youngs Moduli (GPa) = 31.40330 40.11428 55.91069
#
# Poissons Ratio (x) = 0.26470 0.72262
# Poissons Ratio (y) = 0.20722 0.32426
# Poissons Ratio (z) = 0.40588 0.23264
#
# Static dielectric constant tensor:
#      x y z
#    x 1.558580 0.000000 0.000000 
#    y 0.000000 1.541220 0.000000 
#    z 0.000000 0.000000 1.506410 
# 
# From -- ./inp_files/17724.got.cif
#   From: 2010.05.17/outbox.cif.g08.bks.cpg/sg51_9_cif.got.tgz:17724.got - 2010.06.03 11:52:47.
