data_PCOD9398393
_publ_section_title
;
Structure prediction by ZEFSAII (Michael W. Deem and Ramdas Pophale) SiO2 
 PCOD9398393
Probable space group: P M M A
;
_chemical_formula_sum "Si O2"
_cell_formula_units_Z 40
_cell_length_a 8.622857
_cell_length_b 27.062443
_cell_length_c 9.186505
_cell_angle_alpha 90.000000
_cell_angle_beta 90.000000
_cell_angle_gamma 90.000000
_cell_volume 2143.722166
_symmetry_space_group_name_H-M "P M M A"
_symmetry_group_IT_number 51
_symmetry_cell_setting 'orthorhombic'
loop_
_space_group_symop_operation_xyz
x,y,z
1/2-x,-y,z
1/2+x,-y,-z
-x,y,-z
-x,-y,-z
1/2+x,y,-z
1/2-x,y,z
x,-y,z
loop_
_atom_site_type_symbol
_atom_site_label
_atom_site_fract_x
_atom_site_fract_y
_atom_site_fract_z
Si Si1 0.434696 0.500000 0.665509
Si Si2 0.435488 0.397680 0.336231
Si Si3 0.935274 0.204771 0.335704
Si Si4 0.436292 0.298267 0.162545
Si Si5 0.064494 0.898118 0.333955
Si Si6 0.435484 0.000000 0.666474
O O1 0.250000 0.500000 0.662077
O O2 0.500000 0.500000 0.500000
O O3 0.496205 0.448478 0.729129
O O4 0.500000 0.391957 0.500000
O O5 0.250000 0.402314 0.343905
O O6 0.476149 0.349198 0.244953
O O7 0.750000 0.201333 0.341324
O O8 0.000000 0.210121 0.500000
O O9 0.989854 0.251860 0.245299
O O10 0.003828 0.153629 0.271191
O O11 0.250000 0.293219 0.163064
O O12 0.500000 0.300037 0.000000
O O13 0.250000 0.899453 0.336759
O O14 0.000000 0.897292 0.500000
O O15 0.998495 0.948843 0.266966
O O16 0.500000 0.000000 0.500000
O O17 0.250000 0.000000 0.662551
#
# Coordination Sequence:
#
# PCOD9398393 Si02
#       6
#     4   8   8   8   8   4
#     4  10  18  30  53  82 111 140 174 214 260 308
#     4  10  20  35  57  83 111 141 177 217 262 312
#     4  11  21  35  55  79 107 140 179 224 269 319
#     4  11  24  40  57  79 107 142 180 223 271 322
#     4  10  17  27  43  67  99 134 172 214 262 316
#     4  10  16  24  38  62  97 134 169 208 261 318
#
# _framework density 18.659134000000002
#
# number of rings (size 3 to 8) (size 9 to 14) (size 15 to 20)
#    0.000    1.600    0.000   10.800    0.000    4.800 
#    0.000    0.500    0.000    0.000    0.000    0.700 
#    0.000    0.000    0.000    0.000    0.000    0.000 
#
# Total GULP energy -223332.033233 kJ/mol
# GULP energy per Si atom -5583.300831 kJ/mol
# Density = 1.861667 g / cm^3
# Si number density = 18.659134 Si / 1000 Ang^3
#
#
#
# Elastic Constant Matrix: (Units=GPa)
#
#
# Indices 1 2 3 4 5 6 
#
# 1 164.5361 100.4655 32.0833 0.0000 0.0000 0.0000
# 2 100.4655 233.6078 60.4759 0.0000 0.0000 0.0000
# 3 32.0833 60.4759 50.7554 0.0000 0.0000 0.0000
# 4 0.0000 0.0000 0.0000 -7.9281 0.0000 0.0000
# 5 0.0000 0.0000 0.0000 0.0000 19.5244 0.0000
# 6 0.0000 0.0000 0.0000 0.0000 0.0000 51.7448
#
#
#
# Elastic Compliance Matrix: (Units=1/GPa)
#
#
# Indices 1 2 3 4 5 6 
#
# 1 0.008314 -0.003203 -0.001439 0.000000 0.000000 0.000000
# 2 -0.003203 0.007424 -0.006821 0.000000 0.000000 0.000000
# 3 -0.001439 -0.006821 0.028739 0.000000 0.000000 0.000000
# 4 0.000000 0.000000 0.000000 -0.126133 0.000000 0.000000
# 5 0.000000 0.000000 0.000000 0.000000 0.051218 0.000000
# 6 0.000000 0.000000 0.000000 0.000000 0.000000 0.019326
#
#
# Mechanical properties :
#
#
# Convention : Reuss Voigt Hill
#
# Bulk Modulus (GPa) = 46.40117 92.77209 69.58663
# Shear Modulus (GPa) = 263.18641 29.72650 146.45646
#
# Velocity S-wave (km/s) = 11.88932 3.99574 8.86910
# Velocity P-wave (km/s) = 14.60809 8.43298 11.92710
#
# Compressibility (1/GPa) = 0.02155118
#
# Stress axis : x y z
#
# Youngs Moduli (GPa) = 120.27834 134.69795 34.79537
#
# Poissons Ratio (x) = 0.43144 0.05007
# Poissons Ratio (y) = 0.38525 0.23734
# Poissons Ratio (z) = 0.17308 0.91880
#
# Static dielectric constant tensor:
#      x y z
#    x 1.621100 0.000000 0.000000 
#    y 0.000000 1.710210 0.000000 
#    z 0.000000 0.000000 1.645160 
# 
# From -- ./inp_files/5545.got.cif
#   From: 2010.05.17/outbox.cif.g08.bks.cpg/sg51_3_cif.got.tgz:5545.got - 2010.06.03 11:52:47.
