data_PCOD9398148
_publ_section_title
;
Structure prediction by ZEFSAII (Michael W. Deem and Ramdas Pophale) SiO2 
 PCOD9398148
Probable space group: P B A N
;
_chemical_formula_sum "Si O2"
_cell_formula_units_Z 54
_cell_length_a 13.737966
_cell_length_b 32.928469
_cell_length_c 5.211843
_cell_angle_alpha 90.000000
_cell_angle_beta 90.000000
_cell_angle_gamma 90.000000
_cell_volume 2357.682395
_symmetry_space_group_name_H-M "P B A N"
_symmetry_group_IT_number 50
_space_group.IT_coordinate_system_code '2'
_symmetry_cell_setting 'orthorhombic'
loop_
_space_group_symop_operation_xyz
x,y,z
1/2-x,1/2-y,z
x,1/2-y,-z
1/2-x,y,-z
-x,-y,-z
1/2+x,1/2+y,-z
-x,1/2+y,z
1/2+x,-y,z
loop_
_atom_site_type_symbol
_atom_site_label
_atom_site_fract_x
_atom_site_fract_y
_atom_site_fract_z
Si Si1 0.441385 0.298687 0.979326
Si Si2 0.412916 0.604318 0.450957
Si Si3 0.609373 0.653570 0.520147
Si Si4 0.750000 0.912175 0.500000
Si Si5 0.750000 0.250000 0.500000
Si Si6 0.159076 0.680295 0.816003
Si Si7 0.938802 0.443771 0.944334
Si Si8 0.142696 0.032816 0.883094
O O1 0.380808 0.319698 0.743383
O O2 0.553908 0.313099 0.943710
O O3 0.435254 0.250000 0.000000
O O4 0.411250 0.315630 0.253705
O O5 0.519266 0.624450 0.452779
O O6 0.347094 0.641642 0.367916
O O7 0.398486 0.587113 0.734183
O O8 0.407494 0.569615 0.230863
O O9 0.686948 0.621911 0.645536
O O10 0.828933 0.940734 0.363842
O O11 0.818149 0.278714 0.334567
O O12 0.250000 0.674184 0.000000
O O13 0.900469 0.487770 0.856015
O O14 0.056865 0.445271 0.956938
O O15 0.250000 0.028993 0.000000
#
# Coordination Sequence:
#
# PCOD9398148 Si02
#       8
#     8   8   8   4   2   8   8   8
#     4  11  25  46  72 103 145 189 240 295 366 433
#     4  11  24  47  72 100 149 185 244 292 362 423
#     4  11  25  44  74 106 137 192 235 300 363 432
#     4  12  26  48  76 110 140 186 250 304 360 466
#     4  12  26  44  66 110 140 198 254 294 350 440
#     4  11  27  43  70 104 145 197 242 301 353 432
#     4  11  26  49  71 107 144 191 239 305 358 439
#     4  11  27  45  76 104 146 191 242 300 372 431
#
# _framework density 22.903851
#
# number of rings (size 3 to 8) (size 9 to 14) (size 15 to 20)
#    0.000    0.889    1.481    4.222   14.519    1.778 
#    0.000    2.222    0.000    0.000    0.000    0.000 
#    0.000    0.000    0.000    0.000    0.000    0.000 
#
# Total GULP energy -301552.940339 kJ/mol
# GULP energy per Si atom -5584.313710 kJ/mol
# Density = 2.285172 g / cm^3
# Si number density = 22.903851 Si / 1000 Ang^3
#
#
#
# Elastic Constant Matrix: (Units=GPa)
#
#
# Indices 1 2 3 4 5 6 
#
# 1 146.3579 98.0884 45.3448 0.0000 0.0000 0.0000
# 2 98.0884 177.3792 65.7337 0.0000 0.0000 0.0000
# 3 45.3448 65.7337 121.4001 0.0000 0.0000 0.0000
# 4 0.0000 0.0000 0.0000 52.8841 0.0000 0.0000
# 5 0.0000 0.0000 0.0000 0.0000 76.8211 0.0000
# 6 0.0000 0.0000 0.0000 0.0000 0.0000 58.9410
#
#
#
# Elastic Compliance Matrix: (Units=1/GPa)
#
#
# Indices 1 2 3 4 5 6 
#
# 1 0.010955 -0.005682 -0.001015 0.000000 0.000000 0.000000
# 2 -0.005682 0.010000 -0.003292 0.000000 0.000000 0.000000
# 3 -0.001015 -0.003292 0.010399 0.000000 0.000000 0.000000
# 4 0.000000 0.000000 0.000000 0.018909 0.000000 0.000000
# 5 0.000000 0.000000 0.000000 0.000000 0.013017 0.000000
# 6 0.000000 0.000000 0.000000 0.000000 0.000000 0.016966
#
#
# Mechanical properties :
#
#
# Convention : Reuss Voigt Hill
#
# Bulk Modulus (GPa) = 87.91176 95.94123 91.92650
# Shear Modulus (GPa) = 48.06922 53.46058 50.76490
#
# Velocity S-wave (km/s) = 4.58617 4.83653 4.71301
# Velocity P-wave (km/s) = 8.15538 8.55388 8.35701
#
# Compressibility (1/GPa) = 0.01137504
#
# Stress axis : x y z
#
# Youngs Moduli (GPa) = 91.28249 100.00440 96.16198
#
# Poissons Ratio (x) = 0.56819 0.09765
# Poissons Ratio (y) = 0.51864 0.31658
# Poissons Ratio (z) = 0.09269 0.32923
#
# Static dielectric constant tensor:
#      x y z
#    x 1.904810 0.000000 0.000000 
#    y 0.000000 1.844560 0.000000 
#    z 0.000000 0.000000 1.921180 
# 
# From -- ./inp_files/3773.got.cif
#   From: 2010.05.17/outbox.cif.g08.bks.cpg/sg50_2_cif.got.tgz:3773.got - 2010.06.03 11:33:33.
