data_PCOD9398442
_publ_section_title
;
Structure prediction by ZEFSAII (Michael W. Deem and Ramdas Pophale) SiO2 
 PCOD9398442
Probable space group: P M M A
;
_chemical_formula_sum "Si O2"
_cell_formula_units_Z 44
_cell_length_a 8.731144
_cell_length_b 24.284773
_cell_length_c 14.542073
_cell_angle_alpha 90.000000
_cell_angle_beta 90.000000
_cell_angle_gamma 90.000000
_cell_volume 3083.411726
_symmetry_space_group_name_H-M "P M M A"
_symmetry_group_IT_number 51
_symmetry_cell_setting 'orthorhombic'
loop_
_space_group_symop_operation_xyz
x,y,z
1/2-x,-y,z
1/2+x,-y,-z
-x,y,-z
-x,-y,-z
1/2+x,y,-z
1/2-x,y,z
x,-y,z
loop_
_atom_site_type_symbol
_atom_site_label
_atom_site_fract_x
_atom_site_fract_y
_atom_site_fract_z
Si Si1 0.067150 0.172218 0.895949
Si Si2 0.566578 0.939543 0.896172
Si Si3 0.066928 0.396871 0.213471
Si Si4 0.433064 0.434935 0.599366
Si Si5 0.566581 0.286071 0.897189
Si Si6 0.432938 0.500000 0.897619
O O1 0.250000 0.171889 0.899116
O O2 0.005651 0.115320 0.852658
O O3 0.004816 0.229754 0.857158
O O4 0.000000 0.172455 0.000000
O O5 0.750000 0.933472 0.901069
O O6 0.532029 0.000000 0.854767
O O7 0.500000 0.941508 0.000000
O O8 0.250000 0.404211 0.212575
O O9 0.031240 0.338926 0.164882
O O10 0.005741 0.401501 0.317009
O O11 0.991066 0.446187 0.155950
O O12 0.500000 0.419668 0.500000
O O13 0.250000 0.429339 0.599465
O O14 0.469259 0.500000 0.614269
O O15 0.750000 0.279832 0.904324
O O16 0.500000 0.294565 0.000000
O O17 0.250000 0.500000 0.900556
O O18 0.500000 0.500000 0.000000
#
# Coordination Sequence:
#
# PCOD9398442 Si02
#       6
#     8   8   8   8   8   4
#     4  10  17  25  38  53  73 102 135 174 212 249
#     4   9  15  22  33  49  70  96 128 169 212 250
#     4  11  22  35  51  69  89 113 142 178 217 261
#     4  10  20  34  53  74  93 114 136 169 213 260
#     4  10  20  32  45  61  82 112 146 180 215 253
#     4  12  24  36  49  66  89 116 144 178 218 258
#
# _framework density 14.269907999999999
#
# number of rings (size 3 to 8) (size 9 to 14) (size 15 to 20)
#    0.000    1.818    0.909    7.364    0.000    6.182 
#    0.000    0.000    0.000    0.000    0.000    0.000 
#    0.000    0.000    0.000    0.000    0.000    0.909 
#
# Total GULP energy -245370.142157 kJ/mol
# GULP energy per Si atom -5576.594140 kJ/mol
# Density = 1.423743 g / cm^3
# Si number density = 14.269908 Si / 1000 Ang^3
#
#
#
# Elastic Constant Matrix: (Units=GPa)
#
#
# Indices 1 2 3 4 5 6 
#
# 1 90.9178 71.5751 33.6951 0.0000 0.0000 0.0000
# 2 71.5751 147.0047 48.9931 0.0000 0.0000 0.0000
# 3 33.6951 48.9931 69.7863 0.0000 0.0000 0.0000
# 4 0.0000 0.0000 0.0000 0.7889 0.0000 0.0000
# 5 0.0000 0.0000 0.0000 0.0000 18.5619 0.0000
# 6 0.0000 0.0000 0.0000 0.0000 0.0000 22.8821
#
#
#
# Elastic Compliance Matrix: (Units=1/GPa)
#
#
# Indices 1 2 3 4 5 6 
#
# 1 0.018431 -0.007843 -0.003393 0.000000 0.000000 0.000000
# 2 -0.007843 0.012218 -0.004791 0.000000 0.000000 0.000000
# 3 -0.003393 -0.004791 0.019331 0.000000 0.000000 0.000000
# 4 0.000000 0.000000 0.000000 1.267638 0.000000 0.000000
# 5 0.000000 0.000000 0.000000 0.000000 0.053874 0.000000
# 6 0.000000 0.000000 0.000000 0.000000 0.000000 0.043702
#
#
# Mechanical properties :
#
#
# Convention : Reuss Voigt Hill
#
# Bulk Modulus (GPa) = 55.78320 68.47062 62.12691
# Shear Modulus (GPa) = 3.44063 18.67627 11.05845
#
# Velocity S-wave (km/s) = 1.55446 3.62164 2.78681
# Velocity P-wave (km/s) = 6.51139 8.09784 7.34756
#
# Compressibility (1/GPa) = 0.01792655
#
# Stress axis : x y z
#
# Youngs Moduli (GPa) = 54.25705 81.84809 51.73091
#
# Poissons Ratio (x) = 0.64194 0.17552
# Poissons Ratio (y) = 0.42554 0.24782
# Poissons Ratio (z) = 0.18409 0.39210
#
# Static dielectric constant tensor:
#      x y z
#    x 1.474240 0.000000 0.000000 
#    y 0.000000 1.522460 0.000000 
#    z 0.000000 0.000000 1.431430 
# 
# From -- ./inp_files/21974.got.cif
#   From: 2010.05.17/outbox.cif.g08.bks.cpg/sg51_11_cif.got.tgz:21974.got - 2010.06.03 11:52:47.
