data_PCOD9398309
_publ_section_title
;
Structure prediction by ZEFSAII (Michael W. Deem and Ramdas Pophale) SiO2 
 PCOD9398309
Probable space group: P B A N
;
_chemical_formula_sum "Si O2"
_cell_formula_units_Z 56
_cell_length_a 15.000000
_cell_length_b 15.000000
_cell_length_c 12.000000
_cell_angle_alpha 90.000000
_cell_angle_beta 90.000000
_cell_angle_gamma 90.000000
_cell_volume 2700.000000
_symmetry_space_group_name_H-M "P B A N"
_symmetry_group_IT_number 50
_space_group.IT_coordinate_system_code '2'
_symmetry_cell_setting 'orthorhombic'
loop_
_space_group_symop_operation_xyz
x,y,z
1/2-x,1/2-y,z
x,1/2-y,-z
1/2-x,y,-z
-x,-y,-z
1/2+x,1/2+y,-z
-x,1/2+y,z
1/2+x,-y,z
loop_
_atom_site_type_symbol
_atom_site_label
_atom_site_fract_x
_atom_site_fract_y
_atom_site_fract_z
Si Si1 0.085493 0.155880 0.554481
Si Si2 0.986298 0.926931 0.836774
Si Si3 0.716041 0.851398 0.755560
Si Si4 0.138924 0.021708 0.360774
Si Si5 0.878068 0.317770 0.391454
Si Si6 0.571082 0.235144 0.134159
Si Si7 0.414696 0.407244 0.928517
O O1 0.115336 0.250000 0.500000
O O2 0.133105 0.144786 0.671520
O O3 0.112533 0.076178 0.471827
O O4 0.980922 0.163723 0.577493
O O5 0.943732 0.967300 0.725335
O O6 0.027009 0.828530 0.828858
O O7 0.915741 0.916836 0.938126
O O8 0.059744 0.996287 0.880039
O O9 0.750000 0.750000 0.754898
O O10 0.785177 0.921910 0.703750
O O11 0.677154 0.875407 0.875869
O O12 0.162952 0.918624 0.388236
O O13 0.850807 0.250000 0.500000
O O14 0.877109 0.288863 0.255326
O O15 0.494906 0.160413 0.109313
O O16 0.607692 0.250000 0.000000
#
# Coordination Sequence:
#
# PCOD9398309 Si02
#       7
#     8   8   8   8   8   8   8
#     4  11  21  38  62  89 126 173 216 264 328 395
#     4  10  20  38  65  91 123 168 219 266 316 379
#     4  12  23  38  62  93 138 174 204 256 347 420
#     4  12  23  36  62  92 130 171 211 268 330 390
#     4  11  23  40  64  96 128 166 237 288 313 378
#     4  10  19  37  64  93 124 164 214 271 328 381
#     4  10  21  39  61  94 129 166 214 264 322 402
#
# _framework density 20.740741
#
# number of rings (size 3 to 8) (size 9 to 14) (size 15 to 20)
#    0.000    1.143    4.286    3.429    0.000    1.714 
#    0.000    0.714    0.000    6.000    0.000    1.000 
#    0.000    0.000    0.000    0.000    0.000    0.000 
#
# Total GULP energy -312179.232254 kJ/mol
# GULP energy per Si atom -5574.629147 kJ/mol
# Density = 2.069353 g / cm^3
# Si number density = 20.740741 Si / 1000 Ang^3
#
#
#
# Elastic Constant Matrix: (Units=GPa)
#
#
# Indices 1 2 3 4 5 6 
#
# 1 40.1458 20.4333 8.2048 0.0000 0.0000 0.0000
# 2 20.4333 136.3394 28.2049 0.0000 0.0000 0.0000
# 3 8.2048 28.2049 125.2563 0.0000 0.0000 0.0000
# 4 0.0000 0.0000 0.0000 43.7261 0.0000 0.0000
# 5 0.0000 0.0000 0.0000 0.0000 9.3281 0.0000
# 6 0.0000 0.0000 0.0000 0.0000 0.0000 14.8646
#
#
#
# Elastic Compliance Matrix: (Units=1/GPa)
#
#
# Indices 1 2 3 4 5 6 
#
# 1 0.027063 -0.003869 -0.000901 0.000000 0.000000 0.000000
# 2 -0.003869 0.008246 -0.001603 0.000000 0.000000 0.000000
# 3 -0.000901 -0.001603 0.008404 0.000000 0.000000 0.000000
# 4 0.000000 0.000000 0.000000 0.022870 0.000000 0.000000
# 5 0.000000 0.000000 0.000000 0.000000 0.107203 0.000000
# 6 0.000000 0.000000 0.000000 0.000000 0.000000 0.067274
#
#
# Mechanical properties :
#
#
# Convention : Reuss Voigt Hill
#
# Bulk Modulus (GPa) = 32.29523 46.15860 39.22691
# Shear Modulus (GPa) = 18.93011 29.91032 24.42021
#
# Velocity S-wave (km/s) = 3.02437 3.80163 3.43505
# Velocity P-wave (km/s) = 5.27262 6.44772 5.88955
#
# Compressibility (1/GPa) = 0.03096433
#
# Stress axis : x y z
#
# Youngs Moduli (GPa) = 36.95097 121.26722 118.99478
#
# Poissons Ratio (x) = 0.46924 0.10726
# Poissons Ratio (y) = 0.14298 0.19080
# Poissons Ratio (z) = 0.03331 0.19444
#
# Static dielectric constant tensor:
#      x y z
#    x 1.764530 0.000000 0.000000 
#    y 0.000000 1.787150 0.000000 
#    z 0.000000 0.000000 1.794910 
# 
# From -- ./inp_files/21170.got.cif
#   From: 2010.05.17/outbox.ucp.g08.bks.cvg/sg50_11_cif.got.tgz:21170.got - 2010.06.11 16:26:39.
