data_PCOD9398447
_publ_section_title
;
Structure prediction by ZEFSAII (Michael W. Deem and Ramdas Pophale) SiO2 
 PCOD9398447
Probable space group: P M M A
;
_chemical_formula_sum "Si O2"
_cell_formula_units_Z 48
_cell_length_a 8.269300
_cell_length_b 25.187902
_cell_length_c 14.059751
_cell_angle_alpha 90.000000
_cell_angle_beta 90.000000
_cell_angle_gamma 90.000000
_cell_volume 2928.453768
_symmetry_space_group_name_H-M "P M M A"
_symmetry_group_IT_number 51
_symmetry_cell_setting 'orthorhombic'
loop_
_space_group_symop_operation_xyz
x,y,z
1/2-x,-y,z
1/2+x,-y,-z
-x,y,-z
-x,-y,-z
1/2+x,y,-z
1/2-x,y,z
x,-y,z
loop_
_atom_site_type_symbol
_atom_site_label
_atom_site_fract_x
_atom_site_fract_y
_atom_site_fract_z
Si Si1 0.555275 0.166609 0.104619
Si Si2 0.944364 0.113402 0.395117
Si Si3 0.056572 0.557404 0.389992
Si Si4 0.447453 0.940991 0.798868
Si Si5 0.947543 0.778519 0.296870
Si Si6 0.943047 0.670287 0.390623
O O1 0.750000 0.166169 0.106359
O O2 0.499714 0.106987 0.132906
O O3 0.501734 0.204958 0.190561
O O4 0.500000 0.181593 0.000000
O O5 0.750000 0.113427 0.394501
O O6 0.996144 0.075262 0.308596
O O7 0.997848 0.173096 0.366068
O O8 0.000000 0.098629 0.500000
O O9 0.250000 0.558688 0.388638
O O10 0.002814 0.500000 0.349388
O O11 0.000000 0.557491 0.500000
O O12 0.994792 0.613082 0.349550
O O13 0.250000 0.941218 0.800355
O O14 0.503446 0.000000 0.823902
O O15 0.750000 0.777947 0.297608
O O16 0.004297 0.721510 0.333295
O O17 0.750000 0.671616 0.391426
O O18 0.000000 0.674123 0.500000
#
# Coordination Sequence:
#
# PCOD9398447 Si02
#       6
#     8   8   8   8   8   8
#     4   9  17  31  48  63  80 102 130 164 204 248
#     4   9  16  27  42  58  79 108 138 165 196 234
#     4   9  16  25  36  52  78 111 143 172 200 229
#     4   8  15  28  44  60  80 108 136 159 193 246
#     4   8  16  29  42  57  80 109 135 161 199 248
#     4  10  17  25  39  58  81 110 142 171 198 230
#
# _framework density 16.390903000000002
#
# number of rings (size 3 to 8) (size 9 to 14) (size 15 to 20)
#    0.000    3.167    0.000    4.500    0.000    1.667 
#    0.000    5.833    0.000    1.000    0.000    0.000 
#    0.000    0.667    0.000    1.500    0.000    3.000 
#
# Total GULP energy -267233.315316 kJ/mol
# GULP energy per Si atom -5567.360736 kJ/mol
# Density = 1.635360 g / cm^3
# Si number density = 16.390903 Si / 1000 Ang^3
#
#
#
# Elastic Constant Matrix: (Units=GPa)
#
#
# Indices 1 2 3 4 5 6 
#
# 1 13.2107 12.9772 3.2318 0.0000 0.0000 0.0000
# 2 12.9772 121.6696 19.9430 0.0000 0.0000 0.0000
# 3 3.2318 19.9430 59.1891 0.0000 0.0000 0.0000
# 4 0.0000 0.0000 0.0000 12.5029 0.0000 0.0000
# 5 0.0000 0.0000 0.0000 0.0000 19.8059 0.0000
# 6 0.0000 0.0000 0.0000 0.0000 0.0000 16.6356
#
#
#
# Elastic Compliance Matrix: (Units=1/GPa)
#
#
# Indices 1 2 3 4 5 6 
#
# 1 0.084712 -0.008761 -0.001673 0.000000 0.000000 0.000000
# 2 -0.008761 0.009606 -0.002758 0.000000 0.000000 0.000000
# 3 -0.001673 -0.002758 0.017916 0.000000 0.000000 0.000000
# 4 0.000000 0.000000 0.000000 0.079982 0.000000 0.000000
# 5 0.000000 0.000000 0.000000 0.000000 0.050490 0.000000
# 6 0.000000 0.000000 0.000000 0.000000 0.000000 0.060112
#
#
# Mechanical properties :
#
#
# Convention : Reuss Voigt Hill
#
# Bulk Modulus (GPa) = 11.64854 29.59705 20.62280
# Shear Modulus (GPa) = 13.97360 20.31669 17.14515
#
# Velocity S-wave (km/s) = 2.92297 3.52449 3.23773
# Velocity P-wave (km/s) = 4.30276 5.88718 5.15619
#
# Compressibility (1/GPa) = 0.08584768
#
# Stress axis : x y z
#
# Youngs Moduli (GPa) = 11.80476 104.10693 55.81703
#
# Poissons Ratio (x) = 0.91208 0.09341
# Poissons Ratio (y) = 0.10342 0.15395
# Poissons Ratio (z) = 0.01975 0.28714
#
# Static dielectric constant tensor:
#      x y z
#    x 1.583360 0.000000 0.000000 
#    y 0.000000 1.596830 0.000000 
#    z 0.000000 0.000000 1.522290 
# 
# From -- ./inp_files/21994.got.cif
#   From: 2010.05.17/outbox.cif.g08.bks.cpg/sg51_11_cif.got.tgz:21994.got - 2010.06.03 11:52:47.
