data_PCOD9398842
_publ_section_title
;
Structure prediction by ZEFSAII (Michael W. Deem and Ramdas Pophale) SiO2 
 PCOD9398842
Probable space group: P M M A
;
_chemical_formula_sum "Si O2"
_cell_formula_units_Z 64
_cell_length_a 21.330695
_cell_length_b 8.707549
_cell_length_c 21.291333
_cell_angle_alpha 90.000000
_cell_angle_beta 90.000000
_cell_angle_gamma 90.000000
_cell_volume 3954.611140
_symmetry_space_group_name_H-M "P M M A"
_symmetry_group_IT_number 51
_symmetry_cell_setting 'orthorhombic'
loop_
_space_group_symop_operation_xyz
x,y,z
1/2-x,-y,z
1/2+x,-y,-z
-x,y,-z
-x,-y,-z
1/2+x,y,-z
1/2-x,y,z
x,-y,z
loop_
_atom_site_type_symbol
_atom_site_label
_atom_site_fract_x
_atom_site_fract_y
_atom_site_fract_z
Si Si1 0.503036 0.813469 0.325476
Si Si2 0.511001 0.175239 0.189477
Si Si3 0.642464 0.316319 0.341751
Si Si4 0.557686 0.815216 0.544836
Si Si5 0.180788 0.685160 0.518516
Si Si6 0.317641 0.683481 0.919084
Si Si7 0.541420 0.685075 0.058772
Si Si8 0.160348 0.175114 0.787078
O O1 0.481476 0.766748 0.255122
O O2 0.570210 0.738781 0.340769
O O3 0.457887 0.774187 0.383206
O O4 0.510773 0.000000 0.324149
O O5 0.509354 0.266601 0.124505
O O6 0.584815 0.173386 0.206921
O O7 0.490448 0.000000 0.178145
O O8 0.645123 0.500000 0.335586
O O9 0.671480 0.271085 0.408390
O O10 0.674680 0.241317 0.281174
O O11 0.500000 0.763408 0.500000
O O12 0.622953 0.750015 0.520458
O O13 0.559810 0.000000 0.540591
O O14 0.250000 0.735105 0.497293
O O15 0.178340 0.500000 0.516073
O O16 0.250000 0.740960 0.944766
O O17 0.318264 0.500000 0.927321
O O18 0.385737 0.741680 0.943146
O O19 0.317813 0.723323 0.845201
O O20 0.543783 0.500000 0.057275
O O21 0.500000 0.738845 0.000000
O O22 0.181232 0.000000 0.794103
#
# Coordination Sequence:
#
# PCOD9398842 Si02
#       8
#     8   8   8   8   8   8   8   8
#     4   9  17  30  47  69  95 118 148 195 241 276
#     4   8  15  27  43  64  91 119 145 178 220 267
#     4  10  18  28  44  64  88 122 160 191 226 270
#     4  10  19  32  52  73  92 117 154 200 245 286
#     4  10  22  36  46  62  92 125 157 196 240 288
#     4   9  17  29  44  62  86 117 151 183 217 261
#     4   9  17  29  45  66  92 119 148 184 220 258
#     4   9  17  28  42  61  88 119 152 187 221 257
#
# _framework density 16.183638999999999
#
# number of rings (size 3 to 8) (size 9 to 14) (size 15 to 20)
#    0.000    2.750    1.250    1.500    0.000    5.500 
#    0.000    1.250    0.000    0.000    0.000    0.875 
#    0.000    3.000    0.000    0.000    0.000    0.000 
#
# Total GULP energy -356358.342317 kJ/mol
# GULP energy per Si atom -5568.099099 kJ/mol
# Density = 1.614680 g / cm^3
# Si number density = 16.183639 Si / 1000 Ang^3
#
#
#
# Elastic Constant Matrix: (Units=GPa)
#
#
# Indices 1 2 3 4 5 6 
#
# 1 99.5715 11.2091 62.8240 0.0000 0.0000 0.0000
# 2 11.2091 5.3477 15.2063 0.0000 0.0000 0.0000
# 3 62.8240 15.2063 113.7513 0.0000 0.0000 0.0000
# 4 0.0000 0.0000 0.0000 19.6762 0.0000 0.0000
# 5 0.0000 0.0000 0.0000 0.0000 6.2838 0.0000
# 6 0.0000 0.0000 0.0000 0.0000 0.0000 -9.2842
#
#
#
# Elastic Compliance Matrix: (Units=1/GPa)
#
#
# Indices 1 2 3 4 5 6 
#
# 1 0.016002 -0.013569 -0.007024 0.000000 0.000000 0.000000
# 2 -0.013569 0.313174 -0.034371 0.000000 0.000000 0.000000
# 3 -0.007024 -0.034371 0.017265 0.000000 0.000000 0.000000
# 4 0.000000 0.000000 0.000000 0.050823 0.000000 0.000000
# 5 0.000000 0.000000 0.000000 0.000000 0.159140 0.000000
# 6 0.000000 0.000000 0.000000 0.000000 0.000000 -0.107710
#
#
# Mechanical properties :
#
#
# Convention : Reuss Voigt Hill
#
# Bulk Modulus (GPa) = 4.22809 44.12770 24.17790
# Shear Modulus (GPa) = 7.84362 11.96388 9.90375
#
# Velocity S-wave (km/s) = 2.20390 2.72188 2.47647
# Velocity P-wave (km/s) = 3.01570 6.09953 4.81138
#
# Compressibility (1/GPa) = 0.23651322
#
# Stress axis : x y z
#
# Youngs Moduli (GPa) = 62.49094 3.19311 57.92009
#
# Poissons Ratio (x) = 0.04333 0.40683
# Poissons Ratio (y) = 0.84794 1.99078
# Poissons Ratio (z) = 0.43894 0.10975
#
# Static dielectric constant tensor:
#      x y z
#    x 1.555930 0.000000 0.000000 
#    y 0.000000 1.552120 0.000000 
#    z 0.000000 0.000000 1.551300 
# 
# From -- ./inp_files/34062.got.cif
#   From: 2010.05.17/outbox.cif.g08.bks.cpg/sg51_18_cif.got.tgz:34062.got - 2010.06.03 11:52:47.
