data_PCOD9398398
_publ_section_title
;
Structure prediction by ZEFSAII (Michael W. Deem and Ramdas Pophale) SiO2 
 PCOD9398398
Probable space group: P M M A
;
_chemical_formula_sum "Si O2"
_cell_formula_units_Z 40
_cell_length_a 15.702726
_cell_length_b 9.972733
_cell_length_c 14.382558
_cell_angle_alpha 90.000000
_cell_angle_beta 90.000000
_cell_angle_gamma 90.000000
_cell_volume 2252.295549
_symmetry_space_group_name_H-M "P M M A"
_symmetry_group_IT_number 51
_symmetry_cell_setting 'orthorhombic'
loop_
_space_group_symop_operation_xyz
x,y,z
1/2-x,-y,z
1/2+x,-y,-z
-x,y,-z
-x,-y,-z
1/2+x,y,-z
1/2-x,y,z
x,-y,z
loop_
_atom_site_type_symbol
_atom_site_label
_atom_site_fract_x
_atom_site_fract_y
_atom_site_fract_z
Si Si1 0.849235 0.500000 0.790223
Si Si2 0.644850 0.500000 0.099826
Si Si3 0.035460 0.500000 0.712530
Si Si4 0.148915 0.281638 0.049566
Si Si5 0.964085 0.233808 0.399721
Si Si6 0.845091 0.000000 0.467288
Si Si7 0.146722 0.000000 0.119120
Si Si8 0.414961 0.000000 0.330284
O O1 0.750000 0.500000 0.754465
O O2 0.858926 0.371800 0.857896
O O3 0.931901 0.500000 0.724757
O O4 0.750000 0.500000 0.112168
O O5 0.588999 0.500000 0.192216
O O6 0.619591 0.629412 0.037367
O O7 0.058145 0.364149 0.658326
O O8 0.250000 0.266266 0.033934
O O9 0.113477 0.134696 0.069569
O O10 0.000000 0.277721 0.500000
O O11 0.889819 0.131465 0.427148
O O12 0.029664 0.135411 0.345621
O O13 0.854172 0.000000 0.579281
O O14 0.750000 0.000000 0.437193
O O15 0.124298 0.000000 0.228298
O O16 0.250000 0.000000 0.113868
#
# Coordination Sequence:
#
# PCOD9398398 Si02
#       8
#     4   4   4   8   8   4   4   4
#     4   9  18  33  51  74 105 137 171 216 276 336
#     4   9  20  37  51  68 101 145 185 214 252 312
#     4  12  21  33  58  80 102 144 190 225 261 310
#     4   8  16  31  48  70 104 137 168 218 273 314
#     4   9  20  36  53  76 109 140 170 218 276 320
#     4   9  18  36  58  77 105 143 176 213 269 328
#     4  10  16  25  50  81 103 129 170 218 267 316
#     4   9  17  33  53  76 104 133 170 213 263 333
#
# _framework density 17.759658000000002
#
# number of rings (size 3 to 8) (size 9 to 14) (size 15 to 20)
#    0.000    2.800    0.000    4.200    0.000    2.400 
#    0.000    6.000    0.000    4.800    0.000    0.000 
#    0.000    0.000    0.000    0.000    0.000    0.000 
#
# Total GULP energy -222742.739112 kJ/mol
# GULP energy per Si atom -5568.568478 kJ/mol
# Density = 1.771924 g / cm^3
# Si number density = 17.759658 Si / 1000 Ang^3
#
#
#
# Elastic Constant Matrix: (Units=GPa)
#
#
# Indices 1 2 3 4 5 6 
#
# 1 51.0876 19.3101 32.6861 0.0000 0.0000 0.0000
# 2 19.3101 155.3738 75.4355 0.0000 0.0000 0.0000
# 3 32.6861 75.4355 100.1756 0.0000 0.0000 0.0000
# 4 0.0000 0.0000 0.0000 40.1295 0.0000 0.0000
# 5 0.0000 0.0000 0.0000 0.0000 1.1757 0.0000
# 6 0.0000 0.0000 0.0000 0.0000 0.0000 -6.7103
#
#
#
# Elastic Compliance Matrix: (Units=1/GPa)
#
#
# Indices 1 2 3 4 5 6 
#
# 1 0.024915 0.001341 -0.009139 0.000000 0.000000 0.000000
# 2 0.001341 0.010217 -0.008131 0.000000 0.000000 0.000000
# 3 -0.009139 -0.008131 0.019088 0.000000 0.000000 0.000000
# 4 0.000000 0.000000 0.000000 0.024919 0.000000 0.000000
# 5 0.000000 0.000000 0.000000 0.000000 0.850585 0.000000
# 6 0.000000 0.000000 0.000000 0.000000 0.000000 -0.149025
#
#
# Mechanical properties :
#
#
# Convention : Reuss Voigt Hill
#
# Bulk Modulus (GPa) = 44.72236 62.38893 53.55564
# Shear Modulus (GPa) = 6.09747 18.86600 12.48174
#
# Velocity S-wave (km/s) = 1.85493 3.26282 2.65394
# Velocity P-wave (km/s) = 5.46117 7.02855 6.29384
#
# Compressibility (1/GPa) = 0.02236018
#
# Stress axis : x y z
#
# Youngs Moduli (GPa) = 40.13712 97.87262 52.39010
#
# Poissons Ratio (x) = -0.13121 0.47878
# Poissons Ratio (y) = -0.05381 0.42601
# Poissons Ratio (z) = 0.36681 0.79584
#
# Static dielectric constant tensor:
#      x y z
#    x 1.627940 0.000000 0.000000 
#    y 0.000000 1.598760 0.000000 
#    z 0.000000 0.000000 1.584890 
# 
# From -- ./inp_files/23891.got.cif
#   From: 2010.05.17/outbox.cif.g08.bks.cpg/sg51_12_cif.got.tgz:23891.got - 2010.06.03 11:52:47.
