data_PCOD9398267
_publ_section_title
;
Structure prediction by ZEFSAII (Michael W. Deem and Ramdas Pophale) SiO2 
 PCOD9398267
Probable space group: P B A N
;
_chemical_formula_sum "Si O2"
_cell_formula_units_Z 26
_cell_length_a 15.113546
_cell_length_b 14.640550
_cell_length_c 5.019838
_cell_angle_alpha 90.000000
_cell_angle_beta 90.000000
_cell_angle_gamma 90.000000
_cell_volume 1110.742696
_symmetry_space_group_name_H-M "P B A N"
_symmetry_group_IT_number 50
_space_group.IT_coordinate_system_code '2'
_symmetry_cell_setting 'orthorhombic'
loop_
_space_group_symop_operation_xyz
x,y,z
1/2-x,1/2-y,z
x,1/2-y,-z
1/2-x,y,-z
-x,-y,-z
1/2+x,1/2+y,-z
-x,1/2+y,z
1/2+x,-y,z
loop_
_atom_site_type_symbol
_atom_site_label
_atom_site_fract_x
_atom_site_fract_y
_atom_site_fract_z
Si Si1 0.351027 0.994615 0.581590
Si Si2 0.590112 0.690572 0.765677
Si Si3 0.750000 0.250000 0.000000
Si Si4 0.100416 0.614354 0.103099
O O1 0.250000 0.981774 0.500000
O O2 0.363158 0.096208 0.690247
O O3 0.402537 0.968898 0.312650
O O4 0.381166 0.925266 0.811386
O O5 0.582956 0.750000 0.500000
O O6 0.492791 0.663277 0.869106
O O7 0.633725 0.750000 0.000000
O O8 0.818260 0.315688 0.840763
#
# Coordination Sequence:
#
# PCOD9398267 Si02
#       4
#     8   8   2   8
#     4  12  25  46  69 102 142 191 235 299 360 426
#     4  12  26  45  72 103 143 193 245 293 353 434
#     4  12  24  42  76 106 142 180 236 314 356 438
#     4  12  25  44  70 104 145 181 237 298 372 424
#
# _framework density 23.407761000000001
#
# number of rings (size 3 to 8) (size 9 to 14) (size 15 to 20)
#    0.000    0.000    4.615    5.538    0.000    1.846 
#    0.000    1.538    0.000    0.000    0.000    0.000 
#    0.000    0.000    0.000    0.000    0.000    0.000 
#
# Total GULP energy -145708.883005 kJ/mol
# GULP energy per Si atom -5604.187808 kJ/mol
# Density = 2.335448 g / cm^3
# Si number density = 23.407761 Si / 1000 Ang^3
#
#
#
# Elastic Constant Matrix: (Units=GPa)
#
#
# Indices 1 2 3 4 5 6 
#
# 1 30.2023 5.9046 28.5915 0.0000 0.0000 0.0000
# 2 5.9046 86.2061 28.6131 0.0000 0.0000 0.0000
# 3 28.5915 28.6131 135.3441 0.0000 0.0000 0.0000
# 4 0.0000 0.0000 0.0000 52.7539 0.0000 0.0000
# 5 0.0000 0.0000 0.0000 0.0000 -28.0422 0.0000
# 6 0.0000 0.0000 0.0000 0.0000 0.0000 -7.4789
#
#
#
# Elastic Compliance Matrix: (Units=1/GPa)
#
#
# Indices 1 2 3 4 5 6 
#
# 1 0.041387 0.000072 -0.008758 0.000000 0.000000 0.000000
# 2 0.000072 0.012476 -0.002653 0.000000 0.000000 0.000000
# 3 -0.008758 -0.002653 0.009800 0.000000 0.000000 0.000000
# 4 0.000000 0.000000 0.000000 0.018956 0.000000 0.000000
# 5 0.000000 0.000000 0.000000 0.000000 -0.035661 0.000000
# 6 0.000000 0.000000 0.000000 0.000000 0.000000 -0.133710
#
#
# Mechanical properties :
#
#
# Convention : Reuss Voigt Hill
#
# Bulk Modulus (GPa) = 24.39931 41.99677 33.19804
# Shear Modulus (GPa) = -99.18041 16.02279 -41.57881
#
# Velocity S-wave (km/s) = -6.51634 2.61915 -4.21917
# Velocity P-wave (km/s) = 6.79490 5.20835 3.08576
#
# Compressibility (1/GPa) = 0.04098476
#
# Stress axis : x y z
#
# Youngs Moduli (GPa) = 24.16205 80.15618 102.04502
#
# Poissons Ratio (x) = -0.00579 0.89375
# Poissons Ratio (y) = -0.00175 0.27070
# Poissons Ratio (z) = 0.21162 0.21263
#
# Static dielectric constant tensor:
#      x y z
#    x 1.922400 0.000000 0.000000 
#    y 0.000000 1.979710 0.000000 
#    z 0.000000 0.000000 2.226300 
# 
# From -- ./inp_files/3901.got.cif
#   From: 2010.05.17/outbox.cif.g08.bks.cpg/sg50_2_cif.got.tgz:3901.got - 2010.06.03 11:33:33.
