data_PCOD9398258
_publ_section_title
;
Structure prediction by ZEFSAII (Michael W. Deem and Ramdas Pophale) SiO2 
 PCOD9398258
Probable space group: P B A N
;
_chemical_formula_sum "Si O2"
_cell_formula_units_Z 34
_cell_length_a 29.377601
_cell_length_b 5.204495
_cell_length_c 9.486946
_cell_angle_alpha 90.000000
_cell_angle_beta 90.000000
_cell_angle_gamma 90.000000
_cell_volume 1450.512088
_symmetry_space_group_name_H-M "P B A N"
_symmetry_group_IT_number 50
_space_group.IT_coordinate_system_code '2'
_symmetry_cell_setting 'orthorhombic'
loop_
_space_group_symop_operation_xyz
x,y,z
1/2-x,1/2-y,z
x,1/2-y,-z
1/2-x,y,-z
-x,-y,-z
1/2+x,1/2+y,-z
-x,1/2+y,z
1/2+x,-y,z
loop_
_atom_site_type_symbol
_atom_site_label
_atom_site_fract_x
_atom_site_fract_y
_atom_site_fract_z
Si Si1 0.527600 0.351801 0.696291
Si Si2 0.376177 0.250000 0.000000
Si Si3 0.610647 0.250000 0.500000
Si Si4 0.062223 0.750000 0.000000
Si Si5 0.329801 0.250000 0.500000
Si Si6 0.250000 0.750000 0.000000
Si Si7 0.796618 0.891565 0.799820
O O1 0.504741 0.617434 0.653549
O O2 0.577100 0.324830 0.627318
O O3 0.533147 0.321176 0.863484
O O4 0.406776 0.499708 0.974573
O O5 0.342460 0.216041 0.867836
O O6 0.640047 0.500488 0.459865
O O7 0.301571 0.358013 0.366862
O O8 0.287114 0.654298 0.118038
O O9 0.750000 0.750000 0.843882
#
# Coordination Sequence:
#
# PCOD9398258 Si02
#       7
#     8   4   4   4   4   2   8
#     4  12  24  44  71 101 140 188 238 298 362 453
#     4  12  23  43  70 100 144 194 239 311 366 451
#     4  12  26  49  69 108 141 196 241 302 383 447
#     4  12  25  41  67 106 141 182 241 302 375 429
#     4  12  29  47  74 108 155 188 251 324 372 437
#     4  12  24  48  82 106 154 196 276 296 392 456
#     4  12  26  47  73 109 144 205 254 312 375 455
#
# _framework density 23.439997000000002
#
# number of rings (size 3 to 8) (size 9 to 14) (size 15 to 20)
#    0.000    0.000    2.353    8.118    3.294    0.000 
#    0.000    0.000    0.000    0.000    0.000    0.000 
#    0.000    0.000    0.000    0.000    0.000    0.000 
#
# Total GULP energy -190113.930982 kJ/mol
# GULP energy per Si atom -5591.586205 kJ/mol
# Density = 2.338665 g / cm^3
# Si number density = 23.439997 Si / 1000 Ang^3
#
#
#
# Elastic Constant Matrix: (Units=GPa)
#
#
# Indices 1 2 3 4 5 6 
#
# 1 75.5762 42.7313 18.8391 0.0000 0.0000 0.0000
# 2 42.7313 114.2660 6.5915 0.0000 0.0000 0.0000
# 3 18.8391 6.5915 162.9747 0.0000 0.0000 0.0000
# 4 0.0000 0.0000 0.0000 33.3829 0.0000 0.0000
# 5 0.0000 0.0000 0.0000 0.0000 49.4216 0.0000
# 6 0.0000 0.0000 0.0000 0.0000 0.0000 93.1397
#
#
#
# Elastic Compliance Matrix: (Units=1/GPa)
#
#
# Indices 1 2 3 4 5 6 
#
# 1 0.017257 -0.006353 -0.001738 0.000000 0.000000 0.000000
# 2 -0.006353 0.011111 0.000285 0.000000 0.000000 0.000000
# 3 -0.001738 0.000285 0.006325 0.000000 0.000000 0.000000
# 4 0.000000 0.000000 0.000000 0.029956 0.000000 0.000000
# 5 0.000000 0.000000 0.000000 0.000000 0.020234 0.000000
# 6 0.000000 0.000000 0.000000 0.000000 0.000000 0.010737
#
#
# Mechanical properties :
#
#
# Convention : Reuss Voigt Hill
#
# Bulk Modulus (GPa) = 52.40794 54.34897 53.37846
# Shear Modulus (GPa) = 42.51989 54.16584 48.34287
#
# Velocity S-wave (km/s) = 4.26372 4.81232 4.54630
# Velocity P-wave (km/s) = 6.82978 7.35627 7.09791
#
# Compressibility (1/GPa) = 0.01908108
#
# Stress axis : x y z
#
# Youngs Moduli (GPa) = 57.94726 90.00126 158.09569
#
# Poissons Ratio (x) = 0.57180 0.27475
# Poissons Ratio (y) = 0.36815 -0.04506
# Poissons Ratio (z) = 0.10071 -0.02565
#
# Static dielectric constant tensor:
#      x y z
#    x 1.827230 0.000000 0.000000 
#    y 0.000000 1.894240 0.000000 
#    z 0.000000 0.000000 2.040190 
# 
# From -- ./inp_files/8056.got.cif
#   From: 2010.05.17/outbox.cif.g08.bks.cpg/sg50_5_cif.got.tgz:8056.got - 2010.06.03 11:33:33.
