data_PCOD9398725
_publ_section_title
;
Structure prediction by ZEFSAII (Michael W. Deem and Ramdas Pophale) SiO2 
 PCOD9398725
Probable space group: P M M A
;
_chemical_formula_sum "Si O2"
_cell_formula_units_Z 64
_cell_length_a 26.558205
_cell_length_b 9.054653
_cell_length_c 18.707442
_cell_angle_alpha 90.000000
_cell_angle_beta 90.000000
_cell_angle_gamma 90.000000
_cell_volume 4498.678299
_symmetry_space_group_name_H-M "P M M A"
_symmetry_group_IT_number 51
_symmetry_cell_setting 'orthorhombic'
loop_
_space_group_symop_operation_xyz
x,y,z
1/2-x,-y,z
1/2+x,-y,-z
-x,y,-z
-x,-y,-z
1/2+x,y,-z
1/2-x,y,z
x,-y,z
loop_
_atom_site_type_symbol
_atom_site_label
_atom_site_fract_x
_atom_site_fract_y
_atom_site_fract_z
Si Si1 0.393036 0.823952 0.579564
Si Si2 0.690570 0.324568 0.327229
Si Si3 0.893957 0.322233 0.085597
Si Si4 0.511924 0.823681 0.166332
Si Si5 0.504891 0.176154 0.332690
Si Si6 0.947845 0.330101 0.545353
Si Si7 0.809759 0.174261 0.174858
Si Si8 0.950590 0.330264 0.948750
O O1 0.344543 0.745265 0.612463
O O2 0.440512 0.791656 0.632196
O O3 0.408675 0.761547 0.502242
O O4 0.386426 0.000000 0.577236
O O5 0.750000 0.300332 0.341123
O O6 0.681982 0.500000 0.321430
O O7 0.678394 0.246765 0.251694
O O8 0.894743 0.500000 0.090850
O O9 0.842664 0.254934 0.115231
O O10 0.938801 0.255846 0.134234
O O11 0.906593 0.283542 0.003083
O O12 0.505115 0.784814 0.249349
O O13 0.465123 0.770537 0.117887
O O14 0.518332 0.000000 0.160575
O O15 0.462934 0.258903 0.379291
O O16 0.497187 0.000000 0.339535
O O17 0.932182 0.500000 0.552476
O O18 0.000000 0.326910 0.500000
O O19 0.750000 0.191662 0.162854
O O20 0.821540 0.000000 0.177001
O O21 0.942757 0.500000 0.925889
O O22 0.000000 0.329591 0.000000
#
# Coordination Sequence:
#
# PCOD9398725 Si02
#       8
#     8   8   8   8   8   8   8   8
#     4  10  18  29  45  61  83 114 143 174 210 247
#     4  10  20  32  45  62  85 112 143 178 211 245
#     4  10  19  30  44  60  82 113 145 176 210 250
#     4  10  18  27  42  63  86 112 143 177 210 248
#     4   9  18  29  40  59  85 111 140 172 208 248
#     4   9  17  28  42  60  81 107 140 174 207 246
#     4  10  20  32  45  62  84 109 140 178 215 250
#     4   8  16  29  41  57  82 110 140 173 209 248
#
# _framework density 14.226400999999999
#
# number of rings (size 3 to 8) (size 9 to 14) (size 15 to 20)
#    0.000    2.500    0.000    3.750    0.000    8.250 
#    0.000    0.000    0.000    0.000    0.000    0.000 
#    0.000    1.000    0.000    7.000    0.000    5.500 
#
# Total GULP energy -356755.367046 kJ/mol
# GULP energy per Si atom -5574.302610 kJ/mol
# Density = 1.419402 g / cm^3
# Si number density = 14.226401 Si / 1000 Ang^3
#
#
#
# Elastic Constant Matrix: (Units=GPa)
#
#
# Indices 1 2 3 4 5 6 
#
# 1 43.3996 34.8746 28.7051 0.0000 0.0000 0.0000
# 2 34.8746 69.3555 47.5655 0.0000 0.0000 0.0000
# 3 28.7051 47.5655 83.3308 0.0000 0.0000 0.0000
# 4 0.0000 0.0000 0.0000 23.3668 0.0000 0.0000
# 5 0.0000 0.0000 0.0000 0.0000 27.5956 0.0000
# 6 0.0000 0.0000 0.0000 0.0000 0.0000 23.2721
#
#
#
# Elastic Compliance Matrix: (Units=1/GPa)
#
#
# Indices 1 2 3 4 5 6 
#
# 1 0.039352 -0.017240 -0.003715 0.000000 0.000000 0.000000
# 2 -0.017240 0.031247 -0.011897 0.000000 0.000000 0.000000
# 3 -0.003715 -0.011897 0.020071 0.000000 0.000000 0.000000
# 4 0.000000 0.000000 0.000000 0.042796 0.000000 0.000000
# 5 0.000000 0.000000 0.000000 0.000000 0.036238 0.000000
# 6 0.000000 0.000000 0.000000 0.000000 0.000000 0.042970
#
#
# Mechanical properties :
#
#
# Convention : Reuss Voigt Hill
#
# Bulk Modulus (GPa) = 40.05484 46.48626 43.27055
# Shear Modulus (GPa) = 17.43986 20.50961 18.97473
#
# Velocity S-wave (km/s) = 3.50505 3.80104 3.65604
# Velocity P-wave (km/s) = 6.67810 7.21185 6.95010
#
# Compressibility (1/GPa) = 0.02496577
#
# Stress axis : x y z
#
# Youngs Moduli (GPa) = 25.41136 32.00346 49.82314
#
# Poissons Ratio (x) = 0.55174 0.18510
# Poissons Ratio (y) = 0.43809 0.59275
# Poissons Ratio (z) = 0.09441 0.38075
#
# Static dielectric constant tensor:
#      x y z
#    x 1.460170 0.000000 0.000000 
#    y 0.000000 1.474830 0.000000 
#    z 0.000000 0.000000 1.459970 
# 
# From -- ./inp_files/30829.got.cif
#   From: 2010.05.17/outbox.cif.g08.bks.cpg/sg51_16_cif.got.tgz:30829.got - 2010.06.03 11:52:47.
