data_PCOD9398744
_publ_section_title
;
Structure prediction by ZEFSAII (Michael W. Deem and Ramdas Pophale) SiO2 
 PCOD9398744
Probable space group: P M M A
;
_chemical_formula_sum "Si O2"
_cell_formula_units_Z 64
_cell_length_a 7.522784
_cell_length_b 15.262213
_cell_length_c 29.304651
_cell_angle_alpha 90.000000
_cell_angle_beta 90.000000
_cell_angle_gamma 90.000000
_cell_volume 3364.593922
_symmetry_space_group_name_H-M "P M M A"
_symmetry_group_IT_number 51
_symmetry_cell_setting 'orthorhombic'
loop_
_space_group_symop_operation_xyz
x,y,z
1/2-x,-y,z
1/2+x,-y,-z
-x,y,-z
-x,-y,-z
1/2+x,y,-z
1/2-x,y,z
x,-y,z
loop_
_atom_site_type_symbol
_atom_site_label
_atom_site_fract_x
_atom_site_fract_y
_atom_site_fract_z
Si Si1 0.462419 0.899713 0.549013
Si Si2 0.032867 0.897553 0.648945
Si Si3 0.036329 0.598574 0.234769
Si Si4 0.038514 0.785878 0.734542
Si Si5 0.536777 0.279994 0.950485
Si Si6 0.033477 0.399991 0.131341
Si Si7 0.535492 0.900068 0.181358
Si Si8 0.457415 0.903993 0.075568
O O1 0.500000 0.856623 0.500000
O O2 0.250000 0.904255 0.551836
O O3 0.523695 0.865687 0.598342
O O4 0.532048 0.000000 0.546636
O O5 0.250000 0.896427 0.649769
O O6 0.969317 0.837130 0.690260
O O7 0.982309 0.000000 0.654513
O O8 0.250000 0.594528 0.233338
O O9 0.974222 0.500000 0.247207
O O10 0.973573 0.618688 0.182985
O O11 0.989749 0.681877 0.265251
O O12 0.250000 0.800614 0.735302
O O13 0.969945 0.830855 0.781236
O O14 0.750000 0.275273 0.945337
O O15 0.468797 0.335185 0.907655
O O16 0.463265 0.181158 0.948088
O O17 0.500000 0.319363 0.000000
O O18 0.250000 0.396170 0.131904
O O19 0.984636 0.500000 0.120692
O O20 0.750000 0.894794 0.178344
O O21 0.466142 0.887505 0.130142
O O22 0.491023 0.000000 0.195661
O O23 0.250000 0.908759 0.062949
O O24 0.537138 0.000000 0.066552
#
# Coordination Sequence:
#
# PCOD9398744 Si02
#       8
#     8   8   8   8   8   8   8   8
#     4   8  13  22  37  55  77 111 154 192 220 248
#     4   8  14  25  40  59  87 124 158 181 210 259
#     4   9  18  33  51  67  84 111 145 176 209 254
#     4  10  18  27  43  66  91 117 144 177 214 252
#     4  10  20  32  46  64  84 104 128 161 200 242
#     4   8  15  30  50  66  80 103 133 160 192 243
#     4   9  17  28  43  65  90 114 141 173 208 245
#     4   9  18  32  47  61  79 107 142 173 199 234
#
# _framework density 19.021612999999999
#
# number of rings (size 3 to 8) (size 9 to 14) (size 15 to 20)
#    0.000    3.125    0.000    2.625    0.000    4.250 
#    0.000    1.250    0.000    2.625    0.000    0.000 
#    0.000    0.500    0.000    1.125    0.000    2.000 
#
# Total GULP energy -356754.503103 kJ/mol
# GULP energy per Si atom -5574.289111 kJ/mol
# Density = 1.897832 g / cm^3
# Si number density = 19.021613 Si / 1000 Ang^3
#
#
#
# Elastic Constant Matrix: (Units=GPa)
#
#
# Indices 1 2 3 4 5 6 
#
# 1 48.0200 -0.4998 -3.5705 0.0000 0.0000 0.0000
# 2 -0.4998 87.3597 55.9061 0.0000 0.0000 0.0000
# 3 -3.5705 55.9061 75.4275 0.0000 0.0000 0.0000
# 4 0.0000 0.0000 0.0000 13.9216 0.0000 0.0000
# 5 0.0000 0.0000 0.0000 0.0000 45.5479 0.0000
# 6 0.0000 0.0000 0.0000 0.0000 0.0000 5.7583
#
#
#
# Elastic Compliance Matrix: (Units=1/GPa)
#
#
# Indices 1 2 3 4 5 6 
#
# 1 0.020942 -0.000979 0.001717 0.000000 0.000000 0.000000
# 2 -0.000979 0.021822 -0.016220 0.000000 0.000000 0.000000
# 3 0.001717 -0.016220 0.025361 0.000000 0.000000 0.000000
# 4 0.000000 0.000000 0.000000 0.071831 0.000000 0.000000
# 5 0.000000 0.000000 0.000000 0.000000 0.021955 0.000000
# 6 0.000000 0.000000 0.000000 0.000000 0.000000 0.173663
#
#
# Mechanical properties :
#
#
# Convention : Reuss Voigt Hill
#
# Bulk Modulus (GPa) = 26.91030 34.94208 30.92619
# Shear Modulus (GPa) = 13.19523 23.64366 18.41945
#
# Velocity S-wave (km/s) = 2.63667 3.52943 3.11520
# Velocity P-wave (km/s) = 4.84224 5.91766 5.40676
#
# Compressibility (1/GPa) = 0.03716049
#
# Stress axis : x y z
#
# Youngs Moduli (GPa) = 47.75059 45.82629 39.43011
#
# Poissons Ratio (x) = 0.04486 -0.06770
# Poissons Ratio (y) = 0.04674 0.63957
# Poissons Ratio (z) = -0.08198 0.74331
#
# Static dielectric constant tensor:
#      x y z
#    x 1.724290 0.000000 0.000000 
#    y 0.000000 1.669820 0.000000 
#    z 0.000000 0.000000 1.683200 
# 
# From -- ./inp_files/37603.got.cif
#   From: 2010.05.17/outbox.cif.g08.bks.cpg/sg51_19_cif.got.tgz:37603.got - 2010.06.03 11:52:47.
