data_PCOD9398482
_publ_section_title
;
Structure prediction by ZEFSAII (Michael W. Deem and Ramdas Pophale) SiO2 
 PCOD9398482
Probable space group: P M M A
;
_chemical_formula_sum "Si O2"
_cell_formula_units_Z 64
_cell_length_a 22.543752
_cell_length_b 7.606357
_cell_length_c 20.087199
_cell_angle_alpha 90.000000
_cell_angle_beta 90.000000
_cell_angle_gamma 90.000000
_cell_volume 3444.469037
_symmetry_space_group_name_H-M "P M M A"
_symmetry_group_IT_number 51
_symmetry_cell_setting 'orthorhombic'
loop_
_space_group_symop_operation_xyz
x,y,z
1/2-x,-y,z
1/2+x,-y,-z
-x,y,-z
-x,-y,-z
1/2+x,y,-z
1/2-x,y,z
x,-y,z
loop_
_atom_site_type_symbol
_atom_site_label
_atom_site_fract_x
_atom_site_fract_y
_atom_site_fract_z
Si Si1 0.317045 0.791961 0.527537
Si Si2 0.607100 0.709407 0.094504
Si Si3 0.985438 0.794669 0.677501
Si Si4 0.684470 0.285219 0.209952
Si Si5 0.118634 0.289069 0.660365
Si Si6 0.439921 0.215823 0.459829
Si Si7 0.941547 0.790310 0.961655
Si Si8 0.514721 0.792169 0.827991
O O1 0.250000 0.721728 0.514538
O O2 0.334634 0.766943 0.604698
O O3 0.376671 0.724380 0.490141
O O4 0.314570 0.000000 0.513404
O O5 0.604509 0.500000 0.096672
O O6 0.662331 0.771154 0.137881
O O7 0.549127 0.772234 0.135800
O O8 0.607855 0.760774 0.017295
O O9 0.946391 0.723322 0.616756
O O10 0.983201 0.718051 0.752809
O O11 0.052805 0.782455 0.650782
O O12 0.970125 0.000000 0.682946
O O13 0.750000 0.224455 0.225328
O O14 0.684637 0.500000 0.211056
O O15 0.640026 0.228453 0.267362
O O16 0.115110 0.500000 0.659539
O O17 0.500000 0.269629 0.500000
O O18 0.440029 0.000000 0.461685
O O19 0.941005 0.722263 0.886022
O O20 0.949009 0.000000 0.956083
O O21 0.000000 0.718464 0.000000
O O22 0.525249 0.000000 0.820668
#
# Coordination Sequence:
#
# PCOD9398482 Si02
#       8
#     8   8   8   8   8   8   8   8
#     4  10  20  34  51  70  91 119 157 197 233 274
#     4  10  17  26  42  62  83 112 148 184 220 259
#     4  10  18  30  49  68  91 124 158 186 226 279
#     4   9  18  30  41  57  86 121 152 183 222 265
#     4  11  20  31  47  67  94 125 156 189 230 274
#     4   9  16  29  49  70  92 118 150 191 235 274
#     4   8  15  27  40  58  84 112 139 170 214 261
#     4   9  17  28  43  62  86 115 144 176 217 268
#
# _framework density 18.580513
#
# number of rings (size 3 to 8) (size 9 to 14) (size 15 to 20)
#    0.000    2.500    2.500    1.875    0.000    3.000 
#    0.000    1.250    0.000    3.750    0.000    0.875 
#    0.000    3.000    0.000    0.000    0.000    0.000 
#
# Total GULP energy -356339.162121 kJ/mol
# GULP energy per Si atom -5567.799408 kJ/mol
# Density = 1.853822 g / cm^3
# Si number density = 18.580513 Si / 1000 Ang^3
#
#
#
# Elastic Constant Matrix: (Units=GPa)
#
#
# Indices 1 2 3 4 5 6 
#
# 1 42.9428 5.1041 40.1814 0.0000 0.0000 0.0000
# 2 5.1041 38.0755 7.6198 0.0000 0.0000 0.0000
# 3 40.1814 7.6198 121.9566 0.0000 0.0000 0.0000
# 4 0.0000 0.0000 0.0000 3.2917 0.0000 0.0000
# 5 0.0000 0.0000 0.0000 0.0000 -6.6777 0.0000
# 6 0.0000 0.0000 0.0000 0.0000 0.0000 6.5044
#
#
#
# Elastic Compliance Matrix: (Units=1/GPa)
#
#
# Indices 1 2 3 4 5 6 
#
# 1 0.033869 -0.002336 -0.011013 0.000000 0.000000 0.000000
# 2 -0.002336 0.026757 -0.000902 0.000000 0.000000 0.000000
# 3 -0.011013 -0.000902 0.011885 0.000000 0.000000 0.000000
# 4 0.000000 0.000000 0.000000 0.303796 0.000000 0.000000
# 5 0.000000 0.000000 0.000000 0.000000 -0.149753 0.000000
# 6 0.000000 0.000000 0.000000 0.000000 0.000000 0.153743
#
#
# Mechanical properties :
#
#
# Convention : Reuss Voigt Hill
#
# Bulk Modulus (GPa) = 22.72293 34.30950 28.51622
# Shear Modulus (GPa) = 11.80726 10.62832 11.21779
#
# Velocity S-wave (km/s) = 2.52358 2.39428 2.45978
# Velocity P-wave (km/s) = 4.55491 5.11359 4.84232
#
# Compressibility (1/GPa) = 0.04400840
#
# Stress axis : x y z
#
# Youngs Moduli (GPa) = 29.52523 37.37297 84.14312
#
# Poissons Ratio (x) = 0.08731 0.92667
# Poissons Ratio (y) = 0.06898 0.07590
# Poissons Ratio (z) = 0.32516 0.03371
#
# Static dielectric constant tensor:
#      x y z
#    x 1.646950 0.000000 0.000000 
#    y 0.000000 1.681600 0.000000 
#    z 0.000000 0.000000 1.702680 
# 
# From -- ./inp_files/34128.got.cif
#   From: 2010.05.17/outbox.cif.g08.bks.cpg/sg51_18_cif.got.tgz:34128.got - 2010.06.03 11:52:47.
