data_PCOD9398280
_publ_section_title
;
Structure prediction by ZEFSAII (Michael W. Deem and Ramdas Pophale) SiO2 
 PCOD9398280
Probable space group: P B A N
;
_chemical_formula_sum "Si O2"
_cell_formula_units_Z 32
_cell_length_a 6.118273
_cell_length_b 27.409153
_cell_length_c 8.351726
_cell_angle_alpha 90.000000
_cell_angle_beta 90.000000
_cell_angle_gamma 90.000000
_cell_volume 1400.556729
_symmetry_space_group_name_H-M "P B A N"
_symmetry_group_IT_number 50
_space_group.IT_coordinate_system_code '2'
_symmetry_cell_setting 'orthorhombic'
loop_
_space_group_symop_operation_xyz
x,y,z
1/2-x,1/2-y,z
x,1/2-y,-z
1/2-x,y,-z
-x,-y,-z
1/2+x,1/2+y,-z
-x,1/2+y,z
1/2+x,-y,z
loop_
_atom_site_type_symbol
_atom_site_label
_atom_site_fract_x
_atom_site_fract_y
_atom_site_fract_z
Si Si1 0.745092 0.094395 0.194297
Si Si2 0.419432 0.331199 0.629946
Si Si3 0.750000 0.023553 0.500000
Si Si4 0.250000 0.750000 0.000000
Si Si5 0.250000 0.750000 0.500000
Si Si6 0.583803 0.674916 0.859244
O O1 0.546253 0.128978 0.259888
O O2 0.753158 0.052971 0.329937
O O3 0.959413 0.128008 0.206388
O O4 0.750000 0.082167 0.000000
O O5 0.250000 0.354617 0.500000
O O6 0.591022 0.290141 0.580516
O O7 0.241734 0.302931 0.731349
O O8 0.500000 0.000000 0.500000
O O9 0.403900 0.786222 0.095139
O O10 0.750000 0.661769 0.000000
#
# Coordination Sequence:
#
# PCOD9398280 Si02
#       6
#     8   8   4   2   2   8
#     4  12  27  54  85 120 163 217 276 340 442 520
#     4  12  27  46  73 107 156 223 277 345 406 493
#     4  12  33  58  94 133 170 207 280 370 445 550
#     4  12  26  42  64 124 162 216 280 330 392 468
#     4  12  28  46  66 106 162 222 290 334 408 474
#     4  12  25  44  71 108 163 217 276 340 396 491
#
# _framework density 22.848057000000001
#
# number of rings (size 3 to 8) (size 9 to 14) (size 15 to 20)
#    0.000    0.000    3.750    4.500    5.250   16.000 
#    0.000    0.000    0.000    0.000    0.000    0.000 
#    0.000    0.000    0.000    0.000    0.000    0.000 
#
# Total GULP energy -178212.290458 kJ/mol
# GULP energy per Si atom -5569.134077 kJ/mol
# Density = 2.279605 g / cm^3
# Si number density = 22.848057 Si / 1000 Ang^3
#
#
#
# Elastic Constant Matrix: (Units=GPa)
#
#
# Indices 1 2 3 4 5 6 
#
# 1 221.1495 78.7059 108.3546 0.0000 0.0000 0.0000
# 2 78.7059 104.3058 77.6939 0.0000 0.0000 0.0000
# 3 108.3546 77.6939 175.1524 0.0000 0.0000 0.0000
# 4 0.0000 0.0000 0.0000 -194.6161 0.0000 0.0000
# 5 0.0000 0.0000 0.0000 0.0000 83.5603 0.0000
# 6 0.0000 0.0000 0.0000 0.0000 0.0000 -38.9376
#
#
#
# Elastic Compliance Matrix: (Units=1/GPa)
#
#
# Indices 1 2 3 4 5 6 
#
# 1 0.007109 -0.003119 -0.003014 0.000000 0.000000 0.000000
# 2 -0.003119 0.015686 -0.005029 0.000000 0.000000 0.000000
# 3 -0.003014 -0.005029 0.009805 0.000000 0.000000 0.000000
# 4 0.000000 0.000000 0.000000 -0.005138 0.000000 0.000000
# 5 0.000000 0.000000 0.000000 0.000000 0.011967 0.000000
# 6 0.000000 0.000000 0.000000 0.000000 0.000000 -0.025682
#
#
# Mechanical properties :
#
#
# Convention : Reuss Voigt Hill
#
# Bulk Modulus (GPa) = 97.31297 114.45740 105.88519
# Shear Modulus (GPa) = 126.59768 -14.27512 56.16128
#
# Velocity S-wave (km/s) = 7.45176 -2.50228 4.96323
# Velocity P-wave (km/s) = 10.80381 6.46956 8.90442
#
# Compressibility (1/GPa) = 0.01027612
#
# Stress axis : x y z
#
# Youngs Moduli (GPa) = 140.67443 63.75003 101.99277
#
# Poissons Ratio (x) = 0.19882 0.30742
# Poissons Ratio (y) = 0.43873 0.51289
# Poissons Ratio (z) = 0.42402 0.32058
#
# Static dielectric constant tensor:
#      x y z
#    x 1.859800 0.000000 0.000000 
#    y 0.000000 1.807450 0.000000 
#    z 0.000000 0.000000 2.196910 
# 
# From -- ./inp_files/8042.got.cif
#   From: 2010.05.17/outbox.cif.g08.bks.cpg/sg50_5_cif.got.tgz:8042.got - 2010.06.03 11:33:33.
