data_PCOD9398247
_publ_section_title
;
Structure prediction by ZEFSAII (Michael W. Deem and Ramdas Pophale) SiO2 
 PCOD9398247
Probable space group: P B A N
;
_chemical_formula_sum "Si O2"
_cell_formula_units_Z 26
_cell_length_a 10.421459
_cell_length_b 18.134043
_cell_length_c 6.973234
_cell_angle_alpha 90.000000
_cell_angle_beta 90.000000
_cell_angle_gamma 90.000000
_cell_volume 1317.823975
_symmetry_space_group_name_H-M "P B A N"
_symmetry_group_IT_number 50
_space_group.IT_coordinate_system_code '2'
_symmetry_cell_setting 'orthorhombic'
loop_
_space_group_symop_operation_xyz
x,y,z
1/2-x,1/2-y,z
x,1/2-y,-z
1/2-x,y,-z
-x,-y,-z
1/2+x,1/2+y,-z
-x,1/2+y,z
1/2+x,-y,z
loop_
_atom_site_type_symbol
_atom_site_label
_atom_site_fract_x
_atom_site_fract_y
_atom_site_fract_z
Si Si1 0.884320 0.612856 0.991856
Si Si2 0.250000 0.750000 0.500000
Si Si3 0.780282 0.981912 0.721222
Si Si4 0.651394 0.350774 0.830740
O O1 0.842175 0.547241 0.844179
O O2 0.009546 0.651708 0.919203
O O3 0.750000 0.657802 0.000000
O O4 0.891991 0.572295 0.197567
O O5 0.332149 0.699399 0.356133
O O6 0.750000 0.973113 0.500000
O O7 0.815852 0.065223 0.770720
O O8 0.750000 0.331133 0.000000
#
# Coordination Sequence:
#
# PCOD9398247 Si02
#       4
#     8   2   8   8
#     4   8  21  36  62 101 121 158 195 273 346 357
#     4  12  30  40  60  92 120 204 218 252 312 398
#     4   9  18  33  61 101 127 154 198 269 338 374
#     4  12  22  42  61  89 139 162 220 261 314 398
#
# _framework density 19.729495
#
# number of rings (size 3 to 8) (size 9 to 14) (size 15 to 20)
#    1.846    0.000    4.615    1.385    0.000    3.692 
#    0.000    0.000    0.000    5.538    0.000    0.000 
#    0.000    0.000    0.000    0.000    0.000    0.000 
#
# Total GULP energy -144754.937581 kJ/mol
# GULP energy per Si atom -5567.497599 kJ/mol
# Density = 1.968459 g / cm^3
# Si number density = 19.729495 Si / 1000 Ang^3
#
#
#
# Elastic Constant Matrix: (Units=GPa)
#
#
# Indices 1 2 3 4 5 6 
#
# 1 168.2228 49.8671 66.6968 0.0000 0.0000 0.0000
# 2 49.8671 66.6934 38.4524 0.0000 0.0000 0.0000
# 3 66.6968 38.4524 164.9013 0.0000 0.0000 0.0000
# 4 0.0000 0.0000 0.0000 329.0810 0.0000 0.0000
# 5 0.0000 0.0000 0.0000 0.0000 16.8642 0.0000
# 6 0.0000 0.0000 0.0000 0.0000 0.0000 55.6643
#
#
#
# Elastic Compliance Matrix: (Units=1/GPa)
#
#
# Indices 1 2 3 4 5 6 
#
# 1 0.008275 -0.004919 -0.002200 0.000000 0.000000 0.000000
# 2 -0.004919 0.020247 -0.002732 0.000000 0.000000 0.000000
# 3 -0.002200 -0.002732 0.007591 0.000000 0.000000 0.000000
# 4 0.000000 0.000000 0.000000 0.003039 0.000000 0.000000
# 5 0.000000 0.000000 0.000000 0.000000 0.059297 0.000000
# 6 0.000000 0.000000 0.000000 0.000000 0.000000 0.017965
#
#
# Mechanical properties :
#
#
# Convention : Reuss Voigt Hill
#
# Bulk Modulus (GPa) = 60.93186 78.87224 69.90205
# Shear Modulus (GPa) = 35.31452 96.64198 65.97825
#
# Velocity S-wave (km/s) = 4.23535 7.00641 5.78913
# Velocity P-wave (km/s) = 7.40731 10.27213 8.95503
#
# Compressibility (1/GPa) = 0.01641177
#
# Stress axis : x y z
#
# Youngs Moduli (GPa) = 120.84882 49.39050 131.73466
#
# Poissons Ratio (x) = 0.24294 0.28980
# Poissons Ratio (y) = 0.59443 0.35987
# Poissons Ratio (z) = 0.26585 0.13492
#
# Static dielectric constant tensor:
#      x y z
#    x 1.737710 0.000000 0.000000 
#    y 0.000000 1.701180 0.000000 
#    z 0.000000 0.000000 1.689080 
# 
# From -- ./inp_files/1826.got.cif
#   From: 2010.05.17/outbox.cif.g08.bks.cpg/sg50_1_cif.got.tgz:1826.got - 2010.06.03 11:33:33.
