data_PCOD9398141
_publ_section_title
;
Structure prediction by ZEFSAII (Michael W. Deem and Ramdas Pophale) SiO2 
 PCOD9398141
Probable space group: P B A N
;
_chemical_formula_sum "Si O2"
_cell_formula_units_Z 32
_cell_length_a 8.423736
_cell_length_b 19.398196
_cell_length_c 8.238649
_cell_angle_alpha 90.000000
_cell_angle_beta 90.000000
_cell_angle_gamma 90.000000
_cell_volume 1346.238763
_symmetry_space_group_name_H-M "P B A N"
_symmetry_group_IT_number 50
_space_group.IT_coordinate_system_code '2'
_symmetry_cell_setting 'orthorhombic'
loop_
_space_group_symop_operation_xyz
x,y,z
1/2-x,1/2-y,z
x,1/2-y,-z
1/2-x,y,-z
-x,-y,-z
1/2+x,1/2+y,-z
-x,1/2+y,z
1/2+x,-y,z
loop_
_atom_site_type_symbol
_atom_site_label
_atom_site_fract_x
_atom_site_fract_y
_atom_site_fract_z
Si Si1 0.064373 0.549350 0.144714
Si Si2 0.929649 0.672789 0.569320
Si Si3 0.640604 0.044394 0.363880
Si Si4 0.565270 0.677804 0.041813
O O1 0.978857 0.511895 0.294709
O O2 0.244492 0.559029 0.207933
O O3 0.008168 0.621874 0.077009
O O4 0.000000 0.500000 0.000000
O O5 0.971094 0.750000 0.500000
O O6 0.750000 0.659343 0.500000
O O7 0.931105 0.671247 0.764906
O O8 0.058792 0.611208 0.549989
O O9 0.750000 0.011139 0.500000
O O10 0.487223 0.750000 0.000000
O O11 0.750000 0.678225 0.000000
#
# Coordination Sequence:
#
# PCOD9398141 Si02
#       4
#     8   8   8   8
#     4  12  26  52  76 115 155 207 270 330 402 484
#     4  11  26  50  79 114 160 210 267 332 409 495
#     4  12  29  48  79 115 160 213 264 339 410 485
#     4  11  24  45  81 111 151 208 270 327 400 485
#
# _framework density 23.769931
#
# number of rings (size 3 to 8) (size 9 to 14) (size 15 to 20)
#    0.000    0.500    2.500    6.000    7.000    1.500 
#    0.000    1.250    0.000    0.000    0.000    0.000 
#    0.000    0.000    0.000    0.000    0.000    0.000 
#
# Total GULP energy -178510.211427 kJ/mol
# GULP energy per Si atom -5578.444107 kJ/mol
# Density = 2.371583 g / cm^3
# Si number density = 23.769931 Si / 1000 Ang^3
#
#
#
# Elastic Constant Matrix: (Units=GPa)
#
#
# Indices 1 2 3 4 5 6 
#
# 1 127.3472 84.5736 53.9314 0.0000 0.0000 0.0000
# 2 84.5736 195.0548 33.9895 0.0000 0.0000 0.0000
# 3 53.9314 33.9895 88.6622 0.0000 0.0000 0.0000
# 4 0.0000 0.0000 0.0000 19.2320 0.0000 0.0000
# 5 0.0000 0.0000 0.0000 0.0000 58.3022 0.0000
# 6 0.0000 0.0000 0.0000 0.0000 0.0000 39.9947
#
#
#
# Elastic Compliance Matrix: (Units=1/GPa)
#
#
# Indices 1 2 3 4 5 6 
#
# 1 0.013868 -0.004868 -0.006569 0.000000 0.000000 0.000000
# 2 -0.004868 0.007203 0.000200 0.000000 0.000000 0.000000
# 3 -0.006569 0.000200 0.015198 0.000000 0.000000 0.000000
# 4 0.000000 0.000000 0.000000 0.051997 0.000000 0.000000
# 5 0.000000 0.000000 0.000000 0.000000 0.017152 0.000000
# 6 0.000000 0.000000 0.000000 0.000000 0.000000 0.025003
#
#
# Mechanical properties :
#
#
# Convention : Reuss Voigt Hill
#
# Bulk Modulus (GPa) = 72.49706 84.00592 78.25149
# Shear Modulus (GPa) = 31.74754 39.41045 35.57899
#
# Velocity S-wave (km/s) = 3.65857 4.07627 3.87306
# Velocity P-wave (km/s) = 6.95792 7.58766 7.27960
#
# Compressibility (1/GPa) = 0.01379366
#
# Stress axis : x y z
#
# Youngs Moduli (GPa) = 72.11075 138.83727 65.79827
#
# Poissons Ratio (x) = 0.67587 0.43224
# Poissons Ratio (y) = 0.35104 -0.01316
# Poissons Ratio (z) = 0.47370 -0.02776
#
# Static dielectric constant tensor:
#      x y z
#    x 1.932080 0.000000 0.000000 
#    y 0.000000 1.948890 0.000000 
#    z 0.000000 0.000000 1.925770 
# 
# From -- ./inp_files/9110.got.cif
#   From: 2010.05.17/outbox.cif.g08.bks.cpg/sg50_5_cif.got.tgz:9110.got - 2010.06.03 11:33:33.
