data_PCOD9398508
_publ_section_title
;
Structure prediction by ZEFSAII (Michael W. Deem and Ramdas Pophale) SiO2 
 PCOD9398508
Probable space group: P M M A
;
_chemical_formula_sum "Si O2"
_cell_formula_units_Z 64
_cell_length_a 31.067501
_cell_length_b 7.454211
_cell_length_c 15.412837
_cell_angle_alpha 90.000000
_cell_angle_beta 90.000000
_cell_angle_gamma 90.000000
_cell_volume 3569.361939
_symmetry_space_group_name_H-M "P M M A"
_symmetry_group_IT_number 51
_symmetry_cell_setting 'orthorhombic'
loop_
_space_group_symop_operation_xyz
x,y,z
1/2-x,-y,z
1/2+x,-y,-z
-x,y,-z
-x,-y,-z
1/2+x,y,-z
1/2-x,y,z
x,-y,z
loop_
_atom_site_type_symbol
_atom_site_label
_atom_site_fract_x
_atom_site_fract_y
_atom_site_fract_z
Si Si1 0.608897 0.719775 0.963217
Si Si2 0.702690 0.287320 0.002614
Si Si3 0.552435 0.705867 0.124515
Si Si4 0.702899 0.216220 0.207727
Si Si5 0.613495 0.209245 0.279050
Si Si6 0.937986 0.715962 0.442568
Si Si7 0.532127 0.718622 0.624389
Si Si8 0.540659 0.719596 0.820404
O O1 0.610653 0.500000 0.966113
O O2 0.658263 0.783326 0.962661
O O3 0.580221 0.771870 0.881062
O O4 0.583442 0.781285 0.049825
O O5 0.750000 0.213640 0.978027
O O6 0.703989 0.500000 0.984999
O O7 0.698296 0.263286 0.106381
O O8 0.544886 0.500000 0.097768
O O9 0.578039 0.706504 0.215301
O O10 0.504976 0.783085 0.139897
O O11 0.750000 0.281686 0.236792
O O12 0.660879 0.281795 0.258046
O O13 0.703533 0.000000 0.214290
O O14 0.599595 0.227327 0.378407
O O15 0.613109 0.000000 0.255921
O O16 0.938342 0.500000 0.443140
O O17 0.938777 0.775745 0.542643
O O18 0.983368 0.773406 0.399595
O O19 0.532341 0.500000 0.625208
O O20 0.544127 0.778350 0.720542
O O21 0.539250 0.500000 0.819504
#
# Coordination Sequence:
#
# PCOD9398508 Si02
#       8
#     8   8   8   8   8   8   8   8
#     4   9  16  24  38  63  87 109 140 174 207 240
#     4   9  16  26  41  62  85 106 133 173 214 245
#     4  10  17  27  42  60  84 115 145 172 199 238
#     4   9  18  31  44  58  80 111 143 172 203 249
#     4  11  20  28  42  64  87 111 139 172 213 256
#     4   9  16  28  45  63  82 107 140 176 209 245
#     4   8  14  25  43  64  82 105 142 178 204 237
#     4   9  15  24  41  63  84 109 145 180 200 232
#
# _framework density 17.930377
#
# number of rings (size 3 to 8) (size 9 to 14) (size 15 to 20)
#    0.000    2.750    2.500    1.500    0.000    2.000 
#    0.000    1.250    0.000    2.250    0.000    0.875 
#    0.000    3.000    0.000    0.000    0.000    0.000 
#
# Total GULP energy -356819.812718 kJ/mol
# GULP energy per Si atom -5575.309574 kJ/mol
# Density = 1.788957 g / cm^3
# Si number density = 17.930377 Si / 1000 Ang^3
#
#
#
# Elastic Constant Matrix: (Units=GPa)
#
#
# Indices 1 2 3 4 5 6 
#
# 1 175.9886 4.4800 77.9804 0.0000 0.0000 0.0000
# 2 4.4800 51.9793 1.0288 0.0000 0.0000 0.0000
# 3 77.9804 1.0288 101.6299 0.0000 0.0000 0.0000
# 4 0.0000 0.0000 0.0000 13.5439 0.0000 0.0000
# 5 0.0000 0.0000 0.0000 0.0000 29.7783 0.0000
# 6 0.0000 0.0000 0.0000 0.0000 0.0000 20.7007
#
#
#
# Elastic Compliance Matrix: (Units=1/GPa)
#
#
# Indices 1 2 3 4 5 6 
#
# 1 0.008629 -0.000613 -0.006615 0.000000 0.000000 0.000000
# 2 -0.000613 0.019286 0.000275 0.000000 0.000000 0.000000
# 3 -0.006615 0.000275 0.014912 0.000000 0.000000 0.000000
# 4 0.000000 0.000000 0.000000 0.073834 0.000000 0.000000
# 5 0.000000 0.000000 0.000000 0.000000 0.033581 0.000000
# 6 0.000000 0.000000 0.000000 0.000000 0.000000 0.048307
#
#
# Mechanical properties :
#
#
# Convention : Reuss Voigt Hill
#
# Bulk Modulus (GPa) = 34.57589 55.17513 44.87551
# Shear Modulus (GPa) = 22.51286 29.21182 25.86234
#
# Velocity S-wave (km/s) = 3.54725 4.04069 3.80198
# Velocity P-wave (km/s) = 6.00854 7.25315 6.65999
#
# Compressibility (1/GPa) = 0.02892189
#
# Stress axis : x y z
#
# Youngs Moduli (GPa) = 115.89222 51.85160 67.05915
#
# Poissons Ratio (x) = 0.03177 0.44357
# Poissons Ratio (y) = 0.07101 -0.01844
# Poissons Ratio (z) = 0.76658 -0.01426
#
# Static dielectric constant tensor:
#      x y z
#    x 1.629780 0.000000 0.000000 
#    y 0.000000 1.692400 0.000000 
#    z 0.000000 0.000000 1.591100 
# 
# From -- ./inp_files/26637.got.cif
#   From: 2010.05.17/outbox.cif.g08.bks.cpg/sg51_14_cif.got.tgz:26637.got - 2010.06.03 11:52:47.
