data_PCOD9398117
_publ_section_title
;
Structure prediction by ZEFSAII (Michael W. Deem and Ramdas Pophale) SiO2 
 PCOD9398117
Probable space group: P B A N
;
_chemical_formula_sum "Si O2"
_cell_formula_units_Z 40
_cell_length_a 9.361931
_cell_length_b 9.456196
_cell_length_c 20.300093
_cell_angle_alpha 90.000000
_cell_angle_beta 90.000000
_cell_angle_gamma 90.000000
_cell_volume 1797.131799
_symmetry_space_group_name_H-M "P B A N"
_symmetry_group_IT_number 50
_space_group.IT_coordinate_system_code '2'
_symmetry_cell_setting 'orthorhombic'
loop_
_space_group_symop_operation_xyz
x,y,z
1/2-x,1/2-y,z
x,1/2-y,-z
1/2-x,y,-z
-x,-y,-z
1/2+x,1/2+y,-z
-x,1/2+y,z
1/2+x,-y,z
loop_
_atom_site_type_symbol
_atom_site_label
_atom_site_fract_x
_atom_site_fract_y
_atom_site_fract_z
Si Si1 0.797421 0.587958 0.250240
Si Si2 0.128547 0.349698 0.065194
Si Si3 0.420256 0.732425 0.574061
Si Si4 0.461657 0.020329 0.339480
Si Si5 0.309154 0.907616 0.883490
O O1 0.750000 0.750000 0.238584
O O2 0.692667 0.538834 0.308221
O O3 0.790726 0.491490 0.185186
O O4 0.950881 0.557333 0.281661
O O5 0.250000 0.250000 0.098865
O O6 0.213449 0.499125 0.066033
O O7 0.975741 0.388107 0.096482
O O8 0.099398 0.250000 0.000000
O O9 0.250000 0.750000 0.572277
O O10 0.477288 0.750000 0.500000
O O11 0.458307 0.577033 0.597101
O O12 0.477381 0.833924 0.632114
O O13 0.250000 0.750000 0.878070
#
# Coordination Sequence:
#
# PCOD9398117 Si02
#       5
#     8   8   8   8   8
#     4  12  27  46  71 102 150 187 247 307 375 446
#     4  11  27  52  79 113 157 197 244 304 376 456
#     4  11  24  43  68 105 148 192 249 311 375 452
#     4  12  24  44  70 104 139 200 243 309 377 442
#     4  12  28  48  78 116 148 201 255 314 379 452
#
# _framework density 22.25769
#
# number of rings (size 3 to 8) (size 9 to 14) (size 15 to 20)
#    0.000    0.400    4.000    3.600    2.800   10.800 
#    0.000    2.000    0.000    0.000    0.000    0.000 
#    0.000    0.000    0.000    0.000    0.000    0.000 
#
# Total GULP energy -223216.780538 kJ/mol
# GULP energy per Si atom -5580.419513 kJ/mol
# Density = 2.220703 g / cm^3
# Si number density = 22.257690 Si / 1000 Ang^3
#
#
#
# Elastic Constant Matrix: (Units=GPa)
#
#
# Indices 1 2 3 4 5 6 
#
# 1 65.3776 15.7444 -15.6336 0.0000 0.0000 0.0000
# 2 15.7444 144.9972 28.7653 0.0000 0.0000 0.0000
# 3 -15.6336 28.7653 110.3263 0.0000 0.0000 0.0000
# 4 0.0000 0.0000 0.0000 81.9569 0.0000 0.0000
# 5 0.0000 0.0000 0.0000 0.0000 56.1378 0.0000
# 6 0.0000 0.0000 0.0000 0.0000 0.0000 30.9923
#
#
#
# Elastic Compliance Matrix: (Units=1/GPa)
#
#
# Indices 1 2 3 4 5 6 
#
# 1 0.016582 -0.002390 0.002973 0.000000 0.000000 0.000000
# 2 -0.002390 0.007617 -0.002325 0.000000 0.000000 0.000000
# 3 0.002973 -0.002325 0.010091 0.000000 0.000000 0.000000
# 4 0.000000 0.000000 0.000000 0.012202 0.000000 0.000000
# 5 0.000000 0.000000 0.000000 0.000000 0.017813 0.000000
# 6 0.000000 0.000000 0.000000 0.000000 0.000000 0.032266
#
#
# Mechanical properties :
#
#
# Convention : Reuss Voigt Hill
#
# Bulk Modulus (GPa) = 32.46028 42.05036 37.25532
# Shear Modulus (GPa) = 45.32043 53.27240 49.29641
#
# Velocity S-wave (km/s) = 4.51729 4.89759 4.71128
# Velocity P-wave (km/s) = 6.46710 7.13550 6.80950
#
# Compressibility (1/GPa) = 0.03080689
#
# Stress axis : x y z
#
# Youngs Moduli (GPa) = 60.30508 131.27754 99.09379
#
# Poissons Ratio (x) = 0.31380 -0.29461
# Poissons Ratio (y) = 0.14415 0.23037
# Poissons Ratio (z) = -0.17929 0.30520
#
# Static dielectric constant tensor:
#      x y z
#    x 1.782380 0.000000 0.000000 
#    y 0.000000 2.086460 0.000000 
#    z 0.000000 0.000000 1.844350 
# 
# From -- ./inp_files/31566.got.cif
#   From: 2010.05.17/outbox.cif.g08.bks.cpg/sg50_16_cif.got.tgz:31566.got - 2010.06.03 11:33:33.
