data_PCOD9398347
_publ_section_title
;
Structure prediction by ZEFSAII (Michael W. Deem and Ramdas Pophale) SiO2 
 PCOD9398347
Probable space group: P M M A
;
_chemical_formula_sum "Si O2"
_cell_formula_units_Z 40
_cell_length_a 8.721305
_cell_length_b 27.531936
_cell_length_c 9.335155
_cell_angle_alpha 90.000000
_cell_angle_beta 90.000000
_cell_angle_gamma 90.000000
_cell_volume 2241.505245
_symmetry_space_group_name_H-M "P M M A"
_symmetry_group_IT_number 51
_symmetry_cell_setting 'orthorhombic'
loop_
_space_group_symop_operation_xyz
x,y,z
1/2-x,-y,z
1/2+x,-y,-z
-x,y,-z
-x,-y,-z
1/2+x,y,-z
1/2-x,y,z
x,-y,z
loop_
_atom_site_type_symbol
_atom_site_label
_atom_site_fract_x
_atom_site_fract_y
_atom_site_fract_z
Si Si1 0.066462 0.054143 0.159697
Si Si2 0.566261 0.750597 0.338162
Si Si3 0.933443 0.142365 0.339970
Si Si4 0.432878 0.651949 0.337131
Si Si5 0.433708 0.446745 0.662052
O O1 0.250000 0.057624 0.154822
O O2 0.999810 0.097902 0.251332
O O3 0.026249 0.000000 0.216137
O O4 0.000000 0.057328 0.000000
O O5 0.500000 0.752554 0.500000
O O6 0.750000 0.745055 0.344136
O O7 0.529024 0.803942 0.276686
O O8 0.493575 0.702272 0.270205
O O9 0.750000 0.139046 0.346791
O O10 0.000000 0.140171 0.500000
O O11 0.500000 0.652033 0.500000
O O12 0.250000 0.651865 0.343588
O O13 0.493954 0.601649 0.270298
O O14 0.500000 0.448492 0.500000
O O15 0.250000 0.441428 0.654778
O O16 0.468779 0.500000 0.726729
#
# Coordination Sequence:
#
# PCOD9398347 Si02
#       5
#     8   8   8   8   8
#     4  10  21  37  56  76  99 128 160 194 233 280
#     4   9  16  26  39  56  79 106 138 176 219 266
#     4  10  20  33  51  74  99 127 159 198 240 281
#     4  10  16  21  31  45  64  92 126 166 212 260
#     4   9  15  21  28  38  55  82 119 164 210 254
#
# _framework density 17.845151000000001
#
# number of rings (size 3 to 8) (size 9 to 14) (size 15 to 20)
#    0.000    2.400    0.000    6.600    0.000    5.200 
#    0.000    0.000    0.000    0.000    0.000    0.000 
#    0.000    0.000    0.000    0.000    0.000    1.000 
#
# Total GULP energy -222766.256754 kJ/mol
# GULP energy per Si atom -5569.156419 kJ/mol
# Density = 1.780453 g / cm^3
# Si number density = 17.845151 Si / 1000 Ang^3
#
#
#
# Elastic Constant Matrix: (Units=GPa)
#
#
# Indices 1 2 3 4 5 6 
#
# 1 108.2613 87.9464 12.1246 0.0000 0.0000 0.0000
# 2 87.9464 242.2074 37.8972 0.0000 0.0000 0.0000
# 3 12.1246 37.8972 10.0964 0.0000 0.0000 0.0000
# 4 0.0000 0.0000 0.0000 -7.1098 0.0000 0.0000
# 5 0.0000 0.0000 0.0000 0.0000 14.9462 0.0000
# 6 0.0000 0.0000 0.0000 0.0000 0.0000 305.8396
#
#
#
# Elastic Compliance Matrix: (Units=1/GPa)
#
#
# Indices 1 2 3 4 5 6 
#
# 1 0.013213 -0.005609 0.005188 0.000000 0.000000 0.000000
# 2 -0.005609 0.012385 -0.039753 0.000000 0.000000 0.000000
# 3 0.005188 -0.039753 0.242030 0.000000 0.000000 0.000000
# 4 0.000000 0.000000 0.000000 -0.140650 0.000000 0.000000
# 5 0.000000 0.000000 0.000000 0.000000 0.066906 0.000000
# 6 0.000000 0.000000 0.000000 0.000000 0.000000 0.003270
#
#
# Mechanical properties :
#
#
# Convention : Reuss Voigt Hill
#
# Bulk Modulus (GPa) = 5.33963 70.72239 38.03101
# Shear Modulus (GPa) = 14.70891 77.57499 46.14195
#
# Velocity S-wave (km/s) = 2.87409 6.60042 5.09048
# Velocity P-wave (km/s) = 3.74334 9.88962 7.47721
#
# Compressibility (1/GPa) = 0.18727878
#
# Stress axis : x y z
#
# Youngs Moduli (GPa) = 75.68531 80.74003 4.13171
#
# Poissons Ratio (x) = 0.45289 -0.02143
# Poissons Ratio (y) = 0.42454 0.16425
# Poissons Ratio (z) = -0.39262 3.20967
#
# Static dielectric constant tensor:
#      x y z
#    x 1.589700 0.000000 0.000000 
#    y 0.000000 1.716070 0.000000 
#    z 0.000000 0.000000 1.560440 
# 
# From -- ./inp_files/5480.got.cif
#   From: 2010.05.17/outbox.cif.g08.bks.cpg/sg51_3_cif.got.tgz:5480.got - 2010.06.03 11:52:47.
