data_PCOD9398329
_publ_section_title
;
Structure prediction by ZEFSAII (Michael W. Deem and Ramdas Pophale) SiO2 
 PCOD9398329
Probable space group: P B A N
;
_chemical_formula_sum "Si O2"
_cell_formula_units_Z 64
_cell_length_a 12.000000
_cell_length_b 30.000000
_cell_length_c 9.000000
_cell_angle_alpha 90.000000
_cell_angle_beta 90.000000
_cell_angle_gamma 90.000000
_cell_volume 3240.000000
_symmetry_space_group_name_H-M "P B A N"
_symmetry_group_IT_number 50
_space_group.IT_coordinate_system_code '2'
_symmetry_cell_setting 'orthorhombic'
loop_
_space_group_symop_operation_xyz
x,y,z
1/2-x,1/2-y,z
x,1/2-y,-z
1/2-x,y,-z
-x,-y,-z
1/2+x,1/2+y,-z
-x,1/2+y,z
1/2+x,-y,z
loop_
_atom_site_type_symbol
_atom_site_label
_atom_site_fract_x
_atom_site_fract_y
_atom_site_fract_z
Si Si1 0.382853 0.257912 0.824376
Si Si2 0.039842 0.171138 0.334688
Si Si3 0.087192 0.352804 0.329191
Si Si4 0.625083 0.021125 0.467640
Si Si5 0.791209 0.610145 0.158409
Si Si6 0.640546 0.097499 0.705673
Si Si7 0.607117 0.413115 0.776511
Si Si8 0.986540 0.949618 0.940624
O O1 0.250000 0.250000 0.801238
O O2 0.450268 0.221878 0.723444
O O3 0.407858 0.308394 0.772259
O O4 0.406177 0.250000 0.000000
O O5 0.090120 0.163690 0.499888
O O6 0.118977 0.143368 0.225193
O O7 0.922266 0.144565 0.320297
O O8 0.186519 0.386264 0.272445
O O9 0.971655 0.379221 0.312454
O O10 0.750000 0.998489 0.500000
O O11 0.638712 0.067630 0.557100
O O12 0.616337 0.037840 0.298540
O O13 0.500000 0.000000 0.500000
O O14 0.862196 0.565399 0.114383
O O15 0.750000 0.627468 0.000000
O O16 0.764302 0.102892 0.774310
O O17 0.568318 0.064264 0.808550
O O18 0.537029 0.419057 0.927375
O O19 0.000000 0.000000 0.000000
#
# Coordination Sequence:
#
# PCOD9398329 Si02
#       8
#     8   8   8   8   8   8   8   8
#     4  11  24  40  67  98 138 170 209 273 338 405
#     4  11  23  41  66  98 134 170 220 269 336 410
#     4  12  23  41  67  99 130 173 221 266 346 405
#     4  10  21  43  64  94 131 173 226 281 346 403
#     4  11  22  39  63  94 133 168 213 275 332 400
#     4  10  23  43  65  90 131 177 225 275 336 400
#     4  11  23  42  66  89 129 179 221 272 339 400
#     4  11  24  42  64  93 129 171 231 281 336 395
#
# _framework density 19.753086
#
# number of rings (size 3 to 8) (size 9 to 14) (size 15 to 20)
#    0.000    1.125    3.750    2.625    1.750    1.500 
#    9.000    0.625    0.000    2.250    0.000    0.000 
#    0.000    0.000    0.000    0.000    0.000    0.000 
#
# Total GULP energy -356765.459865 kJ/mol
# GULP energy per Si atom -5574.460310 kJ/mol
# Density = 1.970813 g / cm^3
# Si number density = 19.753086 Si / 1000 Ang^3
#
#
#
# Elastic Constant Matrix: (Units=GPa)
#
#
# Indices 1 2 3 4 5 6 
#
# 1 154.7921 50.3585 26.5897 0.0000 0.0000 0.0000
# 2 50.3585 93.0722 29.9232 0.0000 0.0000 0.0000
# 3 26.5897 29.9232 101.5408 0.0000 0.0000 0.0000
# 4 0.0000 0.0000 0.0000 34.2151 0.0000 0.0000
# 5 0.0000 0.0000 0.0000 0.0000 21.3635 0.0000
# 6 0.0000 0.0000 0.0000 0.0000 0.0000 34.1687
#
#
#
# Elastic Compliance Matrix: (Units=1/GPa)
#
#
# Indices 1 2 3 4 5 6 
#
# 1 0.007913 -0.003994 -0.000895 0.000000 0.000000 0.000000
# 2 -0.003994 0.013885 -0.003046 0.000000 0.000000 0.000000
# 3 -0.000895 -0.003046 0.010980 0.000000 0.000000 0.000000
# 4 0.000000 0.000000 0.000000 0.029227 0.000000 0.000000
# 5 0.000000 0.000000 0.000000 0.000000 0.046809 0.000000
# 6 0.000000 0.000000 0.000000 0.000000 0.000000 0.029267
#
#
# Mechanical properties :
#
#
# Convention : Reuss Voigt Hill
#
# Bulk Modulus (GPa) = 59.14243 62.57197 60.85720
# Shear Modulus (GPa) = 31.33101 34.11839 32.72470
#
# Velocity S-wave (km/s) = 3.98695 4.16052 4.07466
# Velocity P-wave (km/s) = 7.15543 7.40444 7.28100
#
# Compressibility (1/GPa) = 0.01690833
#
# Stress axis : x y z
#
# Youngs Moduli (GPa) = 126.36821 72.02258 91.07244
#
# Poissons Ratio (x) = 0.28765 0.08153
# Poissons Ratio (y) = 0.50470 0.27739
# Poissons Ratio (z) = 0.11313 0.21937
#
# Static dielectric constant tensor:
#      x y z
#    x 1.730900 0.000000 0.000000 
#    y 0.000000 1.703410 0.000000 
#    z 0.000000 0.000000 1.865540 
# 
# From -- ./inp_files/11859.got.cif
#   From: 2010.05.17/outbox.ucp.g08.bks.cvg/sg50_6_cif.got.tgz:11859.got - 2010.06.11 16:26:39.
