data_PCOD9398790
_publ_section_title
;
Structure prediction by ZEFSAII (Michael W. Deem and Ramdas Pophale) SiO2 
 PCOD9398790
Probable space group: P M M A
;
_chemical_formula_sum "Si O2"
_cell_formula_units_Z 56
_cell_length_a 22.791461
_cell_length_b 8.933569
_cell_length_c 18.190411
_cell_angle_alpha 90.000000
_cell_angle_beta 90.000000
_cell_angle_gamma 90.000000
_cell_volume 3703.733021
_symmetry_space_group_name_H-M "P M M A"
_symmetry_group_IT_number 51
_symmetry_cell_setting 'orthorhombic'
loop_
_space_group_symop_operation_xyz
x,y,z
1/2-x,-y,z
1/2+x,-y,-z
-x,y,-z
-x,-y,-z
1/2+x,y,-z
1/2-x,y,z
x,-y,z
loop_
_atom_site_type_symbol
_atom_site_label
_atom_site_fract_x
_atom_site_fract_y
_atom_site_fract_z
Si Si1 0.067279 0.827805 0.970374
Si Si2 0.818250 0.679421 0.754968
Si Si3 0.031593 0.180094 0.675227
Si Si4 0.970816 0.322172 0.172065
Si Si5 0.596149 0.179805 0.870966
Si Si6 0.069652 0.827125 0.519408
Si Si7 0.591826 0.677654 0.627246
O O1 0.067630 0.727035 0.898190
O O2 0.080871 0.000000 0.950968
O O3 0.103453 0.781709 0.042601
O O4 0.000000 0.825818 0.000000
O O5 0.750000 0.718976 0.749896
O O6 0.822828 0.500000 0.766956
O O7 0.851251 0.763549 0.820676
O O8 0.853769 0.712862 0.680165
O O9 0.965921 0.239837 0.658571
O O10 0.050955 0.250431 0.751995
O O11 0.071088 0.221874 0.604342
O O12 0.029791 0.000000 0.679168
O O13 0.974409 0.500000 0.177921
O O14 0.036101 0.255849 0.157552
O O15 0.589116 0.000000 0.866465
O O16 0.100135 0.730226 0.456642
O O17 0.000000 0.823618 0.500000
O O18 0.088513 0.000000 0.513652
O O19 0.581115 0.500000 0.629427
#
# Coordination Sequence:
#
# PCOD9398790 Si02
#       7
#     8   8   8   8   8   8   8
#     4   8  16  29  42  59  83 112 144 176 213 257
#     4  10  21  34  46  63  88 117 150 187 224 258
#     4  10  18  28  42  60  86 117 145 175 213 259
#     4  11  19  26  41  65  89 115 145 176 214 260
#     4  10  19  31  46  61  82 114 149 184 219 257
#     4   8  16  28  41  58  81 112 143 173 214 259
#     4  10  18  28  43  61  82 112 146 182 220 256
#
# _framework density 15.119880999999999
#
# number of rings (size 3 to 8) (size 9 to 14) (size 15 to 20)
#    0.000    2.429    1.429    4.286    0.000    7.143 
#    0.000    0.000    0.000    0.000    0.000    0.000 
#    0.000    1.143    0.000    8.571    0.000    4.429 
#
# Total GULP energy -312012.597663 kJ/mol
# GULP energy per Si atom -5571.653530 kJ/mol
# Density = 1.508547 g / cm^3
# Si number density = 15.119881 Si / 1000 Ang^3
#
#
#
# Elastic Constant Matrix: (Units=GPa)
#
#
# Indices 1 2 3 4 5 6 
#
# 1 43.3953 26.7400 41.1822 0.0000 0.0000 0.0000
# 2 26.7400 65.6915 66.0729 0.0000 0.0000 0.0000
# 3 41.1822 66.0729 158.1936 0.0000 0.0000 0.0000
# 4 0.0000 0.0000 0.0000 21.1110 0.0000 0.0000
# 5 0.0000 0.0000 0.0000 0.0000 12.3796 0.0000
# 6 0.0000 0.0000 0.0000 0.0000 0.0000 2.9970
#
#
#
# Elastic Compliance Matrix: (Units=1/GPa)
#
#
# Indices 1 2 3 4 5 6 
#
# 1 0.033019 -0.008268 -0.005142 0.000000 0.000000 0.000000
# 2 -0.008268 0.028321 -0.009676 0.000000 0.000000 0.000000
# 3 -0.005142 -0.009676 0.011702 0.000000 0.000000 0.000000
# 4 0.000000 0.000000 0.000000 0.047369 0.000000 0.000000
# 5 0.000000 0.000000 0.000000 0.000000 0.080778 0.000000
# 6 0.000000 0.000000 0.000000 0.000000 0.000000 0.333672
#
#
# Mechanical properties :
#
#
# Convention : Reuss Voigt Hill
#
# Bulk Modulus (GPa) = 37.21979 59.47450 48.34714
# Shear Modulus (GPa) = 8.47472 16.18321 12.32896
#
# Velocity S-wave (km/s) = 2.37006 3.27513 2.85864
# Velocity P-wave (km/s) = 5.67093 7.32958 6.55294
#
# Compressibility (1/GPa) = 0.02686743
#
# Stress axis : x y z
#
# Youngs Moduli (GPa) = 30.28569 35.30971 85.45860
#
# Poissons Ratio (x) = 0.29195 0.43945
# Poissons Ratio (y) = 0.25041 0.82692
# Poissons Ratio (z) = 0.15574 0.34167
#
# Static dielectric constant tensor:
#      x y z
#    x 1.463000 0.000000 0.000000 
#    y 0.000000 1.504600 0.000000 
#    z 0.000000 0.000000 1.547890 
# 
# From -- ./inp_files/30779.got.cif
#   From: 2010.05.17/outbox.cif.g08.bks.cpg/sg51_16_cif.got.tgz:30779.got - 2010.06.03 11:52:47.
