data_PCOD9398079
_publ_section_title
;
Structure prediction by ZEFSAII (Michael W. Deem and Ramdas Pophale) SiO2 
 PCOD9398079
Probable space group: P B A N
;
_chemical_formula_sum "Si O2"
_cell_formula_units_Z 30
_cell_length_a 12.272396
_cell_length_b 11.501164
_cell_length_c 9.395083
_cell_angle_alpha 90.000000
_cell_angle_beta 90.000000
_cell_angle_gamma 90.000000
_cell_volume 1326.086268
_symmetry_space_group_name_H-M "P B A N"
_symmetry_group_IT_number 50
_space_group.IT_coordinate_system_code '2'
_symmetry_cell_setting 'orthorhombic'
loop_
_space_group_symop_operation_xyz
x,y,z
1/2-x,1/2-y,z
x,1/2-y,-z
1/2-x,y,-z
-x,-y,-z
1/2+x,1/2+y,-z
-x,1/2+y,z
1/2+x,-y,z
loop_
_atom_site_type_symbol
_atom_site_label
_atom_site_fract_x
_atom_site_fract_y
_atom_site_fract_z
Si Si1 0.367653 0.189418 0.132718
Si Si2 0.250000 0.467848 0.500000
Si Si3 0.750000 0.250000 0.000000
Si Si4 0.148214 0.934560 0.782697
Si Si5 0.959591 0.825881 0.615427
O O1 0.250000 0.250000 0.140824
O O2 0.422981 0.227005 0.276158
O O3 0.356392 0.052485 0.125746
O O4 0.425553 0.250000 0.000000
O O5 0.275296 0.540274 0.644208
O O6 0.355334 0.389117 0.456243
O O7 0.816383 0.332869 0.890040
O O8 0.032623 0.912108 0.706729
O O9 0.025055 0.750000 0.500000
#
# Coordination Sequence:
#
# PCOD9398079 Si02
#       5
#     8   4   2   8   8
#     4  11  23  46  75 105 145 198 251 309 372 448
#     4  12  25  51  78 110 150 195 259 324 370 444
#     4  12  32  54  66 116 170 198 248 314 384 468
#     4  12  29  47  78 109 154 202 249 316 387 450
#     4  12  25  46  78 115 145 193 258 315 379 454
#
# _framework density 22.622962000000001
#
# number of rings (size 3 to 8) (size 9 to 14) (size 15 to 20)
#    0.000    0.267    5.333    2.800    5.600    1.067 
#    0.000    0.000    0.000    0.000    0.000    0.000 
#    0.000    0.000    0.000    0.000    0.000    0.000 
#
# Total GULP energy -167592.059546 kJ/mol
# GULP energy per Si atom -5586.401985 kJ/mol
# Density = 2.257147 g / cm^3
# Si number density = 22.622962 Si / 1000 Ang^3
#
#
#
# Elastic Constant Matrix: (Units=GPa)
#
#
# Indices 1 2 3 4 5 6 
#
# 1 71.2788 52.2293 31.7084 0.0000 0.0000 0.0000
# 2 52.2293 167.7789 71.6162 0.0000 0.0000 0.0000
# 3 31.7084 71.6162 171.6827 0.0000 0.0000 0.0000
# 4 0.0000 0.0000 0.0000 0.5623 0.0000 0.0000
# 5 0.0000 0.0000 0.0000 0.0000-2365.1527 0.0000
# 6 0.0000 0.0000 0.0000 0.0000 0.0000 19.3578
#
#
#
# Elastic Compliance Matrix: (Units=1/GPa)
#
#
# Indices 1 2 3 4 5 6 
#
# 1 0.018385 -0.005200 -0.001227 0.000000 0.000000 0.000000
# 2 -0.005200 0.008722 -0.002678 0.000000 0.000000 0.000000
# 3 -0.001227 -0.002678 0.007168 0.000000 0.000000 0.000000
# 4 0.000000 0.000000 0.000000 1.778335 0.000000 0.000000
# 5 0.000000 0.000000 0.000000 0.000000 -0.000423 0.000000
# 6 0.000000 0.000000 0.000000 0.000000 0.000000 0.051659
#
#
# Mechanical properties :
#
#
# Convention : Reuss Voigt Hill
#
# Bulk Modulus (GPa) = 62.23951 80.20535 71.22243
# Shear Modulus (GPa) = 2.64913 -452.03409 -224.69248
#
# Velocity S-wave (km/s) = 1.08330 -14.15082 -9.97678
# Velocity P-wave (km/s) = 5.39779 15.21395 10.05804
#
# Compressibility (1/GPa) = 0.01606696
#
# Stress axis : x y z
#
# Youngs Moduli (GPa) = 54.39180 114.65297 139.50250
#
# Poissons Ratio (x) = 0.59616 0.17111
# Poissons Ratio (y) = 0.28282 0.37358
# Poissons Ratio (z) = 0.06671 0.30704
#
# Static dielectric constant tensor:
#      x y z
#    x 1.947150 0.000000 0.000000 
#    y 0.000000 1.968290 0.000000 
#    z 0.000000 0.000000 2.631830 
# 
# From -- ./inp_files/12139.got.cif
#   From: 2010.05.17/outbox.cif.g08.bks.cpg/sg50_7_cif.got.tgz:12139.got - 2010.06.03 11:33:33.
