data_PCOD9398051
_publ_section_title
;
Structure prediction by ZEFSAII (Michael W. Deem and Ramdas Pophale) SiO2 
 PCOD9398051
Probable space group: P B A N
;
_chemical_formula_sum "Si O2"
_cell_formula_units_Z 40
_cell_length_a 18.676108
_cell_length_b 8.770822
_cell_length_c 11.175953
_cell_angle_alpha 90.000000
_cell_angle_beta 90.000000
_cell_angle_gamma 90.000000
_cell_volume 1830.674957
_symmetry_space_group_name_H-M "P B A N"
_symmetry_group_IT_number 50
_space_group.IT_coordinate_system_code '2'
_symmetry_cell_setting 'orthorhombic'
loop_
_space_group_symop_operation_xyz
x,y,z
1/2-x,1/2-y,z
x,1/2-y,-z
1/2-x,y,-z
-x,-y,-z
1/2+x,1/2+y,-z
-x,1/2+y,z
1/2+x,-y,z
loop_
_atom_site_type_symbol
_atom_site_label
_atom_site_fract_x
_atom_site_fract_y
_atom_site_fract_z
Si Si1 0.596631 0.393149 0.741965
Si Si2 0.227792 0.930143 0.125274
Si Si3 0.856179 0.046298 0.269184
Si Si4 0.461421 0.388283 0.909264
Si Si5 0.665759 0.931992 0.484036
O O1 0.644988 0.453455 0.851506
O O2 0.628268 0.225191 0.720041
O O3 0.517917 0.365084 0.797774
O O4 0.620938 0.499520 0.629430
O O5 0.250000 0.750000 0.119551
O O6 0.273628 0.987941 0.236828
O O7 0.250000 0.999865 0.000000
O O8 0.897116 0.971783 0.158169
O O9 0.875719 0.983147 0.397195
O O10 0.443214 0.250000 0.000000
O O11 0.500000 0.500000 0.000000
O O12 0.667757 0.750000 0.500000
O O13 0.750000 0.985558 0.500000
#
# Coordination Sequence:
#
# PCOD9398051 Si02
#       5
#     8   8   8   8   8
#     4  11  23  42  71  98 133 185 234 282 342 416
#     4   9  18  34  64  98 127 164 230 281 330 402
#     4  11  23  43  69 100 133 186 231 284 344 414
#     4  12  26  45  68 103 147 182 224 285 354 424
#     4  11  25  44  67 102 143 177 228 297 357 410
#
# _framework density 21.849864
#
# number of rings (size 3 to 8) (size 9 to 14) (size 15 to 20)
#    0.000    1.200    4.000    1.800    5.600    1.600 
#    0.000    0.000    0.000    0.000    0.000    0.000 
#    0.000    0.000    0.000    0.000    0.000    0.000 
#
# Total GULP energy -222703.207400 kJ/mol
# GULP energy per Si atom -5567.580185 kJ/mol
# Density = 2.180013 g / cm^3
# Si number density = 21.849864 Si / 1000 Ang^3
#
#
#
# Elastic Constant Matrix: (Units=GPa)
#
#
# Indices 1 2 3 4 5 6 
#
# 1 48.8939 4.0823 11.7624 0.0000 0.0000 0.0000
# 2 4.0823 78.7163 38.7423 0.0000 0.0000 0.0000
# 3 11.7624 38.7423 151.4194 0.0000 0.0000 0.0000
# 4 0.0000 0.0000 0.0000 32.2717 0.0000 0.0000
# 5 0.0000 0.0000 0.0000 0.0000 11.3910 0.0000
# 6 0.0000 0.0000 0.0000 0.0000 0.0000 18.0995
#
#
#
# Elastic Compliance Matrix: (Units=1/GPa)
#
#
# Indices 1 2 3 4 5 6 
#
# 1 0.020849 -0.000325 -0.001536 0.000000 0.000000 0.000000
# 2 -0.000325 0.014539 -0.003695 0.000000 0.000000 0.000000
# 3 -0.001536 -0.003695 0.007669 0.000000 0.000000 0.000000
# 4 0.000000 0.000000 0.000000 0.030987 0.000000 0.000000
# 5 0.000000 0.000000 0.000000 0.000000 0.087789 0.000000
# 6 0.000000 0.000000 0.000000 0.000000 0.000000 0.055250
#
#
# Mechanical properties :
#
#
# Convention : Reuss Voigt Hill
#
# Bulk Modulus (GPa) = 31.30403 43.13374 37.21888
# Shear Modulus (GPa) = 20.93419 27.31528 24.12473
#
# Velocity S-wave (km/s) = 3.09866 3.53956 3.32643
# Velocity P-wave (km/s) = 5.21155 6.04057 5.64131
#
# Compressibility (1/GPa) = 0.03194477
#
# Stress axis : x y z
#
# Youngs Moduli (GPa) = 47.96344 68.77968 130.39741
#
# Poissons Ratio (x) = 0.02236 0.20034
# Poissons Ratio (y) = 0.01559 0.48179
# Poissons Ratio (z) = 0.07369 0.25412
#
# Static dielectric constant tensor:
#      x y z
#    x 1.907420 0.000000 0.000000 
#    y 0.000000 1.354800 0.000000 
#    z 0.000000 0.000000 1.828030 
# 
# From -- ./inp_files/21619.got.cif
#   From: 2010.05.17/outbox.cif.g08.bks.cpg/sg50_11_cif.got.tgz:21619.got - 2010.06.03 11:33:33.
