data_PCOD9398033
_publ_section_title
;
Structure prediction by ZEFSAII (Michael W. Deem and Ramdas Pophale) SiO2 
 PCOD9398033
Probable space group: P B A N
;
_chemical_formula_sum "Si O2"
_cell_formula_units_Z 64
_cell_length_a 14.725380
_cell_length_b 16.293009
_cell_length_c 11.923210
_cell_angle_alpha 90.000000
_cell_angle_beta 90.000000
_cell_angle_gamma 90.000000
_cell_volume 2860.625472
_symmetry_space_group_name_H-M "P B A N"
_symmetry_group_IT_number 50
_space_group.IT_coordinate_system_code '2'
_symmetry_cell_setting 'orthorhombic'
loop_
_space_group_symop_operation_xyz
x,y,z
1/2-x,1/2-y,z
x,1/2-y,-z
1/2-x,y,-z
-x,-y,-z
1/2+x,1/2+y,-z
-x,1/2+y,z
1/2+x,-y,z
loop_
_atom_site_type_symbol
_atom_site_label
_atom_site_fract_x
_atom_site_fract_y
_atom_site_fract_z
Si Si1 0.987634 0.632814 0.087472
Si Si2 0.382234 0.600169 0.730116
Si Si3 0.466999 0.163173 0.565520
Si Si4 0.701438 0.947339 0.113009
Si Si5 0.513604 0.181541 0.161240
Si Si6 0.218380 0.858681 0.128763
Si Si7 0.409196 0.083457 0.359541
Si Si8 0.769406 0.657356 0.321288
O O1 0.900623 0.581999 0.117626
O O2 0.072437 0.591163 0.147090
O O3 0.980999 0.725449 0.136559
O O4 0.995271 0.634950 0.954883
O O5 0.449261 0.652975 0.651106
O O6 0.289790 0.645341 0.767617
O O7 0.384393 0.509294 0.675829
O O8 0.469348 0.250000 0.500000
O O9 0.470731 0.093309 0.469981
O O10 0.371421 0.153481 0.631835
O O11 0.745918 0.903054 0.217633
O O12 0.703492 0.044178 0.120626
O O13 0.750000 0.919759 0.000000
O O14 0.623596 0.182801 0.164515
O O15 0.461635 0.134946 0.261531
O O16 0.250000 0.834984 0.000000
O O17 0.316249 0.130409 0.396149
O O18 0.750000 0.750000 0.285976
#
# Coordination Sequence:
#
# PCOD9398033 Si02
#       8
#     8   8   8   8   8   8   8   8
#     4  11  23  43  68 101 141 191 232 298 357 429
#     4  12  25  46  71 105 143 187 247 296 357 422
#     4  12  26  48  74 103 142 191 243 302 357 425
#     4  11  23  41  68 110 152 179 223 298 367 432
#     4  11  25  43  69 102 144 188 246 292 358 429
#     4  11  24  45  71 104 145 195 237 289 361 436
#     4  12  25  42  70 107 141 186 238 301 357 428
#     4  12  23  42  72 106 139 187 237 288 362 437
#
# _framework density 22.372729
#
# number of rings (size 3 to 8) (size 9 to 14) (size 15 to 20)
#    0.000    0.500    5.000    3.750    1.750    2.750 
#    0.000    0.625    0.000    0.750    0.000    0.000 
#    0.000    0.000    0.000    0.000    0.000    0.000 
#
# Total GULP energy -357695.248185 kJ/mol
# GULP energy per Si atom -5588.988253 kJ/mol
# Density = 2.232181 g / cm^3
# Si number density = 22.372729 Si / 1000 Ang^3
#
#
#
# Elastic Constant Matrix: (Units=GPa)
#
#
# Indices 1 2 3 4 5 6 
#
# 1 98.1879 13.4856 36.2018 0.0000 0.0000 0.0000
# 2 13.4856 101.6467 35.3297 0.0000 0.0000 0.0000
# 3 36.2018 35.3297 120.5476 0.0000 0.0000 0.0000
# 4 0.0000 0.0000 0.0000 23.4751 0.0000 0.0000
# 5 0.0000 0.0000 0.0000 0.0000 44.6989 0.0000
# 6 0.0000 0.0000 0.0000 0.0000 0.0000 31.0786
#
#
#
# Elastic Compliance Matrix: (Units=1/GPa)
#
#
# Indices 1 2 3 4 5 6 
#
# 1 0.011465 -0.000361 -0.003337 0.000000 0.000000 0.000000
# 2 -0.000361 0.010965 -0.003105 0.000000 0.000000 0.000000
# 3 -0.003337 -0.003105 0.010208 0.000000 0.000000 0.000000
# 4 0.000000 0.000000 0.000000 0.042598 0.000000 0.000000
# 5 0.000000 0.000000 0.000000 0.000000 0.022372 0.000000
# 6 0.000000 0.000000 0.000000 0.000000 0.000000 0.032177
#
#
# Mechanical properties :
#
#
# Convention : Reuss Voigt Hill
#
# Bulk Modulus (GPa) = 52.54693 54.49071 53.51882
# Shear Modulus (GPa) = 33.39243 35.54151 34.46697
#
# Velocity S-wave (km/s) = 3.86755 3.99006 3.92928
# Velocity P-wave (km/s) = 6.59408 6.75545 6.67526
#
# Compressibility (1/GPa) = 0.01903061
#
# Stress axis : x y z
#
# Youngs Moduli (GPa) = 87.22547 91.19769 97.96519
#
# Poissons Ratio (x) = 0.03293 0.32692
# Poissons Ratio (y) = 0.03150 0.30420
# Poissons Ratio (z) = 0.29108 0.28319
#
# Static dielectric constant tensor:
#      x y z
#    x 1.812080 0.000000 0.000000 
#    y 0.000000 1.814470 0.000000 
#    z 0.000000 0.000000 1.838660 
# 
# From -- ./inp_files/21361.got.cif
#   From: 2010.05.17/outbox.cif.g08.bks.cpg/sg50_11_cif.got.tgz:21361.got - 2010.06.03 11:33:33.
