data_PCOD9398492
_publ_section_title
;
Structure prediction by ZEFSAII (Michael W. Deem and Ramdas Pophale) SiO2 
 PCOD9398492
Probable space group: P M M A
;
_chemical_formula_sum "Si O2"
_cell_formula_units_Z 64
_cell_length_a 29.488560
_cell_length_b 7.525902
_cell_length_c 14.081134
_cell_angle_alpha 90.000000
_cell_angle_beta 90.000000
_cell_angle_gamma 90.000000
_cell_volume 3124.998085
_symmetry_space_group_name_H-M "P M M A"
_symmetry_group_IT_number 51
_symmetry_cell_setting 'orthorhombic'
loop_
_space_group_symop_operation_xyz
x,y,z
1/2-x,-y,z
1/2+x,-y,-z
-x,y,-z
-x,-y,-z
1/2+x,y,-z
1/2-x,y,z
x,-y,z
loop_
_atom_site_type_symbol
_atom_site_label
_atom_site_fract_x
_atom_site_fract_y
_atom_site_fract_z
Si Si1 0.960427 0.284463 0.873510
Si Si2 0.301430 0.211161 0.103584
Si Si3 0.942121 0.714587 0.091287
Si Si4 0.543048 0.783025 0.372807
Si Si5 0.556703 0.787825 0.591599
Si Si6 0.379149 0.290422 0.249883
Si Si7 0.303151 0.783402 0.892851
Si Si8 0.624564 0.801508 0.240971
O O1 0.961465 0.500000 0.867530
O O2 0.921697 0.210525 0.807350
O O3 0.011657 0.225978 0.857086
O O4 0.947793 0.242433 0.981516
O O5 0.250000 0.279028 0.119014
O O6 0.333694 0.237471 0.194567
O O7 0.298207 0.000000 0.091838
O O8 0.318751 0.277081 0.999524
O O9 0.937491 0.500000 0.099195
O O10 0.900914 0.808577 0.140001
O O11 0.554396 0.733590 0.481673
O O12 0.490464 0.721543 0.358734
O O13 0.585077 0.719598 0.307456
O O14 0.542735 0.000000 0.364525
O O15 0.604080 0.742877 0.642882
O O16 0.553221 0.000000 0.591653
O O17 0.380010 0.500000 0.237933
O O18 0.250000 0.739897 0.889081
O O19 0.329221 0.716148 0.798466
O O20 0.306892 0.000000 0.889050
O O21 0.633968 0.000000 0.278849
#
# Coordination Sequence:
#
# PCOD9398492 Si02
#       8
#     8   8   8   8   8   8   8   8
#     4   8  16  28  40  57  87 123 149 171 209 269
#     4   9  18  33  50  67  90 122 155 182 218 275
#     4   9  16  28  42  57  85 123 151 170 208 268
#     4   8  16  30  48  68  90 121 159 196 232 273
#     4   9  17  32  49  64  90 127 160 189 230 281
#     4  11  20  29  45  70  94 116 150 194 235 270
#     4   8  15  28  46  68  93 118 144 181 230 276
#     4  10  17  26  44  68  88 108 145 193 230 262
#
# _framework density 20.480011999999999
#
# number of rings (size 3 to 8) (size 9 to 14) (size 15 to 20)
#    0.000    3.000    0.000    4.125    0.000    0.250 
#    0.000    4.375    0.000    1.875    0.000    3.500 
#    0.000    0.000    0.000    0.000    0.000    0.000 
#
# Total GULP energy -356331.017797 kJ/mol
# GULP energy per Si atom -5567.672153 kJ/mol
# Density = 2.043340 g / cm^3
# Si number density = 20.480012 Si / 1000 Ang^3
#
#
#
# Elastic Constant Matrix: (Units=GPa)
#
#
# Indices 1 2 3 4 5 6 
#
# 1 95.8498 0.2022 49.9546 0.0000 0.0000 0.0000
# 2 0.2022 54.2345 0.6682 0.0000 0.0000 0.0000
# 3 49.9546 0.6682 68.4266 0.0000 0.0000 0.0000
# 4 0.0000 0.0000 0.0000 128.3784 0.0000 0.0000
# 5 0.0000 0.0000 0.0000 0.0000 39.0285 0.0000
# 6 0.0000 0.0000 0.0000 0.0000 0.0000 17.8982
#
#
#
# Elastic Compliance Matrix: (Units=1/GPa)
#
#
# Indices 1 2 3 4 5 6 
#
# 1 0.016841 0.000089 -0.012296 0.000000 0.000000 0.000000
# 2 0.000089 0.018441 -0.000245 0.000000 0.000000 0.000000
# 3 -0.012296 -0.000245 0.023593 0.000000 0.000000 0.000000
# 4 0.000000 0.000000 0.000000 0.007789 0.000000 0.000000
# 5 0.000000 0.000000 0.000000 0.000000 0.025622 0.000000
# 6 0.000000 0.000000 0.000000 0.000000 0.000000 0.055872
#
#
# Mechanical properties :
#
#
# Convention : Reuss Voigt Hill
#
# Bulk Modulus (GPa) = 29.43633 35.57344 32.50488
# Shear Modulus (GPa) = 27.11706 48.24005 37.67856
#
# Velocity S-wave (km/s) = 3.64273 4.85858 4.29391
# Velocity P-wave (km/s) = 5.66543 6.99157 6.36314
#
# Compressibility (1/GPa) = 0.03397163
#
# Stress axis : x y z
#
# Youngs Moduli (GPa) = 59.37906 54.22657 42.38561
#
# Poissons Ratio (x) = -0.00481 0.52115
# Poissons Ratio (y) = -0.00527 0.01038
# Poissons Ratio (z) = 0.73010 0.01328
#
# Static dielectric constant tensor:
#      x y z
#    x 1.804890 0.000000 0.000000 
#    y 0.000000 1.761870 0.000000 
#    z 0.000000 0.000000 1.789660 
# 
# From -- ./inp_files/26726.got.cif
#   From: 2010.05.17/outbox.cif.g08.bks.cpg/sg51_14_cif.got.tgz:26726.got - 2010.06.03 11:52:47.
