data_PCOD9398664
_publ_section_title
;
Structure prediction by ZEFSAII (Michael W. Deem and Ramdas Pophale) SiO2 
 PCOD9398664
Probable space group: P M M A
;
_chemical_formula_sum "Si O2"
_cell_formula_units_Z 64
_cell_length_a 27.234902
_cell_length_b 9.245816
_cell_length_c 18.672287
_cell_angle_alpha 90.000000
_cell_angle_beta 90.000000
_cell_angle_gamma 90.000000
_cell_volume 4701.847913
_symmetry_space_group_name_H-M "P M M A"
_symmetry_group_IT_number 51
_symmetry_cell_setting 'orthorhombic'
loop_
_space_group_symop_operation_xyz
x,y,z
1/2-x,-y,z
1/2+x,-y,-z
-x,y,-z
-x,-y,-z
1/2+x,y,-z
1/2-x,y,z
x,-y,z
loop_
_atom_site_type_symbol
_atom_site_label
_atom_site_fract_x
_atom_site_fract_y
_atom_site_fract_z
Si Si1 0.510285 0.826896 0.165983
Si Si2 0.949730 0.333514 0.546946
Si Si3 0.397411 0.826922 0.575927
Si Si4 0.951867 0.666252 0.948401
Si Si5 0.504889 0.827481 0.333099
Si Si6 0.399621 0.325560 0.913695
Si Si7 0.693404 0.173634 0.327692
Si Si8 0.806119 0.673217 0.177204
O O1 0.465553 0.766375 0.118056
O O2 0.504778 0.789685 0.249523
O O3 0.559248 0.753243 0.134005
O O4 0.513867 0.000000 0.159247
O O5 0.936562 0.500000 0.558755
O O6 0.910114 0.252367 0.497898
O O7 0.000000 0.329442 0.500000
O O8 0.964126 0.254053 0.620179
O O9 0.441903 0.795130 0.631536
O O10 0.346351 0.783812 0.612858
O O11 0.397325 0.000000 0.564391
O O12 0.944428 0.500000 0.925384
O O13 0.909004 0.712203 0.003055
O O14 0.000000 0.667794 0.000000
O O15 0.497553 0.000000 0.339913
O O16 0.407108 0.500000 0.908552
O O17 0.346396 0.289897 0.882331
O O18 0.750000 0.208204 0.346489
O O19 0.682172 0.248836 0.252037
O O20 0.689726 0.000000 0.318638
O O21 0.750000 0.711137 0.157545
O O22 0.808156 0.500000 0.188138
#
# Coordination Sequence:
#
# PCOD9398664 Si02
#       8
#     8   8   8   8   8   8   8   8
#     4  10  18  26  39  59  79 100 130 163 191 225
#     4   9  17  27  39  56  75  96 126 161 191 222
#     4   9  16  27  41  54  74 105 132 154 186 226
#     4   8  15  27  39  52  74 103 130 156 191 232
#     4   9  17  27  38  54  77 103 128 154 189 230
#     4   9  17  28  40  54  76 106 134 159 192 232
#     4   9  17  28  41  58  80 105 133 163 193 226
#     4   9  17  28  41  57  77 102 133 167 197 223
#
# _framework density 13.61167
#
# number of rings (size 3 to 8) (size 9 to 14) (size 15 to 20)
#    0.000    3.000    0.000    2.250    0.000    6.750 
#    0.000    2.500    0.000    0.000    0.000    0.000 
#    0.000    1.000    0.000    5.750    0.000    3.500 
#
# Total GULP energy -356318.477832 kJ/mol
# GULP energy per Si atom -5567.476216 kJ/mol
# Density = 1.358069 g / cm^3
# Si number density = 13.611670 Si / 1000 Ang^3
#
#
#
# Elastic Constant Matrix: (Units=GPa)
#
#
# Indices 1 2 3 4 5 6 
#
# 1 72.6759 27.7477 46.8027 0.0000 0.0000 0.0000
# 2 27.7477 31.5235 43.1846 0.0000 0.0000 0.0000
# 3 46.8027 43.1846 94.9607 0.0000 0.0000 0.0000
# 4 0.0000 0.0000 0.0000 16.2504 0.0000 0.0000
# 5 0.0000 0.0000 0.0000 0.0000 27.1374 0.0000
# 6 0.0000 0.0000 0.0000 0.0000 0.0000 12.8158
#
#
#
# Elastic Compliance Matrix: (Units=1/GPa)
#
#
# Indices 1 2 3 4 5 6 
#
# 1 0.021695 -0.011799 -0.005327 0.000000 0.000000 0.000000
# 2 -0.011799 0.090558 -0.035367 0.000000 0.000000 0.000000
# 3 -0.005327 -0.035367 0.029240 0.000000 0.000000 0.000000
# 4 0.000000 0.000000 0.000000 0.061537 0.000000 0.000000
# 5 0.000000 0.000000 0.000000 0.000000 0.036850 0.000000
# 6 0.000000 0.000000 0.000000 0.000000 0.000000 0.078029
#
#
# Mechanical properties :
#
#
# Convention : Reuss Voigt Hill
#
# Bulk Modulus (GPa) = 27.39209 48.29223 37.84216
# Shear Modulus (GPa) = 11.49256 16.66906 14.08081
#
# Velocity S-wave (km/s) = 2.90886 3.50325 3.21980
# Velocity P-wave (km/s) = 5.60800 7.20550 6.45635
#
# Compressibility (1/GPa) = 0.03650689
#
# Stress axis : x y z
#
# Youngs Moduli (GPa) = 46.09329 11.04259 34.19978
#
# Poissons Ratio (x) = 0.13029 0.18218
# Poissons Ratio (y) = 0.54385 1.20956
# Poissons Ratio (z) = 0.24554 0.39055
#
# Static dielectric constant tensor:
#      x y z
#    x 1.446480 0.000000 0.000000 
#    y 0.000000 1.454860 0.000000 
#    z 0.000000 0.000000 1.434580 
# 
# From -- ./inp_files/30982.got.cif
#   From: 2010.05.17/outbox.cif.g08.bks.cpg/sg51_16_cif.got.tgz:30982.got - 2010.06.03 11:52:47.
