data_PCOD9398520
_publ_section_title
;
Structure prediction by ZEFSAII (Michael W. Deem and Ramdas Pophale) SiO2 
 PCOD9398520
Probable space group: P M M A
;
_chemical_formula_sum "Si O2"
_cell_formula_units_Z 64
_cell_length_a 23.008175
_cell_length_b 7.809048
_cell_length_c 19.557083
_cell_angle_alpha 90.000000
_cell_angle_beta 90.000000
_cell_angle_gamma 90.000000
_cell_volume 3513.859101
_symmetry_space_group_name_H-M "P M M A"
_symmetry_group_IT_number 51
_symmetry_cell_setting 'orthorhombic'
loop_
_space_group_symop_operation_xyz
x,y,z
1/2-x,-y,z
1/2+x,-y,-z
-x,y,-z
-x,-y,-z
1/2+x,y,-z
1/2-x,y,z
x,-y,z
loop_
_atom_site_type_symbol
_atom_site_label
_atom_site_fract_x
_atom_site_fract_y
_atom_site_fract_z
Si Si1 0.315501 0.701988 0.982647
Si Si2 0.988633 0.300020 0.677055
Si Si3 0.873628 0.207832 0.153786
Si Si4 0.496129 0.799092 0.166011
Si Si5 0.185698 0.208883 0.708796
Si Si6 0.440019 0.699463 0.034678
Si Si7 0.604401 0.204220 0.405756
Si Si8 0.942638 0.705641 0.540627
O O1 0.250000 0.770993 0.997951
O O2 0.313526 0.500000 0.999599
O O3 0.329219 0.724307 0.902307
O O4 0.376253 0.773532 0.015125
O O5 0.977349 0.500000 0.688271
O O6 0.989318 0.220461 0.752277
O O7 0.944079 0.231186 0.618631
O O8 0.049861 0.280346 0.636739
O O9 0.855306 0.261851 0.229406
O O10 0.939860 0.266117 0.144122
O O11 0.872875 0.000000 0.150537
O O12 0.450078 0.712418 0.115982
O O13 0.493840 0.000000 0.150891
O O14 0.250000 0.271761 0.720984
O O15 0.160445 0.260539 0.636163
O O16 0.186615 0.000000 0.709979
O O17 0.438019 0.500000 0.013710
O O18 0.500000 0.772074 0.000000
O O19 0.605987 0.251801 0.485310
O O20 0.598091 0.000000 0.400638
O O21 0.947394 0.500000 0.544699
O O22 0.000000 0.771091 0.500000
#
# Coordination Sequence:
#
# PCOD9398520 Si02
#       8
#     8   8   8   8   8   8   8   8
#     4  10  21  36  53  74  99 128 168 211 244 288
#     4  10  19  31  47  66  94 127 157 192 241 297
#     4  10  19  32  49  69  97 132 168 204 242 290
#     4  11  21  32  50  76 101 127 165 207 248 294
#     4   9  17  29  43  62  93 131 167 199 235 283
#     4  10  20  35  53  73  99 134 167 198 249 304
#     4  10  17  27  44  67  92 123 162 202 239 276
#     4   8  16  29  43  63  89 121 154 185 230 285
#
# _framework density 18.213592999999999
#
# number of rings (size 3 to 8) (size 9 to 14) (size 15 to 20)
#    0.000    2.250    2.500    2.250    0.000    4.750 
#    0.000    0.000    0.000    2.250    0.000    0.875 
#    0.000    1.000    0.000    0.000    0.000    0.000 
#
# Total GULP energy -356401.896817 kJ/mol
# GULP energy per Si atom -5568.779638 kJ/mol
# Density = 1.817214 g / cm^3
# Si number density = 18.213593 Si / 1000 Ang^3
#
#
#
# Elastic Constant Matrix: (Units=GPa)
#
#
# Indices 1 2 3 4 5 6 
#
# 1 99.6185 5.7364 42.6562 0.0000 0.0000 0.0000
# 2 5.7364 26.0262 0.2630 0.0000 0.0000 0.0000
# 3 42.6562 0.2630 84.4512 0.0000 0.0000 0.0000
# 4 0.0000 0.0000 0.0000 19.5181 0.0000 0.0000
# 5 0.0000 0.0000 0.0000 0.0000 22.8109 0.0000
# 6 0.0000 0.0000 0.0000 0.0000 0.0000 15.4805
#
#
#
# Elastic Compliance Matrix: (Units=1/GPa)
#
#
# Indices 1 2 3 4 5 6 
#
# 1 0.013010 -0.002801 -0.006562 0.000000 0.000000 0.000000
# 2 -0.002801 0.039027 0.001293 0.000000 0.000000 0.000000
# 3 -0.006562 0.001293 0.015152 0.000000 0.000000 0.000000
# 4 0.000000 0.000000 0.000000 0.051234 0.000000 0.000000
# 5 0.000000 0.000000 0.000000 0.000000 0.043839 0.000000
# 6 0.000000 0.000000 0.000000 0.000000 0.000000 0.064598
#
#
# Mechanical properties :
#
#
# Convention : Reuss Voigt Hill
#
# Bulk Modulus (GPa) = 19.58939 34.15636 26.87288
# Shear Modulus (GPa) = 19.22962 22.32459 20.77711
#
# Velocity S-wave (km/s) = 3.25281 3.50481 3.38116
# Velocity P-wave (km/s) = 4.98863 5.93062 5.47990
#
# Compressibility (1/GPa) = 0.05104803
#
# Stress axis : x y z
#
# Youngs Moduli (GPa) = 76.86639 25.62323 65.99873
#
# Poissons Ratio (x) = 0.07177 0.43311
# Poissons Ratio (y) = 0.21531 -0.08536
# Poissons Ratio (z) = 0.50443 -0.03314
#
# Static dielectric constant tensor:
#      x y z
#    x 1.659320 0.000000 0.000000 
#    y 0.000000 1.670430 0.000000 
#    z 0.000000 0.000000 1.662760 
# 
# From -- ./inp_files/34185.got.cif
#   From: 2010.05.17/outbox.cif.g08.bks.cpg/sg51_18_cif.got.tgz:34185.got - 2010.06.03 11:52:47.
