data_PCOD9398702
_publ_section_title
;
Structure prediction by ZEFSAII (Michael W. Deem and Ramdas Pophale) SiO2 
 PCOD9398702
Probable space group: P M M A
;
_chemical_formula_sum "Si O2"
_cell_formula_units_Z 52
_cell_length_a 8.689224
_cell_length_b 27.387643
_cell_length_c 13.883802
_cell_angle_alpha 90.000000
_cell_angle_beta 90.000000
_cell_angle_gamma 90.000000
_cell_volume 3304.030614
_symmetry_space_group_name_H-M "P M M A"
_symmetry_group_IT_number 51
_symmetry_cell_setting 'orthorhombic'
loop_
_space_group_symop_operation_xyz
x,y,z
1/2-x,-y,z
1/2+x,-y,-z
-x,y,-z
-x,-y,-z
1/2+x,y,-z
1/2-x,y,z
x,-y,z
loop_
_atom_site_type_symbol
_atom_site_label
_atom_site_fract_x
_atom_site_fract_y
_atom_site_fract_z
Si Si1 0.434340 0.553294 0.608969
Si Si2 0.436143 0.756683 0.302016
Si Si3 0.435419 0.096897 0.206386
Si Si4 0.065911 0.197040 0.103481
Si Si5 0.434240 0.653447 0.391862
Si Si6 0.066053 0.853610 0.604948
Si Si7 0.565823 0.000000 0.108456
O O1 0.500000 0.552499 0.500000
O O2 0.250000 0.556963 0.604777
O O3 0.474313 0.500000 0.652121
O O4 0.502053 0.602943 0.652348
O O5 0.250000 0.762261 0.309938
O O6 0.480622 0.768099 0.191829
O O7 0.477319 0.702477 0.335253
O O8 0.512087 0.798770 0.366806
O O9 0.250000 0.093763 0.209655
O O10 0.478519 0.142324 0.136805
O O11 0.497914 0.111658 0.311568
O O12 0.505842 0.047709 0.164327
O O13 0.250000 0.198171 0.097761
O O14 0.000000 0.209442 0.000000
O O15 0.500000 0.657856 0.500000
O O16 0.250000 0.650359 0.397037
O O17 0.250000 0.856147 0.604814
O O18 0.000000 0.865734 0.500000
O O19 0.750000 0.000000 0.104544
O O20 0.500000 0.000000 0.000000
#
# Coordination Sequence:
#
# PCOD9398702 Si02
#       7
#     8   8   8   8   8   8   4
#     4   9  16  25  37  54  79 112 149 187 226 269
#     4   9  19  33  46  66  95 125 157 195 234 275
#     4  10  21  38  56  76 102 130 160 198 238 280
#     4   9  18  32  50  70  94 121 151 186 228 276
#     4  10  18  27  41  60  86 119 154 191 229 268
#     4  11  21  34  53  75  99 130 164 197 234 280
#     4  12  24  38  57  82 107 132 162 198 242 288
#
# _framework density 15.738353999999999
#
# number of rings (size 3 to 8) (size 9 to 14) (size 15 to 20)
#    0.000    2.154    0.000    6.231    0.000    7.692 
#    0.000    0.385    0.000    0.000    0.000    0.000 
#    0.000    0.615    0.000    1.385    0.000    2.769 
#
# Total GULP energy -290025.945003 kJ/mol
# GULP energy per Si atom -5577.422019 kJ/mol
# Density = 1.570253 g / cm^3
# Si number density = 15.738354 Si / 1000 Ang^3
#
#
#
# Elastic Constant Matrix: (Units=GPa)
#
#
# Indices 1 2 3 4 5 6 
#
# 1 69.6744 52.4220 34.0581 0.0000 0.0000 0.0000
# 2 52.4220 155.3140 61.2698 0.0000 0.0000 0.0000
# 3 34.0581 61.2698 94.3135 0.0000 0.0000 0.0000
# 4 0.0000 0.0000 0.0000 15.2148 0.0000 0.0000
# 5 0.0000 0.0000 0.0000 0.0000 24.8079 0.0000
# 6 0.0000 0.0000 0.0000 0.0000 0.0000 38.1481
#
#
#
# Elastic Compliance Matrix: (Units=1/GPa)
#
#
# Indices 1 2 3 4 5 6 
#
# 1 0.020231 -0.005306 -0.003859 0.000000 0.000000 0.000000
# 2 -0.005306 0.010049 -0.004612 0.000000 0.000000 0.000000
# 3 -0.003859 -0.004612 0.014992 0.000000 0.000000 0.000000
# 4 0.000000 0.000000 0.000000 0.065725 0.000000 0.000000
# 5 0.000000 0.000000 0.000000 0.000000 0.040310 0.000000
# 6 0.000000 0.000000 0.000000 0.000000 0.000000 0.026214
#
#
# Mechanical properties :
#
#
# Convention : Reuss Voigt Hill
#
# Bulk Modulus (GPa) = 56.43756 68.31131 62.37444
# Shear Modulus (GPa) = 23.69881 27.07096 25.38488
#
# Velocity S-wave (km/s) = 3.88467 4.15186 4.02049
# Velocity P-wave (km/s) = 7.48723 8.15368 7.82755
#
# Compressibility (1/GPa) = 0.01771870
#
# Stress axis : x y z
#
# Youngs Moduli (GPa) = 49.42920 99.51289 66.70008
#
# Poissons Ratio (x) = 0.52804 0.25737
# Poissons Ratio (y) = 0.26228 0.30762
# Poissons Ratio (z) = 0.19073 0.45896
#
# Static dielectric constant tensor:
#      x y z
#    x 1.531110 0.000000 0.000000 
#    y 0.000000 1.546530 0.000000 
#    z 0.000000 0.000000 1.502600 
# 
# From -- ./inp_files/14627.got.cif
#   From: 2010.05.17/outbox.cif.g08.bks.cpg/sg51_8_cif.got.tgz:14627.got - 2010.06.03 11:52:47.
