data_PCOD9398940
_publ_section_title
;
Structure prediction by ZEFSAII (Michael W. Deem and Ramdas Pophale) SiO2 
 PCOD9398940
Probable space group: P M M A
;
_chemical_formula_sum "Si O2"
_cell_formula_units_Z 56
_cell_length_a 25.387777
_cell_length_b 14.303171
_cell_length_c 9.610300
_cell_angle_alpha 90.000000
_cell_angle_beta 90.000000
_cell_angle_gamma 90.000000
_cell_volume 3489.747066
_symmetry_space_group_name_H-M "P M M A"
_symmetry_group_IT_number 51
_symmetry_cell_setting 'orthorhombic'
loop_
_space_group_symop_operation_xyz
x,y,z
1/2-x,-y,z
1/2+x,-y,-z
-x,y,-z
-x,-y,-z
1/2+x,y,-z
1/2-x,y,z
x,-y,z
loop_
_atom_site_type_symbol
_atom_site_label
_atom_site_fract_x
_atom_site_fract_y
_atom_site_fract_z
Si Si1 0.963564 0.700895 0.788755
Si Si2 0.925151 0.104411 0.374815
Si Si3 0.191158 0.613228 0.288123
Si Si4 0.910547 0.388353 0.535011
Si Si5 0.949301 0.104665 0.691034
Si Si6 0.913998 0.705838 0.237947
Si Si7 0.123784 0.389087 0.026902
O O1 0.953487 0.662458 0.632321
O O2 0.940880 0.806770 0.789876
O O3 0.929828 0.635757 0.889576
O O4 0.025536 0.703220 0.816328
O O5 0.921450 0.119036 0.541353
O O6 0.901409 0.189245 0.288194
O O7 0.987962 0.105853 0.341956
O O8 0.905897 0.000000 0.341918
O O9 0.250000 0.648258 0.315683
O O10 0.192713 0.500000 0.291532
O O11 0.145917 0.639513 0.397891
O O12 0.169821 0.638118 0.134761
O O13 0.917029 0.500000 0.547640
O O14 0.912808 0.356801 0.376545
O O15 0.936400 0.000000 0.742438
O O16 0.877559 0.665894 0.117103
O O17 0.126097 0.500000 0.002098
#
# Coordination Sequence:
#
# PCOD9398940 Si02
#       7
#     8   8   8   8   8   8   8
#     4  10  18  29  42  61  92 131 159 177 213 258
#     4   8  14  25  41  60  85 118 152 189 229 256
#     4   8  16  34  53  63  79 111 147 188 236 272
#     4  10  19  28  43  67  89 114 154 190 217 260
#     4   8  13  24  42  61  81 114 160 196 221 249
#     4  11  19  28  42  65  97 124 150 185 216 255
#     4  10  21  32  43  63  92 127 158 179 211 267
#
# _framework density 16.047008999999999
#
# number of rings (size 3 to 8) (size 9 to 14) (size 15 to 20)
#    0.000    2.714    1.429    3.429    0.000    3.429 
#    0.000    1.429    0.000    6.857    0.000    0.000 
#    0.000   21.714    0.000    0.000    0.000    0.000 
#
# Total GULP energy -311907.150855 kJ/mol
# GULP energy per Si atom -5569.770551 kJ/mol
# Density = 1.601048 g / cm^3
# Si number density = 16.047009 Si / 1000 Ang^3
#
#
#
# Elastic Constant Matrix: (Units=GPa)
#
#
# Indices 1 2 3 4 5 6 
#
# 1 33.9341 1.1817 -3.8488 0.0000 0.0000 0.0000
# 2 1.1817 74.3971 6.3695 0.0000 0.0000 0.0000
# 3 -3.8488 6.3695 39.7388 0.0000 0.0000 0.0000
# 4 0.0000 0.0000 0.0000 22.2851 0.0000 0.0000
# 5 0.0000 0.0000 0.0000 0.0000 8.0546 0.0000
# 6 0.0000 0.0000 0.0000 0.0000 0.0000 1.5487
#
#
#
# Elastic Compliance Matrix: (Units=1/GPa)
#
#
# Indices 1 2 3 4 5 6 
#
# 1 0.029835 -0.000731 0.003007 0.000000 0.000000 0.000000
# 2 -0.000731 0.013646 -0.002258 0.000000 0.000000 0.000000
# 3 0.003007 -0.002258 0.025817 0.000000 0.000000 0.000000
# 4 0.000000 0.000000 0.000000 0.044873 0.000000 0.000000
# 5 0.000000 0.000000 0.000000 0.000000 0.124152 0.000000
# 6 0.000000 0.000000 0.000000 0.000000 0.000000 0.645719
#
#
# Mechanical properties :
#
#
# Convention : Reuss Voigt Hill
#
# Bulk Modulus (GPa) = 14.42295 17.27499 15.84897
# Shear Modulus (GPa) = 5.51195 16.00218 10.75706
#
# Velocity S-wave (km/s) = 1.85535 3.16128 2.59191
# Velocity P-wave (km/s) = 3.68744 4.91056 4.34228
#
# Compressibility (1/GPa) = 0.06933392
#
# Stress axis : x y z
#
# Youngs Moduli (GPa) = 33.51728 73.27979 38.73344
#
# Poissons Ratio (x) = 0.05359 -0.11646
# Poissons Ratio (y) = 0.02451 0.08746
# Poissons Ratio (z) = -0.10078 0.16547
#
# Static dielectric constant tensor:
#      x y z
#    x 1.531530 0.000000 0.000000 
#    y 0.000000 1.566920 0.000000 
#    z 0.000000 0.000000 1.549770 
# 
# From -- ./inp_files/13220.got.cif
#   From: 2010.05.17/outbox.cif.g08.bks.cpg/sg51_7_cif.got.tgz:13220.got - 2010.06.03 11:52:47.
