data_PCOD9398272
_publ_section_title
;
Structure prediction by ZEFSAII (Michael W. Deem and Ramdas Pophale) SiO2 
 PCOD9398272
Probable space group: P B A N
;
_chemical_formula_sum "Si O2"
_cell_formula_units_Z 20
_cell_length_a 6.630628
_cell_length_b 13.117110
_cell_length_c 9.940004
_cell_angle_alpha 90.000000
_cell_angle_beta 90.000000
_cell_angle_gamma 90.000000
_cell_volume 864.528636
_symmetry_space_group_name_H-M "P B A N"
_symmetry_group_IT_number 50
_space_group.IT_coordinate_system_code '2'
_symmetry_cell_setting 'orthorhombic'
loop_
_space_group_symop_operation_xyz
x,y,z
1/2-x,1/2-y,z
x,1/2-y,-z
1/2-x,y,-z
-x,-y,-z
1/2+x,1/2+y,-z
-x,1/2+y,z
1/2+x,-y,z
loop_
_atom_site_type_symbol
_atom_site_label
_atom_site_fract_x
_atom_site_fract_y
_atom_site_fract_z
Si Si1 0.067138 0.096526 0.087008
Si Si2 0.250000 0.750000 0.500000
Si Si3 0.750000 0.250000 0.000000
Si Si4 0.371263 0.355633 0.372099
O O1 0.129155 0.075468 0.239874
O O2 0.250000 0.139624 0.000000
O O3 0.888847 0.177854 0.089417
O O4 0.000000 0.000000 0.000000
O O5 0.405092 0.679238 0.583970
O O6 0.250000 0.250000 0.338887
O O7 0.250000 0.399730 0.500000
#
# Coordination Sequence:
#
# PCOD9398272 Si02
#       4
#     8   2   2   8
#     4  12  25  45  69 104 143 184 241 289 363 431
#     4   8  16  36  68 104 126 180 238 276 378 402
#     4  12  24  44  76  94 142 188 226 310 358 420
#     4   9  19  38  67  98 135 179 232 295 352 424
#
# _framework density 23.133993
#
# number of rings (size 3 to 8) (size 9 to 14) (size 15 to 20)
#    0.000    2.000    2.000    4.200    0.000    3.200 
#    0.000    2.000    0.000    0.000    0.000    0.000 
#    0.000    0.000    0.000    0.000    0.000    0.000 
#
# Total GULP energy -111825.984141 kJ/mol
# GULP energy per Si atom -5591.299207 kJ/mol
# Density = 2.308134 g / cm^3
# Si number density = 23.133993 Si / 1000 Ang^3
#
#
#
# Elastic Constant Matrix: (Units=GPa)
#
#
# Indices 1 2 3 4 5 6 
#
# 1 155.7604 31.8665 62.9706 0.0000 0.0000 0.0000
# 2 31.8665 83.0193 48.6733 0.0000 0.0000 0.0000
# 3 62.9706 48.6733 241.0629 0.0000 0.0000 0.0000
# 4 0.0000 0.0000 0.0000 40.2043 0.0000 0.0000
# 5 0.0000 0.0000 0.0000 0.0000 18.3357 0.0000
# 6 0.0000 0.0000 0.0000 0.0000 0.0000 17.8293
#
#
#
# Elastic Compliance Matrix: (Units=1/GPa)
#
#
# Indices 1 2 3 4 5 6 
#
# 1 0.007446 -0.001948 -0.001552 0.000000 0.000000 0.000000
# 2 -0.001948 0.014173 -0.002353 0.000000 0.000000 0.000000
# 3 -0.001552 -0.002353 0.005029 0.000000 0.000000 0.000000
# 4 0.000000 0.000000 0.000000 0.024873 0.000000 0.000000
# 5 0.000000 0.000000 0.000000 0.000000 0.054538 0.000000
# 6 0.000000 0.000000 0.000000 0.000000 0.000000 0.056088
#
#
# Mechanical properties :
#
#
# Convention : Reuss Voigt Hill
#
# Bulk Modulus (GPa) = 66.92598 85.20703 76.06651
# Shear Modulus (GPa) = 27.95919 37.69602 32.82760
#
# Velocity S-wave (km/s) = 3.48023 4.04104 3.77108
# Velocity P-wave (km/s) = 6.71877 7.66063 7.20511
#
# Compressibility (1/GPa) = 0.01494188
#
# Stress axis : x y z
#
# Youngs Moduli (GPa) = 134.29973 70.55871 198.86082
#
# Poissons Ratio (x) = 0.13748 0.30856
# Poissons Ratio (y) = 0.26167 0.46785
# Poissons Ratio (z) = 0.20839 0.16600
#
# Static dielectric constant tensor:
#      x y z
#    x 1.873960 0.000000 0.000000 
#    y 0.000000 1.918320 0.000000 
#    z 0.000000 0.000000 1.880670 
# 
# From -- ./inp_files/17273.got.cif
#   From: 2010.05.17/outbox.cif.g08.bks.cpg/sg50_9_cif.got.tgz:17273.got - 2010.06.03 11:33:33.
