data_PCOD9398992
_publ_section_title
;
Structure prediction by ZEFSAII (Michael W. Deem and Ramdas Pophale) SiO2 
 PCOD9398992
Probable space group: P M M A
;
_chemical_formula_sum "Si O2"
_cell_formula_units_Z 64
_cell_length_a 29.794176
_cell_length_b 7.381461
_cell_length_c 14.241820
_cell_angle_alpha 90.000000
_cell_angle_beta 90.000000
_cell_angle_gamma 90.000000
_cell_volume 3132.125829
_symmetry_space_group_name_H-M "P M M A"
_symmetry_group_IT_number 51
_symmetry_cell_setting 'orthorhombic'
loop_
_space_group_symop_operation_xyz
x,y,z
1/2-x,-y,z
1/2+x,-y,-z
-x,y,-z
-x,-y,-z
1/2+x,y,-z
1/2-x,y,z
x,-y,z
loop_
_atom_site_type_symbol
_atom_site_label
_atom_site_fract_x
_atom_site_fract_y
_atom_site_fract_z
Si Si1 0.642970 0.290014 0.934144
Si Si2 0.800108 0.280155 0.769470
Si Si3 0.616402 0.203823 0.137510
Si Si4 0.483209 0.778417 0.895824
Si Si5 0.932520 0.219169 0.777788
Si Si6 0.872713 0.203823 0.616519
Si Si7 0.699836 0.779430 0.474357
Si Si8 0.700259 0.779380 0.254550
O O1 0.648608 0.500000 0.958087
O O2 0.685679 0.227730 0.874459
O O3 0.602235 0.272679 0.859955
O O4 0.632735 0.193206 0.030230
O O5 0.750000 0.227442 0.746928
O O6 0.804205 0.500000 0.763599
O O7 0.834814 0.197363 0.697295
O O8 0.566690 0.286225 0.129733
O O9 0.657067 0.286444 0.197215
O O10 0.609866 0.000000 0.175566
O O11 0.519136 0.725191 0.816618
O O12 0.482024 0.000000 0.899404
O O13 0.500000 0.721641 0.000000
O O14 0.914232 0.284883 0.676376
O O15 0.931745 0.000000 0.773037
O O16 0.843549 0.287424 0.531998
O O17 0.885896 0.000000 0.587415
O O18 0.750000 0.720801 0.507445
O O19 0.696343 0.733759 0.364631
O O20 0.699519 0.000000 0.482075
O O21 0.750000 0.719819 0.221791
O O22 0.700452 0.000000 0.248251
#
# Coordination Sequence:
#
# PCOD9398992 Si02
#       8
#     8   8   8   8   8   8   8   8
#     4  10  19  29  41  59  84 112 141 174 213 250
#     4   9  18  30  40  54  83 118 142 163 202 258
#     4  10  18  29  46  63  80 109 147 177 205 247
#     4   9  15  25  43  62  82 111 143 173 207 246
#     4   9  16  28  43  61  85 111 141 172 204 247
#     4   9  16  25  43  66  84 105 137 176 211 242
#     4   8  13  23  40  63  88 108 130 169 219 257
#     4   8  15  27  43  64  87 109 138 177 214 248
#
# _framework density 20.433406999999999
#
# number of rings (size 3 to 8) (size 9 to 14) (size 15 to 20)
#    0.000    3.000    1.250    1.500    0.000    1.750 
#    0.000    1.250    0.000    1.500    0.000    7.000 
#    0.000    0.000    0.000    7.375    0.000    8.000 
#
# Total GULP energy -356597.551872 kJ/mol
# GULP energy per Si atom -5571.836748 kJ/mol
# Density = 2.038690 g / cm^3
# Si number density = 20.433407 Si / 1000 Ang^3
#
#
#
# Elastic Constant Matrix: (Units=GPa)
#
#
# Indices 1 2 3 4 5 6 
#
# 1 138.8201 4.7419 63.9078 0.0000 0.0000 0.0000
# 2 4.7419 70.5565 -0.8502 0.0000 0.0000 0.0000
# 3 63.9078 -0.8502 77.2774 0.0000 0.0000 0.0000
# 4 0.0000 0.0000 0.0000 85.7258 0.0000 0.0000
# 5 0.0000 0.0000 0.0000 0.0000 34.7758 0.0000
# 6 0.0000 0.0000 0.0000 0.0000 0.0000 -5.7477
#
#
#
# Elastic Compliance Matrix: (Units=1/GPa)
#
#
# Indices 1 2 3 4 5 6 
#
# 1 0.011689 -0.000902 -0.009677 0.000000 0.000000 0.000000
# 2 -0.000902 0.014245 0.000903 0.000000 0.000000 0.000000
# 3 -0.009677 0.000903 0.020953 0.000000 0.000000 0.000000
# 4 0.000000 0.000000 0.000000 0.011665 0.000000 0.000000
# 5 0.000000 0.000000 0.000000 0.000000 0.028756 0.000000
# 6 0.000000 0.000000 0.000000 0.000000 0.000000 -0.173982
#
#
# Mechanical properties :
#
#
# Convention : Reuss Voigt Hill
#
# Bulk Modulus (GPa) = 36.31824 46.91697 41.61761
# Shear Modulus (GPa) = -85.99344 37.54107 -24.22618
#
# Velocity S-wave (km/s) = -6.49431 4.29095 -3.44701
# Velocity P-wave (km/s) = 6.19857 6.89641 2.13755
#
# Compressibility (1/GPa) = 0.02753438
#
# Stress axis : x y z
#
# Youngs Moduli (GPa) = 85.54860 70.20233 47.72584
#
# Poissons Ratio (x) = 0.06334 0.46184
# Poissons Ratio (y) = 0.07718 -0.04309
# Poissons Ratio (z) = 0.82784 -0.06338
#
# Static dielectric constant tensor:
#      x y z
#    x 1.747690 0.000000 0.000000 
#    y 0.000000 1.768960 0.000000 
#    z 0.000000 0.000000 1.708310 
# 
# From -- ./inp_files/26584.got.cif
#   From: 2010.05.17/outbox.cif.g08.bks.cpg/sg51_14_cif.got.tgz:26584.got - 2010.06.03 11:52:47.
