data_PCOD9398363
_publ_section_title
;
Structure prediction by ZEFSAII (Michael W. Deem and Ramdas Pophale) SiO2 
 PCOD9398363
Probable space group: P M M A
;
_chemical_formula_sum "Si O2"
_cell_formula_units_Z 40
_cell_length_a 8.742622
_cell_length_b 21.589503
_cell_length_c 14.754977
_cell_angle_alpha 90.000000
_cell_angle_beta 90.000000
_cell_angle_gamma 90.000000
_cell_volume 2784.985146
_symmetry_space_group_name_H-M "P M M A"
_symmetry_group_IT_number 51
_symmetry_cell_setting 'orthorhombic'
loop_
_space_group_symop_operation_xyz
x,y,z
1/2-x,-y,z
1/2+x,-y,-z
-x,y,-z
-x,-y,-z
1/2+x,y,-z
1/2-x,y,z
x,-y,z
loop_
_atom_site_type_symbol
_atom_site_label
_atom_site_fract_x
_atom_site_fract_y
_atom_site_fract_z
Si Si1 0.432846 0.236546 0.101681
Si Si2 0.433039 0.625493 0.101852
Si Si3 0.932454 0.500000 0.102846
Si Si4 0.935024 0.122625 0.212033
Si Si5 0.434470 0.000000 0.899370
Si Si6 0.934198 0.072324 0.403672
O O1 0.250000 0.231608 0.094896
O O2 0.468717 0.305884 0.138411
O O3 0.497616 0.183212 0.165454
O O4 0.500000 0.230102 0.000000
O O5 0.250000 0.617806 0.098215
O O6 0.506695 0.564162 0.145231
O O7 0.500000 0.627891 0.000000
O O8 0.750000 0.500000 0.098483
O O9 0.000000 0.500000 0.000000
O O10 0.750000 0.125965 0.209894
O O11 0.980820 0.061735 0.154712
O O12 0.982906 0.111169 0.315970
O O13 0.250000 0.000000 0.903521
O O14 0.500000 0.000000 0.000000
O O15 0.750000 0.073769 0.407586
O O16 0.000000 0.093051 0.500000
O O17 0.978924 0.000000 0.390221
#
# Coordination Sequence:
#
# PCOD9398363 Si02
#       6
#     8   8   4   8   4   8
#     4  10  20  31  43  60  83 113 148 180 212 252
#     4   9  16  26  38  53  76 105 137 173 209 244
#     4  10  16  22  36  56  76 100 135 174 207 242
#     4  10  19  32  47  61  83 111 139 175 217 257
#     4  10  20  32  43  58  80 108 141 176 211 248
#     4   9  17  31  49  67  85 105 131 169 217 264
#
# _framework density 14.362733
#
# number of rings (size 3 to 8) (size 9 to 14) (size 15 to 20)
#    0.000    2.400    1.000    3.900    0.000    5.600 
#    0.000    0.000    0.000    0.000    0.000    0.000 
#    0.000    0.000    0.000    0.900    0.000   11.900 
#
# Total GULP energy -222840.198728 kJ/mol
# GULP energy per Si atom -5571.004968 kJ/mol
# Density = 1.433004 g / cm^3
# Si number density = 14.362733 Si / 1000 Ang^3
#
#
#
# Elastic Constant Matrix: (Units=GPa)
#
#
# Indices 1 2 3 4 5 6 
#
# 1 44.5647 47.2454 26.5851 0.0000 0.0000 0.0000
# 2 47.2454 149.1352 60.8964 0.0000 0.0000 0.0000
# 3 26.5851 60.8964 89.1677 0.0000 0.0000 0.0000
# 4 0.0000 0.0000 0.0000 2.1188 0.0000 0.0000
# 5 0.0000 0.0000 0.0000 0.0000 19.0867 0.0000
# 6 0.0000 0.0000 0.0000 0.0000 0.0000 22.6315
#
#
#
# Elastic Compliance Matrix: (Units=1/GPa)
#
#
# Indices 1 2 3 4 5 6 
#
# 1 0.034758 -0.009401 -0.003942 0.000000 0.000000 0.000000
# 2 -0.009401 0.011841 -0.005284 0.000000 0.000000 0.000000
# 3 -0.003942 -0.005284 0.015999 0.000000 0.000000 0.000000
# 4 0.000000 0.000000 0.000000 0.471966 0.000000 0.000000
# 5 0.000000 0.000000 0.000000 0.000000 0.052392 0.000000
# 6 0.000000 0.000000 0.000000 0.000000 0.000000 0.044186
#
#
# Mechanical properties :
#
#
# Convention : Reuss Voigt Hill
#
# Bulk Modulus (GPa) = 39.45903 61.36903 50.41403
# Shear Modulus (GPa) = 7.38721 18.64346 13.01534
#
# Velocity S-wave (km/s) = 2.27035 3.60675 3.01356
# Velocity P-wave (km/s) = 5.86562 7.75665 6.87645
#
# Compressibility (1/GPa) = 0.02534274
#
# Stress axis : x y z
#
# Youngs Moduli (GPa) = 28.77035 84.45092 62.50472
#
# Poissons Ratio (x) = 0.79396 0.24642
# Poissons Ratio (y) = 0.27048 0.33027
# Poissons Ratio (z) = 0.11342 0.44623
#
# Static dielectric constant tensor:
#      x y z
#    x 1.488780 0.000000 0.000000 
#    y 0.000000 1.516040 0.000000 
#    z 0.000000 0.000000 1.440240 
# 
# From -- ./inp_files/21318.got.cif
#   From: 2010.05.17/outbox.cif.g08.bks.cpg/sg51_11_cif.got.tgz:21318.got - 2010.06.03 11:52:47.
