data_PCOD9398848
_publ_section_title
;
Structure prediction by ZEFSAII (Michael W. Deem and Ramdas Pophale) SiO2 
 PCOD9398848
Probable space group: P M M A
;
_chemical_formula_sum "Si O2"
_cell_formula_units_Z 64
_cell_length_a 7.866388
_cell_length_b 24.714723
_cell_length_c 19.659922
_cell_angle_alpha 90.000000
_cell_angle_beta 90.000000
_cell_angle_gamma 90.000000
_cell_volume 3822.195540
_symmetry_space_group_name_H-M "P M M A"
_symmetry_group_IT_number 51
_symmetry_cell_setting 'orthorhombic'
loop_
_space_group_symop_operation_xyz
x,y,z
1/2-x,-y,z
1/2+x,-y,-z
-x,y,-z
-x,-y,-z
1/2+x,y,-z
1/2-x,y,z
x,-y,z
loop_
_atom_site_type_symbol
_atom_site_label
_atom_site_fract_x
_atom_site_fract_y
_atom_site_fract_z
Si Si1 0.951283 0.837184 0.840745
Si Si2 0.047526 0.740235 0.574681
Si Si3 0.541230 0.561313 0.286178
Si Si4 0.955411 0.061240 0.922103
Si Si5 0.545787 0.384038 0.425352
Si Si6 0.951160 0.764983 0.719720
Si Si7 0.046180 0.267866 0.922317
Si Si8 0.550373 0.660739 0.199938
O O1 0.750000 0.845638 0.831374
O O2 0.022052 0.892905 0.870968
O O3 0.017728 0.812048 0.769887
O O4 0.976591 0.789505 0.895812
O O5 0.250000 0.738323 0.579489
O O6 0.980942 0.678034 0.579152
O O7 0.000000 0.761142 0.500000
O O8 0.981902 0.772196 0.640059
O O9 0.750000 0.562244 0.285873
O O10 0.488017 0.500000 0.272862
O O11 0.486795 0.581312 0.361125
O O12 0.479997 0.605628 0.231599
O O13 0.750000 0.060576 0.917855
O O14 0.016746 0.000000 0.908771
O O15 0.000000 0.075176 0.000000
O O16 0.500000 0.405485 0.500000
O O17 0.750000 0.381687 0.421572
O O18 0.750000 0.759550 0.731769
O O19 0.032918 0.708554 0.744399
O O20 0.250000 0.265323 0.915984
O O21 0.980316 0.313579 0.869708
O O22 0.000000 0.278022 0.000000
O O23 0.750000 0.651129 0.188331
#
# Coordination Sequence:
#
# PCOD9398848 Si02
#       8
#     8   8   8   8   8   8   8   8
#     4   9  18  30  44  65  92 118 149 183 214 252
#     4  10  18  29  44  63  88 116 146 178 212 258
#     4   9  16  28  46  63  79 103 138 177 211 248
#     4   9  17  29  44  62  88 123 157 186 214 247
#     4   9  17  28  42  60  82 107 135 168 202 241
#     4  10  18  28  44  65  88 115 143 177 218 256
#     4  10  19  29  45  65  87 111 139 175 219 263
#     4   9  17  31  46  62  82 108 139 173 213 261
#
# _framework density 16.744304
#
# number of rings (size 3 to 8) (size 9 to 14) (size 15 to 20)
#    0.000    2.625    1.250    1.500    0.000    3.250 
#    0.000    0.000    0.000    1.500    0.000    0.000 
#    0.000    0.500    0.000    0.875    0.000    1.625 
#
# Total GULP energy -356707.458163 kJ/mol
# GULP energy per Si atom -5573.554034 kJ/mol
# Density = 1.670619 g / cm^3
# Si number density = 16.744304 Si / 1000 Ang^3
#
#
#
# Elastic Constant Matrix: (Units=GPa)
#
#
# Indices 1 2 3 4 5 6 
#
# 1 14.1576 0.5440 -8.7714 0.0000 0.0000 0.0000
# 2 0.5440 109.1935 68.0833 0.0000 0.0000 0.0000
# 3 -8.7714 68.0833 127.7736 0.0000 0.0000 0.0000
# 4 0.0000 0.0000 0.0000 24.1478 0.0000 0.0000
# 5 0.0000 0.0000 0.0000 0.0000 20.2167 0.0000
# 6 0.0000 0.0000 0.0000 0.0000 0.0000 10.4692
#
#
#
# Elastic Compliance Matrix: (Units=1/GPa)
#
#
# Indices 1 2 3 4 5 6 
#
# 1 0.075861 -0.005429 0.008100 0.000000 0.000000 0.000000
# 2 -0.005429 0.014103 -0.007887 0.000000 0.000000 0.000000
# 3 0.008100 -0.007887 0.012585 0.000000 0.000000 0.000000
# 4 0.000000 0.000000 0.000000 0.041412 0.000000 0.000000
# 5 0.000000 0.000000 0.000000 0.000000 0.049464 0.000000
# 6 0.000000 0.000000 0.000000 0.000000 0.000000 0.095518
#
#
# Mechanical properties :
#
#
# Convention : Reuss Voigt Hill
#
# Bulk Modulus (GPa) = 10.85570 41.20404 26.02987
# Shear Modulus (GPa) = 15.14787 23.71798 19.43293
#
# Velocity S-wave (km/s) = 3.01102 3.76770 3.41041
# Velocity P-wave (km/s) = 4.31110 6.60217 5.57558
#
# Compressibility (1/GPa) = 0.09211747
#
# Stress axis : x y z
#
# Youngs Moduli (GPa) = 13.18207 70.90730 79.45900
#
# Poissons Ratio (x) = 0.38492 -0.64364
# Poissons Ratio (y) = 0.07156 0.62672
# Poissons Ratio (z) = -0.10678 0.55927
#
# Static dielectric constant tensor:
#      x y z
#    x 1.611140 0.000000 0.000000 
#    y 0.000000 1.566210 0.000000 
#    z 0.000000 0.000000 1.580300 
# 
# From -- ./inp_files/28614.got.cif
#   From: 2010.05.17/outbox.cif.g08.bks.cpg/sg51_15_cif.got.tgz:28614.got - 2010.06.03 11:52:47.
