data_PCOD9398881
_publ_section_title
;
Structure prediction by ZEFSAII (Michael W. Deem and Ramdas Pophale) SiO2 
 PCOD9398881
Probable space group: P M M A
;
_chemical_formula_sum "Si O2"
_cell_formula_units_Z 48
_cell_length_a 7.737244
_cell_length_b 14.059245
_cell_length_c 25.031507
_cell_angle_alpha 90.000000
_cell_angle_beta 90.000000
_cell_angle_gamma 90.000000
_cell_volume 2722.922551
_symmetry_space_group_name_H-M "P M M A"
_symmetry_group_IT_number 51
_symmetry_cell_setting 'orthorhombic'
loop_
_space_group_symop_operation_xyz
x,y,z
1/2-x,-y,z
1/2+x,-y,-z
-x,y,-z
-x,-y,-z
1/2+x,y,-z
1/2-x,y,z
x,-y,z
loop_
_atom_site_type_symbol
_atom_site_label
_atom_site_fract_x
_atom_site_fract_y
_atom_site_fract_z
Si Si1 0.042701 0.109629 0.557230
Si Si2 0.960359 0.111896 0.326810
Si Si3 0.454114 0.803946 0.783854
Si Si4 0.040606 0.394470 0.168178
Si Si5 0.953354 0.894649 0.895412
Si Si6 0.542589 0.300938 0.940733
O O1 0.250000 0.105854 0.559725
O O2 0.982081 0.148596 0.614660
O O3 0.000000 0.155065 0.500000
O O4 0.977669 0.000000 0.555386
O O5 0.750000 0.117703 0.326313
O O6 0.023037 0.164584 0.273832
O O7 0.003885 0.000000 0.323176
O O8 0.250000 0.823997 0.785405
O O9 0.482467 0.692662 0.795117
O O10 0.532116 0.862155 0.833598
O O11 0.250000 0.394440 0.168668
O O12 0.981094 0.500000 0.182919
O O13 0.983154 0.367261 0.107930
O O14 0.750000 0.900354 0.908110
O O15 0.026447 0.806063 0.929254
O O16 0.028729 0.000000 0.903402
O O17 0.750000 0.296823 0.936385
O O18 0.500000 0.333297 0.000000
#
# Coordination Sequence:
#
# PCOD9398881 Si02
#       6
#     8   8   8   8   8   8
#     4   8  13  22  35  51  76 112 149 178 202 231
#     4   8  14  24  38  58  87 120 145 168 206 248
#     4  10  18  28  45  68  89 108 139 181 215 249
#     4   9  19  36  52  63  82 112 137 163 211 267
#     4   9  18  32  46  60  85 120 148 170 203 247
#     4   9  18  31  46  65  86 108 136 169 206 249
#
# _framework density 17.628119000000002
#
# number of rings (size 3 to 8) (size 9 to 14) (size 15 to 20)
#    0.000    3.167    0.000    3.000    0.000    4.667 
#    0.000    1.667    0.000    4.000    0.000    0.000 
#    0.000    0.667    0.000    1.500    0.000    2.667 
#
# Total GULP energy -267287.007868 kJ/mol
# GULP energy per Si atom -5568.479331 kJ/mol
# Density = 1.758800 g / cm^3
# Si number density = 17.628119 Si / 1000 Ang^3
#
#
#
# Elastic Constant Matrix: (Units=GPa)
#
#
# Indices 1 2 3 4 5 6 
#
# 1 22.3407 -5.4808 -9.8838 0.0000 0.0000 0.0000
# 2 -5.4808 40.4293 3.1243 0.0000 0.0000 0.0000
# 3 -9.8838 3.1243 109.7881 0.0000 0.0000 0.0000
# 4 0.0000 0.0000 0.0000 10.8807 0.0000 0.0000
# 5 0.0000 0.0000 0.0000 0.0000 19.1518 0.0000
# 6 0.0000 0.0000 0.0000 0.0000 0.0000 9.8154
#
#
#
# Elastic Compliance Matrix: (Units=1/GPa)
#
#
# Indices 1 2 3 4 5 6 
#
# 1 0.048122 0.006202 0.004156 0.000000 0.000000 0.000000
# 2 0.006202 0.025588 -0.000170 0.000000 0.000000 0.000000
# 3 0.004156 -0.000170 0.009487 0.000000 0.000000 0.000000
# 4 0.000000 0.000000 0.000000 0.091906 0.000000 0.000000
# 5 0.000000 0.000000 0.000000 0.000000 0.052215 0.000000
# 6 0.000000 0.000000 0.000000 0.000000 0.000000 0.101880
#
#
# Mechanical properties :
#
#
# Convention : Reuss Voigt Hill
#
# Bulk Modulus (GPa) = 9.65492 16.45306 13.05399
# Shear Modulus (GPa) = 14.56256 20.28948 17.42602
#
# Velocity S-wave (km/s) = 2.87731 3.39628 3.14751
# Velocity P-wave (km/s) = 4.06540 4.97326 4.54207
#
# Compressibility (1/GPa) = 0.10357416
#
# Stress axis : x y z
#
# Youngs Moduli (GPa) = 20.78070 39.08008 105.40285
#
# Poissons Ratio (x) = -0.24239 -0.43802
# Poissons Ratio (y) = -0.12889 0.01790
# Poissons Ratio (z) = -0.08636 0.00664
#
# Static dielectric constant tensor:
#      x y z
#    x 1.656210 0.000000 0.000000 
#    y 0.000000 1.594450 0.000000 
#    z 0.000000 0.000000 1.637720 
# 
# From -- ./inp_files/34631.got.cif
#   From: 2010.05.17/outbox.cif.g08.bks.cpg/sg51_18_cif.got.tgz:34631.got - 2010.06.03 11:52:47.
