data_PCOD9398082
_publ_section_title
;
Structure prediction by ZEFSAII (Michael W. Deem and Ramdas Pophale) SiO2 
 PCOD9398082
Probable space group: P B A N
;
_chemical_formula_sum "Si O2"
_cell_formula_units_Z 30
_cell_length_a 13.002220
_cell_length_b 12.564663
_cell_length_c 7.664406
_cell_angle_alpha 90.000000
_cell_angle_beta 90.000000
_cell_angle_gamma 90.000000
_cell_volume 1252.122608
_symmetry_space_group_name_H-M "P B A N"
_symmetry_group_IT_number 50
_space_group.IT_coordinate_system_code '2'
_symmetry_cell_setting 'orthorhombic'
loop_
_space_group_symop_operation_xyz
x,y,z
1/2-x,1/2-y,z
x,1/2-y,-z
1/2-x,y,-z
-x,-y,-z
1/2+x,1/2+y,-z
-x,1/2+y,z
1/2+x,-y,z
loop_
_atom_site_type_symbol
_atom_site_label
_atom_site_fract_x
_atom_site_fract_y
_atom_site_fract_z
Si Si1 0.855590 0.066648 0.722041
Si Si2 0.372178 0.369131 0.526822
Si Si3 0.250000 0.465951 0.000000
Si Si4 0.250000 0.750000 0.500000
Si Si5 0.451464 0.137505 0.083475
O O1 0.824344 0.171055 0.611871
O O2 0.938297 0.084699 0.877436
O O3 0.895906 0.971267 0.595669
O O4 0.751505 0.035837 0.825326
O O5 0.417129 0.250000 0.500000
O O6 0.250000 0.361092 0.500000
O O7 0.402703 0.380540 0.726222
O O8 0.148400 0.396005 0.971443
O O9 0.478120 0.250000 0.000000
#
# Coordination Sequence:
#
# PCOD9398082 Si02
#       5
#     8   8   4   2   8
#     4  12  27  49  76 112 156 210 258 326 403 481
#     4  11  23  47  77 107 150 200 262 328 383 458
#     4  12  25  49  74 106 158 192 273 331 386 456
#     4  12  28  50  74 104 166 210 256 318 408 488
#     4  12  27  45  78 116 154 202 265 325 402 470
#
# _framework density 23.959316000000001
#
# number of rings (size 3 to 8) (size 9 to 14) (size 15 to 20)
#    0.000    0.267    4.000    3.600    9.333    0.000 
#    4.800    0.000    0.000    0.000    0.000    0.000 
#    0.000    0.000    0.000    0.000    0.000    0.000 
#
# Total GULP energy -167007.690304 kJ/mol
# GULP energy per Si atom -5566.923010 kJ/mol
# Density = 2.390478 g / cm^3
# Si number density = 23.959316 Si / 1000 Ang^3
#
#
#
# Elastic Constant Matrix: (Units=GPa)
#
#
# Indices 1 2 3 4 5 6 
#
# 1 89.4858 36.4113 -6.3176 0.0000 0.0000 0.0000
# 2 36.4113 152.9975 30.7273 0.0000 0.0000 0.0000
# 3 -6.3176 30.7273 54.2777 0.0000 0.0000 0.0000
# 4 0.0000 0.0000 0.0000 45.9774 0.0000 0.0000
# 5 0.0000 0.0000 0.0000 0.0000 51.0686 0.0000
# 6 0.0000 0.0000 0.0000 0.0000 0.0000 10.5840
#
#
#
# Elastic Compliance Matrix: (Units=1/GPa)
#
#
# Indices 1 2 3 4 5 6 
#
# 1 0.012994 -0.003832 0.003682 0.000000 0.000000 0.000000
# 2 -0.003832 0.008504 -0.005260 0.000000 0.000000 0.000000
# 3 0.003682 -0.005260 0.021830 0.000000 0.000000 0.000000
# 4 0.000000 0.000000 0.000000 0.021750 0.000000 0.000000
# 5 0.000000 0.000000 0.000000 0.000000 0.019581 0.000000
# 6 0.000000 0.000000 0.000000 0.000000 0.000000 0.094482
#
#
# Mechanical properties :
#
#
# Convention : Reuss Voigt Hill
#
# Bulk Modulus (GPa) = 30.76206 46.48921 38.62563
# Shear Modulus (GPa) = 24.90050 37.25535 31.07793
#
# Velocity S-wave (km/s) = 3.22729 3.94755 3.60545
# Velocity P-wave (km/s) = 5.17246 6.34217 5.78694
#
# Compressibility (1/GPa) = 0.03250757
#
# Stress axis : x y z
#
# Youngs Moduli (GPa) = 76.95850 117.58539 45.80782
#
# Poissons Ratio (x) = 0.45056 -0.16865
# Poissons Ratio (y) = 0.29489 0.24097
# Poissons Ratio (z) = -0.28334 0.61856
#
# Static dielectric constant tensor:
#      x y z
#    x 0.971390 0.000000 0.000000 
#    y 0.000000 2.055610 0.000000 
#    z 0.000000 0.000000 2.015490 
# 
# From -- ./inp_files/10628.got.cif
#   From: 2010.05.17/outbox.cif.g08.bks.cpg/sg50_6_cif.got.tgz:10628.got - 2010.06.03 11:33:33.
