data_PCOD9398155
_publ_section_title
;
Structure prediction by ZEFSAII (Michael W. Deem and Ramdas Pophale) SiO2 
 PCOD9398155
Probable space group: P B A N
;
_chemical_formula_sum "Si O2"
_cell_formula_units_Z 58
_cell_length_a 9.239131
_cell_length_b 21.614147
_cell_length_c 11.306639
_cell_angle_alpha 90.000000
_cell_angle_beta 90.000000
_cell_angle_gamma 90.000000
_cell_volume 2257.889853
_symmetry_space_group_name_H-M "P B A N"
_symmetry_group_IT_number 50
_space_group.IT_coordinate_system_code '2'
_symmetry_cell_setting 'orthorhombic'
loop_
_space_group_symop_operation_xyz
x,y,z
1/2-x,1/2-y,z
x,1/2-y,-z
1/2-x,y,-z
-x,-y,-z
1/2+x,1/2+y,-z
-x,1/2+y,z
1/2+x,-y,z
loop_
_atom_site_type_symbol
_atom_site_label
_atom_site_fract_x
_atom_site_fract_y
_atom_site_fract_z
Si Si1 0.105687 0.846288 0.938723
Si Si2 0.552435 0.775637 0.283263
Si Si3 0.262192 0.939043 0.798000
Si Si4 0.842351 0.155034 0.384890
Si Si5 0.250000 0.250000 0.500000
Si Si6 0.850574 0.669273 0.890542
Si Si7 0.587743 0.557994 0.239805
Si Si8 0.925776 0.568066 0.502945
O O1 0.158866 0.914563 0.902326
O O2 0.006506 0.818728 0.829372
O O3 0.250000 0.816739 0.000000
O O4 0.001747 0.843734 0.049212
O O5 0.399774 0.777419 0.349779
O O6 0.654054 0.786513 0.401285
O O7 0.879912 0.781492 0.212352
O O8 0.250151 0.878412 0.715876
O O9 0.430103 0.955485 0.816307
O O10 0.180540 0.996692 0.740179
O O11 0.750000 0.154695 0.500000
O O12 0.983662 0.110216 0.411035
O O13 0.809554 0.604235 0.832912
O O14 0.750000 0.686741 0.000000
O O15 0.550621 0.590953 0.363352
O O16 0.750000 0.565046 0.500000
O O17 0.000000 0.500000 0.500000
#
# Coordination Sequence:
#
# PCOD9398155 Si02
#       8
#     8   8   8   8   2   8   8   8
#     4  11  25  54  81 113 157 215 283 346 408 496
#     4  11  29  50  85 113 164 216 271 347 429 504
#     4  11  25  45  76 119 159 207 271 341 414 491
#     4  11  24  48  76 117 164 208 272 338 417 508
#     4  12  28  56  72 128 168 200 270 358 428 530
#     4  12  29  53  81 116 157 219 281 340 417 507
#     4  12  26  45  76 118 163 208 272 338 419 498
#     4  12  24  41  73 113 165 223 265 329 411 508
#
# _framework density 25.687702000000002
#
# number of rings (size 3 to 8) (size 9 to 14) (size 15 to 20)
#    0.000    0.552    4.138    2.483    4.828    3.862 
#    2.483    0.000    0.000    0.000    0.000    0.000 
#    0.000    0.000    0.000    0.000    0.000    0.000 
#
# Total GULP energy -323073.481814 kJ/mol
# GULP energy per Si atom -5570.232445 kJ/mol
# Density = 2.562924 g / cm^3
# Si number density = 25.687702 Si / 1000 Ang^3
#
#
#
# Elastic Constant Matrix: (Units=GPa)
#
#
# Indices 1 2 3 4 5 6 
#
# 1 140.7254 28.5432 29.3176 0.0000 0.0000 0.0000
# 2 28.5432 46.9476 14.4633 0.0000 0.0000 0.0000
# 3 29.3176 14.4633 119.1509 0.0000 0.0000 0.0000
# 4 0.0000 0.0000 0.0000 11.9330 0.0000 0.0000
# 5 0.0000 0.0000 0.0000 0.0000 54.2962 0.0000
# 6 0.0000 0.0000 0.0000 0.0000 0.0000 36.2340
#
#
#
# Elastic Compliance Matrix: (Units=1/GPa)
#
#
# Indices 1 2 3 4 5 6 
#
# 1 0.008354 -0.004619 -0.001495 0.000000 0.000000 0.000000
# 2 -0.004619 0.024681 -0.001860 0.000000 0.000000 0.000000
# 3 -0.001495 -0.001860 0.008986 0.000000 0.000000 0.000000
# 4 0.000000 0.000000 0.000000 0.083801 0.000000 0.000000
# 5 0.000000 0.000000 0.000000 0.000000 0.018418 0.000000
# 6 0.000000 0.000000 0.000000 0.000000 0.000000 0.027598
#
#
# Mechanical properties :
#
#
# Convention : Reuss Voigt Hill
#
# Bulk Modulus (GPa) = 38.35018 50.16358 44.25688
# Shear Modulus (GPa) = 25.44828 36.12596 30.78712
#
# Velocity S-wave (km/s) = 3.15092 3.75420 3.46571
# Velocity P-wave (km/s) = 5.31032 6.19376 5.76898
#
# Compressibility (1/GPa) = 0.02607550
#
# Stress axis : x y z
#
# Youngs Moduli (GPa) = 119.69900 40.51653 111.28069
#
# Poissons Ratio (x) = 0.18713 0.16636
# Poissons Ratio (y) = 0.55285 0.20693
# Poissons Ratio (z) = 0.17895 0.07534
#
# Static dielectric constant tensor:
#      x y z
#    x 1.979370 0.000000 0.000000 
#    y 0.000000 2.078080 0.000000 
#    z 0.000000 0.000000 2.086140 
# 
# From -- ./inp_files/19434.got.cif
#   From: 2010.05.17/outbox.cif.g08.bks.cpg/sg50_10_cif.got.tgz:19434.got - 2010.06.03 11:33:33.
