data_PCOD9398477
_publ_section_title
;
Structure prediction by ZEFSAII (Michael W. Deem and Ramdas Pophale) SiO2 
 PCOD9398477
Probable space group: P M M A
;
_chemical_formula_sum "Si O2"
_cell_formula_units_Z 64
_cell_length_a 26.271503
_cell_length_b 7.645359
_cell_length_c 17.911861
_cell_angle_alpha 90.000000
_cell_angle_beta 90.000000
_cell_angle_gamma 90.000000
_cell_volume 3597.688129
_symmetry_space_group_name_H-M "P M M A"
_symmetry_group_IT_number 51
_symmetry_cell_setting 'orthorhombic'
loop_
_space_group_symop_operation_xyz
x,y,z
1/2-x,-y,z
1/2+x,-y,-z
-x,y,-z
-x,-y,-z
1/2+x,y,-z
1/2-x,y,z
x,-y,z
loop_
_atom_site_type_symbol
_atom_site_label
_atom_site_fract_x
_atom_site_fract_y
_atom_site_fract_z
Si Si1 0.499225 0.210528 0.915119
Si Si2 0.066025 0.295709 0.340069
Si Si3 0.192594 0.209971 0.910855
Si Si4 0.097263 0.785725 0.817697
Si Si5 0.940958 0.288869 0.499262
Si Si6 0.447587 0.206378 0.663024
Si Si7 0.807745 0.289478 0.918130
Si Si8 0.400626 0.289522 0.180736
O O1 0.449956 0.271376 0.869283
O O2 0.550278 0.253810 0.870284
O O3 0.495768 0.000000 0.918393
O O4 0.500000 0.276820 0.000000
O O5 0.080052 0.500000 0.341160
O O6 0.081159 0.223528 0.421850
O O7 0.089107 0.219212 0.264203
O O8 0.004349 0.286842 0.335378
O O9 0.250000 0.278394 0.899454
O O10 0.149958 0.275301 0.853906
O O11 0.194627 0.000000 0.903277
O O12 0.177667 0.247307 0.996533
O O13 0.085210 0.730553 0.733204
O O14 0.098182 0.000000 0.818398
O O15 0.940597 0.500000 0.501402
O O16 0.921979 0.236334 0.417617
O O17 0.000000 0.230418 0.500000
O O18 0.455770 0.000000 0.672254
O O19 0.750000 0.224247 0.905835
O O20 0.806371 0.500000 0.912047
O O21 0.850072 0.223157 0.860647
O O22 0.396265 0.500000 0.186112
#
# Coordination Sequence:
#
# PCOD9398477 Si02
#       8
#     8   8   8   8   8   8   8   8
#     4  10  19  30  43  59  86 120 144 168 212 260
#     4   9  17  29  42  59  85 114 142 174 208 249
#     4   9  17  31  50  66  81 109 150 186 213 249
#     4   9  17  28  41  63  90 112 138 176 216 250
#     4   8  15  27  41  57  82 113 142 171 207 248
#     4  10  17  26  41  61  87 114 140 171 209 254
#     4   9  18  32  47  64  87 111 139 182 227 254
#     4  10  19  30  45  64  86 113 146 178 210 254
#
# _framework density 17.789200999999998
#
# number of rings (size 3 to 8) (size 9 to 14) (size 15 to 20)
#    0.000    2.750    1.250    1.875    0.000    4.000 
#    0.000    1.875    0.000    0.000    0.000    0.875 
#    0.000    1.000    0.000    0.000    0.000    0.000 
#
# Total GULP energy -356675.170377 kJ/mol
# GULP energy per Si atom -5573.049537 kJ/mol
# Density = 1.774871 g / cm^3
# Si number density = 17.789201 Si / 1000 Ang^3
#
#
#
# Elastic Constant Matrix: (Units=GPa)
#
#
# Indices 1 2 3 4 5 6 
#
# 1 82.1819 -1.3540 82.0440 0.0000 0.0000 0.0000
# 2 -1.3540 32.1951 3.5533 0.0000 0.0000 0.0000
# 3 82.0440 3.5533 203.2796 0.0000 0.0000 0.0000
# 4 0.0000 0.0000 0.0000 18.1823 0.0000 0.0000
# 5 0.0000 0.0000 0.0000 0.0000 16.3908 0.0000
# 6 0.0000 0.0000 0.0000 0.0000 0.0000 11.1270
#
#
#
# Elastic Compliance Matrix: (Units=1/GPa)
#
#
# Indices 1 2 3 4 5 6 
#
# 1 0.020481 0.001777 -0.008297 0.000000 0.000000 0.000000
# 2 0.001777 0.031275 -0.001264 0.000000 0.000000 0.000000
# 3 -0.008297 -0.001264 0.008290 0.000000 0.000000 0.000000
# 4 0.000000 0.000000 0.000000 0.054999 0.000000 0.000000
# 5 0.000000 0.000000 0.000000 0.000000 0.061010 0.000000
# 6 0.000000 0.000000 0.000000 0.000000 0.000000 0.089872
#
#
# Mechanical properties :
#
#
# Convention : Reuss Voigt Hill
#
# Bulk Modulus (GPa) = 22.48315 54.01589 38.24952
# Shear Modulus (GPa) = 16.87369 24.70090 20.78730
#
# Velocity S-wave (km/s) = 3.08317 3.73035 3.42209
# Velocity P-wave (km/s) = 5.03395 6.99888 6.09611
#
# Compressibility (1/GPa) = 0.04447776
#
# Stress axis : x y z
#
# Youngs Moduli (GPa) = 48.82692 31.97457 120.62549
#
# Poissons Ratio (x) = -0.05682 1.00083
# Poissons Ratio (y) = -0.08677 0.15246
# Poissons Ratio (z) = 0.40512 0.04041
#
# Static dielectric constant tensor:
#      x y z
#    x 1.583360 0.000000 0.000000 
#    y 0.000000 1.681320 0.000000 
#    z 0.000000 0.000000 1.649050 
# 
# From -- ./inp_files/30823.got.cif
#   From: 2010.05.17/outbox.cif.g08.bks.cpg/sg51_16_cif.got.tgz:30823.got - 2010.06.03 11:52:47.
