data_PCOD9398002
_publ_section_title
;
Structure prediction by ZEFSAII (Michael W. Deem and Ramdas Pophale) SiO2 
 PCOD9398002
Probable space group: P B A N
;
_chemical_formula_sum "Si O2"
_cell_formula_units_Z 36
_cell_length_a 7.909609
_cell_length_b 25.944259
_cell_length_c 7.883398
_cell_angle_alpha 90.000000
_cell_angle_beta 90.000000
_cell_angle_gamma 90.000000
_cell_volume 1617.743783
_symmetry_space_group_name_H-M "P B A N"
_symmetry_group_IT_number 50
_space_group.IT_coordinate_system_code '2'
_symmetry_cell_setting 'orthorhombic'
loop_
_space_group_symop_operation_xyz
x,y,z
1/2-x,1/2-y,z
x,1/2-y,-z
1/2-x,y,-z
-x,-y,-z
1/2+x,1/2+y,-z
-x,1/2+y,z
1/2+x,-y,z
loop_
_atom_site_type_symbol
_atom_site_label
_atom_site_fract_x
_atom_site_fract_y
_atom_site_fract_z
Si Si1 0.356230 0.347780 0.154613
Si Si2 0.404839 0.902894 0.605552
Si Si3 0.750000 0.624458 0.500000
Si Si4 0.219002 0.808754 0.796556
Si Si5 0.950372 0.058505 0.969044
O O1 0.234195 0.349422 0.316853
O O2 0.520457 0.318416 0.218784
O O3 0.250000 0.324234 0.000000
O O4 0.434263 0.401410 0.076192
O O5 0.250000 0.926551 0.500000
O O6 0.566938 0.901414 0.483538
O O7 0.326306 0.849402 0.684426
O O8 0.469538 0.932282 0.769841
O O9 0.250000 0.750000 0.747875
O O10 0.250000 0.815097 0.000000
O O11 0.750000 0.066895 0.000000
O O12 0.000000 0.000000 0.000000
#
# Coordination Sequence:
#
# PCOD9398002 Si02
#       5
#     8   8   4   8   8
#     4  12  22  45  72 100 145 184 238 304 360 426
#     4  12  23  46  71 100 148 185 232 306 368 425
#     4  12  24  40  73 104 132 186 238 290 357 436
#     4  11  22  43  72 100 139 194 239 286 367 437
#     4  12  24  44  72  99 136 191 236 294 370 432
#
# _framework density 22.253214
#
# number of rings (size 3 to 8) (size 9 to 14) (size 15 to 20)
#    0.000    0.222    8.889    0.667    0.000    0.444 
#    2.000   11.111    0.000    0.000    0.000    0.000 
#    0.000    0.000    0.000    0.000    0.000    0.000 
#
# Total GULP energy -200951.408983 kJ/mol
# GULP energy per Si atom -5581.983583 kJ/mol
# Density = 2.220256 g / cm^3
# Si number density = 22.253214 Si / 1000 Ang^3
#
#
#
# Elastic Constant Matrix: (Units=GPa)
#
#
# Indices 1 2 3 4 5 6 
#
# 1 134.2556 10.3099 5.2524 0.0000 0.0000 0.0000
# 2 10.3099 103.9028 7.0218 0.0000 0.0000 0.0000
# 3 5.2524 7.0218 125.9291 0.0000 0.0000 0.0000
# 4 0.0000 0.0000 0.0000 5.9427 0.0000 0.0000
# 5 0.0000 0.0000 0.0000 0.0000 54.6075 0.0000
# 6 0.0000 0.0000 0.0000 0.0000 0.0000 13.1293
#
#
#
# Elastic Compliance Matrix: (Units=1/GPa)
#
#
# Indices 1 2 3 4 5 6 
#
# 1 0.007515 -0.000727 -0.000273 0.000000 0.000000 0.000000
# 2 -0.000727 0.009731 -0.000512 0.000000 0.000000 0.000000
# 3 -0.000273 -0.000512 0.007981 0.000000 0.000000 0.000000
# 4 0.000000 0.000000 0.000000 0.168274 0.000000 0.000000
# 5 0.000000 0.000000 0.000000 0.000000 0.018313 0.000000
# 6 0.000000 0.000000 0.000000 0.000000 0.000000 0.076166
#
#
# Mechanical properties :
#
#
# Convention : Reuss Voigt Hill
#
# Bulk Modulus (GPa) = 45.04047 45.47286 45.25666
# Shear Modulus (GPa) = 16.75575 37.50278 27.12926
#
# Velocity S-wave (km/s) = 2.74699 4.10966 3.49537
# Velocity P-wave (km/s) = 5.50864 6.55727 6.05570
#
# Compressibility (1/GPa) = 0.02220226
#
# Stress axis : x y z
#
# Youngs Moduli (GPa) = 133.06714 102.76269 125.29880
#
# Poissons Ratio (x) = 0.07473 0.03419
# Poissons Ratio (y) = 0.09677 0.06419
# Poissons Ratio (z) = 0.03631 0.05264
#
# Static dielectric constant tensor:
#      x y z
#    x 1.988360 0.000000 0.000000 
#    y 0.000000 1.834570 0.000000 
#    z 0.000000 0.000000 2.043450 
# 
# From -- ./inp_files/9671.got.cif
#   From: 2010.05.17/outbox.cif.g08.bks.cpg/sg50_5_cif.got.tgz:9671.got - 2010.06.03 11:33:33.
