data_PCOD9398444
_publ_section_title
;
Structure prediction by ZEFSAII (Michael W. Deem and Ramdas Pophale) SiO2 
 PCOD9398444
Probable space group: P M M A
;
_chemical_formula_sum "Si O2"
_cell_formula_units_Z 48
_cell_length_a 20.661884
_cell_length_b 8.393351
_cell_length_c 15.946203
_cell_angle_alpha 90.000000
_cell_angle_beta 90.000000
_cell_angle_gamma 90.000000
_cell_volume 2765.429508
_symmetry_space_group_name_H-M "P M M A"
_symmetry_group_IT_number 51
_symmetry_cell_setting 'orthorhombic'
loop_
_space_group_symop_operation_xyz
x,y,z
1/2-x,-y,z
1/2+x,-y,-z
-x,y,-z
-x,-y,-z
1/2+x,y,-z
1/2-x,y,z
x,-y,z
loop_
_atom_site_type_symbol
_atom_site_label
_atom_site_fract_x
_atom_site_fract_y
_atom_site_fract_z
Si Si1 0.587572 0.187357 0.432706
Si Si2 0.444733 0.313780 0.398720
Si Si3 0.955216 0.190370 0.775254
Si Si4 0.823567 0.193054 0.085227
Si Si5 0.895318 0.193960 0.251435
Si Si6 0.567712 0.690686 0.958137
O O1 0.511222 0.215055 0.412480
O O2 0.599363 0.272964 0.521085
O O3 0.620563 0.245929 0.346491
O O4 0.599509 0.000000 0.443241
O O5 0.460795 0.500000 0.400850
O O6 0.421389 0.265676 0.306451
O O7 0.927661 0.242190 0.864366
O O8 0.031090 0.242415 0.771694
O O9 0.953419 0.000000 0.767737
O O10 0.750000 0.244071 0.070154
O O11 0.848210 0.245254 0.177287
O O12 0.825496 0.000000 0.084037
O O13 0.873533 0.255083 0.016473
O O14 0.895210 0.000000 0.253545
O O15 0.565912 0.500000 0.954047
O O16 0.500000 0.746854 0.000000
#
# Coordination Sequence:
#
# PCOD9398444 Si02
#       6
#     8   8   8   8   8   8
#     4   9  15  25  40  60  90 129 166 195 238 296
#     4  10  17  25  38  63  97 125 156 201 250 296
#     4  10  18  30  49  69  95 130 168 207 252 304
#     4  10  20  35  54  75 100 134 175 214 253 303
#     4   8  15  27  45  69  94 125 163 206 246 290
#     4  11  22  34  50  75 103 133 169 213 263 314
#
# _framework density 17.357158999999999
#
# number of rings (size 3 to 8) (size 9 to 14) (size 15 to 20)
#    0.000    2.333    1.667    5.000    0.000    1.000 
#    0.000    0.833    0.000    0.000    0.000    1.167 
#    0.000    6.667    0.000    0.000    0.000    0.000 
#
# Total GULP energy -267486.620618 kJ/mol
# GULP energy per Si atom -5572.637930 kJ/mol
# Density = 1.731765 g / cm^3
# Si number density = 17.357159 Si / 1000 Ang^3
#
#
#
# Elastic Constant Matrix: (Units=GPa)
#
#
# Indices 1 2 3 4 5 6 
#
# 1 62.7761 11.8344 51.4947 0.0000 0.0000 0.0000
# 2 11.8344 31.1122 24.3524 0.0000 0.0000 0.0000
# 3 51.4947 24.3524 185.7846 0.0000 0.0000 0.0000
# 4 0.0000 0.0000 0.0000 -3.2056 0.0000 0.0000
# 5 0.0000 0.0000 0.0000 0.0000 14.1492 0.0000
# 6 0.0000 0.0000 0.0000 0.0000 0.0000 -1.7680
#
#
#
# Elastic Compliance Matrix: (Units=1/GPa)
#
#
# Indices 1 2 3 4 5 6 
#
# 1 0.021018 -0.003828 -0.005324 0.000000 0.000000 0.000000
# 2 -0.003828 0.036513 -0.003725 0.000000 0.000000 0.000000
# 3 -0.005324 -0.003725 0.007347 0.000000 0.000000 0.000000
# 4 0.000000 0.000000 0.000000 -0.311950 0.000000 0.000000
# 5 0.000000 0.000000 0.000000 0.000000 0.070675 0.000000
# 6 0.000000 0.000000 0.000000 0.000000 0.000000 -0.565596
#
#
# Mechanical properties :
#
#
# Convention : Reuss Voigt Hill
#
# Bulk Modulus (GPa) = 25.55932 50.55955 38.05943
# Shear Modulus (GPa) = -7.11038 14.63455 3.76208
#
# Velocity S-wave (km/s) = -2.02618 2.90684 1.47382
# Velocity P-wave (km/s) = 3.04690 6.36070 4.98709
#
# Compressibility (1/GPa) = 0.03912467
#
# Stress axis : x y z
#
# Youngs Moduli (GPa) = 47.57721 27.38715 136.11813
#
# Poissons Ratio (x) = 0.10483 0.72470
# Poissons Ratio (y) = 0.18211 0.50707
# Poissons Ratio (z) = 0.25330 0.10202
#
# Static dielectric constant tensor:
#      x y z
#    x 1.562880 0.000000 0.000000 
#    y 0.000000 1.589140 0.000000 
#    z 0.000000 0.000000 1.643940 
# 
# From -- ./inp_files/25508.got.cif
#   From: 2010.05.17/outbox.cif.g08.bks.cpg/sg51_13_cif.got.tgz:25508.got - 2010.06.03 11:52:47.
