data_PCOD9398295
_publ_section_title
;
Structure prediction by ZEFSAII (Michael W. Deem and Ramdas Pophale) SiO2 
 PCOD9398295
Probable space group: P B A N
;
_chemical_formula_sum "Si O2"
_cell_formula_units_Z 20
_cell_length_a 16.123831
_cell_length_b 10.270964
_cell_length_c 5.348484
_cell_angle_alpha 90.000000
_cell_angle_beta 90.000000
_cell_angle_gamma 90.000000
_cell_volume 885.747929
_symmetry_space_group_name_H-M "P B A N"
_symmetry_group_IT_number 50
_space_group.IT_coordinate_system_code '2'
_symmetry_cell_setting 'orthorhombic'
loop_
_space_group_symop_operation_xyz
x,y,z
1/2-x,1/2-y,z
x,1/2-y,-z
1/2-x,y,-z
-x,-y,-z
1/2+x,1/2+y,-z
-x,1/2+y,z
1/2+x,-y,z
loop_
_atom_site_type_symbol
_atom_site_label
_atom_site_fract_x
_atom_site_fract_y
_atom_site_fract_z
Si Si1 0.195688 0.046329 0.250958
Si Si2 0.912948 0.750000 0.500000
Si Si3 0.038426 0.617082 0.842012
O O1 0.250000 0.031199 0.500000
O O2 0.144324 0.179767 0.295680
O O3 0.128858 0.930448 0.238684
O O4 0.250000 0.049701 0.000000
O O5 0.973771 0.644870 0.621086
O O6 0.043538 0.750000 0.000000
O O7 0.000000 0.500000 0.000000
#
# Coordination Sequence:
#
# PCOD9398295 Si02
#       3
#     8   4   8
#     4  12  29  50  77 122 159 205 259 338 397 458
#     4  12  27  50  85 106 162 214 274 304 401 492
#     4  12  27  51  81 114 156 210 270 320 393 485
#
# _framework density 22.579787
#
# number of rings (size 3 to 8) (size 9 to 14) (size 15 to 20)
#    0.000    0.000    4.000    4.200    5.600    5.600 
#    0.000    0.000    0.000    0.000    0.000    0.000 
#    0.000    0.000    0.000    0.000    0.000    0.000 
#
# Total GULP energy -112178.245539 kJ/mol
# GULP energy per Si atom -5608.912277 kJ/mol
# Density = 2.252839 g / cm^3
# Si number density = 22.579787 Si / 1000 Ang^3
#
#
#
# Elastic Constant Matrix: (Units=GPa)
#
#
# Indices 1 2 3 4 5 6 
#
# 1 191.6087 71.9758 113.1689 0.0000 0.0000 0.0000
# 2 71.9758 143.5781 62.1066 0.0000 0.0000 0.0000
# 3 113.1689 62.1066 176.1457 0.0000 0.0000 0.0000
# 4 0.0000 0.0000 0.0000 51.9768 0.0000 0.0000
# 5 0.0000 0.0000 0.0000 0.0000 54.4979 0.0000
# 6 0.0000 0.0000 0.0000 0.0000 0.0000 45.4212
#
#
#
# Elastic Compliance Matrix: (Units=1/GPa)
#
#
# Indices 1 2 3 4 5 6 
#
# 1 0.009054 -0.002387 -0.004976 0.000000 0.000000 0.000000
# 2 -0.002387 0.008847 -0.001586 0.000000 0.000000 0.000000
# 3 -0.004976 -0.001586 0.009433 0.000000 0.000000 0.000000
# 4 0.000000 0.000000 0.000000 0.019239 0.000000 0.000000
# 5 0.000000 0.000000 0.000000 0.000000 0.018349 0.000000
# 6 0.000000 0.000000 0.000000 0.000000 0.000000 0.022016
#
#
# Mechanical properties :
#
#
# Convention : Reuss Voigt Hill
#
# Bulk Modulus (GPa) = 105.95527 111.75944 108.85736
# Shear Modulus (GPa) = 46.30401 47.98460 47.14430
#
# Velocity S-wave (km/s) = 4.53336 4.61490 4.57431
# Velocity P-wave (km/s) = 8.62720 8.83171 8.73005
#
# Compressibility (1/GPa) = 0.00943794
#
# Stress axis : x y z
#
# Youngs Moduli (GPa) = 110.44623 113.02811 106.01035
#
# Poissons Ratio (x) = 0.26975 0.52746
# Poissons Ratio (y) = 0.26359 0.16815
# Poissons Ratio (z) = 0.54953 0.17928
#
# Static dielectric constant tensor:
#      x y z
#    x 1.869430 0.000000 0.000000 
#    y 0.000000 1.799900 0.000000 
#    z 0.000000 0.000000 1.844590 
# 
# From -- ./inp_files/1475.got.cif
#   From: 2010.05.17/outbox.cif.g08.bks.cpg/sg50_1_cif.got.tgz:1475.got - 2010.06.03 11:33:33.
