data_PCOD9398877
_publ_section_title
;
Structure prediction by ZEFSAII (Michael W. Deem and Ramdas Pophale) SiO2 
 PCOD9398877
Probable space group: P M M A
;
_chemical_formula_sum "Si O2"
_cell_formula_units_Z 64
_cell_length_a 24.232434
_cell_length_b 8.888183
_cell_length_c 18.610947
_cell_angle_alpha 90.000000
_cell_angle_beta 90.000000
_cell_angle_gamma 90.000000
_cell_volume 4008.468718
_symmetry_space_group_name_H-M "P M M A"
_symmetry_group_IT_number 51
_symmetry_cell_setting 'orthorhombic'
loop_
_space_group_symop_operation_xyz
x,y,z
1/2-x,-y,z
1/2+x,-y,-z
-x,y,-z
-x,-y,-z
1/2+x,y,-z
1/2-x,y,z
x,-y,z
loop_
_atom_site_type_symbol
_atom_site_label
_atom_site_fract_x
_atom_site_fract_y
_atom_site_fract_z
Si Si1 0.619755 0.817921 0.858929
Si Si2 0.814465 0.679882 0.727341
Si Si3 0.817034 0.827651 0.576559
Si Si4 0.617329 0.183666 0.139638
Si Si5 0.814385 0.818480 0.278362
Si Si6 0.312970 0.816733 0.999133
Si Si7 0.999138 0.816603 0.916111
Si Si8 0.182888 0.326907 0.570582
O O1 0.646904 0.749232 0.788279
O O2 0.557032 0.771286 0.876413
O O3 0.621074 0.000000 0.853566
O O4 0.656061 0.772971 0.928174
O O5 0.750000 0.725778 0.739173
O O6 0.816587 0.500000 0.729434
O O7 0.831473 0.737233 0.648359
O O8 0.750000 0.827228 0.573738
O O9 0.836397 0.754522 0.502003
O O10 0.835223 0.000000 0.582208
O O11 0.646545 0.232072 0.213213
O O12 0.653828 0.231344 0.071330
O O13 0.554604 0.231728 0.124736
O O14 0.617428 0.000000 0.140369
O O15 0.750000 0.775819 0.265147
O O16 0.832350 0.753687 0.355190
O O17 0.815728 0.000000 0.281722
O O18 0.250000 0.764874 0.998065
O O19 0.312562 0.000000 0.998023
O O20 0.999243 0.000000 0.917702
O O21 0.000000 0.769020 0.000000
O O22 0.250000 0.323936 0.568780
O O23 0.165470 0.500000 0.570824
#
# Coordination Sequence:
#
# PCOD9398877 Si02
#       8
#     8   8   8   8   8   8   8   8
#     4  10  18  28  45  67  90 117 153 196 236 273
#     4  10  20  32  45  64  94 127 154 183 224 275
#     4   9  16  27  45  68  93 120 151 185 219 261
#     4   9  15  24  39  61  89 118 150 191 237 276
#     4   9  16  25  39  62  91 120 152 191 230 269
#     4   9  15  22  36  61  90 116 145 186 234 277
#     4   9  15  26  43  65  90 116 151 199 245 277
#     4   9  16  26  41  62  91 125 154 179 216 270
#
# _framework density 15.966198
#
# number of rings (size 3 to 8) (size 9 to 14) (size 15 to 20)
#    0.000    2.750    1.250    1.875    0.000    5.750 
#    0.000    0.000    0.000    1.875    0.000    2.625 
#    0.000    7.000    0.000    0.000    0.000    0.000 
#
# Total GULP energy -356565.648228 kJ/mol
# GULP energy per Si atom -5571.338254 kJ/mol
# Density = 1.592986 g / cm^3
# Si number density = 15.966198 Si / 1000 Ang^3
#
#
#
# Elastic Constant Matrix: (Units=GPa)
#
#
# Indices 1 2 3 4 5 6 
#
# 1 109.8751 23.8915 79.2391 0.0000 0.0000 0.0000
# 2 23.8915 26.0195 38.5660 0.0000 0.0000 0.0000
# 3 79.2391 38.5660 171.7924 0.0000 0.0000 0.0000
# 4 0.0000 0.0000 0.0000 -10.8935 0.0000 0.0000
# 5 0.0000 0.0000 0.0000 0.0000 3.1428 0.0000
# 6 0.0000 0.0000 0.0000 0.0000 0.0000 7.0894
#
#
#
# Elastic Compliance Matrix: (Units=1/GPa)
#
#
# Indices 1 2 3 4 5 6 
#
# 1 0.014049 -0.004938 -0.005371 0.000000 0.000000 0.000000
# 2 -0.004938 0.059334 -0.011042 0.000000 0.000000 0.000000
# 3 -0.005371 -0.011042 0.010777 0.000000 0.000000 0.000000
# 4 0.000000 0.000000 0.000000 -0.091798 0.000000 0.000000
# 5 0.000000 0.000000 0.000000 0.000000 0.318185 0.000000
# 6 0.000000 0.000000 0.000000 0.000000 0.000000 0.141056
#
#
# Mechanical properties :
#
#
# Convention : Reuss Voigt Hill
#
# Bulk Modulus (GPa) = 24.12186 65.67557 44.89871
# Shear Modulus (GPa) = 9.84009 10.93377 10.38693
#
# Velocity S-wave (km/s) = 2.48525 2.61972 2.55337
# Velocity P-wave (km/s) = 4.83489 7.09747 6.07249
#
# Compressibility (1/GPa) = 0.04145617
#
# Stress axis : x y z
#
# Youngs Moduli (GPa) = 71.18080 16.85383 92.78697
#
# Poissons Ratio (x) = 0.08323 0.49839
# Poissons Ratio (y) = 0.35152 1.02456
# Poissons Ratio (z) = 0.38234 0.18610
#
# Static dielectric constant tensor:
#      x y z
#    x 1.522260 0.000000 0.000000 
#    y 0.000000 1.533420 0.000000 
#    z 0.000000 0.000000 1.521170 
# 
# From -- ./inp_files/30812.got.cif
#   From: 2010.05.17/outbox.cif.g08.bks.cpg/sg51_16_cif.got.tgz:30812.got - 2010.06.03 11:52:47.
