data_PCOD9398265
_publ_section_title
;
Structure prediction by ZEFSAII (Michael W. Deem and Ramdas Pophale) SiO2 
 PCOD9398265
Probable space group: P B A N
;
_chemical_formula_sum "Si O2"
_cell_formula_units_Z 40
_cell_length_a 25.681303
_cell_length_b 5.241176
_cell_length_c 11.661582
_cell_angle_alpha 90.000000
_cell_angle_beta 90.000000
_cell_angle_gamma 90.000000
_cell_volume 1569.651607
_symmetry_space_group_name_H-M "P B A N"
_symmetry_group_IT_number 50
_space_group.IT_coordinate_system_code '2'
_symmetry_cell_setting 'orthorhombic'
loop_
_space_group_symop_operation_xyz
x,y,z
1/2-x,1/2-y,z
x,1/2-y,-z
1/2-x,y,-z
-x,-y,-z
1/2+x,1/2+y,-z
-x,1/2+y,z
1/2+x,-y,z
loop_
_atom_site_type_symbol
_atom_site_label
_atom_site_fract_x
_atom_site_fract_y
_atom_site_fract_z
Si Si1 0.354875 0.245663 0.630286
Si Si2 0.017460 0.130889 0.179901
Si Si3 0.046197 0.934764 0.587195
Si Si4 0.879957 0.012119 0.929773
Si Si5 0.188326 0.750765 0.747975
O O1 0.334615 0.250000 0.500000
O O2 0.415365 0.337484 0.621465
O O3 0.331339 0.467488 0.712247
O O4 0.339072 0.965392 0.670726
O O5 0.077677 0.055840 0.168466
O O6 0.013456 0.402998 0.122243
O O7 0.982504 0.171183 0.298197
O O8 0.078090 0.750000 0.500000
O O9 0.000000 0.000000 0.500000
O O10 0.830030 0.146848 0.871698
O O11 0.869977 0.750000 0.000000
O O12 0.902948 0.250000 0.000000
O O13 0.250000 0.750000 0.736204
#
# Coordination Sequence:
#
# PCOD9398265 Si02
#       5
#     8   8   8   8   8
#     4  12  27  47  77 117 166 210 261 320 393 495
#     4  12  25  43  71 107 161 207 261 309 381 484
#     4  12  24  41  73 117 165 223 263 305 384 482
#     4  12  28  52  77 110 148 200 269 344 411 471
#     4  12  28  53  81 111 149 204 269 348 419 482
#
# _framework density 25.483360999999999
#
# number of rings (size 3 to 8) (size 9 to 14) (size 15 to 20)
#    0.000    0.000    2.000    7.800    2.800    5.200 
#    0.000    1.000    0.000    0.000    0.000    0.000 
#    0.000    0.000    0.000    0.000    0.000    0.000 
#
# Total GULP energy -223476.402606 kJ/mol
# GULP energy per Si atom -5586.910065 kJ/mol
# Density = 2.542536 g / cm^3
# Si number density = 25.483361 Si / 1000 Ang^3
#
#
#
# Elastic Constant Matrix: (Units=GPa)
#
#
# Indices 1 2 3 4 5 6 
#
# 1 143.9431 18.1681 16.9789 0.0000 0.0000 0.0000
# 2 18.1681 148.9776 36.4245 0.0000 0.0000 0.0000
# 3 16.9789 36.4245 121.6846 0.0000 0.0000 0.0000
# 4 0.0000 0.0000 0.0000 61.7525 0.0000 0.0000
# 5 0.0000 0.0000 0.0000 0.0000 18.6799 0.0000
# 6 0.0000 0.0000 0.0000 0.0000 0.0000 27.4960
#
#
#
# Elastic Compliance Matrix: (Units=1/GPa)
#
#
# Indices 1 2 3 4 5 6 
#
# 1 0.007126 -0.000675 -0.000792 0.000000 0.000000 0.000000
# 2 -0.000675 0.007306 -0.002093 0.000000 0.000000 0.000000
# 3 -0.000792 -0.002093 0.008955 0.000000 0.000000 0.000000
# 4 0.000000 0.000000 0.000000 0.016194 0.000000 0.000000
# 5 0.000000 0.000000 0.000000 0.000000 0.053533 0.000000
# 6 0.000000 0.000000 0.000000 0.000000 0.000000 0.036369
#
#
# Mechanical properties :
#
#
# Convention : Reuss Voigt Hill
#
# Bulk Modulus (GPa) = 61.47549 61.97203 61.72376
# Shear Modulus (GPa) = 35.20478 44.45462 39.82970
#
# Velocity S-wave (km/s) = 3.72086 4.18120 3.95773
# Velocity P-wave (km/s) = 6.52962 6.90517 6.72002
#
# Compressibility (1/GPa) = 0.01626665
#
# Stress axis : x y z
#
# Youngs Moduli (GPa) = 140.33388 136.86496 111.66994
#
# Poissons Ratio (x) = 0.09243 0.08846
# Poissons Ratio (y) = 0.09477 0.23371
# Poissons Ratio (z) = 0.11116 0.28644
#
# Static dielectric constant tensor:
#      x y z
#    x 1.976310 0.000000 0.000000 
#    y 0.000000 2.344760 0.000000 
#    z 0.000000 0.000000 2.142530 
# 
# From -- ./inp_files/22982.got.cif
#   From: 2010.05.17/outbox.cif.g08.bks.cpg/sg50_12_cif.got.tgz:22982.got - 2010.06.03 11:33:33.
