data_PCOD9398995
_publ_section_title
;
Structure prediction by ZEFSAII (Michael W. Deem and Ramdas Pophale) SiO2 
 PCOD9398995
Probable space group: P M M A
;
_chemical_formula_sum "Si O2"
_cell_formula_units_Z 64
_cell_length_a 9.320537
_cell_length_b 18.561648
_cell_length_c 22.766124
_cell_angle_alpha 90.000000
_cell_angle_beta 90.000000
_cell_angle_gamma 90.000000
_cell_volume 3938.642513
_symmetry_space_group_name_H-M "P M M A"
_symmetry_group_IT_number 51
_symmetry_cell_setting 'orthorhombic'
loop_
_space_group_symop_operation_xyz
x,y,z
1/2-x,-y,z
1/2+x,-y,-z
-x,y,-z
-x,-y,-z
1/2+x,y,-z
1/2-x,y,z
x,-y,z
loop_
_atom_site_type_symbol
_atom_site_label
_atom_site_fract_x
_atom_site_fract_y
_atom_site_fract_z
Si Si1 0.422795 0.917081 0.936759
Si Si2 0.579637 0.583725 0.692157
Si Si3 0.087522 0.783757 0.443833
Si Si4 0.911548 0.827691 0.331874
Si Si5 0.416398 0.807718 0.149499
Si Si6 0.085207 0.609799 0.441922
Si Si7 0.417465 0.703395 0.767735
Si Si8 0.407560 0.919525 0.256356
O O1 0.250000 0.907799 0.941106
O O2 0.493316 0.853141 0.898349
O O3 0.446932 0.000000 0.914029
O O4 0.500000 0.914539 0.000000
O O5 0.750000 0.603171 0.692596
O O6 0.565809 0.500000 0.708879
O O7 0.530587 0.590475 0.623610
O O8 0.494979 0.635715 0.736533
O O9 0.250000 0.808149 0.447376
O O10 0.085568 0.696632 0.443914
O O11 0.000000 0.809141 0.500000
O O12 0.015156 0.807986 0.384270
O O13 0.750000 0.833272 0.353273
O O14 0.918140 0.765087 0.282710
O O15 0.967639 0.899153 0.300585
O O16 0.250000 0.792887 0.131736
O O17 0.497059 0.737691 0.176713
O O18 0.409634 0.863353 0.203716
O O19 0.250000 0.584824 0.445695
O O20 0.000000 0.585194 0.500000
O O21 0.250000 0.688776 0.781978
O O22 0.250000 0.912924 0.285256
O O23 0.422329 0.000000 0.233564
#
# Coordination Sequence:
#
# PCOD9398995 Si02
#       8
#     8   8   8   8   8   8   8   8
#     4  10  20  33  50  75 110 149 185 217 249 287
#     4  10  20  34  50  68  94 128 163 201 250 305
#     4  10  18  29  46  65  86 111 144 187 233 283
#     4  10  19  30  46  67  89 115 148 189 235 282
#     4  10  19  32  52  74 100 134 172 210 247 285
#     4   9  18  30  45  65  89 118 153 193 239 293
#     4  10  20  33  49  70  96 124 162 205 247 293
#     4   9  18  31  47  68  93 122 155 191 234 283
#
# _framework density 16.249253
#
# number of rings (size 3 to 8) (size 9 to 14) (size 15 to 20)
#    0.000    2.250    1.250    2.250    0.000    4.500 
#    0.000    0.000    0.000    0.375    0.000    0.000 
#    0.000    0.500    0.000    1.875    0.000    2.875 
#
# Total GULP energy -356533.315924 kJ/mol
# GULP energy per Si atom -5570.833061 kJ/mol
# Density = 1.621227 g / cm^3
# Si number density = 16.249253 Si / 1000 Ang^3
#
#
#
# Elastic Constant Matrix: (Units=GPa)
#
#
# Indices 1 2 3 4 5 6 
#
# 1 119.7210 39.0759 50.9733 0.0000 0.0000 0.0000
# 2 39.0759 58.3242 28.3109 0.0000 0.0000 0.0000
# 3 50.9733 28.3109 64.2658 0.0000 0.0000 0.0000
# 4 0.0000 0.0000 0.0000 8.9265 0.0000 0.0000
# 5 0.0000 0.0000 0.0000 0.0000 29.1905 0.0000
# 6 0.0000 0.0000 0.0000 0.0000 0.0000 10.0106
#
#
#
# Elastic Compliance Matrix: (Units=1/GPa)
#
#
# Indices 1 2 3 4 5 6 
#
# 1 0.013649 -0.004947 -0.008646 0.000000 0.000000 0.000000
# 2 -0.004947 0.023602 -0.006473 0.000000 0.000000 0.000000
# 3 -0.008646 -0.006473 0.025270 0.000000 0.000000 0.000000
# 4 0.000000 0.000000 0.000000 0.112026 0.000000 0.000000
# 5 0.000000 0.000000 0.000000 0.000000 0.034258 0.000000
# 6 0.000000 0.000000 0.000000 0.000000 0.000000 0.099894
#
#
# Mechanical properties :
#
#
# Convention : Reuss Voigt Hill
#
# Bulk Modulus (GPa) = 44.66873 53.22568 48.94720
# Shear Modulus (GPa) = 14.03328 17.88891 15.96110
#
# Velocity S-wave (km/s) = 2.94194 3.32159 3.13751
# Velocity P-wave (km/s) = 6.25215 6.89474 6.58130
#
# Compressibility (1/GPa) = 0.02238703
#
# Stress axis : x y z
#
# Youngs Moduli (GPa) = 73.26612 42.36840 39.57256
#
# Poissons Ratio (x) = 0.20962 0.34216
# Poissons Ratio (y) = 0.36248 0.25617
# Poissons Ratio (z) = 0.63348 0.27427
#
# Static dielectric constant tensor:
#      x y z
#    x 1.571660 0.000000 0.000000 
#    y 0.000000 1.542300 0.000000 
#    z 0.000000 0.000000 1.529980 
# 
# From -- ./inp_files/32345.got.cif
#   From: 2010.05.17/outbox.cif.g08.bks.cpg/sg51_17_cif.got.tgz:32345.got - 2010.06.03 11:52:47.
