data_PCOD9398246
_publ_section_title
;
Structure prediction by ZEFSAII (Michael W. Deem and Ramdas Pophale) SiO2 
 PCOD9398246
Probable space group: P B A N
;
_chemical_formula_sum "Si O2"
_cell_formula_units_Z 34
_cell_length_a 22.070852
_cell_length_b 12.217033
_cell_length_c 5.125871
_cell_angle_alpha 90.000000
_cell_angle_beta 90.000000
_cell_angle_gamma 90.000000
_cell_volume 1382.141534
_symmetry_space_group_name_H-M "P B A N"
_symmetry_group_IT_number 50
_space_group.IT_coordinate_system_code '2'
_symmetry_cell_setting 'orthorhombic'
loop_
_space_group_symop_operation_xyz
x,y,z
1/2-x,1/2-y,z
x,1/2-y,-z
1/2-x,y,-z
-x,-y,-z
1/2+x,1/2+y,-z
-x,1/2+y,z
1/2+x,-y,z
loop_
_atom_site_type_symbol
_atom_site_label
_atom_site_fract_x
_atom_site_fract_y
_atom_site_fract_z
Si Si1 0.250000 0.750000 0.000000
Si Si2 0.849430 0.675432 0.751795
Si Si3 0.015658 0.425239 0.249028
Si Si4 0.894871 0.135799 0.596494
Si Si5 0.335208 0.558326 0.880633
O O1 0.290021 0.660368 0.846380
O O2 0.836757 0.750000 0.500000
O O3 0.812802 0.561961 0.799551
O O4 0.920877 0.638867 0.752293
O O5 0.838951 0.750000 0.000000
O O6 0.959697 0.340289 0.276355
O O7 0.000000 0.500000 0.500000
O O8 0.000000 0.500000 0.000000
O O9 0.869339 0.250000 0.500000
O O10 0.890418 0.072663 0.322677
O O11 0.857838 0.071065 0.820615
#
# Coordination Sequence:
#
# PCOD9398246 Si02
#       5
#     2   8   8   8   8
#     4  12  28  54  82 114 136 190 260 344 416 444
#     4  12  25  45  70 107 156 204 244 303 369 469
#     4  12  22  39  67 103 151 204 249 288 357 448
#     4  12  22  42  67 105 148 189 241 309 373 434
#     4  12  26  46  75 106 146 188 254 322 387 450
#
# _framework density 24.599509000000001
#
# number of rings (size 3 to 8) (size 9 to 14) (size 15 to 20)
#    0.000    0.000    7.059    3.529    0.000    3.765 
#    0.000    0.588    0.000    1.412    0.000    0.000 
#    0.000    0.000    0.000    0.000    0.000    0.000 
#
# Total GULP energy -189646.023911 kJ/mol
# GULP energy per Si atom -5577.824233 kJ/mol
# Density = 2.454352 g / cm^3
# Si number density = 24.599509 Si / 1000 Ang^3
#
#
#
# Elastic Constant Matrix: (Units=GPa)
#
#
# Indices 1 2 3 4 5 6 
#
# 1 66.6975 26.5293 12.0752 0.0000 0.0000 0.0000
# 2 26.5293 199.4799 76.1525 0.0000 0.0000 0.0000
# 3 12.0752 76.1525 205.6351 0.0000 0.0000 0.0000
# 4 0.0000 0.0000 0.0000 53.3759 0.0000 0.0000
# 5 0.0000 0.0000 0.0000 0.0000 18.0896 0.0000
# 6 0.0000 0.0000 0.0000 0.0000 0.0000 30.2542
#
#
#
# Elastic Compliance Matrix: (Units=1/GPa)
#
#
# Indices 1 2 3 4 5 6 
#
# 1 0.015836 -0.002039 -0.000175 0.000000 0.000000 0.000000
# 2 -0.002039 0.006101 -0.002140 0.000000 0.000000 0.000000
# 3 -0.000175 -0.002140 0.005666 0.000000 0.000000 0.000000
# 4 0.000000 0.000000 0.000000 0.018735 0.000000 0.000000
# 5 0.000000 0.000000 0.000000 0.000000 0.055280 0.000000
# 6 0.000000 0.000000 0.000000 0.000000 0.000000 0.033053
#
#
# Mechanical properties :
#
#
# Convention : Reuss Voigt Hill
#
# Bulk Modulus (GPa) = 52.92353 77.92516 65.42435
# Shear Modulus (GPa) = 33.40524 44.14762 38.77643
#
# Velocity S-wave (km/s) = 3.68905 4.24093 3.97458
# Velocity P-wave (km/s) = 6.30129 7.46505 6.90772
#
# Compressibility (1/GPa) = 0.01889519
#
# Stress axis : x y z
#
# Youngs Moduli (GPa) = 63.14779 163.90546 176.50341
#
# Poissons Ratio (x) = 0.33426 0.03083
# Poissons Ratio (y) = 0.12878 0.37766
# Poissons Ratio (z) = 0.01103 0.35070
#
# Static dielectric constant tensor:
#      x y z
#    x 1.947470 0.000000 0.000000 
#    y 0.000000 1.961540 0.000000 
#    z 0.000000 0.000000 1.888270 
# 
# From -- ./inp_files/5803.got.cif
#   From: 2010.05.17/outbox.cif.g08.bks.cpg/sg50_3_cif.got.tgz:5803.got - 2010.06.03 11:33:33.
