data_PCOD9398158
_publ_section_title
;
Structure prediction by ZEFSAII (Michael W. Deem and Ramdas Pophale) SiO2 
 PCOD9398158
Probable space group: P B A N
;
_chemical_formula_sum "Si O2"
_cell_formula_units_Z 32
_cell_length_a 9.882561
_cell_length_b 9.296524
_cell_length_c 15.026027
_cell_angle_alpha 90.000000
_cell_angle_beta 90.000000
_cell_angle_gamma 90.000000
_cell_volume 1380.493173
_symmetry_space_group_name_H-M "P B A N"
_symmetry_group_IT_number 50
_space_group.IT_coordinate_system_code '2'
_symmetry_cell_setting 'orthorhombic'
loop_
_space_group_symop_operation_xyz
x,y,z
1/2-x,1/2-y,z
x,1/2-y,-z
1/2-x,y,-z
-x,-y,-z
1/2+x,1/2+y,-z
-x,1/2+y,z
1/2+x,-y,z
loop_
_atom_site_type_symbol
_atom_site_label
_atom_site_fract_x
_atom_site_fract_y
_atom_site_fract_z
Si Si1 0.250000 0.486462 0.500000
Si Si2 0.545672 0.750000 0.500000
Si Si3 0.947318 0.361098 0.162144
Si Si4 0.384717 0.684767 0.349465
Si Si5 0.177625 0.940857 0.903963
O O1 0.363527 0.378079 0.536548
O O2 0.324738 0.572322 0.421304
O O3 0.456539 0.796758 0.416024
O O4 0.978974 0.354715 0.267270
O O5 0.902231 0.206186 0.122232
O O6 0.810578 0.456911 0.157150
O O7 0.069648 0.432316 0.108152
O O8 0.250000 0.750000 0.306393
O O9 0.250000 0.931379 0.000000
#
# Coordination Sequence:
#
# PCOD9398158 Si02
#       5
#     4   4   8   8   8
#     4  11  25  40  64  96 139 193 234 288 338 411
#     4  11  25  40  64  96 141 189 240 286 338 411
#     4  11  26  43  74 108 144 188 236 301 350 438
#     4  12  23  41  67  98 142 188 237 281 353 402
#     4  11  25  50  73 105 144 184 234 296 370 435
#
# _framework density 23.180122000000001
#
# number of rings (size 3 to 8) (size 9 to 14) (size 15 to 20)
#    0.000    0.750    5.000    3.000    7.000    1.000 
#    0.000    2.500    0.000    0.000    0.000    0.000 
#    0.000    0.000    0.000    0.000    0.000    0.000 
#
# Total GULP energy -178597.297017 kJ/mol
# GULP energy per Si atom -5581.165532 kJ/mol
# Density = 2.312736 g / cm^3
# Si number density = 23.180122 Si / 1000 Ang^3
#
#
#
# Elastic Constant Matrix: (Units=GPa)
#
#
# Indices 1 2 3 4 5 6 
#
# 1 96.8861 31.2295 44.3397 0.0000 0.0000 0.0000
# 2 31.2295 63.7685 48.6043 0.0000 0.0000 0.0000
# 3 44.3397 48.6043 171.0032 0.0000 0.0000 0.0000
# 4 0.0000 0.0000 0.0000 18.6977 0.0000 0.0000
# 5 0.0000 0.0000 0.0000 0.0000 28.6473 0.0000
# 6 0.0000 0.0000 0.0000 0.0000 0.0000 42.1388
#
#
#
# Elastic Compliance Matrix: (Units=1/GPa)
#
#
# Indices 1 2 3 4 5 6 
#
# 1 0.012748 -0.004753 -0.001954 0.000000 0.000000 0.000000
# 2 -0.004753 0.021791 -0.004961 0.000000 0.000000 0.000000
# 3 -0.001954 -0.004961 0.007765 0.000000 0.000000 0.000000
# 4 0.000000 0.000000 0.000000 0.053482 0.000000 0.000000
# 5 0.000000 0.000000 0.000000 0.000000 0.034907 0.000000
# 6 0.000000 0.000000 0.000000 0.000000 0.000000 0.023731
#
#
# Mechanical properties :
#
#
# Convention : Reuss Voigt Hill
#
# Bulk Modulus (GPa) = 52.72657 64.44495 58.58576
# Shear Modulus (GPa) = 27.16144 31.72905 29.44525
#
# Velocity S-wave (km/s) = 3.42681 3.70375 3.56797
# Velocity P-wave (km/s) = 6.20106 6.79356 6.50406
#
# Compressibility (1/GPa) = 0.01896577
#
# Stress axis : x y z
#
# Youngs Moduli (GPa) = 78.44360 45.89044 128.78801
#
# Poissons Ratio (x) = 0.21814 0.25170
# Poissons Ratio (y) = 0.37288 0.63893
# Poissons Ratio (z) = 0.15331 0.22767
#
# Static dielectric constant tensor:
#      x y z
#    x 1.946200 0.000000 0.000000 
#    y 0.000000 1.902930 0.000000 
#    z 0.000000 0.000000 1.902100 
# 
# From -- ./inp_files/24369.got.cif
#   From: 2010.05.17/outbox.cif.g08.bks.cpg/sg50_13_cif.got.tgz:24369.got - 2010.06.03 11:33:33.
