data_PCOD9398375
_publ_section_title
;
Structure prediction by ZEFSAII (Michael W. Deem and Ramdas Pophale) SiO2 
 PCOD9398375
Probable space group: P M M A
;
_chemical_formula_sum "Si O2"
_cell_formula_units_Z 44
_cell_length_a 8.778761
_cell_length_b 29.195126
_cell_length_c 9.364439
_cell_angle_alpha 90.000000
_cell_angle_beta 90.000000
_cell_angle_gamma 90.000000
_cell_volume 2400.077936
_symmetry_space_group_name_H-M "P M M A"
_symmetry_group_IT_number 51
_symmetry_cell_setting 'orthorhombic'
loop_
_space_group_symop_operation_xyz
x,y,z
1/2-x,-y,z
1/2+x,-y,-z
-x,y,-z
-x,-y,-z
1/2+x,y,-z
1/2-x,y,z
x,-y,z
loop_
_atom_site_type_symbol
_atom_site_label
_atom_site_fract_x
_atom_site_fract_y
_atom_site_fract_z
Si Si1 0.067925 0.907631 0.160217
Si Si2 0.931845 0.000000 0.162029
Si Si3 0.432416 0.805495 0.160017
Si Si4 0.932193 0.446774 0.656395
Si Si5 0.932568 0.277207 0.342000
Si Si6 0.432397 0.366668 0.843026
O O1 0.250000 0.913893 0.153223
O O2 0.035262 0.856877 0.219053
O O3 0.992868 0.952643 0.229045
O O4 0.000000 0.905560 0.000000
O O5 0.750000 0.000000 0.155040
O O6 0.000000 0.000000 0.000000
O O7 0.250000 0.800598 0.151193
O O8 0.502490 0.766514 0.258475
O O9 0.500000 0.801757 0.000000
O O10 0.750000 0.441794 0.652015
O O11 0.968055 0.500000 0.688834
O O12 0.000000 0.436466 0.500000
O O13 0.002283 0.412175 0.769815
O O14 0.750000 0.274239 0.348726
O O15 0.973569 0.323003 0.254375
O O16 0.000000 0.279507 0.500000
O O17 0.250000 0.369474 0.850726
O O18 0.500000 0.360718 0.000000
#
# Coordination Sequence:
#
# PCOD9398375 Si02
#       6
#     8   4   8   8   8   8
#     4   9  16  26  41  64  96 133 171 213 261 314
#     4  10  16  22  36  60  93 132 171 212 259 312
#     4  10  20  34  54  79 108 142 180 223 273 325
#     4  10  21  38  61  88 118 153 191 231 275 324
#     4  11  24  40  59  82 109 142 181 225 273 327
#     4  11  24  40  60  86 115 149 186 228 277 327
#
# _framework density 18.332737999999999
#
# number of rings (size 3 to 8) (size 9 to 14) (size 15 to 20)
#    0.000    1.818    0.000    5.727    0.000    9.455 
#    0.000    0.000    0.000    0.000    0.000    0.636 
#    0.000    0.000    0.000    0.000    0.000    0.000 
#
# Total GULP energy -245668.070331 kJ/mol
# GULP energy per Si atom -5583.365235 kJ/mol
# Density = 1.829101 g / cm^3
# Si number density = 18.332738 Si / 1000 Ang^3
#
#
#
# Elastic Constant Matrix: (Units=GPa)
#
#
# Indices 1 2 3 4 5 6 
#
# 1 85.6112 73.0354 49.8374 0.0000 0.0000 0.0000
# 2 73.0354 153.8620 90.6488 0.0000 0.0000 0.0000
# 3 49.8374 90.6488 109.9294 0.0000 0.0000 0.0000
# 4 0.0000 0.0000 0.0000 -29.7236 0.0000 0.0000
# 5 0.0000 0.0000 0.0000 0.0000 28.7622 0.0000
# 6 0.0000 0.0000 0.0000 0.0000 0.0000 36.1694
#
#
#
# Elastic Compliance Matrix: (Units=1/GPa)
#
#
# Indices 1 2 3 4 5 6 
#
# 1 0.019951 -0.008055 -0.002403 0.000000 0.000000 0.000000
# 2 -0.008055 0.015892 -0.009453 0.000000 0.000000 0.000000
# 3 -0.002403 -0.009453 0.017981 0.000000 0.000000 0.000000
# 4 0.000000 0.000000 0.000000 -0.033643 0.000000 0.000000
# 5 0.000000 0.000000 0.000000 0.000000 0.034768 0.000000
# 6 0.000000 0.000000 0.000000 0.000000 0.000000 0.027648
#
#
# Mechanical properties :
#
#
# Convention : Reuss Voigt Hill
#
# Bulk Modulus (GPa) = 71.41401 86.27176 78.84288
# Shear Modulus (GPa) = 39.34343 16.10033 27.72188
#
# Velocity S-wave (km/s) = 4.63760 2.96671 3.89286
# Velocity P-wave (km/s) = 8.22894 7.67438 7.95649
#
# Compressibility (1/GPa) = 0.01400286
#
# Stress axis : x y z
#
# Youngs Moduli (GPa) = 50.12260 62.92436 55.61313
#
# Poissons Ratio (x) = 0.50683 0.13364
# Poissons Ratio (y) = 0.40372 0.52572
# Poissons Ratio (z) = 0.12045 0.59483
#
# Static dielectric constant tensor:
#      x y z
#    x 1.609010 0.000000 0.000000 
#    y 0.000000 1.669070 0.000000 
#    z 0.000000 0.000000 1.589380 
# 
# From -- ./inp_files/5806.got.cif
#   From: 2010.05.17/outbox.cif.g08.bks.cpg/sg51_3_cif.got.tgz:5806.got - 2010.06.03 11:52:47.
