data_PCOD9398189
_publ_section_title
;
Structure prediction by ZEFSAII (Michael W. Deem and Ramdas Pophale) SiO2 
 PCOD9398189
Probable space group: P B A N
;
_chemical_formula_sum "Si O2"
_cell_formula_units_Z 40
_cell_length_a 8.800578
_cell_length_b 24.446976
_cell_length_c 8.441902
_cell_angle_alpha 90.000000
_cell_angle_beta 90.000000
_cell_angle_gamma 90.000000
_cell_volume 1816.254272
_symmetry_space_group_name_H-M "P B A N"
_symmetry_group_IT_number 50
_space_group.IT_coordinate_system_code '2'
_symmetry_cell_setting 'orthorhombic'
loop_
_space_group_symop_operation_xyz
x,y,z
1/2-x,1/2-y,z
x,1/2-y,-z
1/2-x,y,-z
-x,-y,-z
1/2+x,1/2+y,-z
-x,1/2+y,z
1/2+x,-y,z
loop_
_atom_site_type_symbol
_atom_site_label
_atom_site_fract_x
_atom_site_fract_y
_atom_site_fract_z
Si Si1 0.558768 0.363768 0.167987
Si Si2 0.614713 0.966681 0.113468
Si Si3 0.581932 0.358123 0.793057
Si Si4 0.604793 0.041329 0.398718
Si Si5 0.574760 0.746924 0.689659
O O1 0.468191 0.418527 0.209565
O O2 0.735600 0.363288 0.212193
O O3 0.489815 0.309568 0.243539
O O4 0.542986 0.365348 0.977262
O O5 0.669248 0.009223 0.245400
O O6 0.750000 0.946959 0.000000
O O7 0.500000 0.000000 0.000000
O O8 0.521382 0.405475 0.675500
O O9 0.521893 0.298617 0.747933
O O10 0.750000 0.058713 0.500000
O O11 0.500000 0.000000 0.500000
O O12 0.750000 0.750000 0.741494
O O13 0.570026 0.750000 0.500000
#
# Coordination Sequence:
#
# PCOD9398189 Si02
#       5
#     8   8   8   8   8
#     4  11  25  46  75 102 139 190 245 298 355 442
#     4  12  25  46  73 107 147 193 247 305 369 447
#     4  11  25  47  72 102 141 188 244 295 361 441
#     4  12  27  44  70 108 147 191 241 304 372 439
#     4  11  28  47  70 106 144 184 236 301 372 436
#
# _framework density 22.023349
#
# number of rings (size 3 to 8) (size 9 to 14) (size 15 to 20)
#    0.000    0.600    2.000    4.800    8.400    3.200 
#    0.000    0.000    0.000    0.000    0.000    0.000 
#    0.000    0.000    0.000    0.000    0.000    0.000 
#
# Total GULP energy -223881.965602 kJ/mol
# GULP energy per Si atom -5597.049140 kJ/mol
# Density = 2.197322 g / cm^3
# Si number density = 22.023349 Si / 1000 Ang^3
#
#
#
# Elastic Constant Matrix: (Units=GPa)
#
#
# Indices 1 2 3 4 5 6 
#
# 1 78.3955 44.8546 27.8479 0.0000 0.0000 0.0000
# 2 44.8546 177.1296 43.9782 0.0000 0.0000 0.0000
# 3 27.8479 43.9782 92.6841 0.0000 0.0000 0.0000
# 4 0.0000 0.0000 0.0000 57.0630 0.0000 0.0000
# 5 0.0000 0.0000 0.0000 0.0000 34.9831 0.0000
# 6 0.0000 0.0000 0.0000 0.0000 0.0000 38.9777
#
#
#
# Elastic Compliance Matrix: (Units=1/GPa)
#
#
# Indices 1 2 3 4 5 6 
#
# 1 0.015718 -0.003183 -0.003212 0.000000 0.000000 0.000000
# 2 -0.003183 0.007044 -0.002386 0.000000 0.000000 0.000000
# 3 -0.003212 -0.002386 0.012887 0.000000 0.000000 0.000000
# 4 0.000000 0.000000 0.000000 0.017525 0.000000 0.000000
# 5 0.000000 0.000000 0.000000 0.000000 0.028585 0.000000
# 6 0.000000 0.000000 0.000000 0.000000 0.000000 0.025656
#
#
# Mechanical properties :
#
#
# Convention : Reuss Voigt Hill
#
# Bulk Modulus (GPa) = 55.29058 64.61894 59.95476
# Shear Modulus (GPa) = 38.16642 41.63998 39.90320
#
# Velocity S-wave (km/s) = 4.16745 4.35296 4.26121
# Velocity P-wave (km/s) = 6.95102 7.39386 7.17586
#
# Compressibility (1/GPa) = 0.01808626
#
# Stress axis : x y z
#
# Youngs Moduli (GPa) = 63.62155 141.96585 77.59925
#
# Poissons Ratio (x) = 0.45183 0.24928
# Poissons Ratio (y) = 0.20249 0.18516
# Poissons Ratio (z) = 0.20438 0.33874
#
# Static dielectric constant tensor:
#      x y z
#    x 1.793830 0.000000 0.000000 
#    y 0.000000 1.818100 0.000000 
#    z 0.000000 0.000000 1.881480 
# 
# From -- ./inp_files/9528.got.cif
#   From: 2010.05.17/outbox.cif.g08.bks.cpg/sg50_5_cif.got.tgz:9528.got - 2010.06.03 11:33:33.
