data_PCOD9398949
_publ_section_title
;
Structure prediction by ZEFSAII (Michael W. Deem and Ramdas Pophale) SiO2 
 PCOD9398949
Probable space group: P M M A
;
_chemical_formula_sum "Si O2"
_cell_formula_units_Z 52
_cell_length_a 8.558249
_cell_length_b 18.524487
_cell_length_c 19.003776
_cell_angle_alpha 90.000000
_cell_angle_beta 90.000000
_cell_angle_gamma 90.000000
_cell_volume 3012.804911
_symmetry_space_group_name_H-M "P M M A"
_symmetry_group_IT_number 51
_symmetry_cell_setting 'orthorhombic'
loop_
_space_group_symop_operation_xyz
x,y,z
1/2-x,-y,z
1/2+x,-y,-z
-x,y,-z
-x,-y,-z
1/2+x,y,-z
1/2-x,y,z
x,-y,z
loop_
_atom_site_type_symbol
_atom_site_label
_atom_site_fract_x
_atom_site_fract_y
_atom_site_fract_z
Si Si1 0.938358 0.705639 0.422303
Si Si2 0.558706 0.578711 0.140799
Si Si3 0.934029 0.853363 0.643770
Si Si4 0.071323 0.365177 0.714734
Si Si5 0.438935 0.269541 0.923559
Si Si6 0.435892 0.000000 0.579050
Si Si7 0.570719 0.203810 0.218798
O O1 0.750000 0.704236 0.421281
O O2 0.997450 0.649207 0.362463
O O3 0.000000 0.690625 0.500000
O O4 0.991496 0.785399 0.397657
O O5 0.750000 0.581235 0.142906
O O6 0.512535 0.500000 0.113263
O O7 0.502490 0.587905 0.221841
O O8 0.508674 0.648834 0.096897
O O9 0.750000 0.852274 0.631403
O O10 0.004368 0.927992 0.617040
O O11 0.971566 0.841686 0.726209
O O12 0.250000 0.390556 0.704496
O O13 0.076742 0.284951 0.748953
O O14 0.250000 0.269504 0.922927
O O15 0.488290 0.216114 0.860400
O O16 0.500000 0.250059 0.000000
O O17 0.500000 0.000000 0.500000
O O18 0.250000 0.000000 0.577685
O O19 0.750000 0.177171 0.217859
#
# Coordination Sequence:
#
# PCOD9398949 Si02
#       7
#     8   8   8   8   8   4   8
#     4  10  18  29  44  63  87 115 149 189 234 278
#     4   8  13  23  40  61  85 117 155 190 227 276
#     4  11  21  33  49  71  95 121 155 191 227 269
#     4   7  12  23  39  57  78 107 147 191 228 268
#     4   9  17  28  44  68  97 124 153 191 233 276
#     4  12  24  38  52  70 101 136 163 188 222 264
#     4   8  15  30  47  63  87 121 157 191 228 271
#
# _framework density 17.259664999999998
#
# number of rings (size 3 to 8) (size 9 to 14) (size 15 to 20)
#    0.000    2.923    0.000    5.769    0.000    0.923 
#    0.000    0.000    0.000    0.462    0.000    0.538 
#    0.000    0.000    0.000    0.000    0.000    1.385 
#
# Total GULP energy -289542.852832 kJ/mol
# GULP energy per Si atom -5568.131785 kJ/mol
# Density = 1.722038 g / cm^3
# Si number density = 17.259665 Si / 1000 Ang^3
#
#
#
# Elastic Constant Matrix: (Units=GPa)
#
#
# Indices 1 2 3 4 5 6 
#
# 1 46.7080 8.4581 15.5412 0.0000 0.0000 0.0000
# 2 8.4581 28.1340 10.2274 0.0000 0.0000 0.0000
# 3 15.5412 10.2274 126.8369 0.0000 0.0000 0.0000
# 4 0.0000 0.0000 0.0000 -6.3323 0.0000 0.0000
# 5 0.0000 0.0000 0.0000 0.0000 26.0707 0.0000
# 6 0.0000 0.0000 0.0000 0.0000 0.0000 6.2113
#
#
#
# Elastic Compliance Matrix: (Units=1/GPa)
#
#
# Indices 1 2 3 4 5 6 
#
# 1 0.023308 -0.006149 -0.002360 0.000000 0.000000 0.000000
# 2 -0.006149 0.038240 -0.002330 0.000000 0.000000 0.000000
# 3 -0.002360 -0.002330 0.008361 0.000000 0.000000 0.000000
# 4 0.000000 0.000000 0.000000 -0.157921 0.000000 0.000000
# 5 0.000000 0.000000 0.000000 0.000000 0.038357 0.000000
# 6 0.000000 0.000000 0.000000 0.000000 0.000000 0.160996
#
#
# Mechanical properties :
#
#
# Convention : Reuss Voigt Hill
#
# Bulk Modulus (GPa) = 20.73375 30.01471 25.37423
# Shear Modulus (GPa) = 33.53511 16.35343 24.94427
#
# Velocity S-wave (km/s) = 4.41270 3.08148 3.80575
# Velocity P-wave (km/s) = 6.16454 5.48530 5.83481
#
# Compressibility (1/GPa) = 0.04823054
#
# Stress axis : x y z
#
# Youngs Moduli (GPa) = 42.90292 26.15069 119.60009
#
# Poissons Ratio (x) = 0.16081 0.28227
# Poissons Ratio (y) = 0.26383 0.27866
# Poissons Ratio (z) = 0.10126 0.06093
#
# Static dielectric constant tensor:
#      x y z
#    x 1.586850 0.000000 0.000000 
#    y 0.000000 1.577300 0.000000 
#    z 0.000000 0.000000 1.621130 
# 
# From -- ./inp_files/27909.got.cif
#   From: 2010.05.17/outbox.cif.g08.bks.cpg/sg51_14_cif.got.tgz:27909.got - 2010.06.03 11:52:47.
