data_PCOD9398667
_publ_section_title
;
Structure prediction by ZEFSAII (Michael W. Deem and Ramdas Pophale) SiO2 
 PCOD9398667
Probable space group: P M M A
;
_chemical_formula_sum "Si O2"
_cell_formula_units_Z 52
_cell_length_a 8.760904
_cell_length_b 27.559188
_cell_length_c 13.980897
_cell_angle_alpha 90.000000
_cell_angle_beta 90.000000
_cell_angle_gamma 90.000000
_cell_volume 3375.595312
_symmetry_space_group_name_H-M "P M M A"
_symmetry_group_IT_number 51
_symmetry_cell_setting 'orthorhombic'
loop_
_space_group_symop_operation_xyz
x,y,z
1/2-x,-y,z
1/2+x,-y,-z
-x,y,-z
-x,-y,-z
1/2+x,y,-z
1/2-x,y,z
x,-y,z
loop_
_atom_site_type_symbol
_atom_site_label
_atom_site_fract_x
_atom_site_fract_y
_atom_site_fract_z
Si Si1 0.566758 0.841566 0.892691
Si Si2 0.065911 0.052154 0.107469
Si Si3 0.568161 0.500000 0.606902
Si Si4 0.934381 0.252897 0.203614
Si Si5 0.065532 0.595786 0.701942
Si Si6 0.566317 0.352904 0.103244
Si Si7 0.433336 0.303552 0.602755
O O1 0.750000 0.839089 0.897992
O O2 0.521756 0.895042 0.852360
O O3 0.504638 0.796982 0.831840
O O4 0.500000 0.837700 0.000000
O O5 0.250000 0.052113 0.102569
O O6 0.019032 0.000000 0.151838
O O7 0.000000 0.051995 0.000000
O O8 0.750000 0.500000 0.600607
O O9 0.500000 0.500000 0.500000
O O10 0.510646 0.452446 0.662715
O O11 0.750000 0.249871 0.200346
O O12 0.979608 0.298474 0.136270
O O13 0.980030 0.267964 0.311088
O O14 0.250000 0.590745 0.698934
O O15 0.022455 0.611012 0.810266
O O16 0.023567 0.641994 0.635976
O O17 0.750000 0.353322 0.098559
O O18 0.500000 0.364831 0.000000
O O19 0.500000 0.291739 0.500000
O O20 0.250000 0.302495 0.598308
#
# Coordination Sequence:
#
# PCOD9398667 Si02
#       7
#     8   8   4   8   8   8   8
#     4  10  18  26  39  60  85 116 151 184 218 256
#     4   8  14  24  36  51  75 108 145 182 217 253
#     4  12  24  36  53  76  97 118 145 180 222 266
#     4   9  18  31  44  63  91 119 146 179 218 260
#     4   9  19  36  53  71  95 121 148 180 217 257
#     4   9  18  32  50  69  92 122 153 183 216 254
#     4   9  18  32  50  69  90 116 145 177 217 262
#
# _framework density 15.40469
#
# number of rings (size 3 to 8) (size 9 to 14) (size 15 to 20)
#    0.000    2.769    0.000    3.923    0.000    5.538 
#    0.000    3.462    0.000    0.000    0.000    0.000 
#    0.000    0.615    0.000    1.385    0.000    2.462 
#
# Total GULP energy -289643.714970 kJ/mol
# GULP energy per Si atom -5570.071442 kJ/mol
# Density = 1.536963 g / cm^3
# Si number density = 15.404690 Si / 1000 Ang^3
#
#
#
# Elastic Constant Matrix: (Units=GPa)
#
#
# Indices 1 2 3 4 5 6 
#
# 1 26.4695 40.5114 27.8429 0.0000 0.0000 0.0000
# 2 40.5114 160.7804 69.9159 0.0000 0.0000 0.0000
# 3 27.8429 69.9159 103.9286 0.0000 0.0000 0.0000
# 4 0.0000 0.0000 0.0000 14.4090 0.0000 0.0000
# 5 0.0000 0.0000 0.0000 0.0000 26.0683 0.0000
# 6 0.0000 0.0000 0.0000 0.0000 0.0000 -0.3575
#
#
#
# Elastic Compliance Matrix: (Units=1/GPa)
#
#
# Indices 1 2 3 4 5 6 
#
# 1 0.067387 -0.012904 -0.009373 0.000000 0.000000 0.000000
# 2 -0.012904 0.011262 -0.004120 0.000000 0.000000 0.000000
# 3 -0.009373 -0.004120 0.014904 0.000000 0.000000 0.000000
# 4 0.000000 0.000000 0.000000 0.069401 0.000000 0.000000
# 5 0.000000 0.000000 0.000000 0.000000 0.038361 0.000000
# 6 0.000000 0.000000 0.000000 0.000000 0.000000 -2.797220
#
#
# Mechanical properties :
#
#
# Convention : Reuss Voigt Hill
#
# Bulk Modulus (GPa) = 24.53262 63.07986 43.80624
# Shear Modulus (GPa) = -1.97665 18.21786 8.12060
#
# Velocity S-wave (km/s) = -1.13399 3.44265 2.29847
# Velocity P-wave (km/s) = 3.77431 7.53922 5.96176
#
# Compressibility (1/GPa) = 0.04076206
#
# Stress axis : x y z
#
# Youngs Moduli (GPa) = 14.83967 88.79125 67.09464
#
# Poissons Ratio (x) = 1.14573 0.62885
# Poissons Ratio (y) = 0.19149 0.27640
# Poissons Ratio (z) = 0.13909 0.36579
#
# Static dielectric constant tensor:
#      x y z
#    x 1.520850 0.000000 0.000000 
#    y 0.000000 1.536820 0.000000 
#    z 0.000000 0.000000 1.490480 
# 
# From -- ./inp_files/14632.got.cif
#   From: 2010.05.17/outbox.cif.g08.bks.cpg/sg51_8_cif.got.tgz:14632.got - 2010.06.03 11:52:47.
