data_PCOD9398037
_publ_section_title
;
Structure prediction by ZEFSAII (Michael W. Deem and Ramdas Pophale) SiO2 
 PCOD9398037
Probable space group: P B A N
;
_chemical_formula_sum "Si O2"
_cell_formula_units_Z 38
_cell_length_a 8.271119
_cell_length_b 25.816551
_cell_length_c 9.142948
_cell_angle_alpha 90.000000
_cell_angle_beta 90.000000
_cell_angle_gamma 90.000000
_cell_volume 1952.309828
_symmetry_space_group_name_H-M "P B A N"
_symmetry_group_IT_number 50
_space_group.IT_coordinate_system_code '2'
_symmetry_cell_setting 'orthorhombic'
loop_
_space_group_symop_operation_xyz
x,y,z
1/2-x,1/2-y,z
x,1/2-y,-z
1/2-x,y,-z
-x,-y,-z
1/2+x,1/2+y,-z
-x,1/2+y,z
1/2+x,-y,z
loop_
_atom_site_type_symbol
_atom_site_label
_atom_site_fract_x
_atom_site_fract_y
_atom_site_fract_z
Si Si1 0.421382 0.550633 0.575305
Si Si2 0.697711 0.694520 0.259389
Si Si3 0.506024 0.669998 0.530129
Si Si4 0.070889 0.948249 0.926834
Si Si5 0.250000 0.750000 0.500000
Si Si6 0.250000 0.381725 0.000000
O O1 0.250000 0.552560 0.500000
O O2 0.500000 0.500000 0.500000
O O3 0.490454 0.607927 0.538473
O O4 0.410227 0.545329 0.751311
O O5 0.750000 0.750000 0.197914
O O6 0.542765 0.689307 0.364936
O O7 0.843475 0.682481 0.369003
O O8 0.693018 0.652789 0.134499
O O9 0.361763 0.707598 0.583458
O O10 0.915563 0.910776 0.951654
O O11 0.250000 0.936425 0.000000
O O12 0.000000 0.000000 0.000000
#
# Coordination Sequence:
#
# PCOD9398037 Si02
#       6
#     8   8   8   8   2   4
#     4  12  28  44  70 107 140 181 240 300 356 428
#     4  11  23  45  68 100 132 186 230 286 354 429
#     4  11  23  41  72  98 139 177 236 291 352 418
#     4  12  27  48  72 101 145 194 235 288 366 437
#     4  12  20  42  68 106 132 182 228 300 356 418
#     4  12  27  44  72 100 150 186 231 292 362 434
#
# _framework density 19.464123000000001
#
# number of rings (size 3 to 8) (size 9 to 14) (size 15 to 20)
#    0.000    0.421    6.316    2.211    8.842    0.000 
#    0.000    0.000    0.000    2.526    0.000    0.000 
#    0.000    0.000    0.000    0.000    0.000    0.000 
#
# Total GULP energy -211574.288366 kJ/mol
# GULP energy per Si atom -5567.744431 kJ/mol
# Density = 1.941982 g / cm^3
# Si number density = 19.464123 Si / 1000 Ang^3
#
#
#
# Elastic Constant Matrix: (Units=GPa)
#
#
# Indices 1 2 3 4 5 6 
#
# 1 103.6137 35.1108 40.8320 0.0000 0.0000 0.0000
# 2 35.1108 131.9429 40.0919 0.0000 0.0000 0.0000
# 3 40.8320 40.0919 147.7170 0.0000 0.0000 0.0000
# 4 0.0000 0.0000 0.0000 23.5506 0.0000 0.0000
# 5 0.0000 0.0000 0.0000 0.0000 22.9845 0.0000
# 6 0.0000 0.0000 0.0000 0.0000 0.0000 -22.5184
#
#
#
# Elastic Compliance Matrix: (Units=1/GPa)
#
#
# Indices 1 2 3 4 5 6 
#
# 1 0.011421 -0.002267 -0.002542 0.000000 0.000000 0.000000
# 2 -0.002267 0.008710 -0.001737 0.000000 0.000000 0.000000
# 3 -0.002542 -0.001737 0.007944 0.000000 0.000000 0.000000
# 4 0.000000 0.000000 0.000000 0.042462 0.000000 0.000000
# 5 0.000000 0.000000 0.000000 0.000000 0.043507 0.000000
# 6 0.000000 0.000000 0.000000 0.000000 0.000000 -0.044408
#
#
# Mechanical properties :
#
#
# Convention : Reuss Voigt Hill
#
# Bulk Modulus (GPa) = 66.74244 68.37146 67.55695
# Shear Modulus (GPa) = 56.99775 22.61927 39.80851
#
# Velocity S-wave (km/s) = 5.41729 3.41266 4.52732
# Velocity P-wave (km/s) = 8.57285 7.12260 7.88116
#
# Compressibility (1/GPa) = 0.01498297
#
# Stress axis : x y z
#
# Youngs Moduli (GPa) = 87.55767 114.80801 125.88351
#
# Poissons Ratio (x) = 0.26026 0.31997
# Poissons Ratio (y) = 0.19848 0.21871
# Poissons Ratio (z) = 0.22255 0.19947
#
# Static dielectric constant tensor:
#      x y z
#    x 2.653000 0.000000 0.000000 
#    y 0.000000 1.607960 0.000000 
#    z 0.000000 0.000000 1.643800 
# 
# From -- ./inp_files/9562.got.cif
#   From: 2010.05.17/outbox.cif.g08.bks.cpg/sg50_5_cif.got.tgz:9562.got - 2010.06.03 11:33:33.
