data_PCOD9398604
_publ_section_title
;
Structure prediction by ZEFSAII (Michael W. Deem and Ramdas Pophale) SiO2 
 PCOD9398604
Probable space group: P M M A
;
_chemical_formula_sum "Si O2"
_cell_formula_units_Z 48
_cell_length_a 18.639805
_cell_length_b 14.655732
_cell_length_c 10.025847
_cell_angle_alpha 90.000000
_cell_angle_beta 90.000000
_cell_angle_gamma 90.000000
_cell_volume 2738.860749
_symmetry_space_group_name_H-M "P M M A"
_symmetry_group_IT_number 51
_symmetry_cell_setting 'orthorhombic'
loop_
_space_group_symop_operation_xyz
x,y,z
1/2-x,-y,z
1/2+x,-y,-z
-x,y,-z
-x,-y,-z
1/2+x,y,-z
1/2-x,y,z
x,-y,z
loop_
_atom_site_type_symbol
_atom_site_label
_atom_site_fract_x
_atom_site_fract_y
_atom_site_fract_z
Si Si1 0.956041 0.393575 0.361997
Si Si2 0.166937 0.252623 0.270432
Si Si3 0.835558 0.895958 0.200004
Si Si4 0.834452 0.250083 0.416513
Si Si5 0.581067 0.787770 0.976042
Si Si6 0.080198 0.605590 0.144691
O O1 0.934569 0.500000 0.359958
O O2 0.888256 0.327026 0.362606
O O3 0.000000 0.378357 0.500000
O O4 0.010886 0.378578 0.239173
O O5 0.250000 0.234306 0.239634
O O6 0.154009 0.237823 0.425763
O O7 0.114380 0.196964 0.171632
O O8 0.146554 0.357493 0.233937
O O9 0.750000 0.897765 0.180725
O O10 0.849326 0.843132 0.337687
O O11 0.861954 0.000000 0.199307
O O12 0.870194 0.835707 0.084226
O O13 0.750000 0.273562 0.396767
O O14 0.581154 0.676611 0.977683
O O15 0.500000 0.818200 0.000000
O O16 0.084076 0.500000 0.108760
#
# Coordination Sequence:
#
# PCOD9398604 Si02
#       6
#     8   8   8   8   8   8
#     4  10  17  30  51  80 115 151 185 220 272 331
#     4   9  19  34  54  82 112 145 186 230 277 327
#     4  10  22  40  60  81 109 147 187 234 297 352
#     4  10  20  35  57  82 113 150 191 240 285 335
#     4  10  20  36  58  83 110 151 188 233 279 337
#     4   9  19  32  53  83 113 151 187 225 272 326
#
# _framework density 17.525535000000001
#
# number of rings (size 3 to 8) (size 9 to 14) (size 15 to 20)
#    1.000    1.333    1.667    1.500    0.000    1.333 
#    0.000    3.333    0.000    7.500    0.000    0.000 
#    0.000    0.000    0.000    0.000    0.000    0.000 
#
# Total GULP energy -267219.203454 kJ/mol
# GULP energy per Si atom -5567.066739 kJ/mol
# Density = 1.748565 g / cm^3
# Si number density = 17.525535 Si / 1000 Ang^3
#
#
#
# Elastic Constant Matrix: (Units=GPa)
#
#
# Indices 1 2 3 4 5 6 
#
# 1 65.2453 54.0741 43.3928 0.0000 0.0000 0.0000
# 2 54.0741 108.9218 62.8924 0.0000 0.0000 0.0000
# 3 43.3928 62.8924 55.3518 0.0000 0.0000 0.0000
# 4 0.0000 0.0000 0.0000 6.2509 0.0000 0.0000
# 5 0.0000 0.0000 0.0000 0.0000 27.5771 0.0000
# 6 0.0000 0.0000 0.0000 0.0000 0.0000 13.7199
#
#
#
# Elastic Compliance Matrix: (Units=1/GPa)
#
#
# Indices 1 2 3 4 5 6 
#
# 1 0.032658 -0.004158 -0.020877 0.000000 0.000000 0.000000
# 2 -0.004158 0.027223 -0.027672 0.000000 0.000000 0.000000
# 3 -0.020877 -0.027672 0.065875 0.000000 0.000000 0.000000
# 4 0.000000 0.000000 0.000000 0.159976 0.000000 0.000000
# 5 0.000000 0.000000 0.000000 0.000000 0.036262 0.000000
# 6 0.000000 0.000000 0.000000 0.000000 0.000000 0.072887
#
#
# Mechanical properties :
#
#
# Convention : Reuss Voigt Hill
#
# Bulk Modulus (GPa) = 49.16244 61.13751 55.14998
# Shear Modulus (GPa) = 9.86042 14.12024 11.99033
#
# Velocity S-wave (km/s) = 2.37456 2.84156 2.61849
# Velocity P-wave (km/s) = 5.96916 6.76214 6.37798
#
# Compressibility (1/GPa) = 0.02034073
#
# Stress axis : x y z
#
# Youngs Moduli (GPa) = 30.62034 36.73301 15.18021
#
# Poissons Ratio (x) = 0.15274 0.31692
# Poissons Ratio (y) = 0.12733 0.42007
# Poissons Ratio (z) = 0.63927 1.01649
#
# Static dielectric constant tensor:
#      x y z
#    x 1.605300 0.000000 0.000000 
#    y 0.000000 1.587780 0.000000 
#    z 0.000000 0.000000 1.610240 
# 
# From -- ./inp_files/16388.got.cif
#   From: 2010.05.17/outbox.cif.g08.bks.cpg/sg51_9_cif.got.tgz:16388.got - 2010.06.03 11:52:47.
