data_PCOD9398453
_publ_section_title
;
Structure prediction by ZEFSAII (Michael W. Deem and Ramdas Pophale) SiO2 
 PCOD9398453
Probable space group: P M M A
;
_chemical_formula_sum "Si O2"
_cell_formula_units_Z 56
_cell_length_a 27.446842
_cell_length_b 7.587085
_cell_length_c 15.209412
_cell_angle_alpha 90.000000
_cell_angle_beta 90.000000
_cell_angle_gamma 90.000000
_cell_volume 3167.231122
_symmetry_space_group_name_H-M "P M M A"
_symmetry_group_IT_number 51
_symmetry_cell_setting 'orthorhombic'
loop_
_space_group_symop_operation_xyz
x,y,z
1/2-x,-y,z
1/2+x,-y,-z
-x,y,-z
-x,-y,-z
1/2+x,y,-z
1/2-x,y,z
x,-y,z
loop_
_atom_site_type_symbol
_atom_site_label
_atom_site_fract_x
_atom_site_fract_y
_atom_site_fract_z
Si Si1 0.118994 0.789211 0.754204
Si Si2 0.804838 0.289115 0.387532
Si Si3 0.964814 0.704121 0.382133
Si Si4 0.066438 0.711831 0.307527
Si Si5 0.611710 0.716016 0.519768
Si Si6 0.956045 0.210045 0.886495
Si Si7 0.566060 0.215232 0.078141
O O1 0.169253 0.744143 0.706088
O O2 0.076269 0.713036 0.692922
O O3 0.107439 0.728785 0.853202
O O4 0.114067 0.000000 0.751511
O O5 0.750000 0.219227 0.392552
O O6 0.802527 0.500000 0.398152
O O7 0.841783 0.223127 0.463495
O O8 0.975532 0.500000 0.402173
O O9 0.937104 0.775996 0.467792
O O10 0.014372 0.781703 0.343584
O O11 0.065047 0.500000 0.311221
O O12 0.106603 0.769204 0.378806
O O13 0.070311 0.754269 0.205067
O O14 0.612005 0.500000 0.515902
O O15 0.012530 0.271968 0.886458
O O16 0.959178 0.000000 0.894802
O O17 0.931436 0.274888 0.976877
O O18 0.566640 0.000000 0.077761
#
# Coordination Sequence:
#
# PCOD9398453 Si02
#       7
#     8   8   8   8   8   8   8
#     4  10  17  27  45  66  86 110 143 180 215 249
#     4   9  18  33  50  66  84 109 140 173 215 267
#     4   9  16  26  39  57  84 118 147 170 202 248
#     4  10  17  25  39  61  86 113 146 182 210 238
#     4   8  15  27  42  59  82 112 142 171 208 255
#     4   9  16  28  42  56  82 119 152 175 201 243
#     4   8  15  27  42  58  81 117 150 173 203 248
#
# _framework density 17.681059999999999
#
# number of rings (size 3 to 8) (size 9 to 14) (size 15 to 20)
#    0.000    3.000    1.429    2.571    0.000    2.000 
#    0.000    5.714    0.000    4.286    0.000    1.000 
#    0.000    3.429    0.000    0.000    0.000    0.000 
#
# Total GULP energy -311895.428009 kJ/mol
# GULP energy per Si atom -5569.561214 kJ/mol
# Density = 1.764082 g / cm^3
# Si number density = 17.681060 Si / 1000 Ang^3
#
#
#
# Elastic Constant Matrix: (Units=GPa)
#
#
# Indices 1 2 3 4 5 6 
#
# 1 74.3350 2.0912 59.9247 0.0000 0.0000 0.0000
# 2 2.0912 38.1985 0.0659 0.0000 0.0000 0.0000
# 3 59.9247 0.0659 169.8933 0.0000 0.0000 0.0000
# 4 0.0000 0.0000 0.0000 17.5171 0.0000 0.0000
# 5 0.0000 0.0000 0.0000 0.0000 12.0070 0.0000
# 6 0.0000 0.0000 0.0000 0.0000 0.0000 7.9129
#
#
#
# Elastic Compliance Matrix: (Units=1/GPa)
#
#
# Indices 1 2 3 4 5 6 
#
# 1 0.018837 -0.001020 -0.006644 0.000000 0.000000 0.000000
# 2 -0.001020 0.026234 0.000350 0.000000 0.000000 0.000000
# 3 -0.006644 0.000350 0.008229 0.000000 0.000000 0.000000
# 4 0.000000 0.000000 0.000000 0.057087 0.000000 0.000000
# 5 0.000000 0.000000 0.000000 0.000000 0.083285 0.000000
# 6 0.000000 0.000000 0.000000 0.000000 0.000000 0.126376
#
#
# Mechanical properties :
#
#
# Convention : Reuss Voigt Hill
#
# Bulk Modulus (GPa) = 25.85813 45.17670 35.51741
# Shear Modulus (GPa) = 14.38568 22.17708 18.28138
#
# Velocity S-wave (km/s) = 2.85550 3.54543 3.21900
# Velocity P-wave (km/s) = 5.05256 6.50895 5.82644
#
# Compressibility (1/GPa) = 0.03867256
#
# Stress axis : x y z
#
# Youngs Moduli (GPa) = 53.08648 38.11811 121.51661
#
# Poissons Ratio (x) = 0.03887 0.80734
# Poissons Ratio (y) = 0.05414 -0.04247
# Poissons Ratio (z) = 0.35270 -0.01332
#
# Static dielectric constant tensor:
#      x y z
#    x 1.587330 0.000000 0.000000 
#    y 0.000000 1.680270 0.000000 
#    z 0.000000 0.000000 1.651790 
# 
# From -- ./inp_files/26496.got.cif
#   From: 2010.05.17/outbox.cif.g08.bks.cpg/sg51_14_cif.got.tgz:26496.got - 2010.06.03 11:52:47.
