data_PCOD9398228
_publ_section_title
;
Structure prediction by ZEFSAII (Michael W. Deem and Ramdas Pophale) SiO2 
 PCOD9398228
Probable space group: P B A N
;
_chemical_formula_sum "Si O2"
_cell_formula_units_Z 22
_cell_length_a 5.135446
_cell_length_b 32.372710
_cell_length_c 5.463666
_cell_angle_alpha 90.000000
_cell_angle_beta 90.000000
_cell_angle_gamma 90.000000
_cell_volume 908.325207
_symmetry_space_group_name_H-M "P B A N"
_symmetry_group_IT_number 50
_space_group.IT_coordinate_system_code '2'
_symmetry_cell_setting 'orthorhombic'
loop_
_space_group_symop_operation_xyz
x,y,z
1/2-x,1/2-y,z
x,1/2-y,-z
1/2-x,y,-z
-x,-y,-z
1/2+x,1/2+y,-z
-x,1/2+y,z
1/2+x,-y,z
loop_
_atom_site_type_symbol
_atom_site_label
_atom_site_fract_x
_atom_site_fract_y
_atom_site_fract_z
Si Si1 0.250000 0.250000 0.000000
Si Si2 0.909924 0.088655 0.752023
Si Si3 0.003036 0.683593 0.665799
Si Si4 0.250000 0.030029 0.000000
O O1 0.061818 0.219462 0.852955
O O2 0.750000 0.080870 0.500000
O O3 0.962641 0.137563 0.769301
O O4 0.750000 0.078955 0.000000
O O5 0.172313 0.061503 0.780078
O O6 0.750000 0.681100 0.500000
O O7 0.250000 0.693419 0.500000
O O8 0.500000 0.000000 0.000000
#
# Coordination Sequence:
#
# PCOD9398228 Si02
#       4
#     2   8   8   4
#     4  12  28  50  80 112 168 198 278 338 424 454
#     4  11  28  53  82 113 160 213 268 321 399 485
#     4  11  29  50  77 113 153 212 267 327 399 482
#     4  12  27  50  82 123 160 203 262 332 407 472
#
# _framework density 24.220399
#
# number of rings (size 3 to 8) (size 9 to 14) (size 15 to 20)
#    0.000    0.727    1.818    1.636   20.364    5.818 
#    0.000    0.000    0.000    0.000    0.000    0.000 
#    0.000    0.000    0.000    0.000    0.000    0.000 
#
# Total GULP energy -123139.235915 kJ/mol
# GULP energy per Si atom -5597.237996 kJ/mol
# Density = 2.416527 g / cm^3
# Si number density = 24.220399 Si / 1000 Ang^3
#
#
#
# Elastic Constant Matrix: (Units=GPa)
#
#
# Indices 1 2 3 4 5 6 
#
# 1 201.0242 96.7894 86.4922 0.0000 0.0000 0.0000
# 2 96.7894 229.6996 102.0338 0.0000 0.0000 0.0000
# 3 86.4922 102.0338 149.3860 0.0000 0.0000 0.0000
# 4 0.0000 0.0000 0.0000-1372.4846 0.0000 0.0000
# 5 0.0000 0.0000 0.0000 0.0000 -4.4625 0.0000
# 6 0.0000 0.0000 0.0000 0.0000 0.0000 63.8651
#
#
#
# Elastic Compliance Matrix: (Units=1/GPa)
#
#
# Indices 1 2 3 4 5 6 
#
# 1 0.007039 -0.001659 -0.002942 0.000000 0.000000 0.000000
# 2 -0.001659 0.006641 -0.003575 0.000000 0.000000 0.000000
# 3 -0.002942 -0.003575 0.010840 0.000000 0.000000 0.000000
# 4 0.000000 0.000000 0.000000 -0.000729 0.000000 0.000000
# 5 0.000000 0.000000 0.000000 0.000000 -0.224091 0.000000
# 6 0.000000 0.000000 0.000000 0.000000 0.000000 0.015658
#
#
# Mechanical properties :
#
#
# Convention : Reuss Voigt Hill
#
# Bulk Modulus (GPa) = 122.45565 127.86004 125.15785
# Shear Modulus (GPa) = -30.19947 -242.96345 -136.58146
#
# Velocity S-wave (km/s) = -3.53492 -10.02653 -7.51755
# Velocity P-wave (km/s) = 5.83162 9.00760 4.85434
#
# Compressibility (1/GPa) = 0.00816622
#
# Stress axis : x y z
#
# Youngs Moduli (GPa) = 142.05765 150.58579 92.25437
#
# Poissons Ratio (x) = 0.24985 0.27145
# Poissons Ratio (y) = 0.23570 0.32982
# Poissons Ratio (z) = 0.41800 0.53836
#
# Static dielectric constant tensor:
#      x y z
#    x 1.981420 0.000000 0.000000 
#    y 0.000000 2.119430 0.000000 
#    z 0.000000 0.000000 1.949010 
# 
# From -- ./inp_files/449.got.cif
#   From: 2010.05.17/outbox.cif.g08.bks.cpg/sg50_1_cif.got.tgz:449.got - 2010.06.03 11:33:33.
