data_PCOD9398406
_publ_section_title
;
Structure prediction by ZEFSAII (Michael W. Deem and Ramdas Pophale) SiO2 
 PCOD9398406
Probable space group: P M M A
;
_chemical_formula_sum "Si O2"
_cell_formula_units_Z 56
_cell_length_a 16.909765
_cell_length_b 13.105195
_cell_length_c 16.950371
_cell_angle_alpha 90.000000
_cell_angle_beta 90.000000
_cell_angle_gamma 90.000000
_cell_volume 3756.299979
_symmetry_space_group_name_H-M "P M M A"
_symmetry_group_IT_number 51
_symmetry_cell_setting 'orthorhombic'
loop_
_space_group_symop_operation_xyz
x,y,z
1/2-x,-y,z
1/2+x,-y,-z
-x,y,-z
-x,-y,-z
1/2+x,y,-z
1/2-x,y,z
x,-y,z
loop_
_atom_site_type_symbol
_atom_site_label
_atom_site_fract_x
_atom_site_fract_y
_atom_site_fract_z
Si Si1 0.658935 0.763366 0.866279
Si Si2 0.583037 0.308090 0.166046
Si Si3 0.404778 0.383934 0.999938
Si Si4 0.661392 0.620833 0.315032
Si Si5 0.994484 0.882521 0.904797
Si Si6 0.075862 0.620121 0.251662
Si Si7 0.507804 0.376936 0.411253
O O1 0.750000 0.795664 0.866653
O O2 0.593341 0.851788 0.875273
O O3 0.638617 0.693760 0.790023
O O4 0.639325 0.690910 0.941104
O O5 0.617778 0.365150 0.090347
O O6 0.643526 0.313248 0.237718
O O7 0.553554 0.197726 0.136473
O O8 0.504316 0.364961 0.199481
O O9 0.391089 0.500000 0.024552
O O10 0.500000 0.366076 0.000000
O O11 0.750000 0.634954 0.343954
O O12 0.651394 0.500000 0.294480
O O13 0.594975 0.645952 0.378737
O O14 0.012179 0.000000 0.886529
O O15 0.000000 0.870286 0.000000
O O16 0.097019 0.500000 0.250430
O O17 0.052579 0.652637 0.340942
O O18 0.500000 0.336743 0.500000
O O19 0.500384 0.500000 0.414870
#
# Coordination Sequence:
#
# PCOD9398406 Si02
#       7
#     8   8   8   8   8   8   8
#     4  11  21  31  42  63  91 116 146 186 227 263
#     4  10  16  29  45  64  82 115 151 186 221 264
#     4  11  18  27  43  62  86 120 155 183 212 253
#     4   9  17  27  42  67  98 124 146 182 228 264
#     4  10  19  35  52  62  76 109 156 197 231 267
#     4   9  16  27  43  62  88 120 150 179 215 259
#     4   8  14  26  44  63  86 123 164 186 202 246
#
# _framework density 14.908287
#
# number of rings (size 3 to 8) (size 9 to 14) (size 15 to 20)
#    0.000    2.286    4.286    2.571    0.000    2.000 
#    0.000    0.714    0.000    3.000    0.000    0.000 
#    0.000   46.286    0.000    5.143    0.000    0.000 
#
# Total GULP energy -311911.054295 kJ/mol
# GULP energy per Si atom -5569.840255 kJ/mol
# Density = 1.487435 g / cm^3
# Si number density = 14.908287 Si / 1000 Ang^3
#
#
#
# Elastic Constant Matrix: (Units=GPa)
#
#
# Indices 1 2 3 4 5 6 
#
# 1 50.1910 6.0170 19.8113 0.0000 0.0000 0.0000
# 2 6.0170 53.0507 10.4939 0.0000 0.0000 0.0000
# 3 19.8113 10.4939 104.1060 0.0000 0.0000 0.0000
# 4 0.0000 0.0000 0.0000 6.1412 0.0000 0.0000
# 5 0.0000 0.0000 0.0000 0.0000 9.5604 0.0000
# 6 0.0000 0.0000 0.0000 0.0000 0.0000 6.2330
#
#
#
# Elastic Compliance Matrix: (Units=1/GPa)
#
#
# Indices 1 2 3 4 5 6 
#
# 1 0.021687 -0.001677 -0.003958 0.000000 0.000000 0.000000
# 2 -0.001677 0.019363 -0.001633 0.000000 0.000000 0.000000
# 3 -0.003958 -0.001633 0.010523 0.000000 0.000000 0.000000
# 4 0.000000 0.000000 0.000000 0.162835 0.000000 0.000000
# 5 0.000000 0.000000 0.000000 0.000000 0.104598 0.000000
# 6 0.000000 0.000000 0.000000 0.000000 0.000000 0.160436
#
#
# Mechanical properties :
#
#
# Convention : Reuss Voigt Hill
#
# Bulk Modulus (GPa) = 26.99892 31.11023 29.05457
# Shear Modulus (GPa) = 9.87509 15.78862 12.83186
#
# Velocity S-wave (km/s) = 2.57649 3.25784 2.93699
# Velocity P-wave (km/s) = 5.19619 5.92152 5.57067
#
# Compressibility (1/GPa) = 0.03703852
#
# Stress axis : x y z
#
# Youngs Moduli (GPa) = 46.11014 51.64476 95.02646
#
# Poissons Ratio (x) = 0.08660 0.37612
# Poissons Ratio (y) = 0.07732 0.15515
# Poissons Ratio (z) = 0.18251 0.08432
#
# Static dielectric constant tensor:
#      x y z
#    x 1.512040 0.000000 0.000000 
#    y 0.000000 1.480530 0.000000 
#    z 0.000000 0.000000 1.513880 
# 
# From -- ./inp_files/25269.got.cif
#   From: 2010.05.17/outbox.cif.g08.bks.cpg/sg51_13_cif.got.tgz:25269.got - 2010.06.03 11:52:47.
