data_PCOD9398422
_publ_section_title
;
Structure prediction by ZEFSAII (Michael W. Deem and Ramdas Pophale) SiO2 
 PCOD9398422
Probable space group: P M M A
;
_chemical_formula_sum "Si O2"
_cell_formula_units_Z 64
_cell_length_a 15.214079
_cell_length_b 18.683174
_cell_length_c 11.941167
_cell_angle_alpha 90.000000
_cell_angle_beta 90.000000
_cell_angle_gamma 90.000000
_cell_volume 3394.244302
_symmetry_space_group_name_H-M "P M M A"
_symmetry_group_IT_number 51
_symmetry_cell_setting 'orthorhombic'
loop_
_space_group_symop_operation_xyz
x,y,z
1/2-x,-y,z
1/2+x,-y,-z
-x,y,-z
-x,-y,-z
1/2+x,y,-z
1/2-x,y,z
x,-y,z
loop_
_atom_site_type_symbol
_atom_site_label
_atom_site_fract_x
_atom_site_fract_y
_atom_site_fract_z
Si Si1 0.144254 0.337977 0.697428
Si Si2 0.143649 0.580876 0.476130
Si Si3 0.596317 0.199086 0.015330
Si Si4 0.025923 0.352117 0.891240
Si Si5 0.849744 0.172545 0.258382
Si Si6 0.352031 0.330670 0.255351
Si Si7 0.652706 0.830011 0.761311
Si Si8 0.998328 0.085373 0.631981
O O1 0.250000 0.343723 0.709483
O O2 0.114504 0.370786 0.579993
O O3 0.093728 0.377646 0.797873
O O4 0.121811 0.253548 0.707631
O O5 0.250000 0.578217 0.484967
O O6 0.110275 0.500000 0.483033
O O7 0.126578 0.617045 0.357367
O O8 0.574898 0.281101 0.055677
O O9 0.644505 0.167822 0.123271
O O10 0.500000 0.165277 0.000000
O O11 0.640220 0.187827 0.894474
O O12 0.933349 0.336177 0.830039
O O13 0.000000 0.397616 0.000000
O O14 0.750000 0.163327 0.295146
O O15 0.913262 0.115872 0.313727
O O16 0.250000 0.344617 0.215500
O O17 0.351673 0.248400 0.294793
O O18 0.750000 0.860549 0.746003
O O19 0.579608 0.878432 0.703847
O O20 0.000000 0.104654 0.500000
O O21 0.992281 0.000000 0.640357
#
# Coordination Sequence:
#
# PCOD9398422 Si02
#       8
#     8   8   8   8   8   8   8   8
#     4   9  19  34  57  86 113 148 193 239 289 344
#     4   9  19  37  58  84 120 155 194 246 303 356
#     4  10  16  34  58  88 121 147 184 239 303 341
#     4  10  18  32  52  82 118 150 185 233 290 345
#     4  10  20  36  61  89 115 148 197 249 294 349
#     4  10  20  33  55  87 115 150 193 238 289 343
#     4  11  21  37  63  91 117 149 199 249 291 348
#     4  11  26  44  59  81 119 162 196 236 297 356
#
# _framework density 18.855449
#
# number of rings (size 3 to 8) (size 9 to 14) (size 15 to 20)
#    0.000    2.000    3.750    1.125    1.750    2.500 
#    0.000    3.750    0.000    3.000    0.000    3.500 
#    0.000    0.000    0.000    0.000    0.000    0.000 
#
# Total GULP energy -356446.052047 kJ/mol
# GULP energy per Si atom -5569.469563 kJ/mol
# Density = 1.881253 g / cm^3
# Si number density = 18.855449 Si / 1000 Ang^3
#
#
#
# Elastic Constant Matrix: (Units=GPa)
#
#
# Indices 1 2 3 4 5 6 
#
# 1 69.1593 24.4293 33.6005 0.0000 0.0000 0.0000
# 2 24.4293 50.2420 44.4757 0.0000 0.0000 0.0000
# 3 33.6005 44.4757 111.7035 0.0000 0.0000 0.0000
# 4 0.0000 0.0000 0.0000 -28.5852 0.0000 0.0000
# 5 0.0000 0.0000 0.0000 0.0000 19.3701 0.0000
# 6 0.0000 0.0000 0.0000 0.0000 0.0000 10.3389
#
#
#
# Elastic Compliance Matrix: (Units=1/GPa)
#
#
# Indices 1 2 3 4 5 6 
#
# 1 0.018084 -0.006143 -0.002994 0.000000 0.000000 0.000000
# 2 -0.006143 0.032824 -0.011221 0.000000 0.000000 0.000000
# 3 -0.002994 -0.011221 0.014321 0.000000 0.000000 0.000000
# 4 0.000000 0.000000 0.000000 -0.034983 0.000000 0.000000
# 5 0.000000 0.000000 0.000000 0.000000 0.051626 0.000000
# 6 0.000000 0.000000 0.000000 0.000000 0.000000 0.096722
#
#
# Mechanical properties :
#
#
# Convention : Reuss Voigt Hill
#
# Bulk Modulus (GPa) = 40.79541 48.45731 44.62636
# Shear Modulus (GPa) = 21.97994 8.79806 15.38900
#
# Velocity S-wave (km/s) = 3.41795 2.16245 2.85994
# Velocity P-wave (km/s) = 6.10404 5.65598 5.88428
#
# Compressibility (1/GPa) = 0.02451256
#
# Stress axis : x y z
#
# Youngs Moduli (GPa) = 55.29853 30.46557 69.82888
#
# Poissons Ratio (x) = 0.18714 0.20906
# Poissons Ratio (y) = 0.33968 0.78358
# Poissons Ratio (z) = 0.16556 0.34187
#
# Static dielectric constant tensor:
#      x y z
#    x 1.680030 0.000000 0.000000 
#    y 0.000000 1.645380 0.000000 
#    z 0.000000 0.000000 1.700110 
# 
# From -- ./inp_files/16886.got.cif
#   From: 2010.05.17/outbox.cif.g08.bks.cpg/sg51_9_cif.got.tgz:16886.got - 2010.06.03 11:52:47.
