data_PCOD9398586
_publ_section_title
;
Structure prediction by ZEFSAII (Michael W. Deem and Ramdas Pophale) SiO2 
 PCOD9398586
Probable space group: P M M A
;
_chemical_formula_sum "Si O2"
_cell_formula_units_Z 64
_cell_length_a 19.493863
_cell_length_b 8.770804
_cell_length_c 22.198819
_cell_angle_alpha 90.000000
_cell_angle_beta 90.000000
_cell_angle_gamma 90.000000
_cell_volume 3795.484181
_symmetry_space_group_name_H-M "P M M A"
_symmetry_group_IT_number 51
_symmetry_cell_setting 'orthorhombic'
loop_
_space_group_symop_operation_xyz
x,y,z
1/2-x,-y,z
1/2+x,-y,-z
-x,y,-z
-x,-y,-z
1/2+x,y,-z
1/2-x,y,z
x,-y,z
loop_
_atom_site_type_symbol
_atom_site_label
_atom_site_fract_x
_atom_site_fract_y
_atom_site_fract_z
Si Si1 0.633192 0.825492 0.269906
Si Si2 0.024874 0.825580 0.315817
Si Si3 0.078343 0.315955 0.982425
Si Si4 0.323985 0.317475 0.609365
Si Si5 0.328253 0.685724 0.095158
Si Si6 0.922111 0.816624 0.147087
Si Si7 0.527890 0.315613 0.434981
Si Si8 0.434823 0.317143 0.195481
O O1 0.553175 0.826285 0.290072
O O2 0.669756 0.726086 0.320295
O O3 0.630314 0.771896 0.200810
O O4 0.658303 0.000000 0.272672
O O5 0.067500 0.741821 0.263881
O O6 0.018529 0.744959 0.380203
O O7 0.047036 0.000000 0.322355
O O8 0.080825 0.500000 0.976793
O O9 0.096761 0.242255 0.918690
O O10 0.128964 0.268245 0.036089
O O11 0.000000 0.275495 0.000000
O O12 0.250000 0.260440 0.586581
O O13 0.324365 0.500000 0.603953
O O14 0.393615 0.261919 0.577109
O O15 0.250000 0.739357 0.094596
O O16 0.327282 0.500000 0.094737
O O17 0.370693 0.730819 0.154456
O O18 0.996316 0.747728 0.164325
O O19 0.926829 0.000000 0.148476
O O20 0.500000 0.267816 0.500000
O O21 0.527709 0.500000 0.432649
O O22 0.439595 0.500000 0.195367
#
# Coordination Sequence:
#
# PCOD9398586 Si02
#       8
#     8   8   8   8   8   8   8   8
#     4   8  16  29  43  63  91 121 152 186 228 281
#     4   9  17  29  46  71  99 123 152 192 238 280
#     4  10  18  31  49  71  93 121 163 203 241 290
#     4   9  17  29  46  69  95 122 156 199 241 278
#     4   9  18  32  49  69  94 122 156 202 252 298
#     4  10  19  30  46  70  96 121 154 197 243 284
#     4   9  17  30  49  73 100 131 166 199 232 276
#     4  10  17  29  50  72  93 119 156 199 242 286
#
# _framework density 16.862144000000001
#
# number of rings (size 3 to 8) (size 9 to 14) (size 15 to 20)
#    0.000    2.750    1.250    1.875    0.000    4.250 
#    0.000    0.625    0.000    6.375    0.000    3.500 
#    0.000    0.000    0.000    0.000    0.000    0.000 
#
# Total GULP energy -356504.496990 kJ/mol
# GULP energy per Si atom -5570.382765 kJ/mol
# Density = 1.682377 g / cm^3
# Si number density = 16.862144 Si / 1000 Ang^3
#
#
#
# Elastic Constant Matrix: (Units=GPa)
#
#
# Indices 1 2 3 4 5 6 
#
# 1 91.9890 18.8316 62.3405 0.0000 0.0000 0.0000
# 2 18.8316 24.0141 29.5067 0.0000 0.0000 0.0000
# 3 62.3405 29.5067 160.8043 0.0000 0.0000 0.0000
# 4 0.0000 0.0000 0.0000 12.7147 0.0000 0.0000
# 5 0.0000 0.0000 0.0000 0.0000 13.8608 0.0000
# 6 0.0000 0.0000 0.0000 0.0000 0.0000 0.9008
#
#
#
# Elastic Compliance Matrix: (Units=1/GPa)
#
#
# Indices 1 2 3 4 5 6 
#
# 1 0.015412 -0.006126 -0.004851 0.000000 0.000000 0.000000
# 2 -0.006126 0.056199 -0.007937 0.000000 0.000000 0.000000
# 3 -0.004851 -0.007937 0.009556 0.000000 0.000000 0.000000
# 4 0.000000 0.000000 0.000000 0.078649 0.000000 0.000000
# 5 0.000000 0.000000 0.000000 0.000000 0.072146 0.000000
# 6 0.000000 0.000000 0.000000 0.000000 0.000000 1.110065
#
#
# Mechanical properties :
#
#
# Convention : Reuss Voigt Hill
#
# Bulk Modulus (GPa) = 23.07397 55.35167 39.21282
# Shear Modulus (GPa) = 3.58602 16.57050 10.07826
#
# Velocity S-wave (km/s) = 1.45989 3.13821 2.44741
# Velocity P-wave (km/s) = 4.06882 6.78443 5.59391
#
# Compressibility (1/GPa) = 0.04333889
#
# Stress axis : x y z
#
# Youngs Moduli (GPa) = 64.88270 17.79396 104.64794
#
# Poissons Ratio (x) = 0.10900 0.50765
# Poissons Ratio (y) = 0.39745 0.83063
# Poissons Ratio (z) = 0.31475 0.14124
#
# Static dielectric constant tensor:
#      x y z
#    x 1.577490 0.000000 0.000000 
#    y 0.000000 1.569330 0.000000 
#    z 0.000000 0.000000 1.569580 
# 
# From -- ./inp_files/34121.got.cif
#   From: 2010.05.17/outbox.cif.g08.bks.cpg/sg51_18_cif.got.tgz:34121.got - 2010.06.03 11:52:47.
