data_PCOD9398030
_publ_section_title
;
Structure prediction by ZEFSAII (Michael W. Deem and Ramdas Pophale) SiO2 
 PCOD9398030
Probable space group: P B A N
;
_chemical_formula_sum "Si O2"
_cell_formula_units_Z 40
_cell_length_a 14.320832
_cell_length_b 8.735251
_cell_length_c 12.863244
_cell_angle_alpha 90.000000
_cell_angle_beta 90.000000
_cell_angle_gamma 90.000000
_cell_volume 1609.141170
_symmetry_space_group_name_H-M "P B A N"
_symmetry_group_IT_number 50
_space_group.IT_coordinate_system_code '2'
_symmetry_cell_setting 'orthorhombic'
loop_
_space_group_symop_operation_xyz
x,y,z
1/2-x,1/2-y,z
x,1/2-y,-z
1/2-x,y,-z
-x,-y,-z
1/2+x,1/2+y,-z
-x,1/2+y,z
1/2+x,-y,z
loop_
_atom_site_type_symbol
_atom_site_label
_atom_site_fract_x
_atom_site_fract_y
_atom_site_fract_z
Si Si1 0.026388 0.731825 0.698931
Si Si2 0.564559 0.389984 0.925685
Si Si3 0.744325 0.575898 0.877301
Si Si4 0.706070 0.096652 0.385059
Si Si5 0.633040 0.955754 0.710701
O O1 0.020352 0.688067 0.822122
O O2 0.097580 0.621835 0.634277
O O3 0.920829 0.691981 0.669648
O O4 0.066563 0.900791 0.681277
O O5 0.648036 0.483915 0.868647
O O6 0.596490 0.250000 0.000000
O O7 0.500000 0.500000 0.000000
O O8 0.750000 0.750000 0.839528
O O9 0.839776 0.509776 0.830431
O O10 0.750000 0.582089 0.000000
O O11 0.750000 0.250000 0.332497
O O12 0.750000 0.095999 0.500000
O O13 0.761391 0.961266 0.331636
#
# Coordination Sequence:
#
# PCOD9398030 Si02
#       5
#     8   8   8   8   8
#     4  11  23  41  66  98 132 180 223 284 346 410
#     4  12  26  42  68 100 139 184 235 284 343 421
#     4  11  25  42  64  96 138 185 228 282 338 406
#     4   9  20  42  69  97 132 175 230 292 356 416
#     4  11  24  42  68  97 137 174 231 283 346 414
#
# _framework density 24.857980999999999
#
# number of rings (size 3 to 8) (size 9 to 14) (size 15 to 20)
#    0.000    1.200    2.000    3.600    8.400    2.800 
#    0.000    0.000    0.000    4.200    0.000    0.000 
#    0.000    0.000    0.000    0.000    0.000    0.000 
#
# Total GULP energy -222821.274434 kJ/mol
# GULP energy per Si atom -5570.531861 kJ/mol
# Density = 2.480140 g / cm^3
# Si number density = 24.857981 Si / 1000 Ang^3
#
#
#
# Elastic Constant Matrix: (Units=GPa)
#
#
# Indices 1 2 3 4 5 6 
#
# 1 130.4318 37.3754 4.7555 0.0000 0.0000 0.0000
# 2 37.3754 80.9408 3.9457 0.0000 0.0000 0.0000
# 3 4.7555 3.9457 57.9398 0.0000 0.0000 0.0000
# 4 0.0000 0.0000 0.0000 -35.4044 0.0000 0.0000
# 5 0.0000 0.0000 0.0000 0.0000 20.4522 0.0000
# 6 0.0000 0.0000 0.0000 0.0000 0.0000 30.2740
#
#
#
# Elastic Compliance Matrix: (Units=1/GPa)
#
#
# Indices 1 2 3 4 5 6 
#
# 1 0.008848 -0.004064 -0.000449 0.000000 0.000000 0.000000
# 2 -0.004064 0.014262 -0.000638 0.000000 0.000000 0.000000
# 3 -0.000449 -0.000638 0.017340 0.000000 0.000000 0.000000
# 4 0.000000 0.000000 0.000000 -0.028245 0.000000 0.000000
# 5 0.000000 0.000000 0.000000 0.000000 0.048895 0.000000
# 6 0.000000 0.000000 0.000000 0.000000 0.000000 0.033032
#
#
# Mechanical properties :
#
#
# Convention : Reuss Voigt Hill
#
# Bulk Modulus (GPa) = 33.16980 40.16284 36.66632
# Shear Modulus (GPa) = 43.67518 17.94675 30.81097
#
# Velocity S-wave (km/s) = 4.19619 2.68987 3.52444
# Velocity P-wave (km/s) = 6.07042 5.08322 5.59863
#
# Compressibility (1/GPa) = 0.03014791
#
# Stress axis : x y z
#
# Youngs Moduli (GPa) = 113.02426 70.11535 57.67143
#
# Poissons Ratio (x) = 0.28492 0.02592
# Poissons Ratio (y) = 0.45929 0.03678
# Poissons Ratio (z) = 0.05080 0.04471
#
# Static dielectric constant tensor:
#      x y z
#    x 17.687570 0.000000 0.000000 
#    y 0.000000 2.201480 0.000000 
#    z 0.000000 0.000000 1.785680 
# 
# From -- ./inp_files/26299.got.cif
#   From: 2010.05.17/outbox.cif.g08.bks.cpg/sg50_14_cif.got.tgz:26299.got - 2010.06.03 11:33:33.
