data_PCOD9398585
_publ_section_title
;
Structure prediction by ZEFSAII (Michael W. Deem and Ramdas Pophale) SiO2 
 PCOD9398585
Probable space group: P M M A
;
_chemical_formula_sum "Si O2"
_cell_formula_units_Z 64
_cell_length_a 20.528492
_cell_length_b 8.739786
_cell_length_c 20.406260
_cell_angle_alpha 90.000000
_cell_angle_beta 90.000000
_cell_angle_gamma 90.000000
_cell_volume 3661.181526
_symmetry_space_group_name_H-M "P M M A"
_symmetry_group_IT_number 51
_symmetry_cell_setting 'orthorhombic'
loop_
_space_group_symop_operation_xyz
x,y,z
1/2-x,-y,z
1/2+x,-y,-z
-x,y,-z
-x,-y,-z
1/2+x,y,-z
1/2-x,y,z
x,-y,z
loop_
_atom_site_type_symbol
_atom_site_label
_atom_site_fract_x
_atom_site_fract_y
_atom_site_fract_z
Si Si1 0.324597 0.683305 0.961134
Si Si2 0.969576 0.182749 0.655590
Si Si3 0.915645 0.185038 0.150741
Si Si4 0.442575 0.813629 0.196725
Si Si5 0.177153 0.183194 0.730482
Si Si6 0.324182 0.184878 0.105928
Si Si7 0.608412 0.316673 0.388438
Si Si8 0.925390 0.678095 0.527044
O O1 0.250000 0.729434 0.942684
O O2 0.327359 0.500000 0.961125
O O3 0.377471 0.748823 0.911109
O O4 0.336259 0.745558 0.034254
O O5 0.945844 0.234450 0.727242
O O6 0.924148 0.231694 0.594875
O O7 0.040439 0.252658 0.640163
O O8 0.976165 0.000000 0.656632
O O9 0.875615 0.231557 0.215733
O O10 0.990557 0.232866 0.160406
O O11 0.913949 0.000000 0.146905
O O12 0.378739 0.763571 0.157430
O O13 0.442231 0.000000 0.197182
O O14 0.250000 0.218627 0.753741
O O15 0.162944 0.260043 0.661110
O O16 0.171460 0.000000 0.722805
O O17 0.250000 0.224847 0.125385
O O18 0.327622 0.000000 0.100746
O O19 0.604618 0.500000 0.389476
O O20 0.615288 0.265722 0.464203
O O21 0.910900 0.500000 0.539909
O O22 0.000000 0.685290 0.500000
#
# Coordination Sequence:
#
# PCOD9398585 Si02
#       8
#     8   8   8   8   8   8   8   8
#     4  10  21  36  52  73 103 134 167 209 249 291
#     4  10  17  29  49  73 100 129 164 208 256 297
#     4  10  19  34  53  73 101 134 168 206 251 303
#     4   9  18  32  52  78 105 130 162 209 257 301
#     4  10  20  33  50  72  99 134 174 213 253 301
#     4   9  18  35  58  78  96 127 169 205 246 305
#     4  10  19  31  47  68  99 134 169 209 252 299
#     4   8  16  29  44  67  97 128 163 202 245 295
#
# _framework density 17.480696999999999
#
# number of rings (size 3 to 8) (size 9 to 14) (size 15 to 20)
#    0.000    2.500    1.250    2.250    0.000    5.250 
#    0.000    4.375    0.000    0.750    0.000    1.750 
#    0.000    0.000    0.000    0.000    0.000    0.000 
#
# Total GULP energy -356782.150507 kJ/mol
# GULP energy per Si atom -5574.721102 kJ/mol
# Density = 1.744091 g / cm^3
# Si number density = 17.480697 Si / 1000 Ang^3
#
#
#
# Elastic Constant Matrix: (Units=GPa)
#
#
# Indices 1 2 3 4 5 6 
#
# 1 98.1498 24.6094 78.0601 0.0000 0.0000 0.0000
# 2 24.6094 15.6515 25.1238 0.0000 0.0000 0.0000
# 3 78.0601 25.1238 130.9297 0.0000 0.0000 0.0000
# 4 0.0000 0.0000 0.0000 -738.8949 0.0000 0.0000
# 5 0.0000 0.0000 0.0000 0.0000 22.7341 0.0000
# 6 0.0000 0.0000 0.0000 0.0000 0.0000 13.5820
#
#
#
# Elastic Compliance Matrix: (Units=1/GPa)
#
#
# Indices 1 2 3 4 5 6 
#
# 1 0.023231 -0.020657 -0.009886 0.000000 0.000000 0.000000
# 2 -0.020657 0.110699 -0.008926 0.000000 0.000000 0.000000
# 3 -0.009886 -0.008926 0.015245 0.000000 0.000000 0.000000
# 4 0.000000 0.000000 0.000000 -0.001353 0.000000 0.000000
# 5 0.000000 0.000000 0.000000 0.000000 0.043987 0.000000
# 6 0.000000 0.000000 0.000000 0.000000 0.000000 0.073627
#
#
# Mechanical properties :
#
#
# Convention : Reuss Voigt Hill
#
# Bulk Modulus (GPa) = 14.23771 55.59086 34.91428
# Shear Modulus (GPa) = 13.59487 -132.71993 -59.56253
#
# Velocity S-wave (km/s) = 2.79177 -8.72287 -5.84357
# Velocity P-wave (km/s) = 4.30749 8.34153 5.05107
#
# Compressibility (1/GPa) = 0.07023604
#
# Stress axis : x y z
#
# Youngs Moduli (GPa) = 43.04682 9.03347 65.59647
#
# Poissons Ratio (x) = 0.18660 0.64850
# Poissons Ratio (y) = 0.88921 0.58554
# Poissons Ratio (z) = 0.42557 0.08064
#
# Static dielectric constant tensor:
#      x y z
#    x 1.597350 0.000000 0.000000 
#    y 0.000000 1.589200 0.000000 
#    z 0.000000 0.000000 1.601360 
# 
# From -- ./inp_files/34181.got.cif
#   From: 2010.05.17/outbox.cif.g08.bks.cpg/sg51_18_cif.got.tgz:34181.got - 2010.06.03 11:52:47.
