data_PCOD9398202
_publ_section_title
;
Structure prediction by ZEFSAII (Michael W. Deem and Ramdas Pophale) SiO2 
 PCOD9398202
Probable space group: P B A N
;
_chemical_formula_sum "Si O2"
_cell_formula_units_Z 40
_cell_length_a 24.388400
_cell_length_b 9.168707
_cell_length_c 8.180654
_cell_angle_alpha 90.000000
_cell_angle_beta 90.000000
_cell_angle_gamma 90.000000
_cell_volume 1829.276808
_symmetry_space_group_name_H-M "P B A N"
_symmetry_group_IT_number 50
_space_group.IT_coordinate_system_code '2'
_symmetry_cell_setting 'orthorhombic'
loop_
_space_group_symop_operation_xyz
x,y,z
1/2-x,1/2-y,z
x,1/2-y,-z
1/2-x,y,-z
-x,-y,-z
1/2+x,1/2+y,-z
-x,1/2+y,z
1/2+x,-y,z
loop_
_atom_site_type_symbol
_atom_site_label
_atom_site_fract_x
_atom_site_fract_y
_atom_site_fract_z
Si Si1 0.157024 0.250000 0.000000
Si Si2 0.792708 0.464112 0.143613
Si Si3 0.071076 0.298975 0.248838
Si Si4 0.024126 0.575617 0.163995
Si Si5 0.341892 0.250000 0.500000
Si Si6 0.618988 0.250000 0.000000
Si Si7 0.750000 0.515052 0.500000
O O1 0.192041 0.364886 0.893457
O O2 0.113107 0.156937 0.896116
O O3 0.768331 0.443399 0.326886
O O4 0.750000 0.427729 0.000000
O O5 0.844095 0.360800 0.105796
O O6 0.040971 0.449718 0.291945
O O7 0.114505 0.216399 0.360855
O O8 0.023092 0.186736 0.213380
O O9 0.078356 0.664150 0.119527
O O10 0.000000 0.500000 0.000000
O O11 0.301996 0.382402 0.543897
#
# Coordination Sequence:
#
# PCOD9398202 Si02
#       7
#     4   8   8   8   4   4   4
#     4  12  20  40  74 102 134 186 246 298 352 440
#     4  12  26  45  74 107 144 195 248 301 372 438
#     4  12  23  41  69 104 139 185 238 295 362 432
#     4  12  22  40  71 106 136 187 241 295 360 445
#     4  11  26  44  66 104 144 182 243 304 354 426
#     4  12  24  44  70 108 150 187 237 304 372 434
#     4  11  26  46  73 106 146 189 251 302 356 439
#
# _framework density 21.866562999999999
#
# number of rings (size 3 to 8) (size 9 to 14) (size 15 to 20)
#    0.000    0.200    8.000    1.800    2.800    0.800 
#    0.000    2.000    0.000    0.000    0.000    0.000 
#    0.000    0.000    0.000    0.000    0.000    0.000 
#
# Total GULP energy -223086.470011 kJ/mol
# GULP energy per Si atom -5577.161750 kJ/mol
# Density = 2.181679 g / cm^3
# Si number density = 21.866563 Si / 1000 Ang^3
#
#
#
# Elastic Constant Matrix: (Units=GPa)
#
#
# Indices 1 2 3 4 5 6 
#
# 1 173.8158 68.1264 60.5041 0.0000 0.0000 0.0000
# 2 68.1264 105.3983 21.4108 0.0000 0.0000 0.0000
# 3 60.5041 21.4108 82.3230 0.0000 0.0000 0.0000
# 4 0.0000 0.0000 0.0000 -15.9592 0.0000 0.0000
# 5 0.0000 0.0000 0.0000 0.0000 15.3636 0.0000
# 6 0.0000 0.0000 0.0000 0.0000 0.0000 57.4005
#
#
#
# Elastic Compliance Matrix: (Units=1/GPa)
#
#
# Indices 1 2 3 4 5 6 
#
# 1 0.009818 -0.005152 -0.005876 0.000000 0.000000 0.000000
# 2 -0.005152 0.012721 0.000478 0.000000 0.000000 0.000000
# 3 -0.005876 0.000478 0.016341 0.000000 0.000000 0.000000
# 4 0.000000 0.000000 0.000000 -0.062660 0.000000 0.000000
# 5 0.000000 0.000000 0.000000 0.000000 0.065089 0.000000
# 6 0.000000 0.000000 0.000000 0.000000 0.000000 0.017421
#
#
# Mechanical properties :
#
#
# Convention : Reuss Voigt Hill
#
# Bulk Modulus (GPa) = 56.24121 73.51331 64.87726
# Shear Modulus (GPa) = 58.30363 25.46068 41.88216
#
# Velocity S-wave (km/s) = 5.16926 3.41598 4.38122
# Velocity P-wave (km/s) = 7.83609 7.01788 7.43825
#
# Compressibility (1/GPa) = 0.01778055
#
# Stress axis : x y z
#
# Youngs Moduli (GPa) = 101.85349 78.60985 61.19457
#
# Poissons Ratio (x) = 0.40503 0.35957
# Poissons Ratio (y) = 0.52480 -0.02927
# Poissons Ratio (z) = 0.59847 -0.03760
#
# Static dielectric constant tensor:
#      x y z
#    x 1.754260 0.000000 0.000000 
#    y 0.000000 1.831750 0.000000 
#    z 0.000000 0.000000 2.059980 
# 
# From -- ./inp_files/16429.got.cif
#   From: 2010.05.17/outbox.cif.g08.bks.cpg/sg50_9_cif.got.tgz:16429.got - 2010.06.03 11:33:33.
