data_PCOD9398229
_publ_section_title
;
Structure prediction by ZEFSAII (Michael W. Deem and Ramdas Pophale) SiO2 
 PCOD9398229
Probable space group: P B A N
;
_chemical_formula_sum "Si O2"
_cell_formula_units_Z 20
_cell_length_a 12.083745
_cell_length_b 12.209860
_cell_length_c 5.006186
_cell_angle_alpha 90.000000
_cell_angle_beta 90.000000
_cell_angle_gamma 90.000000
_cell_volume 738.616861
_symmetry_space_group_name_H-M "P B A N"
_symmetry_group_IT_number 50
_space_group.IT_coordinate_system_code '2'
_symmetry_cell_setting 'orthorhombic'
loop_
_space_group_symop_operation_xyz
x,y,z
1/2-x,1/2-y,z
x,1/2-y,-z
1/2-x,y,-z
-x,-y,-z
1/2+x,1/2+y,-z
-x,1/2+y,z
1/2+x,-y,z
loop_
_atom_site_type_symbol
_atom_site_label
_atom_site_fract_x
_atom_site_fract_y
_atom_site_fract_z
Si Si1 0.144516 0.451304 0.798479
Si Si2 0.250000 0.750000 0.000000
Si Si3 0.750000 0.750000 0.500000
Si Si4 0.075333 0.636862 0.364940
O O1 0.183378 0.336022 0.674857
O O2 0.121568 0.548265 0.580112
O O3 0.015124 0.414694 0.836176
O O4 0.250000 0.472320 0.000000
O O5 0.174345 0.822143 0.813824
O O6 0.034520 0.750000 0.500000
#
# Coordination Sequence:
#
# PCOD9398229 Si02
#       4
#     8   2   2   8
#     4  11  28  55  91 128 179 236 298 376 449 539
#     4  12  30  52  92 126 180 242 288 388 446 548
#     4  12  26  48  82 136 168 234 296 354 444 536
#     4  11  28  56  86 132 178 237 304 368 460 535
#
# _framework density 27.077638
#
# number of rings (size 3 to 8) (size 9 to 14) (size 15 to 20)
#    0.000    0.800    2.000    1.200   14.000    0.000 
#    3.600   10.000    0.000    0.000    0.000    0.000 
#    0.000    0.000    0.000    0.000    0.000    0.000 
#
# Total GULP energy -111626.315118 kJ/mol
# GULP energy per Si atom -5581.315756 kJ/mol
# Density = 2.701601 g / cm^3
# Si number density = 27.077638 Si / 1000 Ang^3
#
#
#
# Elastic Constant Matrix: (Units=GPa)
#
#
# Indices 1 2 3 4 5 6 
#
# 1 261.3382 87.9767 99.0756 0.0000 0.0000 0.0000
# 2 87.9767 257.7266 85.3616 0.0000 0.0000 0.0000
# 3 99.0756 85.3616 106.5342 0.0000 0.0000 0.0000
# 4 0.0000 0.0000 0.0000 88.9754 0.0000 0.0000
# 5 0.0000 0.0000 0.0000 0.0000 280.8786 0.0000
# 6 0.0000 0.0000 0.0000 0.0000 0.0000 27.4369
#
#
#
# Elastic Compliance Matrix: (Units=1/GPa)
#
#
# Indices 1 2 3 4 5 6 
#
# 1 0.005924 -0.000269 -0.005294 0.000000 0.000000 0.000000
# 2 -0.000269 0.005294 -0.003992 0.000000 0.000000 0.000000
# 3 -0.005294 -0.003992 0.017508 0.000000 0.000000 0.000000
# 4 0.000000 0.000000 0.000000 0.011239 0.000000 0.000000
# 5 0.000000 0.000000 0.000000 0.000000 0.003560 0.000000
# 6 0.000000 0.000000 0.000000 0.000000 0.000000 0.036447
#
#
# Mechanical properties :
#
#
# Convention : Reuss Voigt Hill
#
# Bulk Modulus (GPa) = 103.97915 130.04743 117.01329
# Shear Modulus (GPa) = 48.88191 103.00385 75.94288
#
# Velocity S-wave (km/s) = 4.25343 6.17436 5.30163
# Velocity P-wave (km/s) = 7.91239 9.94798 8.98800
#
# Compressibility (1/GPa) = 0.00961731
#
# Stress axis : x y z
#
# Youngs Moduli (GPa) = 168.80923 188.89349 57.11582
#
# Poissons Ratio (x) = 0.05078 0.30236
# Poissons Ratio (y) = 0.04538 0.22800
# Poissons Ratio (z) = 0.89363 0.75404
#
# Static dielectric constant tensor:
#      x y z
#    x 2.284880 0.000000 0.000000 
#    y 0.000000 2.156930 0.000000 
#    z 0.000000 0.000000 2.435620 
# 
# From -- ./inp_files/1418.got.cif
#   From: 2010.05.17/outbox.cif.g08.bks.cpg/sg50_1_cif.got.tgz:1418.got - 2010.06.03 11:33:33.
