data_PCOD9398199
_publ_section_title
;
Structure prediction by ZEFSAII (Michael W. Deem and Ramdas Pophale) SiO2 
 PCOD9398199
Probable space group: P B A N
;
_chemical_formula_sum "Si O2"
_cell_formula_units_Z 40
_cell_length_a 9.145031
_cell_length_b 13.751757
_cell_length_c 14.204798
_cell_angle_alpha 90.000000
_cell_angle_beta 90.000000
_cell_angle_gamma 90.000000
_cell_volume 1786.398863
_symmetry_space_group_name_H-M "P B A N"
_symmetry_group_IT_number 50
_space_group.IT_coordinate_system_code '2'
_symmetry_cell_setting 'orthorhombic'
loop_
_space_group_symop_operation_xyz
x,y,z
1/2-x,1/2-y,z
x,1/2-y,-z
1/2-x,y,-z
-x,-y,-z
1/2+x,1/2+y,-z
-x,1/2+y,z
1/2+x,-y,z
loop_
_atom_site_type_symbol
_atom_site_label
_atom_site_fract_x
_atom_site_fract_y
_atom_site_fract_z
Si Si1 0.094115 0.297693 0.661749
Si Si2 0.393969 0.685561 0.186640
Si Si3 0.242613 0.487097 0.741636
Si Si4 0.103885 0.928153 0.558159
Si Si5 0.332402 0.349239 0.903591
O O1 0.250000 0.250000 0.635543
O O2 0.137087 0.401214 0.707232
O O3 0.000565 0.233079 0.734302
O O4 0.985989 0.330766 0.579628
O O5 0.250000 0.750000 0.173509
O O6 0.341392 0.581785 0.223671
O O7 0.496237 0.675665 0.094734
O O8 0.343954 0.519660 0.654809
O O9 0.321340 0.436753 0.829956
O O10 0.250000 0.908484 0.500000
O O11 0.000000 0.000000 0.500000
O O12 0.250000 0.250000 0.870537
O O13 0.250000 0.374107 0.000000
#
# Coordination Sequence:
#
# PCOD9398199 Si02
#       5
#     8   8   8   8   8
#     4  12  25  48  77 111 153 214 260 319 413 471
#     4  12  25  44  79 117 151 206 257 332 395 476
#     4  12  24  47  82 106 163 203 265 325 401 466
#     4  12  27  47  76 119 159 208 275 335 393 489
#     4  11  25  49  79 111 155 208 260 324 403 490
#
# _framework density 22.391414999999999
#
# number of rings (size 3 to 8) (size 9 to 14) (size 15 to 20)
#    0.000    0.200    8.000    1.200    0.000    0.800 
#    0.000   15.000    0.000    0.000    0.000    0.000 
#    0.000    0.000    0.000    0.000    0.000    0.000 
#
# Total GULP energy -223832.247610 kJ/mol
# GULP energy per Si atom -5595.806190 kJ/mol
# Density = 2.234045 g / cm^3
# Si number density = 22.391415 Si / 1000 Ang^3
#
#
#
# Elastic Constant Matrix: (Units=GPa)
#
#
# Indices 1 2 3 4 5 6 
#
# 1 205.3213 73.6956 87.5888 0.0000 0.0000 0.0000
# 2 73.6956 137.6105 58.4717 0.0000 0.0000 0.0000
# 3 87.5888 58.4717 133.3781 0.0000 0.0000 0.0000
# 4 0.0000 0.0000 0.0000 20.5543 0.0000 0.0000
# 5 0.0000 0.0000 0.0000 0.0000 21.7915 0.0000
# 6 0.0000 0.0000 0.0000 0.0000 0.0000 50.3924
#
#
#
# Elastic Compliance Matrix: (Units=1/GPa)
#
#
# Indices 1 2 3 4 5 6 
#
# 1 0.007317 -0.002306 -0.003794 0.000000 0.000000 0.000000
# 2 -0.002306 0.009657 -0.002719 0.000000 0.000000 0.000000
# 3 -0.003794 -0.002719 0.011181 0.000000 0.000000 0.000000
# 4 0.000000 0.000000 0.000000 0.048652 0.000000 0.000000
# 5 0.000000 0.000000 0.000000 0.000000 0.045889 0.000000
# 6 0.000000 0.000000 0.000000 0.000000 0.000000 0.019844
#
#
# Mechanical properties :
#
#
# Convention : Reuss Voigt Hill
#
# Bulk Modulus (GPa) = 95.08903 101.75800 98.42352
# Shear Modulus (GPa) = 30.54668 35.65124 33.09896
#
# Velocity S-wave (km/s) = 3.69753 3.99455 3.84891
# Velocity P-wave (km/s) = 7.79666 8.17429 7.98771
#
# Compressibility (1/GPa) = 0.01051646
#
# Stress axis : x y z
#
# Youngs Moduli (GPa) = 136.67564 103.54749 89.43876
#
# Poissons Ratio (x) = 0.23882 0.33930
# Poissons Ratio (y) = 0.31522 0.24320
# Poissons Ratio (z) = 0.51851 0.28156
#
# Static dielectric constant tensor:
#      x y z
#    x 1.859710 0.000000 0.000000 
#    y 0.000000 1.794170 0.000000 
#    z 0.000000 0.000000 2.010410 
# 
# From -- ./inp_files/24634.got.cif
#   From: 2010.05.17/outbox.cif.g08.bks.cpg/sg50_13_cif.got.tgz:24634.got - 2010.06.03 11:33:33.
