data_PCOD9398578
_publ_section_title
;
Structure prediction by ZEFSAII (Michael W. Deem and Ramdas Pophale) SiO2 
 PCOD9398578
Probable space group: P M M A
;
_chemical_formula_sum "Si O2"
_cell_formula_units_Z 64
_cell_length_a 31.171582
_cell_length_b 8.136871
_cell_length_c 14.500743
_cell_angle_alpha 90.000000
_cell_angle_beta 90.000000
_cell_angle_gamma 90.000000
_cell_volume 3677.956007
_symmetry_space_group_name_H-M "P M M A"
_symmetry_group_IT_number 51
_symmetry_cell_setting 'orthorhombic'
loop_
_space_group_symop_operation_xyz
x,y,z
1/2-x,-y,z
1/2+x,-y,-z
-x,y,-z
-x,-y,-z
1/2+x,y,-z
1/2-x,y,z
x,-y,z
loop_
_atom_site_type_symbol
_atom_site_label
_atom_site_fract_x
_atom_site_fract_y
_atom_site_fract_z
Si Si1 0.139475 0.196651 0.664199
Si Si2 0.934512 0.687019 0.472945
Si Si3 0.126048 0.192921 0.377187
Si Si4 0.574807 0.798138 0.788001
Si Si5 0.509850 0.807459 0.316016
Si Si6 0.085385 0.693841 0.816167
Si Si7 0.298301 0.200382 0.509297
Si Si8 0.550177 0.800978 0.991680
O O1 0.103153 0.285141 0.602798
O O2 0.129738 0.248967 0.768502
O O3 0.183401 0.238042 0.611495
O O4 0.132951 0.000000 0.656003
O O5 0.936209 0.500000 0.503087
O O6 0.916591 0.790154 0.558843
O O7 0.976215 0.729925 0.412852
O O8 0.114337 0.257916 0.275856
O O9 0.166420 0.261349 0.434828
O O10 0.134567 0.000000 0.366900
O O11 0.532292 0.741948 0.733743
O O12 0.570000 0.747465 0.893849
O O13 0.574524 0.000000 0.788064
O O14 0.548010 0.782864 0.242283
O O15 0.504638 0.000000 0.333022
O O16 0.080704 0.500000 0.802594
O O17 0.077277 0.737514 0.921934
O O18 0.250000 0.259360 0.494570
O O19 0.297801 0.000000 0.503427
O O20 0.550173 0.000000 0.994508
O O21 0.500000 0.749356 0.000000
#
# Coordination Sequence:
#
# PCOD9398578 Si02
#       8
#     8   8   8   8   8   8   8   8
#     4   9  16  28  47  68  91 121 151 180 220 272
#     4  10  18  28  41  61  89 119 151 186 224 264
#     4   9  17  31  47  64  88 118 150 182 220 270
#     4   9  18  30  46  64  82 113 159 199 224 261
#     4  10  17  29  45  61  82 116 159 194 226 262
#     4  11  20  29  43  66  94 120 151 193 238 276
#     4   8  14  26  48  76  98 114 138 177 224 272
#     4  10  18  32  49  64  84 117 163 206 234 266
#
# _framework density 17.400969
#
# number of rings (size 3 to 8) (size 9 to 14) (size 15 to 20)
#    0.000    2.500    1.250    5.250    0.000    0.750 
#    0.000    4.375    0.000    9.375    0.000    0.875 
#    0.000    5.000    0.000    0.000    0.000    0.000 
#
# Total GULP energy -356615.909713 kJ/mol
# GULP energy per Si atom -5572.123589 kJ/mol
# Density = 1.736136 g / cm^3
# Si number density = 17.400969 Si / 1000 Ang^3
#
#
#
# Elastic Constant Matrix: (Units=GPa)
#
#
# Indices 1 2 3 4 5 6 
#
# 1 70.0689 7.1521 62.8579 0.0000 0.0000 0.0000
# 2 7.1521 23.4259 -0.5477 0.0000 0.0000 0.0000
# 3 62.8579 -0.5477 136.7431 0.0000 0.0000 0.0000
# 4 0.0000 0.0000 0.0000 5.3518 0.0000 0.0000
# 5 0.0000 0.0000 0.0000 0.0000 16.2887 0.0000
# 6 0.0000 0.0000 0.0000 0.0000 0.0000 -18.7662
#
#
#
# Elastic Compliance Matrix: (Units=1/GPa)
#
#
# Indices 1 2 3 4 5 6 
#
# 1 0.025750 -0.008139 -0.011870 0.000000 0.000000 0.000000
# 2 -0.008139 0.045265 0.003923 0.000000 0.000000 0.000000
# 3 -0.011870 0.003923 0.012785 0.000000 0.000000 0.000000
# 4 0.000000 0.000000 0.000000 0.186853 0.000000 0.000000
# 5 0.000000 0.000000 0.000000 0.000000 0.061392 0.000000
# 6 0.000000 0.000000 0.000000 0.000000 0.000000 -0.053287
#
#
# Mechanical properties :
#
#
# Convention : Reuss Voigt Hill
#
# Bulk Modulus (GPa) = 19.36945 41.01807 30.19376
# Shear Modulus (GPa) = 15.23744 11.29324 13.26534
#
# Velocity S-wave (km/s) = 2.96238 2.55031 2.76403
# Velocity P-wave (km/s) = 4.78083 5.68292 5.25128
#
# Compressibility (1/GPa) = 0.05162770
#
# Stress axis : x y z
#
# Youngs Moduli (GPa) = 38.83421 22.09231 78.21741
#
# Poissons Ratio (x) = 0.17982 0.92841
# Poissons Ratio (y) = 0.31609 -0.30683
# Poissons Ratio (z) = 0.46094 -0.08666
#
# Static dielectric constant tensor:
#      x y z
#    x 1.615670 0.000000 0.000000 
#    y 0.000000 1.600230 0.000000 
#    z 0.000000 0.000000 1.627340 
# 
# From -- ./inp_files/26647.got.cif
#   From: 2010.05.17/outbox.cif.g08.bks.cpg/sg51_14_cif.got.tgz:26647.got - 2010.06.03 11:52:47.
