data_PCOD9398024
_publ_section_title
;
Structure prediction by ZEFSAII (Michael W. Deem and Ramdas Pophale) SiO2 
 PCOD9398024
Probable space group: P B A N
;
_chemical_formula_sum "Si O2"
_cell_formula_units_Z 48
_cell_length_a 9.162088
_cell_length_b 28.817152
_cell_length_c 8.930544
_cell_angle_alpha 90.000000
_cell_angle_beta 90.000000
_cell_angle_gamma 90.000000
_cell_volume 2357.889403
_symmetry_space_group_name_H-M "P B A N"
_symmetry_group_IT_number 50
_space_group.IT_coordinate_system_code '2'
_symmetry_cell_setting 'orthorhombic'
loop_
_space_group_symop_operation_xyz
x,y,z
1/2-x,1/2-y,z
x,1/2-y,-z
1/2-x,y,-z
-x,-y,-z
1/2+x,1/2+y,-z
-x,1/2+y,z
1/2+x,-y,z
loop_
_atom_site_type_symbol
_atom_site_label
_atom_site_fract_x
_atom_site_fract_y
_atom_site_fract_z
Si Si1 0.408289 0.198243 0.441435
Si Si2 0.376324 0.625848 0.599552
Si Si3 0.875194 0.011385 0.879513
Si Si4 0.174781 0.075037 0.336046
Si Si5 0.845834 0.845444 0.145917
Si Si6 0.160078 0.886239 0.149261
O O1 0.430909 0.250000 0.500000
O O2 0.250000 0.181260 0.500000
O O3 0.538722 0.165964 0.505059
O O4 0.380923 0.195323 0.264179
O O5 0.250000 0.602721 0.500000
O O6 0.508939 0.593232 0.646303
O O7 0.273323 0.639592 0.739449
O O8 0.884998 0.061600 0.800234
O O9 0.839796 0.972133 0.758079
O O10 0.750000 0.013480 0.000000
O O11 0.000000 0.000000 0.000000
O O12 0.250000 0.069811 0.500000
O O13 0.263990 0.113094 0.237488
O O14 0.008010 0.862436 0.109451
O O15 0.750000 0.834272 0.000000
O O16 0.250000 0.891296 0.000000
#
# Coordination Sequence:
#
# PCOD9398024 Si02
#       6
#     8   8   8   8   8   8
#     4  11  24  47  75 101 131 172 224 276 344 430
#     4  12  22  42  66  97 137 170 224 276 350 406
#     4  11  23  41  60  92 133 184 237 284 336 389
#     4  12  22  40  66  94 134 185 233 283 332 404
#     4  12  22  43  72  99 134 180 226 274 340 413
#     4  11  24  40  64  99 137 180 228 287 339 400
#
# _framework density 20.357187
#
# number of rings (size 3 to 8) (size 9 to 14) (size 15 to 20)
#    0.000    0.500    5.000    5.500    0.000    1.000 
#    0.000    5.000    0.000    1.000    0.000    0.000 
#    0.000    0.000    0.000    0.000    0.000    0.000 
#
# Total GULP energy -267479.923176 kJ/mol
# GULP energy per Si atom -5572.498399 kJ/mol
# Density = 2.031085 g / cm^3
# Si number density = 20.357187 Si / 1000 Ang^3
#
#
#
# Elastic Constant Matrix: (Units=GPa)
#
#
# Indices 1 2 3 4 5 6 
#
# 1 165.4967 24.0925 45.0825 0.0000 0.0000 0.0000
# 2 24.0925 71.0309 50.0750 0.0000 0.0000 0.0000
# 3 45.0825 50.0750 132.6983 0.0000 0.0000 0.0000
# 4 0.0000 0.0000 0.0000 29.2105 0.0000 0.0000
# 5 0.0000 0.0000 0.0000 0.0000 53.8562 0.0000
# 6 0.0000 0.0000 0.0000 0.0000 0.0000 8.5715
#
#
#
# Elastic Compliance Matrix: (Units=1/GPa)
#
#
# Indices 1 2 3 4 5 6 
#
# 1 0.006702 -0.000910 -0.001933 0.000000 0.000000 0.000000
# 2 -0.000910 0.019305 -0.006976 0.000000 0.000000 0.000000
# 3 -0.001933 -0.006976 0.010825 0.000000 0.000000 0.000000
# 4 0.000000 0.000000 0.000000 0.034234 0.000000 0.000000
# 5 0.000000 0.000000 0.000000 0.000000 0.018568 0.000000
# 6 0.000000 0.000000 0.000000 0.000000 0.000000 0.116666
#
#
# Mechanical properties :
#
#
# Convention : Reuss Voigt Hill
#
# Bulk Modulus (GPa) = 58.16261 67.52511 62.84386
# Shear Modulus (GPa) = 21.58253 34.99270 28.28761
#
# Velocity S-wave (km/s) = 3.25959 4.15050 3.73173
# Velocity P-wave (km/s) = 6.54214 7.49740 7.03600
#
# Compressibility (1/GPa) = 0.01719318
#
# Stress axis : x y z
#
# Youngs Moduli (GPa) = 149.21904 51.80085 92.37853
#
# Poissons Ratio (x) = 0.04714 0.17860
# Poissons Ratio (y) = 0.13581 0.64440
# Poissons Ratio (z) = 0.28849 0.36134
#
# Static dielectric constant tensor:
#      x y z
#    x 1.696310 0.000000 0.000000 
#    y 0.000000 1.202220 0.000000 
#    z 0.000000 0.000000 1.771670 
# 
# From -- ./inp_files/10062.got.cif
#   From: 2010.05.17/outbox.cif.g08.bks.cpg/sg50_6_cif.got.tgz:10062.got - 2010.06.03 11:33:33.
