data_PCOD9398899
_publ_section_title
;
Structure prediction by ZEFSAII (Michael W. Deem and Ramdas Pophale) SiO2 
 PCOD9398899
Probable space group: P M M A
;
_chemical_formula_sum "Si O2"
_cell_formula_units_Z 44
_cell_length_a 7.365133
_cell_length_b 13.988786
_cell_length_c 19.680743
_cell_angle_alpha 90.000000
_cell_angle_beta 90.000000
_cell_angle_gamma 90.000000
_cell_volume 2027.692573
_symmetry_space_group_name_H-M "P M M A"
_symmetry_group_IT_number 51
_symmetry_cell_setting 'orthorhombic'
loop_
_space_group_symop_operation_xyz
x,y,z
1/2-x,-y,z
1/2+x,-y,-z
-x,y,-z
-x,-y,-z
1/2+x,y,-z
1/2-x,y,z
x,-y,z
loop_
_atom_site_type_symbol
_atom_site_label
_atom_site_fract_x
_atom_site_fract_y
_atom_site_fract_z
Si Si1 0.029085 0.395346 0.283801
Si Si2 0.533129 0.893581 0.919482
Si Si3 0.533401 0.100982 0.580941
Si Si4 0.028172 0.698332 0.150028
Si Si5 0.532664 0.310969 0.579290
Si Si6 0.533861 0.500000 0.919776
O O1 0.250000 0.394834 0.284430
O O2 0.972733 0.500000 0.259571
O O3 0.975128 0.317029 0.228583
O O4 0.967974 0.379453 0.361021
O O5 0.750000 0.895621 0.909021
O O6 0.464660 0.798540 0.881598
O O7 0.464348 0.000000 0.899619
O O8 0.500000 0.882749 0.000000
O O9 0.500000 0.097922 0.500000
O O10 0.750000 0.101627 0.592660
O O11 0.462372 0.205180 0.599135
O O12 0.462763 0.000000 0.609260
O O13 0.250000 0.699643 0.146614
O O14 0.968161 0.601381 0.111061
O O15 0.500000 0.333244 0.500000
O O16 0.750000 0.307564 0.583910
O O17 0.750000 0.500000 0.906650
O O18 0.500000 0.500000 0.000000
#
# Coordination Sequence:
#
# PCOD9398899 Si02
#       6
#     8   8   8   8   8   4
#     4   9  16  28  45  64  86 115 149 183 223 269
#     4   9  17  29  46  69  96 124 152 184 223 265
#     4   8  13  22  36  55  79 103 127 161 207 253
#     4   9  16  28  45  66  91 119 152 186 219 261
#     4   9  17  28  44  65  85 109 145 185 223 267
#     4  10  18  28  46  70  91 114 146 184 219 254
#
# _framework density 21.699542000000001
#
# number of rings (size 3 to 8) (size 9 to 14) (size 15 to 20)
#    0.000    3.091    0.909    0.545    0.000    0.364 
#    0.000    0.909    0.000    7.636    0.000    0.000 
#    0.000    5.818    0.000    0.000    0.000    0.000 
#
# Total GULP energy -245083.449045 kJ/mol
# GULP energy per Si atom -5570.078387 kJ/mol
# Density = 2.165015 g / cm^3
# Si number density = 21.699542 Si / 1000 Ang^3
#
#
#
# Elastic Constant Matrix: (Units=GPa)
#
#
# Indices 1 2 3 4 5 6 
#
# 1 79.9074 8.2582 -2.8802 0.0000 0.0000 0.0000
# 2 8.2582 180.3995 88.0386 0.0000 0.0000 0.0000
# 3 -2.8802 88.0386 118.9764 0.0000 0.0000 0.0000
# 4 0.0000 0.0000 0.0000 43.3929 0.0000 0.0000
# 5 0.0000 0.0000 0.0000 0.0000 11.0210 0.0000
# 6 0.0000 0.0000 0.0000 0.0000 0.0000 -4.6723
#
#
#
# Elastic Compliance Matrix: (Units=1/GPa)
#
#
# Indices 1 2 3 4 5 6 
#
# 1 0.012674 -0.001142 0.001152 0.000000 0.000000 0.000000
# 2 -0.001142 0.008779 -0.006524 0.000000 0.000000 0.000000
# 3 0.001152 -0.006524 0.013261 0.000000 0.000000 0.000000
# 4 0.000000 0.000000 0.000000 0.023045 0.000000 0.000000
# 5 0.000000 0.000000 0.000000 0.000000 0.090736 0.000000
# 6 0.000000 0.000000 0.000000 0.000000 0.000000 -0.214029
#
#
# Mechanical properties :
#
#
# Convention : Reuss Voigt Hill
#
# Bulk Modulus (GPa) = 46.11428 62.90184 54.50806
# Shear Modulus (GPa) = -110.43219 29.00610 -40.71305
#
# Velocity S-wave (km/s) = -7.14157 3.66008 -4.33623
# Velocity P-wave (km/s) = 6.83412 6.84924 0.32164
#
# Compressibility (1/GPa) = 0.02168526
#
# Stress axis : x y z
#
# Youngs Moduli (GPa) = 78.90117 113.90183 75.41131
#
# Poissons Ratio (x) = 0.13013 -0.08689
# Poissons Ratio (y) = 0.09014 0.49200
# Poissons Ratio (z) = -0.09091 0.74312
#
# Static dielectric constant tensor:
#      x y z
#    x 1.799340 0.000000 0.000000 
#    y 0.000000 1.848250 0.000000 
#    z 0.000000 0.000000 1.749850 
# 
# From -- ./inp_files/27370.got.cif
#   From: 2010.05.17/outbox.cif.g08.bks.cpg/sg51_14_cif.got.tgz:27370.got - 2010.06.03 11:52:47.
