data_PCOD9398441
_publ_section_title
;
Structure prediction by ZEFSAII (Michael W. Deem and Ramdas Pophale) SiO2 
 PCOD9398441
Probable space group: P M M A
;
_chemical_formula_sum "Si O2"
_cell_formula_units_Z 48
_cell_length_a 20.588349
_cell_length_b 8.798053
_cell_length_c 15.834960
_cell_angle_alpha 90.000000
_cell_angle_beta 90.000000
_cell_angle_gamma 90.000000
_cell_volume 2868.303257
_symmetry_space_group_name_H-M "P M M A"
_symmetry_group_IT_number 51
_symmetry_cell_setting 'orthorhombic'
loop_
_space_group_symop_operation_xyz
x,y,z
1/2-x,-y,z
1/2+x,-y,-z
-x,y,-z
-x,-y,-z
1/2+x,y,-z
1/2-x,y,z
x,-y,z
loop_
_atom_site_type_symbol
_atom_site_label
_atom_site_fract_x
_atom_site_fract_y
_atom_site_fract_z
Si Si1 0.175811 0.816615 0.914270
Si Si2 0.894610 0.182438 0.257099
Si Si3 0.045292 0.818206 0.217226
Si Si4 0.562346 0.182389 0.596688
Si Si5 0.417497 0.318850 0.571562
Si Si6 0.430596 0.318387 0.038745
O O1 0.250000 0.769324 0.928064
O O2 0.151739 0.775065 0.820181
O O3 0.172378 0.000000 0.919324
O O4 0.126761 0.748544 0.982212
O O5 0.879428 0.262754 0.345784
O O6 0.968696 0.220464 0.228962
O O7 0.892585 0.000000 0.269819
O O8 0.080048 0.781590 0.306395
O O9 0.072289 0.736481 0.135175
O O10 0.048774 0.000000 0.205119
O O11 0.489616 0.249319 0.586387
O O12 0.602906 0.252852 0.519626
O O13 0.559427 0.000000 0.587985
O O14 0.420759 0.500000 0.568155
O O15 0.428639 0.500000 0.035278
O O16 0.500000 0.266919 0.000000
#
# Coordination Sequence:
#
# PCOD9398441 Si02
#       6
#     8   8   8   8   8   8
#     4  10  21  37  56  75  97 131 175 217 256 303
#     4   9  17  30  47  68  95 128 163 203 250 296
#     4   9  17  29  48  70  94 130 168 207 250 297
#     4   9  16  27  41  62  93 127 161 199 244 286
#     4  10  17  24  39  64  94 128 160 193 238 292
#     4  11  22  33  49  75 104 135 168 208 260 314
#
# _framework density 16.734632000000001
#
# number of rings (size 3 to 8) (size 9 to 14) (size 15 to 20)
#    0.000    2.333    1.667    4.500    0.000    5.000 
#    0.000    0.000    0.000    0.000    0.000    1.167 
#    0.000    4.000    0.000    0.000    0.000    0.000 
#
# Total GULP energy -267507.784561 kJ/mol
# GULP energy per Si atom -5573.078845 kJ/mol
# Density = 1.669654 g / cm^3
# Si number density = 16.734632 Si / 1000 Ang^3
#
#
#
# Elastic Constant Matrix: (Units=GPa)
#
#
# Indices 1 2 3 4 5 6 
#
# 1 68.8871 27.7097 61.5351 0.0000 0.0000 0.0000
# 2 27.7097 53.5374 61.4279 0.0000 0.0000 0.0000
# 3 61.5351 61.4279 181.4333 0.0000 0.0000 0.0000
# 4 0.0000 0.0000 0.0000 21.7473 0.0000 0.0000
# 5 0.0000 0.0000 0.0000 0.0000 13.3837 0.0000
# 6 0.0000 0.0000 0.0000 0.0000 0.0000 16.7361
#
#
#
# Elastic Compliance Matrix: (Units=1/GPa)
#
#
# Indices 1 2 3 4 5 6 
#
# 1 0.021472 -0.004509 -0.005756 0.000000 0.000000 0.000000
# 2 -0.004509 0.031491 -0.009132 0.000000 0.000000 0.000000
# 3 -0.005756 -0.009132 0.010556 0.000000 0.000000 0.000000
# 4 0.000000 0.000000 0.000000 0.045983 0.000000 0.000000
# 5 0.000000 0.000000 0.000000 0.000000 0.074718 0.000000
# 6 0.000000 0.000000 0.000000 0.000000 0.000000 0.059751
#
#
# Mechanical properties :
#
#
# Convention : Reuss Voigt Hill
#
# Bulk Modulus (GPa) = 40.44746 67.24481 53.84613
# Shear Modulus (GPa) = 17.18175 20.58575 18.88375
#
# Velocity S-wave (km/s) = 3.20772 3.51112 3.36285
# Velocity P-wave (km/s) = 6.15968 7.53044 6.87929
#
# Compressibility (1/GPa) = 0.02472343
#
# Stress axis : x y z
#
# Youngs Moduli (GPa) = 46.57284 31.75519 94.73519
#
# Poissons Ratio (x) = 0.14320 0.54526
# Poissons Ratio (y) = 0.21001 0.86517
# Poissons Ratio (z) = 0.26806 0.29000
#
# Static dielectric constant tensor:
#      x y z
#    x 1.542890 0.000000 0.000000 
#    y 0.000000 1.556690 0.000000 
#    z 0.000000 0.000000 1.610270 
# 
# From -- ./inp_files/25496.got.cif
#   From: 2010.05.17/outbox.cif.g08.bks.cpg/sg51_13_cif.got.tgz:25496.got - 2010.06.03 11:52:47.
