data_PCOD9398775
_publ_section_title
;
Structure prediction by ZEFSAII (Michael W. Deem and Ramdas Pophale) SiO2 
 PCOD9398775
Probable space group: P M M A
;
_chemical_formula_sum "Si O2"
_cell_formula_units_Z 64
_cell_length_a 8.342664
_cell_length_b 27.390379
_cell_length_c 18.928806
_cell_angle_alpha 90.000000
_cell_angle_beta 90.000000
_cell_angle_gamma 90.000000
_cell_volume 4325.397397
_symmetry_space_group_name_H-M "P M M A"
_symmetry_group_IT_number 51
_symmetry_cell_setting 'orthorhombic'
loop_
_space_group_symop_operation_xyz
x,y,z
1/2-x,-y,z
1/2+x,-y,-z
-x,y,-z
-x,-y,-z
1/2+x,y,-z
1/2-x,y,z
x,-y,z
loop_
_atom_site_type_symbol
_atom_site_label
_atom_site_fract_x
_atom_site_fract_y
_atom_site_fract_z
Si Si1 0.062561 0.208169 0.788941
Si Si2 0.554464 0.647517 0.832544
Si Si3 0.562671 0.702252 0.699958
Si Si4 0.061584 0.236108 0.579228
Si Si5 0.559170 0.145581 0.671590
Si Si6 0.943636 0.055638 0.578741
Si Si7 0.442228 0.255972 0.080054
Si Si8 0.056177 0.555430 0.079302
O O1 0.250000 0.219520 0.779774
O O2 0.958947 0.249777 0.749237
O O3 0.022391 0.159451 0.745765
O O4 0.015163 0.213640 0.870357
O O5 0.750000 0.647621 0.830991
O O6 0.502320 0.659755 0.752445
O O7 0.507040 0.692414 0.883841
O O8 0.500378 0.596654 0.866100
O O9 0.750000 0.694963 0.684740
O O10 0.474762 0.716798 0.628133
O O11 0.250000 0.226769 0.579045
O O12 0.000000 0.242037 0.500000
O O13 0.978588 0.189806 0.617247
O O14 0.750000 0.143359 0.681876
O O15 0.502205 0.095616 0.635335
O O16 0.750000 0.056013 0.578735
O O17 0.000000 0.069145 0.500000
O O18 0.997472 0.000000 0.592830
O O19 0.250000 0.253504 0.082670
O O20 0.500000 0.253729 0.000000
O O21 0.250000 0.555772 0.079588
O O22 0.002773 0.500000 0.095339
O O23 0.000000 0.567454 0.000000
#
# Coordination Sequence:
#
# PCOD9398775 Si02
#       8
#     8   8   8   8   8   8   8   8
#     4  10  18  28  41  58  80 105 135 167 201 240
#     4   8  15  26  40  57  78 106 136 166 199 236
#     4   9  16  28  42  56  77 103 133 167 202 237
#     4  11  20  29  41  59  82 106 135 165 198 239
#     4  10  18  29  44  60  81 109 139 169 202 236
#     4   9  18  30  43  60  82 108 138 171 203 234
#     4  10  18  28  41  58  81 107 137 169 203 240
#     4   9  16  26  39  56  79 106 136 168 199 230
#
# _framework density 14.796329
#
# number of rings (size 3 to 8) (size 9 to 14) (size 15 to 20)
#    0.000    2.500    0.000    6.375    0.000    2.000 
#    0.000    3.125    0.000    0.000    0.000    0.000 
#    0.000    1.000    0.000    2.250    0.000    3.250 
#
# Total GULP energy -356541.789757 kJ/mol
# GULP energy per Si atom -5570.965465 kJ/mol
# Density = 1.476265 g / cm^3
# Si number density = 14.796329 Si / 1000 Ang^3
#
#
#
# Elastic Constant Matrix: (Units=GPa)
#
#
# Indices 1 2 3 4 5 6 
#
# 1 24.2306 5.1232 7.5656 0.0000 0.0000 0.0000
# 2 5.1232 70.6298 40.4848 0.0000 0.0000 0.0000
# 3 7.5656 40.4848 91.1025 0.0000 0.0000 0.0000
# 4 0.0000 0.0000 0.0000 27.9711 0.0000 0.0000
# 5 0.0000 0.0000 0.0000 0.0000 23.6450 0.0000
# 6 0.0000 0.0000 0.0000 0.0000 0.0000 11.3269
#
#
#
# Elastic Compliance Matrix: (Units=1/GPa)
#
#
# Indices 1 2 3 4 5 6 
#
# 1 0.042475 -0.001421 -0.002896 0.000000 0.000000 0.000000
# 2 -0.001421 0.019045 -0.008345 0.000000 0.000000 0.000000
# 3 -0.002896 -0.008345 0.014926 0.000000 0.000000 0.000000
# 4 0.000000 0.000000 0.000000 0.035751 0.000000 0.000000
# 5 0.000000 0.000000 0.000000 0.000000 0.042292 0.000000
# 6 0.000000 0.000000 0.000000 0.000000 0.000000 0.088285
#
#
# Mechanical properties :
#
#
# Convention : Reuss Voigt Hill
#
# Bulk Modulus (GPa) = 19.56143 32.47891 26.02017
# Shear Modulus (GPa) = 17.53532 21.44121 19.48827
#
# Velocity S-wave (km/s) = 3.44628 3.81082 3.63313
# Velocity P-wave (km/s) = 5.39305 6.43129 5.93491
#
# Compressibility (1/GPa) = 0.05112101
#
# Stress axis : x y z
#
# Youngs Moduli (GPa) = 23.54335 52.50744 66.99854
#
# Poissons Ratio (x) = 0.07462 0.19402
# Poissons Ratio (y) = 0.03346 0.55912
# Poissons Ratio (z) = 0.06818 0.43819
#
# Static dielectric constant tensor:
#      x y z
#    x 1.504670 0.000000 0.000000 
#    y 0.000000 1.502120 0.000000 
#    z 0.000000 0.000000 1.498230 
# 
# From -- ./inp_files/28672.got.cif
#   From: 2010.05.17/outbox.cif.g08.bks.cpg/sg51_15_cif.got.tgz:28672.got - 2010.06.03 11:52:47.
