data_PCOD9398439
_publ_section_title
;
Structure prediction by ZEFSAII (Michael W. Deem and Ramdas Pophale) SiO2 
 PCOD9398439
Probable space group: P M M A
;
_chemical_formula_sum "Si O2"
_cell_formula_units_Z 56
_cell_length_a 25.393793
_cell_length_b 7.639524
_cell_length_c 16.922771
_cell_angle_alpha 90.000000
_cell_angle_beta 90.000000
_cell_angle_gamma 90.000000
_cell_volume 3282.958193
_symmetry_space_group_name_H-M "P M M A"
_symmetry_group_IT_number 51
_symmetry_cell_setting 'orthorhombic'
loop_
_space_group_symop_operation_xyz
x,y,z
1/2-x,-y,z
1/2+x,-y,-z
-x,y,-z
-x,-y,-z
1/2+x,y,-z
1/2-x,y,z
x,-y,z
loop_
_atom_site_type_symbol
_atom_site_label
_atom_site_fract_x
_atom_site_fract_y
_atom_site_fract_z
Si Si1 0.808548 0.290037 0.914178
Si Si2 0.081673 0.208632 0.016149
Si Si3 0.989320 0.785131 0.128079
Si Si4 0.405893 0.706603 0.371996
Si Si5 0.019364 0.203599 0.695238
Si Si6 0.943343 0.211466 0.465513
Si Si7 0.809429 0.286246 0.733554
O O1 0.750000 0.226709 0.937419
O O2 0.805997 0.500000 0.910952
O O3 0.857512 0.245972 0.969208
O O4 0.819330 0.229780 0.824102
O O5 0.044706 0.271753 0.088619
O O6 0.075580 0.000000 0.015135
O O7 0.055630 0.270129 0.934220
O O8 0.980497 0.719926 0.216880
O O9 0.990195 0.000000 0.131077
O O10 0.410764 0.500000 0.357377
O O11 0.459620 0.789054 0.338132
O O12 0.403021 0.734190 0.466426
O O13 0.355103 0.773478 0.325034
O O14 0.056318 0.276500 0.624857
O O15 0.034060 0.000000 0.703475
O O16 0.000000 0.269341 0.500000
O O17 0.943293 0.000000 0.463410
O O18 0.750000 0.232324 0.712007
O O19 0.809885 0.500000 0.732865
#
# Coordination Sequence:
#
# PCOD9398439 Si02
#       7
#     8   8   8   8   8   8   8
#     4   9  17  29  43  58  80 109 136 162 194 234
#     4   9  16  27  43  62  83 104 131 167 202 236
#     4   8  15  27  42  60  82 108 133 161 200 240
#     4  10  17  24  39  60  79 100 128 165 198 220
#     4   9  16  27  41  55  77 109 135 151 182 237
#     4   8  15  26  38  53  75 104 131 151 180 228
#     4   8  15  27  40  55  77 105 133 156 185 231
#
# _framework density 17.057786
#
# number of rings (size 3 to 8) (size 9 to 14) (size 15 to 20)
#    0.000    3.286    0.000    3.857    0.000    2.857 
#    0.000    2.857    0.000    3.429    0.000    1.000 
#    0.000    5.714    0.000    0.000    0.000    0.000 
#
# Total GULP energy -311741.681174 kJ/mol
# GULP energy per Si atom -5566.815735 kJ/mol
# Density = 1.701896 g / cm^3
# Si number density = 17.057786 Si / 1000 Ang^3
#
#
#
# Elastic Constant Matrix: (Units=GPa)
#
#
# Indices 1 2 3 4 5 6 
#
# 1 93.2566 -6.7074 54.9325 0.0000 0.0000 0.0000
# 2 -6.7074 29.0163 1.5231 0.0000 0.0000 0.0000
# 3 54.9325 1.5231 129.6530 0.0000 0.0000 0.0000
# 4 0.0000 0.0000 0.0000 10.8695 0.0000 0.0000
# 5 0.0000 0.0000 0.0000 0.0000 27.6142 0.0000
# 6 0.0000 0.0000 0.0000 0.0000 0.0000 14.6318
#
#
#
# Elastic Compliance Matrix: (Units=1/GPa)
#
#
# Indices 1 2 3 4 5 6 
#
# 1 0.014680 0.003722 -0.006264 0.000000 0.000000 0.000000
# 2 0.003722 0.035428 -0.001993 0.000000 0.000000 0.000000
# 3 -0.006264 -0.001993 0.010390 0.000000 0.000000 0.000000
# 4 0.000000 0.000000 0.000000 0.092001 0.000000 0.000000
# 5 0.000000 0.000000 0.000000 0.000000 0.036213 0.000000
# 6 0.000000 0.000000 0.000000 0.000000 0.000000 0.068344
#
#
# Mechanical properties :
#
#
# Convention : Reuss Voigt Hill
#
# Bulk Modulus (GPa) = 19.44400 39.04692 29.24546
# Shear Modulus (GPa) = 17.65103 24.10162 20.87633
#
# Velocity S-wave (km/s) = 3.22029 3.76299 3.50217
# Velocity P-wave (km/s) = 5.02500 6.46690 5.79100
#
# Compressibility (1/GPa) = 0.05142975
#
# Stress axis : x y z
#
# Youngs Moduli (GPa) = 68.11801 28.22590 96.24506
#
# Poissons Ratio (x) = -0.10507 0.60285
# Poissons Ratio (y) = -0.25356 0.19185
# Poissons Ratio (z) = 0.42667 0.05626
#
# Static dielectric constant tensor:
#      x y z
#    x 1.572780 0.000000 0.000000 
#    y 0.000000 1.635240 0.000000 
#    z 0.000000 0.000000 1.613390 
# 
# From -- ./inp_files/30774.got.cif
#   From: 2010.05.17/outbox.cif.g08.bks.cpg/sg51_16_cif.got.tgz:30774.got - 2010.06.03 11:52:47.
