data_PCOD9398018
_publ_section_title
;
Structure prediction by ZEFSAII (Michael W. Deem and Ramdas Pophale) SiO2 
 PCOD9398018
Probable space group: P B A N
;
_chemical_formula_sum "Si O2"
_cell_formula_units_Z 36
_cell_length_a 15.409057
_cell_length_b 25.667647
_cell_length_c 4.878702
_cell_angle_alpha 90.000000
_cell_angle_beta 90.000000
_cell_angle_gamma 90.000000
_cell_volume 1929.596093
_symmetry_space_group_name_H-M "P B A N"
_symmetry_group_IT_number 50
_space_group.IT_coordinate_system_code '2'
_symmetry_cell_setting 'orthorhombic'
loop_
_space_group_symop_operation_xyz
x,y,z
1/2-x,1/2-y,z
x,1/2-y,-z
1/2-x,y,-z
-x,-y,-z
1/2+x,1/2+y,-z
-x,1/2+y,z
1/2+x,-y,z
loop_
_atom_site_type_symbol
_atom_site_label
_atom_site_fract_x
_atom_site_fract_y
_atom_site_fract_z
Si Si1 0.899002 0.873022 0.573807
Si Si2 0.452847 0.947814 0.613163
Si Si3 0.666533 0.457393 0.136321
Si Si4 0.148231 0.310205 0.062939
Si Si5 0.250000 0.453459 0.500000
O O1 0.866228 0.827629 0.373159
O O2 0.825167 0.916748 0.613648
O O3 0.977301 0.902304 0.421819
O O4 0.910586 0.846404 0.867228
O O5 0.376235 0.932869 0.403511
O O6 0.500000 0.000000 0.500000
O O7 0.408341 0.960439 0.904845
O O8 0.706151 0.510767 0.266191
O O9 0.750000 0.430714 0.000000
O O10 0.130696 0.250000 0.000000
O O11 0.250000 0.319881 0.000000
#
# Coordination Sequence:
#
# PCOD9398018 Si02
#       5
#     8   8   8   8   4
#     4  12  24  37  59  86 117 158 204 235 291 350
#     4  12  24  36  56  84 120 152 201 245 282 345
#     4  12  23  39  54  78 119 163 195 237 289 339
#     4  11  23  40  59  83 115 155 201 248 288 342
#     4  12  24  34  59  80 122 166 201 234 282 356
#
# _framework density 18.656753999999999
#
# number of rings (size 3 to 8) (size 9 to 14) (size 15 to 20)
#    0.000    0.222    6.667    2.667    6.222    1.778 
#    0.000    0.000    0.000    0.000    0.000    0.000 
#    0.000   62.222    0.000    0.000    0.000    0.000 
#
# Total GULP energy -201020.513571 kJ/mol
# GULP energy per Si atom -5583.903155 kJ/mol
# Density = 1.861429 g / cm^3
# Si number density = 18.656754 Si / 1000 Ang^3
#
#
#
# Elastic Constant Matrix: (Units=GPa)
#
#
# Indices 1 2 3 4 5 6 
#
# 1 71.8034 34.2569 15.7255 0.0000 0.0000 0.0000
# 2 34.2569 67.0661 21.0944 0.0000 0.0000 0.0000
# 3 15.7255 21.0944 100.0574 0.0000 0.0000 0.0000
# 4 0.0000 0.0000 0.0000 10.6114 0.0000 0.0000
# 5 0.0000 0.0000 0.0000 0.0000 46.3577 0.0000
# 6 0.0000 0.0000 0.0000 0.0000 0.0000 17.4160
#
#
#
# Elastic Compliance Matrix: (Units=1/GPa)
#
#
# Indices 1 2 3 4 5 6 
#
# 1 0.018504 -0.009143 -0.000981 0.000000 0.000000 0.000000
# 2 -0.009143 0.020488 -0.002882 0.000000 0.000000 0.000000
# 3 -0.000981 -0.002882 0.010756 0.000000 0.000000 0.000000
# 4 0.000000 0.000000 0.000000 0.094238 0.000000 0.000000
# 5 0.000000 0.000000 0.000000 0.000000 0.021571 0.000000
# 6 0.000000 0.000000 0.000000 0.000000 0.000000 0.057418
#
#
# Mechanical properties :
#
#
# Convention : Reuss Voigt Hill
#
# Bulk Modulus (GPa) = 42.13132 42.34231 42.23681
# Shear Modulus (GPa) = 19.46287 26.06703 22.76495
#
# Velocity S-wave (km/s) = 3.23338 3.74196 3.49692
# Velocity P-wave (km/s) = 6.04740 6.43540 6.24441
#
# Compressibility (1/GPa) = 0.02373531
#
# Stress axis : x y z
#
# Youngs Moduli (GPa) = 54.04289 48.81023 92.97119
#
# Poissons Ratio (x) = 0.44628 0.09116
# Poissons Ratio (y) = 0.49413 0.26797
# Poissons Ratio (z) = 0.05299 0.14068
#
# Static dielectric constant tensor:
#      x y z
#    x 1.724200 0.000000 0.000000 
#    y 0.000000 1.650690 0.000000 
#    z 0.000000 0.000000 1.682830 
# 
# From -- ./inp_files/3441.got.cif
#   From: 2010.05.17/outbox.cif.g08.bks.cpg/sg50_2_cif.got.tgz:3441.got - 2010.06.03 11:33:33.
