data_PCOD9398932
_publ_section_title
;
Structure prediction by ZEFSAII (Michael W. Deem and Ramdas Pophale) SiO2 
 PCOD9398932
Probable space group: P M M A
;
_chemical_formula_sum "Si O2"
_cell_formula_units_Z 40
_cell_length_a 23.433172
_cell_length_b 9.039901
_cell_length_c 11.576954
_cell_angle_alpha 90.000000
_cell_angle_beta 90.000000
_cell_angle_gamma 90.000000
_cell_volume 2452.387322
_symmetry_space_group_name_H-M "P M M A"
_symmetry_group_IT_number 51
_symmetry_cell_setting 'orthorhombic'
loop_
_space_group_symop_operation_xyz
x,y,z
1/2-x,-y,z
1/2+x,-y,-z
-x,y,-z
-x,-y,-z
1/2+x,y,-z
1/2-x,y,z
x,-y,z
loop_
_atom_site_type_symbol
_atom_site_label
_atom_site_fract_x
_atom_site_fract_y
_atom_site_fract_z
Si Si1 0.369949 0.822378 0.432063
Si Si2 0.186186 0.674340 0.865919
Si Si3 0.517413 0.670486 0.635928
Si Si4 0.596536 0.176477 0.303146
Si Si5 0.750000 0.179743 0.672397
Si Si6 0.750000 0.822444 0.940735
O O1 0.421019 0.746985 0.361126
O O2 0.379490 0.791075 0.567855
O O3 0.308016 0.771412 0.389624
O O4 0.374223 0.000000 0.417994
O O5 0.250000 0.691007 0.810485
O O6 0.175637 0.500000 0.880196
O O7 0.138189 0.749694 0.789462
O O8 0.196430 0.754106 0.989081
O O9 0.500000 0.673731 0.500000
O O10 0.519674 0.500000 0.672541
O O11 0.467186 0.757467 0.700582
O O12 0.595223 0.000000 0.288893
O O13 0.750000 0.000000 0.667221
O O14 0.750000 0.220125 0.807183
O O15 0.750000 0.000000 0.950779
#
# Coordination Sequence:
#
# PCOD9398932 Si02
#       6
#     8   8   8   8   4   4
#     4   9  18  31  48  73 102 129 161 194 235 284
#     4   9  19  32  47  69  98 126 155 198 245 283
#     4   9  17  30  46  66  99 135 163 192 233 284
#     4  10  18  28  50  76 100 128 161 197 236 286
#     4   9  18  32  51  72  96 127 158 201 240 277
#     4   9  17  32  51  68  90 125 166 197 238 287
#
# _framework density 16.310637
#
# number of rings (size 3 to 8) (size 9 to 14) (size 15 to 20)
#    0.600    2.200    0.000    1.800    1.400    3.200 
#    0.000    2.500    0.000    1.200    0.000    8.400 
#    0.000    0.000    0.000    0.000    0.000    0.000 
#
# Total GULP energy -222682.213736 kJ/mol
# GULP energy per Si atom -5567.055343 kJ/mol
# Density = 1.627351 g / cm^3
# Si number density = 16.310637 Si / 1000 Ang^3
#
#
#
# Elastic Constant Matrix: (Units=GPa)
#
#
# Indices 1 2 3 4 5 6 
#
# 1 139.7733 45.5977 47.2485 0.0000 0.0000 0.0000
# 2 45.5977 60.2918 31.0603 0.0000 0.0000 0.0000
# 3 47.2485 31.0603 48.2830 0.0000 0.0000 0.0000
# 4 0.0000 0.0000 0.0000 9.9537 0.0000 0.0000
# 5 0.0000 0.0000 0.0000 0.0000 -3.3390 0.0000
# 6 0.0000 0.0000 0.0000 0.0000 0.0000 26.6182
#
#
#
# Elastic Compliance Matrix: (Units=1/GPa)
#
#
# Indices 1 2 3 4 5 6 
#
# 1 0.011389 -0.004295 -0.008382 0.000000 0.000000 0.000000
# 2 -0.004295 0.026427 -0.012797 0.000000 0.000000 0.000000
# 3 -0.008382 -0.012797 0.037146 0.000000 0.000000 0.000000
# 4 0.000000 0.000000 0.000000 0.100465 0.000000 0.000000
# 5 0.000000 0.000000 0.000000 0.000000 -0.299490 0.000000
# 6 0.000000 0.000000 0.000000 0.000000 0.000000 0.037568
#
#
# Mechanical properties :
#
#
# Convention : Reuss Voigt Hill
#
# Bulk Modulus (GPa) = 41.64355 55.12901 48.38628
# Shear Modulus (GPa) = -181.54381 14.94270 -83.30055
#
# Velocity S-wave (km/s) = -10.56151 3.03005 -7.15417
# Velocity P-wave (km/s) = 11.09687 6.79076 6.20589
#
# Compressibility (1/GPa) = 0.02401332
#
# Stress axis : x y z
#
# Youngs Moduli (GPa) = 87.80353 37.83988 26.92088
#
# Poissons Ratio (x) = 0.16253 0.22565
# Poissons Ratio (y) = 0.37714 0.34451
# Poissons Ratio (z) = 0.73596 0.48424
#
# Static dielectric constant tensor:
#      x y z
#    x 1.542780 0.000000 0.000000 
#    y 0.000000 1.542330 0.000000 
#    z 0.000000 0.000000 1.524950 
# 
# From -- ./inp_files/17998.got.cif
#   From: 2010.05.17/outbox.cif.g08.bks.cpg/sg51_9_cif.got.tgz:17998.got - 2010.06.03 11:52:47.
