data_PCOD9398678
_publ_section_title
;
Structure prediction by ZEFSAII (Michael W. Deem and Ramdas Pophale) SiO2 
 PCOD9398678
Probable space group: P M M A
;
_chemical_formula_sum "Si O2"
_cell_formula_units_Z 32
_cell_length_a 17.034637
_cell_length_b 10.738570
_cell_length_c 10.242141
_cell_angle_alpha 90.000000
_cell_angle_beta 90.000000
_cell_angle_gamma 90.000000
_cell_volume 1873.570701
_symmetry_space_group_name_H-M "P M M A"
_symmetry_group_IT_number 51
_symmetry_cell_setting 'orthorhombic'
loop_
_space_group_symop_operation_xyz
x,y,z
1/2-x,-y,z
1/2+x,-y,-z
-x,y,-z
-x,-y,-z
1/2+x,y,-z
1/2-x,y,z
x,-y,z
loop_
_atom_site_type_symbol
_atom_site_label
_atom_site_fract_x
_atom_site_fract_y
_atom_site_fract_z
Si Si1 0.951187 0.500000 0.367650
Si Si2 0.343198 0.736832 0.028866
Si Si3 0.844170 0.000000 0.281899
Si Si4 0.562343 0.500000 0.882433
Si Si5 0.656101 0.726340 0.286106
Si Si6 0.406817 0.000000 0.013122
O O1 0.895161 0.380124 0.351377
O O2 0.000000 0.500000 0.500000
O O3 0.013392 0.500000 0.249743
O O4 0.250000 0.735535 0.048583
O O5 0.384931 0.622778 0.100106
O O6 0.356654 0.722036 0.871727
O O7 0.377765 0.870033 0.073183
O O8 0.868247 0.135154 0.334615
O O9 0.869600 0.000000 0.131228
O O10 0.750000 0.000000 0.284091
O O11 0.500000 0.500000 0.000000
O O12 0.750000 0.709461 0.306496
O O13 0.500000 0.000000 0.000000
#
# Coordination Sequence:
#
# PCOD9398678 Si02
#       6
#     4   8   4   4   8   4
#     4  12  25  37  51  81 114 144 182 229 281 321
#     4  10  19  33  54  82 112 147 180 221 272 328
#     4   8  16  30  53  82 106 134 182 229 261 312
#     4  12  21  35  55  81 108 137 188 229 268 317
#     4   9  17  34  58  80 106 142 184 223 270 326
#     4  10  18  26  48  84 119 140 166 221 281 323
#
# _framework density 17.079685999999999
#
# number of rings (size 3 to 8) (size 9 to 14) (size 15 to 20)
#    0.000    2.000    2.500    4.125    3.500    2.000 
#    0.000    3.125    0.000    0.000    0.000    3.500 
#    0.000    0.000    0.000    0.000    0.000    0.000 
#
# Total GULP energy -178409.293213 kJ/mol
# GULP energy per Si atom -5575.290413 kJ/mol
# Density = 1.704081 g / cm^3
# Si number density = 17.079686 Si / 1000 Ang^3
#
#
#
# Elastic Constant Matrix: (Units=GPa)
#
#
# Indices 1 2 3 4 5 6 
#
# 1 51.4553 89.0692 25.7163 0.0000 0.0000 0.0000
# 2 89.0692 220.6665 41.4509 0.0000 0.0000 0.0000
# 3 25.7163 41.4509 55.7534 0.0000 0.0000 0.0000
# 4 0.0000 0.0000 0.0000 -0.4345 0.0000 0.0000
# 5 0.0000 0.0000 0.0000 0.0000 24.1485 0.0000
# 6 0.0000 0.0000 0.0000 0.0000 0.0000 18.3370
#
#
#
# Elastic Compliance Matrix: (Units=1/GPa)
#
#
# Indices 1 2 3 4 5 6 
#
# 1 0.072356 -0.026659 -0.013554 0.000000 0.000000 0.000000
# 2 -0.026659 0.015090 0.001078 0.000000 0.000000 0.000000
# 3 -0.013554 0.001078 0.023386 0.000000 0.000000 0.000000
# 4 0.000000 0.000000 0.000000 -2.301711 0.000000 0.000000
# 5 0.000000 0.000000 0.000000 0.000000 0.041411 0.000000
# 6 0.000000 0.000000 0.000000 0.000000 0.000000 0.054534
#
#
# Mechanical properties :
#
#
# Convention : Reuss Voigt Hill
#
# Bulk Modulus (GPa) = 30.71115 71.14978 50.93047
# Shear Modulus (GPa) = -2.49276 19.85280 8.68002
#
# Velocity S-wave (km/s) = -1.20940 3.41304 2.25679
# Velocity P-wave (km/s) = 4.00873 7.56834 6.05598
#
# Compressibility (1/GPa) = 0.03256146
#
# Stress axis : x y z
#
# Youngs Moduli (GPa) = 13.82062 66.26899 42.75972
#
# Poissons Ratio (x) = 1.76669 0.57955
# Poissons Ratio (y) = 0.36845 -0.04608
# Poissons Ratio (z) = 0.18732 -0.07142
#
# Static dielectric constant tensor:
#      x y z
#    x 1.563570 0.000000 0.000000 
#    y 0.000000 1.628450 0.000000 
#    z 0.000000 0.000000 1.535270 
# 
# From -- ./inp_files/7666.got.cif
#   From: 2010.05.17/outbox.cif.g08.bks.cpg/sg51_4_cif.got.tgz:7666.got - 2010.06.03 11:52:47.
