data_PCOD9398643
_publ_section_title
;
Structure prediction by ZEFSAII (Michael W. Deem and Ramdas Pophale) SiO2 
 PCOD9398643
Probable space group: P M M A
;
_chemical_formula_sum "Si O2"
_cell_formula_units_Z 64
_cell_length_a 14.824021
_cell_length_b 23.312923
_cell_length_c 9.332901
_cell_angle_alpha 90.000000
_cell_angle_beta 90.000000
_cell_angle_gamma 90.000000
_cell_volume 3225.369017
_symmetry_space_group_name_H-M "P M M A"
_symmetry_group_IT_number 51
_symmetry_cell_setting 'orthorhombic'
loop_
_space_group_symop_operation_xyz
x,y,z
1/2-x,-y,z
1/2+x,-y,-z
-x,y,-z
-x,-y,-z
1/2+x,y,-z
1/2-x,y,z
x,-y,z
loop_
_atom_site_type_symbol
_atom_site_label
_atom_site_fract_x
_atom_site_fract_y
_atom_site_fract_z
Si Si1 0.851518 0.157710 0.847320
Si Si2 0.524002 0.881871 0.346053
Si Si3 0.068659 0.242673 0.627355
Si Si4 0.855590 0.383501 0.696649
Si Si5 0.900832 0.063382 0.070816
Si Si6 0.351305 0.360452 0.637147
Si Si7 0.563074 0.722636 0.872185
Si Si8 0.518799 0.564011 0.168219
O O1 0.750000 0.158113 0.785050
O O2 0.875112 0.221851 0.904057
O O3 0.930527 0.137709 0.735723
O O4 0.854061 0.113413 0.979938
O O5 0.500000 0.908555 0.500000
O O6 0.583276 0.824977 0.383225
O O7 0.580189 0.919435 0.234584
O O8 0.143681 0.291159 0.634825
O O9 0.000000 0.258381 0.500000
O O10 0.011659 0.251198 0.768852
O O11 0.750000 0.394426 0.716573
O O12 0.873209 0.376975 0.526951
O O13 0.883085 0.326244 0.786397
O O14 0.921667 0.431339 0.756956
O O15 0.859856 0.000000 0.058016
O O16 0.000000 0.060671 0.000000
O O17 0.250000 0.379126 0.670983
O O18 0.419283 0.389234 0.750299
O O19 0.500000 0.700346 0.000000
O O20 0.557489 0.500000 0.186684
O O21 0.500000 0.573117 0.000000
#
# Coordination Sequence:
#
# PCOD9398643 Si02
#       8
#     8   8   8   8   8   8   8   8
#     4  10  20  35  56  85 118 158 207 255 307 367
#     4   9  19  34  56  86 118 160 202 255 312 372
#     4  10  17  34  56  81 122 164 196 241 309 373
#     4  11  23  39  63  94 124 161 206 251 306 370
#     4   9  18  36  58  80 112 158 208 250 299 367
#     4  11  23  40  64  94 125 163 209 251 302 370
#     4  11  20  35  58  85 124 158 198 249 306 362
#     4  11  25  46  67  90 125 165 203 254 309 357
#
# _framework density 19.842690999999999
#
# number of rings (size 3 to 8) (size 9 to 14) (size 15 to 20)
#    0.000    1.750    2.500    3.000    0.000    2.500 
#    0.000    5.625    0.000    0.000    0.000    0.000 
#    0.000    0.000    0.000    0.000    0.000    0.000 
#
# Total GULP energy -356649.003076 kJ/mol
# GULP energy per Si atom -5572.640673 kJ/mol
# Density = 1.979753 g / cm^3
# Si number density = 19.842691 Si / 1000 Ang^3
#
#
#
# Elastic Constant Matrix: (Units=GPa)
#
#
# Indices 1 2 3 4 5 6 
#
# 1 73.9491 20.0522 36.1573 0.0000 0.0000 0.0000
# 2 20.0522 89.6556 29.8569 0.0000 0.0000 0.0000
# 3 36.1573 29.8569 111.7878 0.0000 0.0000 0.0000
# 4 0.0000 0.0000 0.0000 -3.4520 0.0000 0.0000
# 5 0.0000 0.0000 0.0000 0.0000 18.3440 0.0000
# 6 0.0000 0.0000 0.0000 0.0000 0.0000 -0.4231
#
#
#
# Elastic Compliance Matrix: (Units=1/GPa)
#
#
# Indices 1 2 3 4 5 6 
#
# 1 0.016412 -0.002089 -0.004751 0.000000 0.000000 0.000000
# 2 -0.002089 0.012509 -0.002665 0.000000 0.000000 0.000000
# 3 -0.004751 -0.002665 0.011194 0.000000 0.000000 0.000000
# 4 0.000000 0.000000 0.000000 -0.289687 0.000000 0.000000
# 5 0.000000 0.000000 0.000000 0.000000 0.054514 0.000000
# 6 0.000000 0.000000 0.000000 0.000000 0.000000 -2.363745
#
#
# Mechanical properties :
#
#
# Convention : Reuss Voigt Hill
#
# Bulk Modulus (GPa) = 47.38111 49.72505 48.55308
# Shear Modulus (GPa) = -1.97413 15.51552 6.77070
#
# Velocity S-wave (km/s) = -0.99852 2.79933 1.84921
# Velocity P-wave (km/s) = 4.75403 5.96342 5.39273
#
# Compressibility (1/GPa) = 0.02110546
#
# Stress axis : x y z
#
# Youngs Moduli (GPa) = 60.93125 79.94547 89.33429
#
# Poissons Ratio (x) = 0.16698 0.42438
# Poissons Ratio (y) = 0.12726 0.23810
# Poissons Ratio (z) = 0.28946 0.21308
#
# Static dielectric constant tensor:
#      x y z
#    x 1.706860 0.000000 0.000000 
#    y 0.000000 1.756610 0.000000 
#    z 0.000000 0.000000 1.704580 
# 
# From -- ./inp_files/8688.got.cif
#   From: 2010.05.17/outbox.cif.g08.bks.cpg/sg51_5_cif.got.tgz:8688.got - 2010.06.03 11:52:47.
