data_PCOD9398799
_publ_section_title
;
Structure prediction by ZEFSAII (Michael W. Deem and Ramdas Pophale) SiO2 
 PCOD9398799
Probable space group: P M M A
;
_chemical_formula_sum "Si O2"
_cell_formula_units_Z 52
_cell_length_a 8.780234
_cell_length_b 27.061022
_cell_length_c 14.049230
_cell_angle_alpha 90.000000
_cell_angle_beta 90.000000
_cell_angle_gamma 90.000000
_cell_volume 3338.126628
_symmetry_space_group_name_H-M "P M M A"
_symmetry_group_IT_number 51
_symmetry_cell_setting 'orthorhombic'
loop_
_space_group_symop_operation_xyz
x,y,z
1/2-x,-y,z
1/2+x,-y,-z
-x,y,-z
-x,-y,-z
1/2+x,y,-z
1/2-x,y,z
x,-y,z
loop_
_atom_site_type_symbol
_atom_site_label
_atom_site_fract_x
_atom_site_fract_y
_atom_site_fract_z
Si Si1 0.432513 0.853098 0.717852
Si Si2 0.933507 0.602166 0.893346
Si Si3 0.931872 0.753923 0.395673
Si Si4 0.432342 0.199844 0.104292
Si Si5 0.432694 0.701399 0.218190
Si Si6 0.932095 0.942909 0.604777
Si Si7 0.932642 0.500000 0.107269
O O1 0.250000 0.854851 0.722828
O O2 0.475812 0.807838 0.646904
O O3 0.500620 0.838712 0.819933
O O4 0.497693 0.903743 0.676937
O O5 0.750000 0.598045 0.899949
O O6 0.973511 0.649217 0.828759
O O7 0.003108 0.551325 0.852234
O O8 0.000000 0.609242 0.000000
O O9 0.750000 0.751950 0.400432
O O10 0.000000 0.747063 0.500000
O O11 0.991084 0.714459 0.318517
O O12 0.250000 0.196218 0.101737
O O13 0.473575 0.254101 0.145885
O O14 0.500000 0.193400 0.000000
O O15 0.250000 0.702586 0.230424
O O16 0.750000 0.937451 0.601262
O O17 0.000000 0.933413 0.500000
O O18 0.967638 0.000000 0.629378
O O19 0.750000 0.500000 0.105315
O O20 0.000000 0.500000 0.000000
#
# Coordination Sequence:
#
# PCOD9398799 Si02
#       7
#     8   8   8   8   8   8   4
#     4  10  20  33  50  72  96 126 160 193 232 277
#     4  10  18  29  45  66  93 124 156 192 231 273
#     4  10  20  32  48  69  95 124 155 191 230 275
#     4  10  19  32  49  70  97 127 159 195 232 275
#     4   9  19  32  47  68  94 124 157 192 232 275
#     4  10  20  33  50  73  99 126 156 192 235 281
#     4  10  18  28  42  62  89 122 157 192 230 274
#
# _framework density 15.5776
#
# number of rings (size 3 to 8) (size 9 to 14) (size 15 to 20)
#    0.000    2.154    0.000    4.846    0.000    5.846 
#    0.000    0.000    0.000    0.462    0.000    0.538 
#    0.000    0.000    0.000    0.000    0.000    0.000 
#
# Total GULP energy -290151.348643 kJ/mol
# GULP energy per Si atom -5579.833628 kJ/mol
# Density = 1.554214 g / cm^3
# Si number density = 15.577600 Si / 1000 Ang^3
#
#
#
# Elastic Constant Matrix: (Units=GPa)
#
#
# Indices 1 2 3 4 5 6 
#
# 1 65.0237 55.9413 53.0680 0.0000 0.0000 0.0000
# 2 55.9413 129.1960 81.6448 0.0000 0.0000 0.0000
# 3 53.0680 81.6448 134.2136 0.0000 0.0000 0.0000
# 4 0.0000 0.0000 0.0000 22.9119 0.0000 0.0000
# 5 0.0000 0.0000 0.0000 0.0000 27.8792 0.0000
# 6 0.0000 0.0000 0.0000 0.0000 0.0000 24.5930
#
#
#
# Elastic Compliance Matrix: (Units=1/GPa)
#
#
# Indices 1 2 3 4 5 6 
#
# 1 0.027025 -0.008040 -0.005795 0.000000 0.000000 0.000000
# 2 -0.008040 0.014966 -0.005925 0.000000 0.000000 0.000000
# 3 -0.005795 -0.005925 0.013346 0.000000 0.000000 0.000000
# 4 0.000000 0.000000 0.000000 0.043645 0.000000 0.000000
# 5 0.000000 0.000000 0.000000 0.000000 0.035869 0.000000
# 6 0.000000 0.000000 0.000000 0.000000 0.000000 0.040662
#
#
# Mechanical properties :
#
#
# Convention : Reuss Voigt Hill
#
# Bulk Modulus (GPa) = 63.21969 78.86016 71.03993
# Shear Modulus (GPa) = 22.69573 24.26211 23.47892
#
# Velocity S-wave (km/s) = 3.82114 3.95080 3.88651
# Velocity P-wave (km/s) = 7.75499 8.45847 8.11436
#
# Compressibility (1/GPa) = 0.01581786
#
# Stress axis : x y z
#
# Youngs Moduli (GPa) = 37.00246 66.81999 74.92609
#
# Poissons Ratio (x) = 0.53721 0.43420
# Poissons Ratio (y) = 0.29749 0.44394
# Poissons Ratio (z) = 0.21443 0.39591
#
# Static dielectric constant tensor:
#      x y z
#    x 1.516380 0.000000 0.000000 
#    y 0.000000 1.529780 0.000000 
#    z 0.000000 0.000000 1.487030 
# 
# From -- ./inp_files/14597.got.cif
#   From: 2010.05.17/outbox.cif.g08.bks.cpg/sg51_8_cif.got.tgz:14597.got - 2010.06.03 11:52:47.
