data_PCOD9398913
_publ_section_title
;
Structure prediction by ZEFSAII (Michael W. Deem and Ramdas Pophale) SiO2 
 PCOD9398913
Probable space group: P M M A
;
_chemical_formula_sum "Si O2"
_cell_formula_units_Z 48
_cell_length_a 31.324958
_cell_length_b 8.087902
_cell_length_c 10.391482
_cell_angle_alpha 90.000000
_cell_angle_beta 90.000000
_cell_angle_gamma 90.000000
_cell_volume 2632.715118
_symmetry_space_group_name_H-M "P M M A"
_symmetry_group_IT_number 51
_symmetry_cell_setting 'orthorhombic'
loop_
_space_group_symop_operation_xyz
x,y,z
1/2-x,-y,z
1/2+x,-y,-z
-x,y,-z
-x,-y,-z
1/2+x,y,-z
1/2-x,y,z
x,-y,z
loop_
_atom_site_type_symbol
_atom_site_label
_atom_site_fract_x
_atom_site_fract_y
_atom_site_fract_z
Si Si1 0.295856 0.195484 0.287210
Si Si2 0.112264 0.803713 0.259659
Si Si3 0.203945 0.700107 0.990261
Si Si4 0.025345 0.306921 0.377754
Si Si5 0.522696 0.806970 0.130601
Si Si6 0.889262 0.305143 0.035772
O O1 0.250000 0.266288 0.333595
O O2 0.343152 0.258374 0.322839
O O3 0.295006 0.000000 0.315633
O O4 0.295847 0.222349 0.132775
O O5 0.070754 0.772908 0.344726
O O6 0.106356 0.723457 0.118428
O O7 0.116590 0.000000 0.237065
O O8 0.250000 0.741655 0.929374
O O9 0.202342 0.500000 0.005131
O O10 0.158948 0.748962 0.928123
O O11 0.033490 0.500000 0.401780
O O12 0.000000 0.236489 0.500000
O O13 0.995608 0.286302 0.252953
O O14 0.511334 0.000000 0.145868
O O15 0.500000 0.745812 0.000000
O O16 0.572956 0.786983 0.108336
O O17 0.893825 0.500000 0.060939
#
# Coordination Sequence:
#
# PCOD9398913 Si02
#       6
#     8   8   8   8   8   8
#     4   8  14  24  39  62  93 126 158 193 235 285
#     4  10  18  29  47  71  99 131 165 201 245 293
#     4   8  14  24  38  61  94 128 160 194 238 289
#     4  11  24  39  54  73  98 131 169 209 254 303
#     4  11  22  35  53  76 100 130 167 207 248 295
#     4  10  18  28  47  72  99 132 166 205 247 289
#
# _framework density 18.232130000000002
#
# number of rings (size 3 to 8) (size 9 to 14) (size 15 to 20)
#    0.000    2.333    1.667    2.000    0.000    3.333 
#    0.000    0.000    0.000    0.000    0.000    1.167 
#    0.000    1.333    0.000    0.000    0.000    0.000 
#
# Total GULP energy -267331.313870 kJ/mol
# GULP energy per Si atom -5569.402372 kJ/mol
# Density = 1.819063 g / cm^3
# Si number density = 18.232130 Si / 1000 Ang^3
#
#
#
# Elastic Constant Matrix: (Units=GPa)
#
#
# Indices 1 2 3 4 5 6 
#
# 1 174.7141 -4.7687 32.9136 0.0000 0.0000 0.0000
# 2 -4.7687 15.8438 -2.5618 0.0000 0.0000 0.0000
# 3 32.9136 -2.5618 40.1105 0.0000 0.0000 0.0000
# 4 0.0000 0.0000 0.0000 21.0042 0.0000 0.0000
# 5 0.0000 0.0000 0.0000 0.0000 11.1542 0.0000
# 6 0.0000 0.0000 0.0000 0.0000 0.0000 18.0047
#
#
#
# Elastic Compliance Matrix: (Units=1/GPa)
#
#
# Indices 1 2 3 4 5 6 
#
# 1 0.006791 0.001155 -0.005499 0.000000 0.000000 0.000000
# 2 0.001155 0.063971 0.003138 0.000000 0.000000 0.000000
# 3 -0.005499 0.003138 0.029644 0.000000 0.000000 0.000000
# 4 0.000000 0.000000 0.000000 0.047610 0.000000 0.000000
# 5 0.000000 0.000000 0.000000 0.000000 0.089652 0.000000
# 6 0.000000 0.000000 0.000000 0.000000 0.000000 0.055541
#
#
# Mechanical properties :
#
#
# Convention : Reuss Voigt Hill
#
# Bulk Modulus (GPa) = 10.20470 31.31497 20.75984
# Shear Modulus (GPa) = 15.23065 23.70496 19.46781
#
# Velocity S-wave (km/s) = 2.89342 3.60971 3.27123
# Velocity P-wave (km/s) = 4.09533 5.88101 5.06745
#
# Compressibility (1/GPa) = 0.09799402
#
# Stress axis : x y z
#
# Youngs Moduli (GPa) = 147.25269 15.63208 33.73397
#
# Poissons Ratio (x) = -0.01805 0.18550
# Poissons Ratio (y) = -0.17006 -0.10586
# Poissons Ratio (z) = 0.80971 -0.04905
#
# Static dielectric constant tensor:
#      x y z
#    x 1.718860 0.000000 0.000000 
#    y 0.000000 1.651140 0.000000 
#    z 0.000000 0.000000 1.577120 
# 
# From -- ./inp_files/19291.got.cif
#   From: 2010.05.17/outbox.cif.g08.bks.cpg/sg51_10_cif.got.tgz:19291.got - 2010.06.03 11:52:47.
