data_PCOD9398532
_publ_section_title
;
Structure prediction by ZEFSAII (Michael W. Deem and Ramdas Pophale) SiO2 
 PCOD9398532
Probable space group: P M M A
;
_chemical_formula_sum "Si O2"
_cell_formula_units_Z 64
_cell_length_a 31.073285
_cell_length_b 7.855779
_cell_length_c 15.346256
_cell_angle_alpha 90.000000
_cell_angle_beta 90.000000
_cell_angle_gamma 90.000000
_cell_volume 3746.095669
_symmetry_space_group_name_H-M "P M M A"
_symmetry_group_IT_number 51
_symmetry_cell_setting 'orthorhombic'
loop_
_space_group_symop_operation_xyz
x,y,z
1/2-x,-y,z
1/2+x,-y,-z
-x,y,-z
-x,-y,-z
1/2+x,y,-z
1/2-x,y,z
x,-y,z
loop_
_atom_site_type_symbol
_atom_site_label
_atom_site_fract_x
_atom_site_fract_y
_atom_site_fract_z
Si Si1 0.883344 0.795730 0.204779
Si Si2 0.390729 0.794714 0.461677
Si Si3 0.797152 0.797471 0.287557
Si Si4 0.537419 0.202906 0.669751
Si Si5 0.798048 0.702746 0.487829
Si Si6 0.971551 0.705851 0.868960
Si Si7 0.437892 0.295682 0.950805
Si Si8 0.558433 0.208492 0.364830
O O1 0.836989 0.727257 0.233330
O O2 0.897810 0.754490 0.107662
O O3 0.918416 0.734874 0.275722
O O4 0.882430 0.000000 0.213381
O O5 0.421570 0.731728 0.383952
O O6 0.340626 0.746075 0.457832
O O7 0.413228 0.737727 0.552264
O O8 0.391529 0.000000 0.462488
O O9 0.750000 0.724426 0.268148
O O10 0.805128 0.774538 0.390510
O O11 0.795430 0.000000 0.271560
O O12 0.539658 0.233458 0.772912
O O13 0.491093 0.267428 0.635102
O O14 0.536522 0.000000 0.655722
O O15 0.750000 0.761252 0.517105
O O16 0.796369 0.500000 0.480653
O O17 0.971829 0.500000 0.866426
O O18 0.019181 0.763839 0.899381
O O19 0.940969 0.761694 0.948994
O O20 0.440321 0.500000 0.952798
O O21 0.557854 0.000000 0.365480
#
# Coordination Sequence:
#
# PCOD9398532 Si02
#       8
#     8   8   8   8   8   8   8   8
#     4  10  17  27  46  69  91 120 155 188 225 268
#     4  10  19  32  48  66  91 126 159 187 225 274
#     4   9  17  30  47  66  91 122 153 185 225 274
#     4  10  19  30  47  68  92 123 158 193 227 263
#     4  10  20  32  46  66  91 118 152 195 235 267
#     4   9  18  32  46  62  89 121 153 188 228 269
#     4   9  18  31  46  64  88 121 153 184 226 272
#     4   9  16  28  43  65  95 124 154 185 219 262
#
# _framework density 17.084454999999998
#
# number of rings (size 3 to 8) (size 9 to 14) (size 15 to 20)
#    0.000    2.500    2.500    1.500    0.000    3.750 
#    0.000    1.875    0.000    1.500    0.000    0.875 
#    0.000    3.000    0.000    0.000    0.000    0.000 
#
# Total GULP energy -356719.702834 kJ/mol
# GULP energy per Si atom -5573.745357 kJ/mol
# Density = 1.704557 g / cm^3
# Si number density = 17.084455 Si / 1000 Ang^3
#
#
#
# Elastic Constant Matrix: (Units=GPa)
#
#
# Indices 1 2 3 4 5 6 
#
# 1 147.8593 8.4313 56.8221 0.0000 0.0000 0.0000
# 2 8.4313 14.4503 -1.6346 0.0000 0.0000 0.0000
# 3 56.8221 -1.6346 69.6956 0.0000 0.0000 0.0000
# 4 0.0000 0.0000 0.0000 20.6352 0.0000 0.0000
# 5 0.0000 0.0000 0.0000 0.0000 24.9192 0.0000
# 6 0.0000 0.0000 0.0000 0.0000 0.0000 234.8516
#
#
#
# Elastic Compliance Matrix: (Units=1/GPa)
#
#
# Indices 1 2 3 4 5 6 
#
# 1 0.010535 -0.007138 -0.008757 0.000000 0.000000 0.000000
# 2 -0.007138 0.074223 0.007560 0.000000 0.000000 0.000000
# 3 -0.008757 0.007560 0.021665 0.000000 0.000000 0.000000
# 4 0.000000 0.000000 0.000000 0.048461 0.000000 0.000000
# 5 0.000000 0.000000 0.000000 0.000000 0.040130 0.000000
# 6 0.000000 0.000000 0.000000 0.000000 0.000000 0.004258
#
#
# Mechanical properties :
#
#
# Convention : Reuss Voigt Hill
#
# Bulk Modulus (GPa) = 11.14158 39.91586 25.52872
# Shear Modulus (GPa) = 20.33691 67.30695 43.82193
#
# Velocity S-wave (km/s) = 3.45392 6.28348 5.07009
# Velocity P-wave (km/s) = 4.73727 8.72109 7.01780
#
# Compressibility (1/GPa) = 0.08975391
#
# Stress axis : x y z
#
# Youngs Moduli (GPa) = 94.91793 13.47297 46.15791
#
# Poissons Ratio (x) = 0.09617 0.40420
# Poissons Ratio (y) = 0.67749 -0.34895
# Poissons Ratio (z) = 0.83118 -0.10186
#
# Static dielectric constant tensor:
#      x y z
#    x 1.616090 0.000000 0.000000 
#    y 0.000000 1.624460 0.000000 
#    z 0.000000 0.000000 1.563160 
# 
# From -- ./inp_files/26606.got.cif
#   From: 2010.05.17/outbox.cif.g08.bks.cpg/sg51_14_cif.got.tgz:26606.got - 2010.06.03 11:52:47.
