data_PCOD9398768
_publ_section_title
;
Structure prediction by ZEFSAII (Michael W. Deem and Ramdas Pophale) SiO2 
 PCOD9398768
Probable space group: P M M A
;
_chemical_formula_sum "Si O2"
_cell_formula_units_Z 36
_cell_length_a 7.464075
_cell_length_b 19.279225
_cell_length_c 14.760496
_cell_angle_alpha 90.000000
_cell_angle_beta 90.000000
_cell_angle_gamma 90.000000
_cell_volume 2124.058716
_symmetry_space_group_name_H-M "P M M A"
_symmetry_group_IT_number 51
_symmetry_cell_setting 'orthorhombic'
loop_
_space_group_symop_operation_xyz
x,y,z
1/2-x,-y,z
1/2+x,-y,-z
-x,y,-z
-x,-y,-z
1/2+x,y,-z
1/2-x,y,z
x,-y,z
loop_
_atom_site_type_symbol
_atom_site_label
_atom_site_fract_x
_atom_site_fract_y
_atom_site_fract_z
Si Si1 0.464508 0.425418 0.392053
Si Si2 0.536267 0.000000 0.606397
Si Si3 0.469663 0.862275 0.289193
Si Si4 0.536019 0.920630 0.898514
Si Si5 0.464953 0.273998 0.392664
O O1 0.500000 0.425689 0.500000
O O2 0.250000 0.425605 0.378755
O O3 0.533241 0.500000 0.356757
O O4 0.533179 0.350006 0.361809
O O5 0.500000 0.000000 0.500000
O O6 0.470963 0.929738 0.653956
O O7 0.750000 0.000000 0.619449
O O8 0.250000 0.860964 0.291356
O O9 0.527056 0.874738 0.185568
O O10 0.531996 0.791484 0.335886
O O11 0.750000 0.925085 0.889150
O O12 0.466193 0.000000 0.891477
O O13 0.500000 0.895020 0.000000
O O14 0.500000 0.264927 0.500000
O O15 0.250000 0.275585 0.382904
#
# Coordination Sequence:
#
# PCOD9398768 Si02
#       5
#     8   4   8   8   8
#     4   8  13  21  33  49  69  93 121 151 179 206
#     4  10  18  28  39  52  72 100 129 152 173 204
#     4   9  16  27  41  54  72  99 125 147 180 222
#     4   9  16  28  44  58  71  90 117 151 189 226
#     4   9  16  25  37  53  74 101 128 151 177 211
#
# _framework density 16.948684
#
# number of rings (size 3 to 8) (size 9 to 14) (size 15 to 20)
#    0.000    3.111    1.111    0.667    0.000    0.000 
#    0.000    2.222    0.000    0.000    0.000    0.000 
#    0.000    0.889    0.000    0.667    0.000    1.778 
#
# Total GULP energy -200482.682017 kJ/mol
# GULP energy per Si atom -5568.963389 kJ/mol
# Density = 1.691011 g / cm^3
# Si number density = 16.948684 Si / 1000 Ang^3
#
#
#
# Elastic Constant Matrix: (Units=GPa)
#
#
# Indices 1 2 3 4 5 6 
#
# 1 50.6559 9.3216 -1.4511 0.0000 0.0000 0.0000
# 2 9.3216 193.8710 86.0204 0.0000 0.0000 0.0000
# 3 -1.4511 86.0204 111.2571 0.0000 0.0000 0.0000
# 4 0.0000 0.0000 0.0000 3.4210 0.0000 0.0000
# 5 0.0000 0.0000 0.0000 0.0000 14.0054 0.0000
# 6 0.0000 0.0000 0.0000 0.0000 0.0000 -3.5144
#
#
#
# Elastic Compliance Matrix: (Units=1/GPa)
#
#
# Indices 1 2 3 4 5 6 
#
# 1 0.020088 -0.001647 0.001536 0.000000 0.000000 0.000000
# 2 -0.001647 0.007987 -0.006197 0.000000 0.000000 0.000000
# 3 0.001536 -0.006197 0.013799 0.000000 0.000000 0.000000
# 4 0.000000 0.000000 0.000000 0.292315 0.000000 0.000000
# 5 0.000000 0.000000 0.000000 0.000000 0.071401 0.000000
# 6 0.000000 0.000000 0.000000 0.000000 0.000000 -0.284543
#
#
# Mechanical properties :
#
#
# Convention : Reuss Voigt Hill
#
# Bulk Modulus (GPa) = 34.17906 60.39620 47.28763
# Shear Modulus (GPa) = 34.86355 20.24193 27.55274
#
# Velocity S-wave (km/s) = 4.54034 3.45962 4.03632
# Velocity P-wave (km/s) = 6.90625 7.18824 7.04865
#
# Compressibility (1/GPa) = 0.02925768
#
# Stress axis : x y z
#
# Youngs Moduli (GPa) = 49.78062 125.20888 72.46821
#
# Poissons Ratio (x) = 0.20624 -0.11128
# Poissons Ratio (y) = 0.08200 0.44905
# Poissons Ratio (z) = -0.07644 0.77586
#
# Static dielectric constant tensor:
#      x y z
#    x 1.633340 0.000000 0.000000 
#    y 0.000000 1.623140 0.000000 
#    z 0.000000 0.000000 1.512700 
# 
# From -- ./inp_files/14178.got.cif
#   From: 2010.05.17/outbox.cif.g08.bks.cpg/sg51_8_cif.got.tgz:14178.got - 2010.06.03 11:52:47.
