data_PCOD9398058
_publ_section_title
;
Structure prediction by ZEFSAII (Michael W. Deem and Ramdas Pophale) SiO2 
 PCOD9398058
Probable space group: P B A N
;
_chemical_formula_sum "Si O2"
_cell_formula_units_Z 34
_cell_length_a 12.200269
_cell_length_b 8.826006
_cell_length_c 14.887397
_cell_angle_alpha 90.000000
_cell_angle_beta 90.000000
_cell_angle_gamma 90.000000
_cell_volume 1603.069660
_symmetry_space_group_name_H-M "P B A N"
_symmetry_group_IT_number 50
_space_group.IT_coordinate_system_code '2'
_symmetry_cell_setting 'orthorhombic'
loop_
_space_group_symop_operation_xyz
x,y,z
1/2-x,1/2-y,z
x,1/2-y,-z
1/2-x,y,-z
-x,-y,-z
1/2+x,1/2+y,-z
-x,1/2+y,z
1/2+x,-y,z
loop_
_atom_site_type_symbol
_atom_site_label
_atom_site_fract_x
_atom_site_fract_y
_atom_site_fract_z
Si Si1 0.089898 0.102550 0.646363
Si Si2 0.372617 0.736869 0.607791
Si Si3 0.942278 0.123010 0.064321
Si Si4 0.750000 0.750000 0.500000
Si Si5 0.863474 0.826338 0.153118
O O1 0.168249 0.156617 0.564725
O O2 0.132608 0.170046 0.739224
O O3 0.963335 0.146420 0.637651
O O4 0.088844 0.923896 0.641525
O O5 0.250000 0.750000 0.642746
O O6 0.369372 0.750000 0.500000
O O7 0.035228 0.221515 0.117355
O O8 0.872812 0.004343 0.124021
O O9 0.886700 0.250000 0.000000
O O10 0.000000 0.000000 0.000000
O O11 0.750000 0.750000 0.121584
#
# Coordination Sequence:
#
# PCOD9398058 Si02
#       5
#     8   8   8   2   8
#     4  12  25  42  67  98 141 184 242 288 341 409
#     4  11  25  42  64  92 130 182 241 293 348 403
#     4   9  21  43  69  99 134 169 221 281 355 432
#     4  12  24  40  68  96 142 200 234 278 348 392
#     4  11  23  43  69 103 138 182 225 290 348 420
#
# _framework density 21.209309000000001
#
# number of rings (size 3 to 8) (size 9 to 14) (size 15 to 20)
#    0.000    1.176    2.353    3.529    3.294    6.118 
#    0.000    8.235    0.000    0.000    0.000    0.000 
#    0.000    0.000    0.000    0.000    0.000    0.000 
#
# Total GULP energy -189743.239320 kJ/mol
# GULP energy per Si atom -5580.683509 kJ/mol
# Density = 2.116104 g / cm^3
# Si number density = 21.209309 Si / 1000 Ang^3
#
#
#
# Elastic Constant Matrix: (Units=GPa)
#
#
# Indices 1 2 3 4 5 6 
#
# 1 160.8182 85.9347 26.9988 0.0000 0.0000 0.0000
# 2 85.9347 164.8271 33.1354 0.0000 0.0000 0.0000
# 3 26.9988 33.1354 93.5629 0.0000 0.0000 0.0000
# 4 0.0000 0.0000 0.0000 42.3058 0.0000 0.0000
# 5 0.0000 0.0000 0.0000 0.0000 5.4425 0.0000
# 6 0.0000 0.0000 0.0000 0.0000 0.0000 -7.3228
#
#
#
# Elastic Compliance Matrix: (Units=1/GPa)
#
#
# Indices 1 2 3 4 5 6 
#
# 1 0.008701 -0.004341 -0.000974 0.000000 0.000000 0.000000
# 2 -0.004341 0.008697 -0.001828 0.000000 0.000000 0.000000
# 3 -0.000974 -0.001828 0.011616 0.000000 0.000000 0.000000
# 4 0.000000 0.000000 0.000000 0.023637 0.000000 0.000000
# 5 0.000000 0.000000 0.000000 0.000000 0.183739 0.000000
# 6 0.000000 0.000000 0.000000 0.000000 0.000000 -0.136560
#
#
# Mechanical properties :
#
#
# Convention : Reuss Voigt Hill
#
# Bulk Modulus (GPa) = 67.88431 79.03845 73.46138
# Shear Modulus (GPa) = 42.00777 26.29440 34.15108
#
# Velocity S-wave (km/s) = 4.45525 3.52484 4.01707
# Velocity P-wave (km/s) = 7.65128 7.34253 7.49849
#
# Compressibility (1/GPa) = 0.01473095
#
# Stress axis : x y z
#
# Youngs Moduli (GPa) = 114.92720 114.97591 86.08674
#
# Poissons Ratio (x) = 0.49908 0.08381
# Poissons Ratio (y) = 0.49887 0.15734
# Poissons Ratio (z) = 0.11189 0.21013
#
# Static dielectric constant tensor:
#      x y z
#    x 1.802320 0.000000 0.000000 
#    y 0.000000 1.743960 0.000000 
#    z 0.000000 0.000000 1.795110 
# 
# From -- ./inp_files/24461.got.cif
#   From: 2010.05.17/outbox.cif.g08.bks.cpg/sg50_13_cif.got.tgz:24461.got - 2010.06.03 11:33:33.
