data_PCOD9398681
_publ_section_title
;
Structure prediction by ZEFSAII (Michael W. Deem and Ramdas Pophale) SiO2 
 PCOD9398681
Probable space group: P M M A
;
_chemical_formula_sum "Si O2"
_cell_formula_units_Z 64
_cell_length_a 8.639770
_cell_length_b 27.296263
_cell_length_c 18.928401
_cell_angle_alpha 90.000000
_cell_angle_beta 90.000000
_cell_angle_gamma 90.000000
_cell_volume 4463.949811
_symmetry_space_group_name_H-M "P M M A"
_symmetry_group_IT_number 51
_symmetry_cell_setting 'orthorhombic'
loop_
_space_group_symop_operation_xyz
x,y,z
1/2-x,-y,z
1/2+x,-y,-z
-x,y,-z
-x,-y,-z
1/2+x,y,-z
1/2-x,y,z
x,-y,z
loop_
_atom_site_type_symbol
_atom_site_label
_atom_site_fract_x
_atom_site_fract_y
_atom_site_fract_z
Si Si1 0.063316 0.552642 0.920018
Si Si2 0.065821 0.153081 0.423253
Si Si3 0.436414 0.339883 0.919953
Si Si4 0.426492 0.094012 0.787656
Si Si5 0.427002 0.799355 0.711736
Si Si6 0.437126 0.853365 0.921837
Si Si7 0.066304 0.243828 0.152467
Si Si8 0.061888 0.945553 0.643823
O O1 0.250000 0.552636 0.922421
O O2 0.014357 0.500000 0.887694
O O3 0.017931 0.605998 0.890842
O O4 0.000000 0.552471 0.000000
O O5 0.250000 0.153044 0.424011
O O6 0.000000 0.165121 0.500000
O O7 0.004623 0.190117 0.363249
O O8 0.006560 0.098858 0.401017
O O9 0.250000 0.336515 0.921709
O O10 0.504019 0.295307 0.875576
O O11 0.500000 0.336147 0.000000
O O12 0.250000 0.076896 0.799097
O O13 0.422360 0.147446 0.750265
O O14 0.494277 0.106090 0.864530
O O15 0.494040 0.060626 0.725459
O O16 0.250000 0.782960 0.703569
O O17 0.517334 0.765324 0.766467
O O18 0.250000 0.853705 0.921227
O O19 0.492354 0.800375 0.893496
O O20 0.500000 0.861731 0.000000
O O21 0.250000 0.241127 0.145043
O O22 0.250000 0.940320 0.644325
O O23 0.023998 0.000000 0.617995
#
# Coordination Sequence:
#
# PCOD9398681 Si02
#       8
#     8   8   8   8   8   8   8   8
#     4   8  14  24  37  51  68  95 134 178 221 262
#     4  11  21  33  49  69  92 115 138 164 194 229
#     4  10  18  27  38  54  78 107 140 181 225 261
#     4   7  13  26  43  60  77  99 127 160 197 239
#     4   9  17  32  49  64  83 107 135 164 197 238
#     4  10  18  28  41  57  78 103 133 170 211 250
#     4  11  20  29  41  59  82 107 136 168 207 252
#     4   9  17  31  50  68  85 108 138 170 204 240
#
# _framework density 14.33708
#
# number of rings (size 3 to 8) (size 9 to 14) (size 15 to 20)
#    0.000    2.625    0.000    5.250    0.000    1.000 
#    0.000    0.625    0.000    0.375    0.000    0.000 
#    0.000    0.000    0.000    0.000    0.000    1.000 
#
# Total GULP energy -356285.143885 kJ/mol
# GULP energy per Si atom -5566.955373 kJ/mol
# Density = 1.430445 g / cm^3
# Si number density = 14.337080 Si / 1000 Ang^3
#
#
#
# Elastic Constant Matrix: (Units=GPa)
#
#
# Indices 1 2 3 4 5 6 
#
# 1 60.1378 10.7352 22.8703 0.0000 0.0000 0.0000
# 2 10.7352 38.4947 14.0804 0.0000 0.0000 0.0000
# 3 22.8703 14.0804 90.1956 0.0000 0.0000 0.0000
# 4 0.0000 0.0000 0.0000 7.4076 0.0000 0.0000
# 5 0.0000 0.0000 0.0000 0.0000 19.9537 0.0000
# 6 0.0000 0.0000 0.0000 0.0000 0.0000 11.2115
#
#
#
# Elastic Compliance Matrix: (Units=1/GPa)
#
#
# Indices 1 2 3 4 5 6 
#
# 1 0.018895 -0.003730 -0.004209 0.000000 0.000000 0.000000
# 2 -0.003730 0.028287 -0.003470 0.000000 0.000000 0.000000
# 3 -0.004209 -0.003470 0.012696 0.000000 0.000000 0.000000
# 4 0.000000 0.000000 0.000000 0.134996 0.000000 0.000000
# 5 0.000000 0.000000 0.000000 0.000000 0.050116 0.000000
# 6 0.000000 0.000000 0.000000 0.000000 0.000000 0.089194
#
#
# Mechanical properties :
#
#
# Convention : Reuss Voigt Hill
#
# Bulk Modulus (GPa) = 26.98299 31.57775 29.28037
# Shear Modulus (GPa) = 13.53710 17.12405 15.33057
#
# Velocity S-wave (km/s) = 3.07612 3.45974 3.27356
# Velocity P-wave (km/s) = 5.61052 6.16707 5.89537
#
# Compressibility (1/GPa) = 0.03706038
#
# Stress axis : x y z
#
# Youngs Moduli (GPa) = 52.92434 35.35191 78.76541
#
# Poissons Ratio (x) = 0.13186 0.33151
# Poissons Ratio (y) = 0.19740 0.27332
# Poissons Ratio (z) = 0.22275 0.12268
#
# Static dielectric constant tensor:
#      x y z
#    x 1.487920 0.000000 0.000000 
#    y 0.000000 1.489200 0.000000 
#    z 0.000000 0.000000 1.475810 
# 
# From -- ./inp_files/28561.got.cif
#   From: 2010.05.17/outbox.cif.g08.bks.cpg/sg51_15_cif.got.tgz:28561.got - 2010.06.03 11:52:47.
