data_PCOD9398112
_publ_section_title
;
Structure prediction by ZEFSAII (Michael W. Deem and Ramdas Pophale) SiO2 
 PCOD9398112
Probable space group: P B A N
;
_chemical_formula_sum "Si O2"
_cell_formula_units_Z 40
_cell_length_a 9.549922
_cell_length_b 9.288859
_cell_length_c 20.538612
_cell_angle_alpha 90.000000
_cell_angle_beta 90.000000
_cell_angle_gamma 90.000000
_cell_volume 1821.936706
_symmetry_space_group_name_H-M "P B A N"
_symmetry_group_IT_number 50
_space_group.IT_coordinate_system_code '2'
_symmetry_cell_setting 'orthorhombic'
loop_
_space_group_symop_operation_xyz
x,y,z
1/2-x,1/2-y,z
x,1/2-y,-z
1/2-x,y,-z
-x,-y,-z
1/2+x,1/2+y,-z
-x,1/2+y,z
1/2+x,-y,z
loop_
_atom_site_type_symbol
_atom_site_label
_atom_site_fract_x
_atom_site_fract_y
_atom_site_fract_z
Si Si1 0.805872 0.535036 0.615422
Si Si2 0.085637 0.788999 0.928265
Si Si3 0.460986 0.314347 0.428588
Si Si4 0.988604 0.465532 0.155969
Si Si5 0.741522 0.577889 0.240556
O O1 0.672332 0.576211 0.570679
O O2 0.906353 0.677828 0.613976
O O3 0.739247 0.517678 0.687088
O O4 0.902799 0.400672 0.595690
O O5 0.250000 0.750000 0.928720
O O6 0.022483 0.695074 0.870190
O O7 0.031267 0.750000 0.000000
O O8 0.048284 0.948132 0.905910
O O9 0.484815 0.250000 0.500000
O O10 0.843485 0.522499 0.183966
O O11 0.090670 0.472574 0.216761
O O12 0.750000 0.750000 0.243661
#
# Coordination Sequence:
#
# PCOD9398112 Si02
#       5
#     8   8   8   8   8
#     4  11  24  45  68 104 136 182 223 280 339 398
#     4  11  24  43  65  97 136 178 233 288 339 411
#     4  11  24  45  71  99 141 177 226 276 330 404
#     4  12  24  43  67  99 132 184 224 285 351 402
#     4  12  24  42  69  98 143 172 226 284 341 413
#
# _framework density 21.954660000000001
#
# number of rings (size 3 to 8) (size 9 to 14) (size 15 to 20)
#    0.000    0.600    6.000    3.600    0.000    0.800 
#    0.000    3.000    0.000    0.000    0.000    0.000 
#    0.000    0.000    0.000    0.000    0.000    0.000 
#
# Total GULP energy -223564.323017 kJ/mol
# GULP energy per Si atom -5589.108075 kJ/mol
# Density = 2.190469 g / cm^3
# Si number density = 21.954660 Si / 1000 Ang^3
#
#
#
# Elastic Constant Matrix: (Units=GPa)
#
#
# Indices 1 2 3 4 5 6 
#
# 1 48.6011 8.1529 2.7891 0.0000 0.0000 0.0000
# 2 8.1529 36.3471 0.9805 0.0000 0.0000 0.0000
# 3 2.7891 0.9805 88.7669 0.0000 0.0000 0.0000
# 4 0.0000 0.0000 0.0000 40.9765 0.0000 0.0000
# 5 0.0000 0.0000 0.0000 0.0000 35.2133 0.0000
# 6 0.0000 0.0000 0.0000 0.0000 0.0000 32.4167
#
#
#
# Elastic Compliance Matrix: (Units=1/GPa)
#
#
# Indices 1 2 3 4 5 6 
#
# 1 0.021414 -0.004787 -0.000620 0.000000 0.000000 0.000000
# 2 -0.004787 0.028591 -0.000165 0.000000 0.000000 0.000000
# 3 -0.000620 -0.000165 0.011287 0.000000 0.000000 0.000000
# 4 0.000000 0.000000 0.000000 0.024404 0.000000 0.000000
# 5 0.000000 0.000000 0.000000 0.000000 0.028398 0.000000
# 6 0.000000 0.000000 0.000000 0.000000 0.000000 0.030848
#
#
# Mechanical properties :
#
#
# Convention : Reuss Voigt Hill
#
# Bulk Modulus (GPa) = 19.94116 21.95114 20.94615
# Shear Modulus (GPa) = 28.93478 32.50747 30.72112
#
# Velocity S-wave (km/s) = 3.63427 3.85211 3.74478
# Velocity P-wave (km/s) = 5.16848 5.45941 5.31594
#
# Compressibility (1/GPa) = 0.05014753
#
# Stress axis : x y z
#
# Youngs Moduli (GPa) = 46.69800 34.97649 88.59930
#
# Poissons Ratio (x) = 0.16742 0.05493
# Poissons Ratio (y) = 0.22353 0.01466
# Poissons Ratio (z) = 0.02895 0.00579
#
# Static dielectric constant tensor:
#      x y z
#    x 1.793820 0.000000 0.000000 
#    y 0.000000 1.774460 0.000000 
#    z 0.000000 0.000000 1.765000 
# 
# From -- ./inp_files/31569.got.cif
#   From: 2010.05.17/outbox.cif.g08.bks.cpg/sg50_16_cif.got.tgz:31569.got - 2010.06.03 11:33:33.
