data_PCOD9398088
_publ_section_title
;
Structure prediction by ZEFSAII (Michael W. Deem and Ramdas Pophale) SiO2 
 PCOD9398088
Probable space group: P B A N
;
_chemical_formula_sum "Si O2"
_cell_formula_units_Z 56
_cell_length_a 8.531649
_cell_length_b 20.733157
_cell_length_c 15.406487
_cell_angle_alpha 90.000000
_cell_angle_beta 90.000000
_cell_angle_gamma 90.000000
_cell_volume 2725.222953
_symmetry_space_group_name_H-M "P B A N"
_symmetry_group_IT_number 50
_space_group.IT_coordinate_system_code '2'
_symmetry_cell_setting 'orthorhombic'
loop_
_space_group_symop_operation_xyz
x,y,z
1/2-x,1/2-y,z
x,1/2-y,-z
1/2-x,y,-z
-x,-y,-z
1/2+x,1/2+y,-z
-x,1/2+y,z
1/2+x,-y,z
loop_
_atom_site_type_symbol
_atom_site_label
_atom_site_fract_x
_atom_site_fract_y
_atom_site_fract_z
Si Si1 0.103052 0.598549 0.951589
Si Si2 0.285630 0.585157 0.602420
Si Si3 0.869002 0.959649 0.920396
Si Si4 0.510249 0.200958 0.576899
Si Si5 0.344534 0.124128 0.185795
Si Si6 0.750000 0.750000 0.291736
Si Si7 0.250000 0.105229 0.500000
Si Si8 0.944090 0.961032 0.346016
O O1 0.138812 0.534279 0.893636
O O2 0.975357 0.634087 0.890850
O O3 0.250000 0.632445 0.000000
O O4 0.027582 0.564010 0.036207
O O5 0.250000 0.576864 0.500000
O O6 0.345494 0.658633 0.613077
O O7 0.418318 0.537509 0.641643
O O8 0.120862 0.563456 0.642114
O O9 0.811040 0.907886 0.852929
O O10 0.750000 0.954522 0.000000
O O11 0.555335 0.250000 0.500000
O O12 0.401592 0.235361 0.648260
O O13 0.390155 0.149389 0.535080
O O14 0.299335 0.189348 0.233921
O O15 0.396004 0.070515 0.255601
O O16 0.170702 0.065709 0.577943
#
# Coordination Sequence:
#
# PCOD9398088 Si02
#       8
#     8   8   8   8   8   4   4   8
#     4   9  18  39  69 101 133 161 210 267 335 405
#     4  12  26  42  66  96 135 179 227 290 343 399
#     4   8  17  37  65  98 130 167 204 259 332 409
#     4  12  23  44  68  88 125 190 236 272 332 401
#     4  11  24  40  66  99 135 177 220 271 333 409
#     4  12  25  44  63  96 136 180 234 278 323 403
#     4  12  19  44  70  88 131 180 232 276 338 400
#     4  12  25  43  65 105 136 170 225 292 354 396
#
# _framework density 20.548777999999999
#
# number of rings (size 3 to 8) (size 9 to 14) (size 15 to 20)
#    0.000    1.143    5.000    2.143    2.000    0.286 
#    2.571    3.214    0.000    0.857    0.000    0.000 
#    0.000    0.000    0.000    0.000    0.000    0.000 
#
# Total GULP energy -312273.856293 kJ/mol
# GULP energy per Si atom -5576.318862 kJ/mol
# Density = 2.050201 g / cm^3
# Si number density = 20.548778 Si / 1000 Ang^3
#
#
#
# Elastic Constant Matrix: (Units=GPa)
#
#
# Indices 1 2 3 4 5 6 
#
# 1 91.3327 34.1552 25.7877 0.0000 0.0000 0.0000
# 2 34.1552 112.1854 45.9087 0.0000 0.0000 0.0000
# 3 25.7877 45.9087 80.2079 0.0000 0.0000 0.0000
# 4 0.0000 0.0000 0.0000 23.3005 0.0000 0.0000
# 5 0.0000 0.0000 0.0000 0.0000 21.1606 0.0000
# 6 0.0000 0.0000 0.0000 0.0000 0.0000 68.8998
#
#
#
# Elastic Compliance Matrix: (Units=1/GPa)
#
#
# Indices 1 2 3 4 5 6 
#
# 1 0.012712 -0.002870 -0.002444 0.000000 0.000000 0.000000
# 2 -0.002870 0.012288 -0.006111 0.000000 0.000000 0.000000
# 3 -0.002444 -0.006111 0.016751 0.000000 0.000000 0.000000
# 4 0.000000 0.000000 0.000000 0.042917 0.000000 0.000000
# 5 0.000000 0.000000 0.000000 0.000000 0.047258 0.000000
# 6 0.000000 0.000000 0.000000 0.000000 0.000000 0.014514
#
#
# Mechanical properties :
#
#
# Convention : Reuss Voigt Hill
#
# Bulk Modulus (GPa) = 52.90605 55.04769 53.97687
# Shear Modulus (GPa) = 28.47518 34.53048 31.50283
#
# Velocity S-wave (km/s) = 3.72659 4.10373 3.91970
# Velocity P-wave (km/s) = 6.65726 7.02148 6.84179
#
# Compressibility (1/GPa) = 0.01890143
#
# Stress axis : x y z
#
# Youngs Moduli (GPa) = 78.66295 81.37867 59.69753
#
# Poissons Ratio (x) = 0.23356 0.14593
# Poissons Ratio (y) = 0.22576 0.36479
# Poissons Ratio (z) = 0.19229 0.49728
#
# Static dielectric constant tensor:
#      x y z
#    x 1.888440 0.000000 0.000000 
#    y 0.000000 1.791300 0.000000 
#    z 0.000000 0.000000 1.768670 
# 
# From -- ./inp_files/25284.got.cif
#   From: 2010.05.17/outbox.cif.g08.bks.cpg/sg50_13_cif.got.tgz:25284.got - 2010.06.03 11:33:33.
