data_PCOD9398518
_publ_section_title
;
Structure prediction by ZEFSAII (Michael W. Deem and Ramdas Pophale) SiO2 
 PCOD9398518
Probable space group: P M M A
;
_chemical_formula_sum "Si O2"
_cell_formula_units_Z 64
_cell_length_a 31.611905
_cell_length_b 7.470560
_cell_length_c 15.011807
_cell_angle_alpha 90.000000
_cell_angle_beta 90.000000
_cell_angle_gamma 90.000000
_cell_volume 3545.167820
_symmetry_space_group_name_H-M "P M M A"
_symmetry_group_IT_number 51
_symmetry_cell_setting 'orthorhombic'
loop_
_space_group_symop_operation_xyz
x,y,z
1/2-x,-y,z
1/2+x,-y,-z
-x,y,-z
-x,-y,-z
1/2+x,y,-z
1/2-x,y,z
x,-y,z
loop_
_atom_site_type_symbol
_atom_site_label
_atom_site_fract_x
_atom_site_fract_y
_atom_site_fract_z
Si Si1 0.932591 0.284667 0.247581
Si Si2 0.618807 0.716099 0.426777
Si Si3 0.461367 0.210484 0.061745
Si Si4 0.797519 0.718563 0.343219
Si Si5 0.529373 0.797472 0.742528
Si Si6 0.043402 0.707580 0.457620
Si Si7 0.614131 0.716229 0.067403
Si Si8 0.797781 0.718177 0.136570
O O1 0.937966 0.500000 0.243130
O O2 0.905042 0.247153 0.334082
O O3 0.909145 0.226412 0.158285
O O4 0.978567 0.202647 0.256284
O O5 0.622594 0.500000 0.437091
O O6 0.666335 0.782185 0.410405
O O7 0.586940 0.783979 0.502549
O O8 0.458946 0.286274 0.161796
O O9 0.528661 0.000000 0.926208
O O10 0.500000 0.283386 0.000000
O O11 0.416765 0.226876 0.011777
O O12 0.750000 0.774973 0.365663
O O13 0.798145 0.500000 0.342890
O O14 0.806020 0.769592 0.239932
O O15 0.542239 0.712675 0.648829
O O16 0.545954 0.000000 0.739458
O O17 0.043218 0.500000 0.487076
O O18 0.000000 0.785834 0.500000
O O19 0.614731 0.500000 0.066476
O O20 0.662895 0.776621 0.075496
O O21 0.750000 0.776028 0.112849
O O22 0.797567 0.500000 0.135345
#
# Coordination Sequence:
#
# PCOD9398518 Si02
#       8
#     8   8   8   8   8   8   8   8
#     4  10  17  27  44  66  93 119 149 183 216 256
#     4   9  15  25  40  61  91 123 147 170 212 261
#     4  10  21  35  46  60  88 122 152 187 234 272
#     4   8  12  19  35  61  92 121 144 169 206 258
#     4  11  22  34  46  61  86 119 154 190 223 261
#     4  10  19  31  47  65  88 119 148 182 224 260
#     4  10  18  27  46  72  92 119 156 187 214 261
#     4   8  13  22  38  65  99 123 140 174 222 263
#
# _framework density 18.052743
#
# number of rings (size 3 to 8) (size 9 to 14) (size 15 to 20)
#    0.000    2.500    3.750    1.125    0.000    1.500 
#    0.000    0.000    0.000    0.375    0.000    0.875 
#    0.000    7.000    0.000    0.000    0.000    0.000 
#
# Total GULP energy -356768.699373 kJ/mol
# GULP energy per Si atom -5574.510928 kJ/mol
# Density = 1.801165 g / cm^3
# Si number density = 18.052743 Si / 1000 Ang^3
#
#
#
# Elastic Constant Matrix: (Units=GPa)
#
#
# Indices 1 2 3 4 5 6 
#
# 1 151.8113 1.7920 64.5974 0.0000 0.0000 0.0000
# 2 1.7920 44.5685 3.1251 0.0000 0.0000 0.0000
# 3 64.5974 3.1251 92.7549 0.0000 0.0000 0.0000
# 4 0.0000 0.0000 0.0000 -12.3955 0.0000 0.0000
# 5 0.0000 0.0000 0.0000 0.0000 21.2570 0.0000
# 6 0.0000 0.0000 0.0000 0.0000 0.0000 7.5110
#
#
#
# Elastic Compliance Matrix: (Units=1/GPa)
#
#
# Indices 1 2 3 4 5 6 
#
# 1 0.009362 0.000081 -0.006522 0.000000 0.000000 0.000000
# 2 0.000081 0.022491 -0.000814 0.000000 0.000000 0.000000
# 3 -0.006522 -0.000814 0.015351 0.000000 0.000000 0.000000
# 4 0.000000 0.000000 0.000000 -0.080674 0.000000 0.000000
# 5 0.000000 0.000000 0.000000 0.000000 0.047043 0.000000
# 6 0.000000 0.000000 0.000000 0.000000 0.000000 0.133138
#
#
# Mechanical properties :
#
#
# Convention : Reuss Voigt Hill
#
# Bulk Modulus (GPa) = 30.58808 47.57376 39.08092
# Shear Modulus (GPa) = 29.04956 17.91584 23.48270
#
# Velocity S-wave (km/s) = 4.01577 3.15368 3.61055
# Velocity P-wave (km/s) = 6.20342 6.29848 6.25113
#
# Compressibility (1/GPa) = 0.03269247
#
# Stress axis : x y z
#
# Youngs Moduli (GPa) = 106.82031 44.46181 65.14270
#
# Poissons Ratio (x) = -0.00360 0.42489
# Poissons Ratio (y) = -0.00864 0.05303
# Poissons Ratio (z) = 0.69672 0.03620
#
# Static dielectric constant tensor:
#      x y z
#    x 1.635700 0.000000 0.000000 
#    y 0.000000 1.695020 0.000000 
#    z 0.000000 0.000000 1.608010 
# 
# From -- ./inp_files/26683.got.cif
#   From: 2010.05.17/outbox.cif.g08.bks.cpg/sg51_14_cif.got.tgz:26683.got - 2010.06.03 11:52:47.
