data_PCOD9398909
_publ_section_title
;
Structure prediction by ZEFSAII (Michael W. Deem and Ramdas Pophale) SiO2 
 PCOD9398909
Probable space group: P M M A
;
_chemical_formula_sum "Si O2"
_cell_formula_units_Z 40
_cell_length_a 20.501144
_cell_length_b 9.169719
_cell_length_c 13.037267
_cell_angle_alpha 90.000000
_cell_angle_beta 90.000000
_cell_angle_gamma 90.000000
_cell_volume 2450.872299
_symmetry_space_group_name_H-M "P M M A"
_symmetry_group_IT_number 51
_symmetry_cell_setting 'orthorhombic'
loop_
_space_group_symop_operation_xyz
x,y,z
1/2-x,-y,z
1/2+x,-y,-z
-x,y,-z
-x,-y,-z
1/2+x,y,-z
1/2-x,y,z
x,-y,z
loop_
_atom_site_type_symbol
_atom_site_label
_atom_site_fract_x
_atom_site_fract_y
_atom_site_fract_z
Si Si1 0.422861 0.168192 0.030008
Si Si2 0.955305 0.673991 0.771444
Si Si3 0.072200 0.325160 0.459688
Si Si4 0.324769 0.824650 0.607966
Si Si5 0.594411 0.824360 0.193160
O O1 0.416039 0.264521 0.131072
O O2 0.406427 0.000000 0.052696
O O3 0.500000 0.172411 0.000000
O O4 0.388499 0.215723 0.924320
O O5 0.961985 0.500000 0.778970
O O6 0.924632 0.709582 0.661102
O O7 0.027076 0.746119 0.776315
O O8 0.077914 0.500000 0.471955
O O9 0.127136 0.247537 0.526196
O O10 0.000000 0.283457 0.500000
O O11 0.250000 0.777888 0.595734
O O12 0.351908 0.790255 0.721677
O O13 0.327610 0.000000 0.596977
O O14 0.583301 0.000000 0.192695
#
# Coordination Sequence:
#
# PCOD9398909 Si02
#       5
#     8   8   8   8   8
#     4   8  15  27  43  66  96 127 156 189 239 295
#     4  10  18  28  46  72  99 126 161 205 244 285
#     4  10  20  34  50  72 102 134 170 208 250 301
#     4  10  21  35  52  75 100 129 169 211 252 302
#     4   9  17  30  47  68  98 130 158 196 248 298
#
# _framework density 16.320720000000001
#
# number of rings (size 3 to 8) (size 9 to 14) (size 15 to 20)
#    0.000    2.600    2.000    1.800    0.000    6.000 
#    0.000    0.000    0.000    1.200    0.000    2.800 
#    0.000    0.000    0.000    0.000    0.000    0.000 
#
# Total GULP energy -222873.232470 kJ/mol
# GULP energy per Si atom -5571.830812 kJ/mol
# Density = 1.628357 g / cm^3
# Si number density = 16.320720 Si / 1000 Ang^3
#
#
#
# Elastic Constant Matrix: (Units=GPa)
#
#
# Indices 1 2 3 4 5 6 
#
# 1 90.6508 32.7026 73.0511 0.0000 0.0000 0.0000
# 2 32.7026 31.2803 56.7346 0.0000 0.0000 0.0000
# 3 73.0511 56.7346 172.8084 0.0000 0.0000 0.0000
# 4 0.0000 0.0000 0.0000 28.0252 0.0000 0.0000
# 5 0.0000 0.0000 0.0000 0.0000 16.3681 0.0000
# 6 0.0000 0.0000 0.0000 0.0000 0.0000 7.4746
#
#
#
# Elastic Compliance Matrix: (Units=1/GPa)
#
#
# Indices 1 2 3 4 5 6 
#
# 1 0.018601 -0.012817 -0.003655 0.000000 0.000000 0.000000
# 2 -0.012817 0.087859 -0.023427 0.000000 0.000000 0.000000
# 3 -0.003655 -0.023427 0.015023 0.000000 0.000000 0.000000
# 4 0.000000 0.000000 0.000000 0.035682 0.000000 0.000000
# 5 0.000000 0.000000 0.000000 0.000000 0.061094 0.000000
# 6 0.000000 0.000000 0.000000 0.000000 0.000000 0.133786
#
#
# Mechanical properties :
#
#
# Convention : Reuss Voigt Hill
#
# Bulk Modulus (GPa) = 23.98940 68.85737 46.42338
# Shear Modulus (GPa) = 11.21735 19.19034 15.20384
#
# Velocity S-wave (km/s) = 2.62450 3.43275 3.05547
# Velocity P-wave (km/s) = 4.89026 7.61534 6.39954
#
# Compressibility (1/GPa) = 0.04168508
#
# Stress axis : x y z
#
# Youngs Moduli (GPa) = 53.76182 11.38183 66.56394
#
# Poissons Ratio (x) = 0.14588 0.24330
# Poissons Ratio (y) = 0.68906 1.55939
# Poissons Ratio (z) = 0.19650 0.26664
#
# Static dielectric constant tensor:
#      x y z
#    x 1.518330 0.000000 0.000000 
#    y 0.000000 1.544810 0.000000 
#    z 0.000000 0.000000 1.579550 
# 
# From -- ./inp_files/17902.got.cif
#   From: 2010.05.17/outbox.cif.g08.bks.cpg/sg51_9_cif.got.tgz:17902.got - 2010.06.03 11:52:47.
