data_PCOD9398961
_publ_section_title
;
Structure prediction by ZEFSAII (Michael W. Deem and Ramdas Pophale) SiO2 
 PCOD9398961
Probable space group: P M M A
;
_chemical_formula_sum "Si O2"
_cell_formula_units_Z 60
_cell_length_a 8.876405
_cell_length_b 24.306123
_cell_length_c 19.019813
_cell_angle_alpha 90.000000
_cell_angle_beta 90.000000
_cell_angle_gamma 90.000000
_cell_volume 4103.543517
_symmetry_space_group_name_H-M "P M M A"
_symmetry_group_IT_number 51
_symmetry_cell_setting 'orthorhombic'
loop_
_space_group_symop_operation_xyz
x,y,z
1/2-x,-y,z
1/2+x,-y,-z
-x,y,-z
-x,-y,-z
1/2+x,y,-z
1/2-x,y,z
x,-y,z
loop_
_atom_site_type_symbol
_atom_site_label
_atom_site_fract_x
_atom_site_fract_y
_atom_site_fract_z
Si Si1 0.429058 0.269816 0.715480
Si Si2 0.931269 0.889876 0.339776
Si Si3 0.929961 0.562963 0.922697
Si Si4 0.929251 0.665676 0.151952
Si Si5 0.931775 0.773537 0.923084
Si Si6 0.570407 0.220357 0.424238
Si Si7 0.928285 0.164142 0.787785
Si Si8 0.567624 0.000000 0.421967
O O1 0.250000 0.255649 0.722002
O O2 0.454248 0.321872 0.765248
O O3 0.463987 0.267980 0.632939
O O4 0.524683 0.220955 0.749771
O O5 0.750000 0.888914 0.335723
O O6 0.977791 0.837309 0.387573
O O7 0.977957 0.945610 0.378705
O O8 0.993876 0.881510 0.261049
O O9 0.750000 0.569068 0.926775
O O10 0.964087 0.500000 0.901106
O O11 0.998854 0.608994 0.872682
O O12 0.000000 0.571101 0.000000
O O13 0.750000 0.665611 0.138787
O O14 0.001924 0.716665 0.108942
O O15 0.750000 0.769302 0.925819
O O16 0.971709 0.822920 0.868567
O O17 0.000000 0.782040 0.000000
O O18 0.500000 0.227808 0.500000
O O19 0.750000 0.217611 0.432480
O O20 0.750000 0.156138 0.785169
O O21 0.500000 0.000000 0.500000
O O22 0.750000 0.000000 0.427444
#
# Coordination Sequence:
#
# PCOD9398961 Si02
#       8
#     8   8   8   8   8   8   8   4
#     4   8  16  29  42  58  82 111 139 168 206 250
#     4   9  18  31  44  59  84 115 143 171 206 248
#     4  10  20  32  44  59  82 112 145 179 211 244
#     4  10  18  29  45  61  82 113 144 175 210 247
#     4  10  19  29  42  63  88 111 138 172 210 253
#     4   9  16  26  40  59  83 110 138 166 199 241
#     4   9  17  28  43  62  82 106 139 174 206 245
#     4  10  20  32  46  66  89 114 145 178 209 244
#
# _framework density 14.621510000000001
#
# number of rings (size 3 to 8) (size 9 to 14) (size 15 to 20)
#    0.000    2.667    0.000    3.200    0.000    5.600 
#    0.000    0.000    0.000    0.000    0.000    0.467 
#    0.000    0.533    0.000    1.200    0.000    2.133 
#
# Total GULP energy -334057.469037 kJ/mol
# GULP energy per Si atom -5567.624484 kJ/mol
# Density = 1.458823 g / cm^3
# Si number density = 14.621510 Si / 1000 Ang^3
#
#
#
# Elastic Constant Matrix: (Units=GPa)
#
#
# Indices 1 2 3 4 5 6 
#
# 1 36.2395 33.2982 44.6914 0.0000 0.0000 0.0000
# 2 33.2982 84.5398 67.2201 0.0000 0.0000 0.0000
# 3 44.6914 67.2201 144.9578 0.0000 0.0000 0.0000
# 4 0.0000 0.0000 0.0000 23.3635 0.0000 0.0000
# 5 0.0000 0.0000 0.0000 0.0000 25.2086 0.0000
# 6 0.0000 0.0000 0.0000 0.0000 0.0000 16.5116
#
#
#
# Elastic Compliance Matrix: (Units=1/GPa)
#
#
# Indices 1 2 3 4 5 6 
#
# 1 0.051286 -0.012083 -0.010209 0.000000 0.000000 0.000000
# 2 -0.012083 0.021585 -0.006284 0.000000 0.000000 0.000000
# 3 -0.010209 -0.006284 0.012960 0.000000 0.000000 0.000000
# 4 0.000000 0.000000 0.000000 0.042802 0.000000 0.000000
# 5 0.000000 0.000000 0.000000 0.000000 0.039669 0.000000
# 6 0.000000 0.000000 0.000000 0.000000 0.000000 0.060563
#
#
# Mechanical properties :
#
#
# Convention : Reuss Voigt Hill
#
# Bulk Modulus (GPa) = 34.86848 61.79516 48.33182
# Shear Modulus (GPa) = 16.91611 21.05189 18.98400
#
# Velocity S-wave (km/s) = 3.40506 3.79857 3.60719
# Velocity P-wave (km/s) = 6.27363 7.84817 7.10465
#
# Compressibility (1/GPa) = 0.02867920
#
# Stress axis : x y z
#
# Youngs Moduli (GPa) = 19.49841 46.32938 77.16104
#
# Poissons Ratio (x) = 0.55981 0.78771
# Poissons Ratio (y) = 0.23560 0.48487
# Poissons Ratio (z) = 0.19905 0.29113
#
# Static dielectric constant tensor:
#      x y z
#    x 1.494170 0.000000 0.000000 
#    y 0.000000 1.475200 0.000000 
#    z 0.000000 0.000000 1.498500 
# 
# From -- ./inp_files/28643.got.cif
#   From: 2010.05.17/outbox.cif.g08.bks.cpg/sg51_15_cif.got.tgz:28643.got - 2010.06.03 11:52:47.
