data_PCOD9398026
_publ_section_title
;
Structure prediction by ZEFSAII (Michael W. Deem and Ramdas Pophale) SiO2 
 PCOD9398026
Probable space group: P B A N
;
_chemical_formula_sum "Si O2"
_cell_formula_units_Z 64
_cell_length_a 14.802142
_cell_length_b 8.414775
_cell_length_c 22.880340
_cell_angle_alpha 90.000000
_cell_angle_beta 90.000000
_cell_angle_gamma 90.000000
_cell_volume 2849.899518
_symmetry_space_group_name_H-M "P B A N"
_symmetry_group_IT_number 50
_space_group.IT_coordinate_system_code '2'
_symmetry_cell_setting 'orthorhombic'
loop_
_space_group_symop_operation_xyz
x,y,z
1/2-x,1/2-y,z
x,1/2-y,-z
1/2-x,y,-z
-x,-y,-z
1/2+x,1/2+y,-z
-x,1/2+y,z
1/2+x,-y,z
loop_
_atom_site_type_symbol
_atom_site_label
_atom_site_fract_x
_atom_site_fract_y
_atom_site_fract_z
Si Si1 0.636045 0.966466 0.834065
Si Si2 0.422303 0.593649 0.577171
Si Si3 0.110327 0.531726 0.553904
Si Si4 0.026244 0.715827 0.830620
Si Si5 0.242892 0.429461 0.930821
Si Si6 0.064624 0.607447 0.958048
Si Si7 0.302193 0.578093 0.232988
Si Si8 0.755769 0.058198 0.359135
O O1 0.567292 0.110560 0.820956
O O2 0.733167 0.972007 0.803688
O O3 0.577433 0.815995 0.813985
O O4 0.669775 0.004229 0.900375
O O5 0.406754 0.781251 0.567249
O O6 0.392214 0.512921 0.515812
O O7 0.527636 0.561730 0.582278
O O8 0.361804 0.528909 0.630432
O O9 0.202585 0.489614 0.585676
O O10 0.017923 0.680236 0.900472
O O11 0.100240 0.607164 0.796050
O O12 0.250000 0.250000 0.908425
O O13 0.146739 0.513904 0.926582
O O14 0.250000 0.424072 0.000000
O O15 0.097602 0.750000 0.000000
O O16 0.000000 0.500000 0.000000
O O17 0.250000 0.750000 0.232027
O O18 0.294658 0.517320 0.299291
O O19 0.750000 0.250000 0.362330
#
# Coordination Sequence:
#
# PCOD9398026 Si02
#       8
#     8   8   8   8   8   8   8   8
#     4  11  24  42  65  87 120 154 196 240 300 358
#     4   9  17  30  51  81 115 153 190 244 297 349
#     4   9  17  30  51  81 116 150 196 240 296 352
#     4  11  23  41  63  88 116 154 193 243 298 361
#     4  11  25  42  64  94 128 158 193 244 295 362
#     4  12  26  42  68  97 127 157 198 245 305 373
#     4   9  20  39  59  84 115 153 201 248 294 352
#     4   9  17  32  56  80 110 153 202 245 287 348
#
# _framework density 22.456932999999999
#
# number of rings (size 3 to 8) (size 9 to 14) (size 15 to 20)
#    0.000    1.875    1.250    2.625    5.250    3.750 
#    0.000    0.625    0.000    6.000    0.000    0.000 
#    0.000    0.000    0.000    0.000    0.000    0.000 
#
# Total GULP energy -356726.496811 kJ/mol
# GULP energy per Si atom -5573.851513 kJ/mol
# Density = 2.240582 g / cm^3
# Si number density = 22.456933 Si / 1000 Ang^3
#
#
#
# Elastic Constant Matrix: (Units=GPa)
#
#
# Indices 1 2 3 4 5 6 
#
# 1 114.8992 19.9805 15.0255 0.0000 0.0000 0.0000
# 2 19.9805 29.4781 0.8105 0.0000 0.0000 0.0000
# 3 15.0255 0.8105 39.9729 0.0000 0.0000 0.0000
# 4 0.0000 0.0000 0.0000 6.2595 0.0000 0.0000
# 5 0.0000 0.0000 0.0000 0.0000 22.8607 0.0000
# 6 0.0000 0.0000 0.0000 0.0000 0.0000 27.4459
#
#
#
# Elastic Compliance Matrix: (Units=1/GPa)
#
#
# Indices 1 2 3 4 5 6 
#
# 1 0.010405 -0.006949 -0.003770 0.000000 0.000000 0.000000
# 2 -0.006949 0.038583 0.001830 0.000000 0.000000 0.000000
# 3 -0.003770 0.001830 0.026397 0.000000 0.000000 0.000000
# 4 0.000000 0.000000 0.000000 0.159758 0.000000 0.000000
# 5 0.000000 0.000000 0.000000 0.000000 0.043743 0.000000
# 6 0.000000 0.000000 0.000000 0.000000 0.000000 0.036435
#
#
# Mechanical properties :
#
#
# Convention : Reuss Voigt Hill
#
# Bulk Modulus (GPa) = 17.35917 28.44255 22.90086
# Shear Modulus (GPa) = 14.19238 21.21548 17.70393
#
# Velocity S-wave (km/s) = 2.51665 3.07696 2.81080
# Velocity P-wave (km/s) = 4.02386 5.03155 4.55565
#
# Compressibility (1/GPa) = 0.05760643
#
# Stress axis : x y z
#
# Youngs Moduli (GPa) = 96.11086 25.91811 37.88307
#
# Poissons Ratio (x) = 0.18010 0.14282
# Poissons Ratio (y) = 0.66784 -0.06931
# Poissons Ratio (z) = 0.36235 -0.04742
#
# Static dielectric constant tensor:
#      x y z
#    x 1.720180 0.000000 0.000000 
#    y 0.000000 2.011470 0.000000 
#    z 0.000000 0.000000 1.931070 
# 
# From -- ./inp_files/31791.got.cif
#   From: 2010.05.17/outbox.cif.g08.bks.cpg/sg50_16_cif.got.tgz:31791.got - 2010.06.03 11:33:33.
