data_PCOD9398233
_publ_section_title
;
Structure prediction by ZEFSAII (Michael W. Deem and Ramdas Pophale) SiO2 
 PCOD9398233
Probable space group: P B A N
;
_chemical_formula_sum "Si O2"
_cell_formula_units_Z 36
_cell_length_a 8.889375
_cell_length_b 23.809076
_cell_length_c 9.199466
_cell_angle_alpha 90.000000
_cell_angle_beta 90.000000
_cell_angle_gamma 90.000000
_cell_volume 1947.046786
_symmetry_space_group_name_H-M "P B A N"
_symmetry_group_IT_number 50
_space_group.IT_coordinate_system_code '2'
_symmetry_cell_setting 'orthorhombic'
loop_
_space_group_symop_operation_xyz
x,y,z
1/2-x,1/2-y,z
x,1/2-y,-z
1/2-x,y,-z
-x,-y,-z
1/2+x,1/2+y,-z
-x,1/2+y,z
1/2+x,-y,z
loop_
_atom_site_type_symbol
_atom_site_label
_atom_site_fract_x
_atom_site_fract_y
_atom_site_fract_z
Si Si1 0.238509 0.436708 0.834097
Si Si2 0.000792 0.188274 0.503549
Si Si3 0.750000 0.098468 0.500000
Si Si4 0.947731 0.016766 0.337416
Si Si5 0.263872 0.187937 0.743942
O O1 0.375077 0.463906 0.743457
O O2 0.250534 0.369187 0.832348
O O3 0.084627 0.456353 0.753542
O O4 0.250000 0.456949 0.000000
O O5 0.929174 0.250000 0.500000
O O6 0.132271 0.188751 0.622894
O O7 0.082002 0.181438 0.347982
O O8 0.887249 0.138990 0.539042
O O9 0.811791 0.060347 0.368841
O O10 0.000000 0.000000 0.500000
O O11 0.250000 0.250000 0.814470
#
# Coordination Sequence:
#
# PCOD9398233 Si02
#       5
#     8   8   4   8   8
#     4  12  25  41  60  89 127 159 203 254 312 371
#     4   9  18  32  56  90 119 149 199 259 297 350
#     4  12  19  32  60  86 119 150 206 246 306 352
#     4  12  24  40  62  88 118 164 204 249 302 370
#     4   9  19  36  59  84 116 156 202 247 302 357
#
# _framework density 18.489540000000002
#
# number of rings (size 3 to 8) (size 9 to 14) (size 15 to 20)
#    0.000    1.333    4.444    3.667    3.111    0.444 
#    0.000    0.000    0.000    0.000    0.000    0.000 
#    0.000    0.000    0.000    0.000    0.000    0.000 
#
# Total GULP energy -200795.916914 kJ/mol
# GULP energy per Si atom -5577.664359 kJ/mol
# Density = 1.844746 g / cm^3
# Si number density = 18.489540 Si / 1000 Ang^3
#
#
#
# Elastic Constant Matrix: (Units=GPa)
#
#
# Indices 1 2 3 4 5 6 
#
# 1 78.0048 48.7841 33.4055 0.0000 0.0000 0.0000
# 2 48.7841 136.2332 42.2730 0.0000 0.0000 0.0000
# 3 33.4055 42.2730 107.0070 0.0000 0.0000 0.0000
# 4 0.0000 0.0000 0.0000 16.1993 0.0000 0.0000
# 5 0.0000 0.0000 0.0000 0.0000 8.8439 0.0000
# 6 0.0000 0.0000 0.0000 0.0000 0.0000 39.8621
#
#
#
# Elastic Compliance Matrix: (Units=1/GPa)
#
#
# Indices 1 2 3 4 5 6 
#
# 1 0.017550 -0.005225 -0.003415 0.000000 0.000000 0.000000
# 2 -0.005225 0.009921 -0.002288 0.000000 0.000000 0.000000
# 3 -0.003415 -0.002288 0.011315 0.000000 0.000000 0.000000
# 4 0.000000 0.000000 0.000000 0.061731 0.000000 0.000000
# 5 0.000000 0.000000 0.000000 0.000000 0.113073 0.000000
# 6 0.000000 0.000000 0.000000 0.000000 0.000000 0.025086
#
#
# Mechanical properties :
#
#
# Convention : Reuss Voigt Hill
#
# Bulk Modulus (GPa) = 59.06455 63.35227 61.20841
# Shear Modulus (GPa) = 18.78461 26.09989 22.44225
#
# Velocity S-wave (km/s) = 3.19087 3.76121 3.48772
# Velocity P-wave (km/s) = 6.75202 7.29386 7.02816
#
# Compressibility (1/GPa) = 0.01693063
#
# Stress axis : x y z
#
# Youngs Moduli (GPa) = 56.98127 100.79216 88.37706
#
# Poissons Ratio (x) = 0.52662 0.30177
# Poissons Ratio (y) = 0.29772 0.20224
# Poissons Ratio (z) = 0.19457 0.23065
#
# Static dielectric constant tensor:
#      x y z
#    x 1.645220 0.000000 0.000000 
#    y 0.000000 1.688680 0.000000 
#    z 0.000000 0.000000 1.603970 
# 
# From -- ./inp_files/9250.got.cif
#   From: 2010.05.17/outbox.cif.g08.bks.cpg/sg50_5_cif.got.tgz:9250.got - 2010.06.03 11:33:33.
