data_PCOD9398080
_publ_section_title
;
Structure prediction by ZEFSAII (Michael W. Deem and Ramdas Pophale) SiO2 
 PCOD9398080
Probable space group: P B A N
;
_chemical_formula_sum "Si O2"
_cell_formula_units_Z 56
_cell_length_a 14.933996
_cell_length_b 14.404863
_cell_length_c 11.764140
_cell_angle_alpha 90.000000
_cell_angle_beta 90.000000
_cell_angle_gamma 90.000000
_cell_volume 2530.727283
_symmetry_space_group_name_H-M "P B A N"
_symmetry_group_IT_number 50
_space_group.IT_coordinate_system_code '2'
_symmetry_cell_setting 'orthorhombic'
loop_
_space_group_symop_operation_xyz
x,y,z
1/2-x,1/2-y,z
x,1/2-y,-z
1/2-x,y,-z
-x,-y,-z
1/2+x,1/2+y,-z
-x,1/2+y,z
1/2+x,-y,z
loop_
_atom_site_type_symbol
_atom_site_label
_atom_site_fract_x
_atom_site_fract_y
_atom_site_fract_z
Si Si1 0.113975 0.595274 0.716576
Si Si2 0.202549 0.004338 0.705271
Si Si3 0.346162 0.003427 0.050801
Si Si4 0.530031 0.571968 0.862398
Si Si5 0.323303 0.308687 0.617382
Si Si6 0.562844 0.085191 0.539339
Si Si7 0.000440 0.259601 0.703201
O O1 0.214260 0.560686 0.735689
O O2 0.052591 0.515746 0.777601
O O3 0.110168 0.604309 0.579662
O O4 0.080250 0.697183 0.751720
O O5 0.173900 0.046284 0.826146
O O6 0.218243 0.089112 0.619097
O O7 0.127128 0.946366 0.641132
O O8 0.430644 0.935667 0.081691
O O9 0.250000 0.969845 0.000000
O O10 0.393542 0.067903 0.957978
O O11 0.534809 0.666062 0.792944
O O12 0.250000 0.250000 0.686174
O O13 0.333447 0.250000 0.500000
O O14 0.421399 0.311624 0.669442
O O15 0.518571 0.176340 0.592926
O O16 0.500000 0.000000 0.500000
#
# Coordination Sequence:
#
# PCOD9398080 Si02
#       7
#     8   8   8   8   8   8   8
#     4  12  25  43  73 107 152 193 244 302 386 461
#     4  12  25  46  71 107 146 202 248 309 381 451
#     4  11  23  46  77  98 141 201 254 312 381 451
#     4  11  24  46  76 105 143 197 252 314 385 450
#     4  11  25  40  69 107 146 185 248 305 374 457
#     4  12  23  41  74 105 148 195 237 300 380 460
#     4  12  24  45  71 110 145 193 245 310 380 458
#
# _framework density 22.128025999999998
#
# number of rings (size 3 to 8) (size 9 to 14) (size 15 to 20)
#    0.000    0.429    4.286    5.143    4.000    0.571 
#    0.000    7.857    3.143    0.000    0.000    0.000 
#    0.000    0.000    0.000    0.000    0.000    0.000 
#
# Total GULP energy -312248.678813 kJ/mol
# GULP energy per Si atom -5575.869265 kJ/mol
# Density = 2.207766 g / cm^3
# Si number density = 22.128026 Si / 1000 Ang^3
#
#
#
# Elastic Constant Matrix: (Units=GPa)
#
#
# Indices 1 2 3 4 5 6 
#
# 1 128.8944 30.1732 32.8100 0.0000 0.0000 0.0000
# 2 30.1732 99.2927 32.4433 0.0000 0.0000 0.0000
# 3 32.8100 32.4433 143.2988 0.0000 0.0000 0.0000
# 4 0.0000 0.0000 0.0000 15.0820 0.0000 0.0000
# 5 0.0000 0.0000 0.0000 0.0000 40.4531 0.0000
# 6 0.0000 0.0000 0.0000 0.0000 0.0000 30.3527
#
#
#
# Elastic Compliance Matrix: (Units=1/GPa)
#
#
# Indices 1 2 3 4 5 6 
#
# 1 0.008639 -0.002137 -0.001494 0.000000 0.000000 0.000000
# 2 -0.002137 0.011404 -0.002093 0.000000 0.000000 0.000000
# 3 -0.001494 -0.002093 0.007794 0.000000 0.000000 0.000000
# 4 0.000000 0.000000 0.000000 0.066304 0.000000 0.000000
# 5 0.000000 0.000000 0.000000 0.000000 0.024720 0.000000
# 6 0.000000 0.000000 0.000000 0.000000 0.000000 0.032946
#
#
# Mechanical properties :
#
#
# Convention : Reuss Voigt Hill
#
# Bulk Modulus (GPa) = 61.01314 62.48210 61.74762
# Shear Modulus (GPa) = 29.63511 35.58151 32.60831
#
# Velocity S-wave (km/s) = 3.66356 4.01432 3.84294
# Velocity P-wave (km/s) = 6.74746 7.05580 6.90335
#
# Compressibility (1/GPa) = 0.01638991
#
# Stress axis : x y z
#
# Youngs Moduli (GPa) = 115.75580 87.68546 128.29851
#
# Poissons Ratio (x) = 0.18738 0.19170
# Poissons Ratio (y) = 0.24737 0.26849
# Poissons Ratio (z) = 0.17296 0.18350
#
# Static dielectric constant tensor:
#      x y z
#    x 1.971810 0.000000 0.000000 
#    y 0.000000 1.868870 0.000000 
#    z 0.000000 0.000000 1.868020 
# 
# From -- ./inp_files/21151.got.cif
#   From: 2010.05.17/outbox.cif.g08.bks.cpg/sg50_11_cif.got.tgz:21151.got - 2010.06.03 11:33:33.
