data_PCOD9398297
_publ_section_title
;
Structure prediction by ZEFSAII (Michael W. Deem and Ramdas Pophale) SiO2 
 PCOD9398297
Probable space group: P B A N
;
_chemical_formula_sum "Si O2"
_cell_formula_units_Z 18
_cell_length_a 28.611278
_cell_length_b 5.550428
_cell_length_c 5.038529
_cell_angle_alpha 90.000000
_cell_angle_beta 90.000000
_cell_angle_gamma 90.000000
_cell_volume 800.142784
_symmetry_space_group_name_H-M "P B A N"
_symmetry_group_IT_number 50
_space_group.IT_coordinate_system_code '2'
_symmetry_cell_setting 'orthorhombic'
loop_
_space_group_symop_operation_xyz
x,y,z
1/2-x,1/2-y,z
x,1/2-y,-z
1/2-x,y,-z
-x,-y,-z
1/2+x,1/2+y,-z
-x,1/2+y,z
1/2+x,-y,z
loop_
_atom_site_type_symbol
_atom_site_label
_atom_site_fract_x
_atom_site_fract_y
_atom_site_fract_z
Si Si1 0.824693 0.593160 0.761431
Si Si2 0.029733 0.750000 0.500000
Si Si3 0.250000 0.750000 0.500000
Si Si4 0.903086 0.250000 0.000000
O O1 0.837346 0.750000 0.500000
O O2 0.784935 0.410239 0.671622
O O3 0.805303 0.750000 0.000000
O O4 0.868820 0.458921 0.892917
O O5 0.063085 0.708889 0.752552
O O6 0.000000 0.500000 0.500000
#
# Coordination Sequence:
#
# PCOD9398297 Si02
#       4
#     8   4   2   4
#     4  12  28  48  78 107 158 204 258 323 383 474
#     4  12  29  52  84 117 156 205 258 336 401 486
#     4  12  28  50  68 124 148 210 266 310 394 456
#     4  12  28  51  76 114 152 198 264 313 404 466
#
# _framework density 22.495984
#
# number of rings (size 3 to 8) (size 9 to 14) (size 15 to 20)
#    0.000    0.000    0.000    8.667    9.333   13.333 
#    0.000    0.000    0.000    0.000    0.000    0.000 
#    0.000    0.000    0.000    0.000    0.000    0.000 
#
# Total GULP energy -100792.348087 kJ/mol
# GULP energy per Si atom -5599.574894 kJ/mol
# Density = 2.244478 g / cm^3
# Si number density = 22.495984 Si / 1000 Ang^3
#
#
#
# Elastic Constant Matrix: (Units=GPa)
#
#
# Indices 1 2 3 4 5 6 
#
# 1 192.9072 115.3956 114.2326 0.0000 0.0000 0.0000
# 2 115.3956 181.9541 109.8149 0.0000 0.0000 0.0000
# 3 114.2326 109.8149 249.3468 0.0000 0.0000 0.0000
# 4 0.0000 0.0000 0.0000 48.0948 0.0000 0.0000
# 5 0.0000 0.0000 0.0000 0.0000 -361.8314 0.0000
# 6 0.0000 0.0000 0.0000 0.0000 0.0000 -6.0708
#
#
#
# Elastic Compliance Matrix: (Units=1/GPa)
#
#
# Indices 1 2 3 4 5 6 
#
# 1 0.009186 -0.004475 -0.002237 0.000000 0.000000 0.000000
# 2 -0.004475 0.009666 -0.002207 0.000000 0.000000 0.000000
# 3 -0.002237 -0.002207 0.006007 0.000000 0.000000 0.000000
# 4 0.000000 0.000000 0.000000 0.020792 0.000000 0.000000
# 5 0.000000 0.000000 0.000000 0.000000 -0.002764 0.000000
# 6 0.000000 0.000000 0.000000 0.000000 0.000000 -0.164724
#
#
# Mechanical properties :
#
#
# Convention : Reuss Voigt Hill
#
# Bulk Modulus (GPa) = 142.44256 144.78825 143.61540
# Shear Modulus (GPa) = -49.18496 -44.97714 -47.08105
#
# Velocity S-wave (km/s) = -4.68096 -4.47625 -4.57975
# Velocity P-wave (km/s) = 5.85162 6.14701 6.00113
#
# Compressibility (1/GPa) = 0.00702037
#
# Stress axis : x y z
#
# Youngs Moduli (GPa) = 108.86343 103.45517 166.46453
#
# Poissons Ratio (x) = 0.46300 0.37242
# Poissons Ratio (y) = 0.48721 0.36734
# Poissons Ratio (z) = 0.24356 0.22830
#
# Static dielectric constant tensor:
#      x y z
#    x 1.812940 0.000000 0.000000 
#    y 0.000000 1.809080 0.000000 
#    z 0.000000 0.000000 1.772180 
# 
# From -- ./inp_files/320.got.cif
#   From: 2010.05.17/outbox.cif.g08.bks.cpg/sg50_1_cif.got.tgz:320.got - 2010.06.03 11:33:33.
