data_PCOD9398917
_publ_section_title
;
Structure prediction by ZEFSAII (Michael W. Deem and Ramdas Pophale) SiO2 
 PCOD9398917
Probable space group: P M M A
;
_chemical_formula_sum "Si O2"
_cell_formula_units_Z 48
_cell_length_a 15.111638
_cell_length_b 7.951681
_cell_length_c 18.676209
_cell_angle_alpha 90.000000
_cell_angle_beta 90.000000
_cell_angle_gamma 90.000000
_cell_volume 2244.187897
_symmetry_space_group_name_H-M "P M M A"
_symmetry_group_IT_number 51
_symmetry_cell_setting 'orthorhombic'
loop_
_space_group_symop_operation_xyz
x,y,z
1/2-x,-y,z
1/2+x,-y,-z
-x,y,-z
-x,-y,-z
1/2+x,y,-z
1/2-x,y,z
x,-y,z
loop_
_atom_site_type_symbol
_atom_site_label
_atom_site_fract_x
_atom_site_fract_y
_atom_site_fract_z
Si Si1 0.851367 0.295136 0.045455
Si Si2 0.650674 0.705400 0.881771
Si Si3 0.956563 0.197900 0.331931
Si Si4 0.029753 0.298035 0.823924
Si Si5 0.396133 0.806575 0.521144
Si Si6 0.345787 0.305001 0.369931
O O1 0.750000 0.246857 0.059762
O O2 0.855142 0.500000 0.045638
O O3 0.914891 0.233935 0.108178
O O4 0.872237 0.245866 0.963801
O O5 0.750000 0.763227 0.864779
O O6 0.653078 0.500000 0.880150
O O7 0.571491 0.762704 0.831292
O O8 0.931404 0.256155 0.253153
O O9 0.900486 0.269236 0.399023
O O10 0.061690 0.230416 0.342746
O O11 0.943724 0.000000 0.337033
O O12 0.027634 0.500000 0.829553
O O13 0.500000 0.813687 0.500000
O O14 0.350372 0.710711 0.456329
O O15 0.363220 0.000000 0.521211
O O16 0.250000 0.233708 0.346514
O O17 0.347468 0.500000 0.348710
#
# Coordination Sequence:
#
# PCOD9398917 Si02
#       6
#     8   8   8   8   8   8
#     4   8  14  26  45  69  95 123 160 207 255 301
#     4   8  14  25  43  69  98 125 158 203 250 296
#     4  10  21  35  49  68  98 134 165 193 234 290
#     4  10  18  28  47  73  98 127 163 205 252 295
#     4   8  16  32  51  68  89 122 161 193 225 275
#     4  10  20  33  52  78 101 121 153 199 245 287
#
# _framework density 21.388584000000002
#
# number of rings (size 3 to 8) (size 9 to 14) (size 15 to 20)
#    0.000    3.000    0.000    3.500    0.000    7.667 
#    0.000    2.500    0.000    5.500    0.000    2.333 
#    0.000    0.000    0.000    0.000    0.000    0.000 
#
# Total GULP energy -267566.708969 kJ/mol
# GULP energy per Si atom -5574.306437 kJ/mol
# Density = 2.133990 g / cm^3
# Si number density = 21.388584 Si / 1000 Ang^3
#
#
#
# Elastic Constant Matrix: (Units=GPa)
#
#
# Indices 1 2 3 4 5 6 
#
# 1 19.4758 -0.7511 3.2777 0.0000 0.0000 0.0000
# 2 -0.7511 14.5256 -6.6527 0.0000 0.0000 0.0000
# 3 3.2777 -6.6527 69.9847 0.0000 0.0000 0.0000
# 4 0.0000 0.0000 0.0000 44.8315 0.0000 0.0000
# 5 0.0000 0.0000 0.0000 0.0000 8.4087 0.0000
# 6 0.0000 0.0000 0.0000 0.0000 0.0000 13.1446
#
#
#
# Elastic Compliance Matrix: (Units=1/GPa)
#
#
# Indices 1 2 3 4 5 6 
#
# 1 0.051791 0.001639 -0.002270 0.000000 0.000000 0.000000
# 2 0.001639 0.072029 0.006770 0.000000 0.000000 0.000000
# 3 -0.002270 0.006770 0.015039 0.000000 0.000000 0.000000
# 4 0.000000 0.000000 0.000000 0.022306 0.000000 0.000000
# 5 0.000000 0.000000 0.000000 0.000000 0.118925 0.000000
# 6 0.000000 0.000000 0.000000 0.000000 0.000000 0.076077
#
#
# Mechanical properties :
#
#
# Convention : Reuss Voigt Hill
#
# Bulk Modulus (GPa) = 6.61652 10.63712 8.62682
# Shear Modulus (GPa) = 12.68174 20.48442 16.58308
#
# Velocity S-wave (km/s) = 2.43764 3.09807 2.78748
# Velocity P-wave (km/s) = 3.32009 4.21681 3.79503
#
# Compressibility (1/GPa) = 0.15113683
#
# Stress axis : x y z
#
# Youngs Moduli (GPa) = 19.30834 13.88325 66.49502
#
# Poissons Ratio (x) = -0.02275 0.15094
# Poissons Ratio (y) = -0.03164 -0.45019
# Poissons Ratio (z) = 0.04383 -0.09399
#
# Static dielectric constant tensor:
#      x y z
#    x 1.789230 0.000000 0.000000 
#    y 0.000000 1.776490 0.000000 
#    z 0.000000 0.000000 1.806780 
# 
# From -- ./inp_files/29429.got.cif
#   From: 2010.05.17/outbox.cif.g08.bks.cpg/sg51_15_cif.got.tgz:29429.got - 2010.06.03 11:52:47.
