data_PCOD9398751
_publ_section_title
;
Structure prediction by ZEFSAII (Michael W. Deem and Ramdas Pophale) SiO2 
 PCOD9398751
Probable space group: P M M A
;
_chemical_formula_sum "Si O2"
_cell_formula_units_Z 64
_cell_length_a 20.450430
_cell_length_b 7.568494
_cell_length_c 20.350704
_cell_angle_alpha 90.000000
_cell_angle_beta 90.000000
_cell_angle_gamma 90.000000
_cell_volume 3149.860734
_symmetry_space_group_name_H-M "P M M A"
_symmetry_group_IT_number 51
_symmetry_cell_setting 'orthorhombic'
loop_
_space_group_symop_operation_xyz
x,y,z
1/2-x,-y,z
1/2+x,-y,-z
-x,y,-z
-x,-y,-z
1/2+x,y,-z
1/2-x,y,z
x,-y,z
loop_
_atom_site_type_symbol
_atom_site_label
_atom_site_fract_x
_atom_site_fract_y
_atom_site_fract_z
Si Si1 0.875543 0.797135 0.395887
Si Si2 0.823942 0.715995 0.888471
Si Si3 0.559348 0.295651 0.799786
Si Si4 0.176312 0.286709 0.960685
Si Si5 0.016758 0.707464 0.341682
Si Si6 0.678057 0.216658 0.262154
Si Si7 0.428553 0.786187 0.473587
Si Si8 0.076919 0.793209 0.846277
O O1 0.833933 0.719573 0.336401
O O2 0.879315 0.721552 0.469624
O O3 0.950124 0.796116 0.367837
O O4 0.853911 0.000000 0.403025
O O5 0.750000 0.767276 0.870353
O O6 0.825954 0.500000 0.888849
O O7 0.879470 0.781378 0.839092
O O8 0.835562 0.770083 0.964114
O O9 0.576102 0.500000 0.786380
O O10 0.539720 0.220168 0.728587
O O11 0.494466 0.290406 0.844536
O O12 0.250000 0.227466 0.941476
O O13 0.176831 0.500000 0.959807
O O14 0.120317 0.227688 0.911157
O O15 0.001070 0.500000 0.334878
O O16 0.071618 0.727910 0.398247
O O17 0.750000 0.267822 0.238574
O O18 0.621188 0.277974 0.213694
O O19 0.675543 0.000000 0.262569
O O20 0.500000 0.729646 0.500000
O O21 0.426800 0.000000 0.474219
O O22 0.066117 0.000000 0.834814
#
# Coordination Sequence:
#
# PCOD9398751 Si02
#       8
#     8   8   8   8   8   8   8   8
#     4   9  16  29  46  64  89 122 162 201 234 278
#     4   8  16  34  58  77  92 121 167 209 246 296
#     4  10  20  33  51  75 101 127 162 208 251 293
#     4   9  18  34  55  75  97 128 166 208 249 288
#     4  10  18  27  43  69  98 122 149 194 247 287
#     4   9  17  29  46  67  92 127 169 204 234 277
#     4   8  15  26  43  64  87 119 157 193 231 280
#     4  11  21  32  49  73 104 136 165 201 246 297
#
# _framework density 20.318359000000001
#
# number of rings (size 3 to 8) (size 9 to 14) (size 15 to 20)
#    0.000    2.750    1.250    2.625    0.000    4.000 
#    0.000    3.125    0.000    3.000    0.000    0.000 
#    0.000    0.000    0.000    0.000    0.000    0.250 
#
# Total GULP energy -356806.181306 kJ/mol
# GULP energy per Si atom -5575.096583 kJ/mol
# Density = 2.027211 g / cm^3
# Si number density = 20.318359 Si / 1000 Ang^3
#
#
#
# Elastic Constant Matrix: (Units=GPa)
#
#
# Indices 1 2 3 4 5 6 
#
# 1 88.6589 -7.8460 55.2716 0.0000 0.0000 0.0000
# 2 -7.8460 49.5668 -5.8677 0.0000 0.0000 0.0000
# 3 55.2716 -5.8677 102.5233 0.0000 0.0000 0.0000
# 4 0.0000 0.0000 0.0000 16.2477 0.0000 0.0000
# 5 0.0000 0.0000 0.0000 0.0000 26.4224 0.0000
# 6 0.0000 0.0000 0.0000 0.0000 0.0000 -0.2092
#
#
#
# Elastic Compliance Matrix: (Units=1/GPa)
#
#
# Indices 1 2 3 4 5 6 
#
# 1 0.017119 0.001628 -0.009136 0.000000 0.000000 0.000000
# 2 0.001628 0.020467 0.000294 0.000000 0.000000 0.000000
# 3 -0.009136 0.000294 0.014696 0.000000 0.000000 0.000000
# 4 0.000000 0.000000 0.000000 0.061547 0.000000 0.000000
# 5 0.000000 0.000000 0.000000 0.000000 0.037847 0.000000
# 6 0.000000 0.000000 0.000000 0.000000 0.000000 -4.780788
#
#
# Mechanical properties :
#
#
# Convention : Reuss Voigt Hill
#
# Bulk Modulus (GPa) = 26.41720 35.98495 31.20108
# Shear Modulus (GPa) = -1.08647 21.77159 10.34256
#
# Velocity S-wave (km/s) = -0.73204 3.27696 2.25861
# Velocity P-wave (km/s) = 3.50932 5.66277 4.71075
#
# Compressibility (1/GPa) = 0.03785412
#
# Stress axis : x y z
#
# Youngs Moduli (GPa) = 58.41590 48.85843 68.04645
#
# Poissons Ratio (x) = -0.07955 0.62165
# Poissons Ratio (y) = -0.09512 -0.01998
# Poissons Ratio (z) = 0.53367 -0.01434
#
# Static dielectric constant tensor:
#      x y z
#    x 1.706150 0.000000 0.000000 
#    y 0.000000 1.783860 0.000000 
#    z 0.000000 0.000000 1.760590 
# 
# From -- ./inp_files/34131.got.cif
#   From: 2010.05.17/outbox.cif.g08.bks.cpg/sg51_18_cif.got.tgz:34131.got - 2010.06.03 11:52:47.
