data_PCOD9398245
_publ_section_title
;
Structure prediction by ZEFSAII (Michael W. Deem and Ramdas Pophale) SiO2 
 PCOD9398245
Probable space group: P B A N
;
_chemical_formula_sum "Si O2"
_cell_formula_units_Z 38
_cell_length_a 16.744883
_cell_length_b 8.234693
_cell_length_c 12.556883
_cell_angle_alpha 90.000000
_cell_angle_beta 90.000000
_cell_angle_gamma 90.000000
_cell_volume 1731.455674
_symmetry_space_group_name_H-M "P B A N"
_symmetry_group_IT_number 50
_space_group.IT_coordinate_system_code '2'
_symmetry_cell_setting 'orthorhombic'
loop_
_space_group_symop_operation_xyz
x,y,z
1/2-x,1/2-y,z
x,1/2-y,-z
1/2-x,y,-z
-x,-y,-z
1/2+x,1/2+y,-z
-x,1/2+y,z
1/2+x,-y,z
loop_
_atom_site_type_symbol
_atom_site_label
_atom_site_fract_x
_atom_site_fract_y
_atom_site_fract_z
Si Si1 0.529000 0.874828 0.585798
Si Si2 0.085319 0.338543 0.885644
Si Si3 0.825691 0.449839 0.685291
Si Si4 0.750000 0.750000 0.776078
Si Si5 0.250000 0.750000 0.500000
Si Si6 0.574972 0.305610 0.786015
O O1 0.565446 0.750000 0.500000
O O2 0.454438 0.836260 0.663521
O O3 0.500000 0.000000 0.500000
O O4 0.595421 0.945518 0.662979
O O5 0.167702 0.265782 0.840123
O O6 0.089644 0.532860 0.857258
O O7 0.002038 0.287286 0.831625
O O8 0.079635 0.250000 0.000000
O O9 0.758195 0.580529 0.713334
O O10 0.802383 0.359599 0.577675
O O11 0.849528 0.315182 0.773479
#
# Coordination Sequence:
#
# PCOD9398245 Si02
#       6
#     8   8   8   4   2   8
#     4  12  22  38  68 101 138 186 242 297 356 433
#     4  12  25  46  75 103 139 186 245 313 380 448
#     4  12  26  44  68 101 151 196 243 308 369 445
#     4  12  27  47  66 102 146 190 237 310 389 444
#     4  12  28  42  60 108 146 200 248 284 376 462
#     4  12  23  47  71 107 142 186 253 308 365 442
#
# _framework density 21.946850999999999
#
# number of rings (size 3 to 8) (size 9 to 14) (size 15 to 20)
#    0.000    0.000    6.316    3.474    2.947    0.000 
#    0.000    0.000    0.000    5.053    0.000    0.000 
#    0.000    0.000    0.000    0.000    0.000    0.000 
#
# Total GULP energy -211948.769700 kJ/mol
# GULP energy per Si atom -5577.599203 kJ/mol
# Density = 2.189690 g / cm^3
# Si number density = 21.946851 Si / 1000 Ang^3
#
#
#
# Elastic Constant Matrix: (Units=GPa)
#
#
# Indices 1 2 3 4 5 6 
#
# 1 76.7029 31.3185 32.4462 0.0000 0.0000 0.0000
# 2 31.3185 139.3424 66.6708 0.0000 0.0000 0.0000
# 3 32.4462 66.6708 109.3583 0.0000 0.0000 0.0000
# 4 0.0000 0.0000 0.0000 26.8756 0.0000 0.0000
# 5 0.0000 0.0000 0.0000 0.0000 24.7317 0.0000
# 6 0.0000 0.0000 0.0000 0.0000 0.0000 49.0188
#
#
#
# Elastic Compliance Matrix: (Units=1/GPa)
#
#
# Indices 1 2 3 4 5 6 
#
# 1 0.015214 -0.001779 -0.003430 0.000000 0.000000 0.000000
# 2 -0.001779 0.010340 -0.005776 0.000000 0.000000 0.000000
# 3 -0.003430 -0.005776 0.013683 0.000000 0.000000 0.000000
# 4 0.000000 0.000000 0.000000 0.037209 0.000000 0.000000
# 5 0.000000 0.000000 0.000000 0.000000 0.040434 0.000000
# 6 0.000000 0.000000 0.000000 0.000000 0.000000 0.020400
#
#
# Mechanical properties :
#
#
# Convention : Reuss Voigt Hill
#
# Bulk Modulus (GPa) = 57.90795 65.14161 61.52478
# Shear Modulus (GPa) = 30.30202 33.12310 31.71256
#
# Velocity S-wave (km/s) = 3.71981 3.88911 3.80540
# Velocity P-wave (km/s) = 6.70016 7.06490 6.88495
#
# Compressibility (1/GPa) = 0.01726879
#
# Stress axis : x y z
#
# Youngs Moduli (GPa) = 65.72753 96.71166 73.08172
#
# Poissons Ratio (x) = 0.17201 0.25065
# Poissons Ratio (y) = 0.11690 0.42213
# Poissons Ratio (z) = 0.22543 0.55862
#
# Static dielectric constant tensor:
#      x y z
#    x 2.102020 0.000000 0.000000 
#    y 0.000000 1.854870 0.000000 
#    z 0.000000 0.000000 1.788340 
# 
# From -- ./inp_files/21651.got.cif
#   From: 2010.05.17/outbox.cif.g08.bks.cpg/sg50_11_cif.got.tgz:21651.got - 2010.06.03 11:33:33.
