data_PCOD9398925
_publ_section_title
;
Structure prediction by ZEFSAII (Michael W. Deem and Ramdas Pophale) SiO2 
 PCOD9398925
Probable space group: P M M A
;
_chemical_formula_sum "Si O2"
_cell_formula_units_Z 48
_cell_length_a 18.335291
_cell_length_b 7.491769
_cell_length_c 16.625598
_cell_angle_alpha 90.000000
_cell_angle_beta 90.000000
_cell_angle_gamma 90.000000
_cell_volume 2283.754732
_symmetry_space_group_name_H-M "P M M A"
_symmetry_group_IT_number 51
_symmetry_cell_setting 'orthorhombic'
loop_
_space_group_symop_operation_xyz
x,y,z
1/2-x,-y,z
1/2+x,-y,-z
-x,y,-z
-x,-y,-z
1/2+x,y,-z
1/2-x,y,z
x,-y,z
loop_
_atom_site_type_symbol
_atom_site_label
_atom_site_fract_x
_atom_site_fract_y
_atom_site_fract_z
Si Si1 0.250000 0.282952 0.379359
Si Si2 0.037052 0.282049 0.629174
Si Si3 0.250000 0.207021 0.193529
Si Si4 0.601975 0.208928 0.883233
Si Si5 0.554154 0.291416 0.189861
Si Si6 0.893887 0.717372 0.531561
Si Si7 0.834822 0.716316 0.056690
O O1 0.250000 0.500000 0.375651
O O2 0.250000 0.216438 0.288823
O O3 0.320429 0.223212 0.427566
O O4 0.036052 0.500000 0.632246
O O5 0.048005 0.216502 0.719751
O O6 0.094913 0.227998 0.560845
O O7 0.960702 0.227403 0.588644
O O8 0.325972 0.285876 0.160971
O O9 0.250000 0.000000 0.165976
O O10 0.524369 0.282674 0.854388
O O11 0.597359 0.000000 0.863526
O O12 0.620525 0.230992 0.976990
O O13 0.571764 0.500000 0.199764
O O14 0.618303 0.218169 0.133028
O O15 0.894886 0.500000 0.530957
O O16 0.750000 0.776226 0.053656
O O17 0.833242 0.500000 0.058077
#
# Coordination Sequence:
#
# PCOD9398925 Si02
#       7
#     4   8   4   8   8   8   8
#     4  10  18  28  48  79 102 126 170 213 250 302
#     4   8  14  27  45  67 101 137 162 197 250 298
#     4  10  22  36  50  73 106 136 166 213 268 318
#     4  11  22  37  55  76 103 136 175 218 268 316
#     4  10  20  34  54  80 105 137 178 217 257 307
#     4   8  14  25  43  70 102 131 162 202 247 294
#     4  10  21  37  54  75 106 140 174 213 259 313
#
# _framework density 21.018018000000001
#
# number of rings (size 3 to 8) (size 9 to 14) (size 15 to 20)
#    0.000    2.500    0.833    3.000    0.000    5.333 
#    1.500    0.000    0.000    1.000    0.000    4.667 
#    0.000    0.000    0.000    0.000    0.000    0.000 
#
# Total GULP energy -267882.377024 kJ/mol
# GULP energy per Si atom -5580.882855 kJ/mol
# Density = 2.097018 g / cm^3
# Si number density = 21.018018 Si / 1000 Ang^3
#
#
#
# Elastic Constant Matrix: (Units=GPa)
#
#
# Indices 1 2 3 4 5 6 
#
# 1 50.8286 -11.2584 65.8157 0.0000 0.0000 0.0000
# 2 -11.2584 53.9086 -14.9107 0.0000 0.0000 0.0000
# 3 65.8157 -14.9107 190.6521 0.0000 0.0000 0.0000
# 4 0.0000 0.0000 0.0000 55.0497 0.0000 0.0000
# 5 0.0000 0.0000 0.0000 0.0000 31.3596 0.0000
# 6 0.0000 0.0000 0.0000 0.0000 0.0000 -3.1101
#
#
#
# Elastic Compliance Matrix: (Units=1/GPa)
#
#
# Indices 1 2 3 4 5 6 
#
# 1 0.036496 0.004229 -0.012268 0.000000 0.000000 0.000000
# 2 0.004229 0.019450 0.000061 0.000000 0.000000 0.000000
# 3 -0.012268 0.000061 0.009485 0.000000 0.000000 0.000000
# 4 0.000000 0.000000 0.000000 0.018165 0.000000 0.000000
# 5 0.000000 0.000000 0.000000 0.000000 0.031888 0.000000
# 6 0.000000 0.000000 0.000000 0.000000 0.000000 -0.321534
#
#
# Mechanical properties :
#
#
# Convention : Reuss Voigt Hill
#
# Bulk Modulus (GPa) = 20.21224 41.63137 30.92181
# Shear Modulus (GPa) = -28.80173 33.70937 2.45382
#
# Velocity S-wave (km/s) = -3.70582 4.00913 1.08167
# Velocity P-wave (km/s) = 2.94505 6.42505 4.03782
#
# Compressibility (1/GPa) = 0.04947497
#
# Stress axis : x y z
#
# Youngs Moduli (GPa) = 27.40005 51.41380 105.42820
#
# Poissons Ratio (x) = -0.21741 1.29342
# Poissons Ratio (y) = -0.11587 -0.00647
# Poissons Ratio (z) = 0.33615 -0.00316
#
# Static dielectric constant tensor:
#      x y z
#    x 1.736180 0.000000 0.000000 
#    y 0.000000 1.806200 0.000000 
#    z 0.000000 0.000000 1.731710 
# 
# From -- ./inp_files/24887.got.cif
#   From: 2010.05.17/outbox.cif.g08.bks.cpg/sg51_13_cif.got.tgz:24887.got - 2010.06.03 11:52:47.
