data_PCOD9398372
_publ_section_title
;
Structure prediction by ZEFSAII (Michael W. Deem and Ramdas Pophale) SiO2 
 PCOD9398372
Probable space group: P M M A
;
_chemical_formula_sum "Si O2"
_cell_formula_units_Z 40
_cell_length_a 8.759874
_cell_length_b 26.424613
_cell_length_c 9.787910
_cell_angle_alpha 90.000000
_cell_angle_beta 90.000000
_cell_angle_gamma 90.000000
_cell_volume 2265.668999
_symmetry_space_group_name_H-M "P M M A"
_symmetry_group_IT_number 51
_symmetry_cell_setting 'orthorhombic'
loop_
_space_group_symop_operation_xyz
x,y,z
1/2-x,-y,z
1/2+x,-y,-z
-x,y,-z
-x,-y,-z
1/2+x,y,-z
1/2-x,y,z
x,-y,z
loop_
_atom_site_type_symbol
_atom_site_label
_atom_site_fract_x
_atom_site_fract_y
_atom_site_fract_z
Si Si1 0.066966 0.084264 0.349512
Si Si2 0.932681 0.000000 0.152327
Si Si3 0.567533 0.714482 0.152254
Si Si4 0.431997 0.202223 0.351006
Si Si5 0.432831 0.602428 0.846237
Si Si6 0.432230 0.500000 0.155061
O O1 0.250000 0.077300 0.351896
O O2 0.033270 0.143311 0.319580
O O3 0.000000 0.072718 0.500000
O O4 0.992678 0.048269 0.237252
O O5 0.750000 0.000000 0.147207
O O6 0.000000 0.000000 0.000000
O O7 0.750000 0.718271 0.144045
O O8 0.501377 0.759062 0.243433
O O9 0.531658 0.658206 0.211387
O O10 0.500000 0.717684 0.000000
O O11 0.500000 0.212938 0.500000
O O12 0.250000 0.207525 0.354479
O O13 0.250000 0.596170 0.852349
O O14 0.506656 0.552356 0.781044
O O15 0.500000 0.604587 0.000000
O O16 0.250000 0.500000 0.148601
O O17 0.500000 0.500000 0.000000
#
# Coordination Sequence:
#
# PCOD9398372 Si02
#       6
#     8   4   8   8   8   4
#     4  10  21  39  61  84 109 141 179 218 260 309
#     4  12  25  40  59  84 114 146 178 218 263 310
#     4  10  20  33  51  75 105 139 175 216 265 316
#     4  10  21  37  58  81 107 139 177 219 261 308
#     4   9  16  26  40  61  91 127 165 207 254 306
#     4  10  16  22  36  58  87 124 163 206 253 304
#
# _framework density 17.654828999999999
#
# number of rings (size 3 to 8) (size 9 to 14) (size 15 to 20)
#    0.000    2.000    0.000    5.700    0.000    5.600 
#    0.000    0.000    0.000    0.000    0.000    0.700 
#    0.000    0.000    0.000    0.000    0.000    0.000 
#
# Total GULP energy -223166.988091 kJ/mol
# GULP energy per Si atom -5579.174702 kJ/mol
# Density = 1.761465 g / cm^3
# Si number density = 17.654829 Si / 1000 Ang^3
#
#
#
# Elastic Constant Matrix: (Units=GPa)
#
#
# Indices 1 2 3 4 5 6 
#
# 1 111.0847 84.2340 54.0383 0.0000 0.0000 0.0000
# 2 84.2340 160.2898 96.4685 0.0000 0.0000 0.0000
# 3 54.0383 96.4685 87.5048 0.0000 0.0000 0.0000
# 4 0.0000 0.0000 0.0000 -103.7457 0.0000 0.0000
# 5 0.0000 0.0000 0.0000 0.0000 27.9406 0.0000
# 6 0.0000 0.0000 0.0000 0.0000 0.0000 35.8828
#
#
#
# Elastic Compliance Matrix: (Units=1/GPa)
#
#
# Indices 1 2 3 4 5 6 
#
# 1 0.015051 -0.006881 -0.001709 0.000000 0.000000 0.000000
# 2 -0.006881 0.021685 -0.019657 0.000000 0.000000 0.000000
# 3 -0.001709 -0.019657 0.034154 0.000000 0.000000 0.000000
# 4 0.000000 0.000000 0.000000 -0.009639 0.000000 0.000000
# 5 0.000000 0.000000 0.000000 0.000000 0.035790 0.000000
# 6 0.000000 0.000000 0.000000 0.000000 0.000000 0.027869
#
#
# Mechanical properties :
#
#
# Convention : Reuss Voigt Hill
#
# Bulk Modulus (GPa) = 69.46266 92.04012 80.75139
# Shear Modulus (GPa) = 26.85234 0.29146 13.57190
#
# Velocity S-wave (km/s) = 3.90418 0.40675 2.77562
# Velocity P-wave (km/s) = 7.73006 7.24340 7.49068
#
# Compressibility (1/GPa) = 0.01439622
#
# Stress axis : x y z
#
# Youngs Moduli (GPa) = 66.43936 46.11423 29.27912
#
# Poissons Ratio (x) = 0.31732 0.05003
# Poissons Ratio (y) = 0.45718 0.57555
# Poissons Ratio (z) = 0.11353 0.90648
#
# Static dielectric constant tensor:
#      x y z
#    x 1.590010 0.000000 0.000000 
#    y 0.000000 1.654020 0.000000 
#    z 0.000000 0.000000 1.556770 
# 
# From -- ./inp_files/5554.got.cif
#   From: 2010.05.17/outbox.cif.g08.bks.cpg/sg51_3_cif.got.tgz:5554.got - 2010.06.03 11:52:47.
