data_PCOD9398034
_publ_section_title
;
Structure prediction by ZEFSAII (Michael W. Deem and Ramdas Pophale) SiO2 
 PCOD9398034
Probable space group: P B A N
;
_chemical_formula_sum "Si O2"
_cell_formula_units_Z 48
_cell_length_a 8.976955
_cell_length_b 15.175089
_cell_length_c 15.729349
_cell_angle_alpha 90.000000
_cell_angle_beta 90.000000
_cell_angle_gamma 90.000000
_cell_volume 2142.747729
_symmetry_space_group_name_H-M "P B A N"
_symmetry_group_IT_number 50
_space_group.IT_coordinate_system_code '2'
_symmetry_cell_setting 'orthorhombic'
loop_
_space_group_symop_operation_xyz
x,y,z
1/2-x,1/2-y,z
x,1/2-y,-z
1/2-x,y,-z
-x,-y,-z
1/2+x,1/2+y,-z
-x,1/2+y,z
1/2+x,-y,z
loop_
_atom_site_type_symbol
_atom_site_label
_atom_site_fract_x
_atom_site_fract_y
_atom_site_fract_z
Si Si1 0.311073 0.152434 0.328081
Si Si2 0.996550 0.593320 0.265492
Si Si3 0.131478 0.517092 0.436486
Si Si4 0.031492 0.596424 0.810654
Si Si5 0.071707 0.097062 0.990993
Si Si6 0.159898 0.665236 0.128846
O O1 0.250000 0.250000 0.352129
O O2 0.176799 0.113277 0.272389
O O3 0.320114 0.079501 0.402466
O O4 0.463774 0.145118 0.272885
O O5 0.008368 0.505274 0.208562
O O6 0.075810 0.571889 0.354954
O O7 0.072399 0.673487 0.217041
O O8 0.250000 0.560750 0.500000
O O9 0.000000 0.500000 0.500000
O O10 0.205173 0.600399 0.839706
O O11 0.951803 0.630377 0.895176
O O12 0.965987 0.146149 0.058839
O O13 0.250000 0.095572 0.000000
O O14 0.000000 0.000000 0.000000
O O15 0.250000 0.750000 0.102023
#
# Coordination Sequence:
#
# PCOD9398034 Si02
#       6
#     8   8   8   8   8   8
#     4  11  24  43  69 100 142 183 234 290 365 430
#     4  11  23  43  70  98 138 188 237 289 359 447
#     4  11  23  44  71 103 136 180 237 294 356 442
#     4  11  23  41  69 100 137 185 238 289 349 439
#     4  12  25  43  71 103 138 188 249 299 352 432
#     4  12  26  44  70 107 149 184 243 305 372 427
#
# _framework density 22.401143999999999
#
# number of rings (size 3 to 8) (size 9 to 14) (size 15 to 20)
#    0.000    0.667    3.333    5.500    2.333    1.667 
#    0.000    0.833    0.000    0.000    0.000    0.000 
#    0.000    0.000    0.000    0.000    0.000    0.000 
#
# Total GULP energy -267663.313415 kJ/mol
# GULP energy per Si atom -5576.319029 kJ/mol
# Density = 2.235016 g / cm^3
# Si number density = 22.401144 Si / 1000 Ang^3
#
#
#
# Elastic Constant Matrix: (Units=GPa)
#
#
# Indices 1 2 3 4 5 6 
#
# 1 157.5767 12.0652 38.2236 0.0000 0.0000 0.0000
# 2 12.0652 63.1662 2.3603 0.0000 0.0000 0.0000
# 3 38.2236 2.3603 117.4238 0.0000 0.0000 0.0000
# 4 0.0000 0.0000 0.0000 16.9580 0.0000 0.0000
# 5 0.0000 0.0000 0.0000 0.0000 60.4160 0.0000
# 6 0.0000 0.0000 0.0000 0.0000 0.0000 34.0233
#
#
#
# Elastic Compliance Matrix: (Units=1/GPa)
#
#
# Indices 1 2 3 4 5 6 
#
# 1 0.006988 -0.001251 -0.002249 0.000000 0.000000 0.000000
# 2 -0.001251 0.016067 0.000084 0.000000 0.000000 0.000000
# 3 -0.002249 0.000084 0.009247 0.000000 0.000000 0.000000
# 4 0.000000 0.000000 0.000000 0.058969 0.000000 0.000000
# 5 0.000000 0.000000 0.000000 0.000000 0.016552 0.000000
# 6 0.000000 0.000000 0.000000 0.000000 0.000000 0.029392
#
#
# Mechanical properties :
#
#
# Convention : Reuss Voigt Hill
#
# Bulk Modulus (GPa) = 39.26279 49.27388 44.26834
# Shear Modulus (GPa) = 32.77927 41.31397 37.04662
#
# Velocity S-wave (km/s) = 3.82944 4.29917 4.07108
# Velocity P-wave (km/s) = 6.09246 6.83284 6.47324
#
# Compressibility (1/GPa) = 0.02546940
#
# Stress axis : x y z
#
# Youngs Moduli (GPa) = 143.11232 62.23944 108.14665
#
# Poissons Ratio (x) = 0.07784 0.24327
# Poissons Ratio (y) = 0.17898 -0.00910
# Poissons Ratio (z) = 0.32192 -0.00524
#
# Static dielectric constant tensor:
#      x y z
#    x 1.536110 0.000000 0.000000 
#    y 0.000000 1.916590 0.000000 
#    z 0.000000 0.000000 1.805000 
# 
# From -- ./inp_files/25004.got.cif
#   From: 2010.05.17/outbox.cif.g08.bks.cpg/sg50_13_cif.got.tgz:25004.got - 2010.06.03 11:33:33.
