data_PCOD9398988
_publ_section_title
;
Structure prediction by ZEFSAII (Michael W. Deem and Ramdas Pophale) SiO2 
 PCOD9398988
Probable space group: P M M A
;
_chemical_formula_sum "Si O2"
_cell_formula_units_Z 64
_cell_length_a 19.322201
_cell_length_b 14.343131
_cell_length_c 13.529077
_cell_angle_alpha 90.000000
_cell_angle_beta 90.000000
_cell_angle_gamma 90.000000
_cell_volume 3749.460037
_symmetry_space_group_name_H-M "P M M A"
_symmetry_group_IT_number 51
_symmetry_cell_setting 'orthorhombic'
loop_
_space_group_symop_operation_xyz
x,y,z
1/2-x,-y,z
1/2+x,-y,-z
-x,y,-z
-x,-y,-z
1/2+x,y,-z
1/2-x,y,z
x,-y,z
loop_
_atom_site_type_symbol
_atom_site_label
_atom_site_fract_x
_atom_site_fract_y
_atom_site_fract_z
Si Si1 0.551068 0.249591 0.260535
Si Si2 0.974574 0.610033 0.887543
Si Si3 0.170862 0.611874 0.198382
Si Si4 0.938727 0.396582 0.429196
Si Si5 0.831599 0.108017 0.286918
Si Si6 0.827743 0.135956 0.521186
Si Si7 0.970422 0.104500 0.609147
Si Si8 0.327729 0.648999 0.420741
O O1 0.517246 0.314338 0.176418
O O2 0.574424 0.323799 0.343445
O O3 0.616186 0.181851 0.237447
O O4 0.495613 0.180427 0.312634
O O5 0.983576 0.500000 0.855808
O O6 0.892637 0.632917 0.874777
O O7 0.000000 0.615220 0.000000
O O8 0.250000 0.645797 0.177363
O O9 0.175128 0.500000 0.203357
O O10 0.148134 0.645902 0.307416
O O11 0.957750 0.500000 0.391954
O O12 0.874905 0.403572 0.502791
O O13 0.000000 0.361563 0.500000
O O14 0.750000 0.129389 0.270920
O O15 0.843356 0.114798 0.406134
O O16 0.843429 0.000000 0.258030
O O17 0.750000 0.102255 0.541795
O O18 0.888337 0.101264 0.591732
O O19 0.827264 0.246190 0.539189
O O20 0.000000 0.127946 0.500000
O O21 0.995308 0.000000 0.634919
O O22 0.250000 0.612197 0.418702
#
# Coordination Sequence:
#
# PCOD9398988 Si02
#       8
#     8   8   8   8   8   8   8   8
#     4  12  21  34  54  75 103 139 183 229 277 329
#     4  10  22  40  60  82 108 138 180 239 299 343
#     4   9  17  31  53  78 104 139 183 224 266 327
#     4  11  21  30  43  67 101 139 172 205 254 319
#     4  10  20  34  52  74 104 144 186 223 261 314
#     4  10  18  29  45  68 104 146 181 213 250 300
#     4  11  20  30  47  75 107 140 177 217 259 310
#     4  10  18  29  46  72 106 142 176 212 252 305
#
# _framework density 17.069123999999999
#
# number of rings (size 3 to 8) (size 9 to 14) (size 15 to 20)
#    0.000    1.625    2.500    4.125    0.000    3.500 
#    0.000    0.625    0.000    3.375    0.000    0.000 
#    0.000    0.000    0.000    0.000    0.000    0.000 
#
# Total GULP energy -356806.112436 kJ/mol
# GULP energy per Si atom -5575.095507 kJ/mol
# Density = 1.703027 g / cm^3
# Si number density = 17.069124 Si / 1000 Ang^3
#
#
#
# Elastic Constant Matrix: (Units=GPa)
#
#
# Indices 1 2 3 4 5 6 
#
# 1 93.6872 42.8140 40.4685 0.0000 0.0000 0.0000
# 2 42.8140 110.2107 34.1646 0.0000 0.0000 0.0000
# 3 40.4685 34.1646 63.8989 0.0000 0.0000 0.0000
# 4 0.0000 0.0000 0.0000 14.3435 0.0000 0.0000
# 5 0.0000 0.0000 0.0000 0.0000 20.6538 0.0000
# 6 0.0000 0.0000 0.0000 0.0000 0.0000 24.7953
#
#
#
# Elastic Compliance Matrix: (Units=1/GPa)
#
#
# Indices 1 2 3 4 5 6 
#
# 1 0.015828 -0.003646 -0.008075 0.000000 0.000000 0.000000
# 2 -0.003646 0.011716 -0.003955 0.000000 0.000000 0.000000
# 3 -0.008075 -0.003955 0.022878 0.000000 0.000000 0.000000
# 4 0.000000 0.000000 0.000000 0.069718 0.000000 0.000000
# 5 0.000000 0.000000 0.000000 0.000000 0.048417 0.000000
# 6 0.000000 0.000000 0.000000 0.000000 0.000000 0.040330
#
#
# Mechanical properties :
#
#
# Convention : Reuss Voigt Hill
#
# Bulk Modulus (GPa) = 52.43655 55.85454 54.14555
# Shear Modulus (GPa) = 20.27609 21.98183 21.12896
#
# Velocity S-wave (km/s) = 3.45030 3.59250 3.52212
# Velocity P-wave (km/s) = 6.83078 7.07119 6.95203
#
# Compressibility (1/GPa) = 0.01907067
#
# Stress axis : x y z
#
# Youngs Moduli (GPa) = 63.18019 85.35467 43.70919
#
# Poissons Ratio (x) = 0.31116 0.35295
# Poissons Ratio (y) = 0.23032 0.17288
# Poissons Ratio (z) = 0.51017 0.33760
#
# Static dielectric constant tensor:
#      x y z
#    x 1.585970 0.000000 0.000000 
#    y 0.000000 1.646350 0.000000 
#    z 0.000000 0.000000 1.564790 
# 
# From -- ./inp_files/17607.got.cif
#   From: 2010.05.17/outbox.cif.g08.bks.cpg/sg51_9_cif.got.tgz:17607.got - 2010.06.03 11:52:47.
