data_PCOD9398784
_publ_section_title
;
Structure prediction by ZEFSAII (Michael W. Deem and Ramdas Pophale) SiO2 
 PCOD9398784
Probable space group: P M M A
;
_chemical_formula_sum "Si O2"
_cell_formula_units_Z 64
_cell_length_a 27.122909
_cell_length_b 9.418943
_cell_length_c 17.381136
_cell_angle_alpha 90.000000
_cell_angle_beta 90.000000
_cell_angle_gamma 90.000000
_cell_volume 4440.343760
_symmetry_space_group_name_H-M "P M M A"
_symmetry_group_IT_number 51
_symmetry_cell_setting 'orthorhombic'
loop_
_space_group_symop_operation_xyz
x,y,z
1/2-x,-y,z
1/2+x,-y,-z
-x,y,-z
-x,-y,-z
1/2+x,y,-z
1/2-x,y,z
x,-y,z
loop_
_atom_site_type_symbol
_atom_site_label
_atom_site_fract_x
_atom_site_fract_y
_atom_site_fract_z
Si Si1 0.806716 0.170277 0.593894
Si Si2 0.043913 0.662381 0.408156
Si Si3 0.941128 0.836543 0.017396
Si Si4 0.108044 0.169307 0.524993
Si Si5 0.368870 0.664966 0.284727
Si Si6 0.424180 0.329924 0.133608
Si Si7 0.539292 0.669593 0.167433
Si Si8 0.564972 0.668119 0.340766
O O1 0.750000 0.210752 0.581351
O O2 0.842327 0.207717 0.522198
O O3 0.829020 0.243230 0.669816
O O4 0.809373 0.000000 0.602597
O O5 0.046294 0.500000 0.438483
O O6 0.063944 0.769474 0.471847
O O7 0.081666 0.670376 0.336842
O O8 0.989413 0.689396 0.377330
O O9 0.935918 0.754713 0.097854
O O10 0.925172 0.000000 0.021656
O O11 0.917557 0.753195 0.945861
O O12 0.000000 0.835626 0.000000
O O13 0.102447 0.242869 0.607484
O O14 0.104947 0.000000 0.531235
O O15 0.353412 0.500000 0.281707
O O16 0.385514 0.711176 0.199850
O O17 0.420851 0.500000 0.121651
O O18 0.480192 0.302488 0.163580
O O19 0.545096 0.500000 0.156217
O O20 0.560426 0.707294 0.251094
O O21 0.575764 0.500000 0.345595
#
# Coordination Sequence:
#
# PCOD9398784 Si02
#       8
#     8   8   8   8   8   8   8   8
#     4   9  19  35  49  60  81 112 141 172 216 266
#     4   9  16  28  42  57  81 112 142 171 205 246
#     4   9  17  26  36  55  82 112 145 178 208 235
#     4  10  20  30  41  60  81 105 139 176 214 254
#     4   9  16  27  45  67  85 105 141 182 213 246
#     4   9  15  26  42  59  81 110 144 176 204 242
#     4   9  16  27  41  56  78 114 151 175 202 242
#     4  10  18  28  42  59  82 113 145 174 207 248
#
# _framework density 14.413297999999999
#
# number of rings (size 3 to 8) (size 9 to 14) (size 15 to 20)
#    0.000    2.750    1.250    1.125    0.000    5.250 
#    0.000    0.000    0.000    0.000    0.000    0.000 
#    0.000    1.000    0.000    7.500    0.000    3.875 
#
# Total GULP energy -356554.282164 kJ/mol
# GULP energy per Si atom -5571.160659 kJ/mol
# Density = 1.438049 g / cm^3
# Si number density = 14.413298 Si / 1000 Ang^3
#
#
#
# Elastic Constant Matrix: (Units=GPa)
#
#
# Indices 1 2 3 4 5 6 
#
# 1 52.0601 32.6467 45.9700 0.0000 0.0000 0.0000
# 2 32.6467 48.9600 65.7175 0.0000 0.0000 0.0000
# 3 45.9700 65.7175 142.9019 0.0000 0.0000 0.0000
# 4 0.0000 0.0000 0.0000 12.5108 0.0000 0.0000
# 5 0.0000 0.0000 0.0000 0.0000 10.9510 0.0000
# 6 0.0000 0.0000 0.0000 0.0000 0.0000 12.0830
#
#
#
# Elastic Compliance Matrix: (Units=1/GPa)
#
#
# Indices 1 2 3 4 5 6 
#
# 1 0.033105 -0.020328 -0.001301 0.000000 0.000000 0.000000
# 2 -0.020328 0.065850 -0.023744 0.000000 0.000000 0.000000
# 3 -0.001301 -0.023744 0.018336 0.000000 0.000000 0.000000
# 4 0.000000 0.000000 0.000000 0.079931 0.000000 0.000000
# 5 0.000000 0.000000 0.000000 0.000000 0.091316 0.000000
# 6 0.000000 0.000000 0.000000 0.000000 0.000000 0.082761
#
#
# Mechanical properties :
#
#
# Convention : Reuss Voigt Hill
#
# Bulk Modulus (GPa) = 37.67207 59.17672 48.42439
# Shear Modulus (GPa) = 10.61811 13.74813 12.18312
#
# Velocity S-wave (km/s) = 2.71714 3.09180 2.91051
# Velocity P-wave (km/s) = 6.00313 7.34110 6.70557
#
# Compressibility (1/GPa) = 0.02654487
#
# Stress axis : x y z
#
# Youngs Moduli (GPa) = 30.20668 15.18599 54.53893
#
# Poissons Ratio (x) = 0.30871 0.07096
# Poissons Ratio (y) = 0.61405 1.29495
# Poissons Ratio (z) = 0.03930 0.36057
#
# Static dielectric constant tensor:
#      x y z
#    x 1.451180 0.000000 0.000000 
#    y 0.000000 1.480650 0.000000 
#    z 0.000000 0.000000 1.483660 
# 
# From -- ./inp_files/30864.got.cif
#   From: 2010.05.17/outbox.cif.g08.bks.cpg/sg51_16_cif.got.tgz:30864.got - 2010.06.03 11:52:47.
