data_PCOD9398965
_publ_section_title
;
Structure prediction by ZEFSAII (Michael W. Deem and Ramdas Pophale) SiO2 
 PCOD9398965
Probable space group: P M M A
;
_chemical_formula_sum "Si O2"
_cell_formula_units_Z 64
_cell_length_a 8.812447
_cell_length_b 14.795170
_cell_length_c 32.072646
_cell_angle_alpha 90.000000
_cell_angle_beta 90.000000
_cell_angle_gamma 90.000000
_cell_volume 4181.684553
_symmetry_space_group_name_H-M "P M M A"
_symmetry_group_IT_number 51
_symmetry_cell_setting 'orthorhombic'
loop_
_space_group_symop_operation_xyz
x,y,z
1/2-x,-y,z
1/2+x,-y,-z
-x,y,-z
-x,-y,-z
1/2+x,y,-z
1/2-x,y,z
x,-y,z
loop_
_atom_site_type_symbol
_atom_site_label
_atom_site_fract_x
_atom_site_fract_y
_atom_site_fract_z
Si Si1 0.433007 0.395036 0.955359
Si Si2 0.925408 0.390140 0.456908
Si Si3 0.567257 0.102195 0.843306
Si Si4 0.933109 0.717019 0.125178
Si Si5 0.432780 0.395012 0.369539
Si Si6 0.066742 0.605507 0.792477
Si Si7 0.933971 0.290747 0.713156
Si Si8 0.434403 0.100356 0.254062
O O1 0.250000 0.391651 0.957462
O O2 0.475786 0.500000 0.947647
O O3 0.483268 0.332826 0.917007
O O4 0.500000 0.367981 0.000000
O O5 0.750000 0.364751 0.455938
O O6 0.934636 0.500000 0.457476
O O7 0.000000 0.358159 0.500000
O O8 0.006022 0.362377 0.414112
O O9 0.750000 0.108135 0.845174
O O10 0.495388 0.182269 0.869612
O O11 0.523305 0.114034 0.794521
O O12 0.523705 0.000000 0.855635
O O13 0.750000 0.719157 0.125030
O O14 0.980244 0.659007 0.165803
O O15 0.250000 0.393965 0.370998
O O16 0.480047 0.500000 0.363374
O O17 0.483055 0.335259 0.330356
O O18 0.250000 0.610699 0.789556
O O19 0.024936 0.500000 0.795147
O O20 0.995069 0.651673 0.751979
O O21 0.750000 0.292971 0.714341
O O22 0.984113 0.186907 0.719613
O O23 0.250000 0.099034 0.255080
O O24 0.486403 0.000000 0.267061
#
# Coordination Sequence:
#
# PCOD9398965 Si02
#       8
#     8   8   8   8   8   8   8   8
#     4   9  18  33  51  70  93 120 149 182 222 267
#     4   9  16  26  41  59  79 107 144 184 222 259
#     4   9  17  30  48  69  92 117 147 185 226 265
#     4  10  19  31  48  69  92 118 148 182 221 265
#     4   9  17  27  38  56  84 116 148 181 216 254
#     4  10  20  31  42  60  89 122 150 177 213 258
#     4  10  18  29  45  63  86 118 154 187 217 255
#     4   8  14  26  44  64  86 113 146 185 226 261
#
# _framework density 15.304836
#
# number of rings (size 3 to 8) (size 9 to 14) (size 15 to 20)
#    0.000    2.750    1.250    1.875    0.000    5.000 
#    0.000    1.250    0.000    3.000    0.000    0.000 
#    0.000    0.500    0.000    0.875    0.000    1.250 
#
# Total GULP energy -356590.163935 kJ/mol
# GULP energy per Si atom -5571.721311 kJ/mol
# Density = 1.527000 g / cm^3
# Si number density = 15.304836 Si / 1000 Ang^3
#
#
#
# Elastic Constant Matrix: (Units=GPa)
#
#
# Indices 1 2 3 4 5 6 
#
# 1 8.0171 21.6996 29.5985 0.0000 0.0000 0.0000
# 2 21.6996 115.1776 81.7978 0.0000 0.0000 0.0000
# 3 29.5985 81.7978 146.1304 0.0000 0.0000 0.0000
# 4 0.0000 0.0000 0.0000 9.3975 0.0000 0.0000
# 5 0.0000 0.0000 0.0000 0.0000 24.1470 0.0000
# 6 0.0000 0.0000 0.0000 0.0000 0.0000 17.9863
#
#
#
# Elastic Compliance Matrix: (Units=1/GPa)
#
#
# Indices 1 2 3 4 5 6 
#
# 1 0.608837 -0.045025 -0.098116 0.000000 0.000000 0.000000
# 2 -0.045025 0.017741 -0.000811 0.000000 0.000000 0.000000
# 3 -0.098116 -0.000811 0.027170 0.000000 0.000000 0.000000
# 4 0.000000 0.000000 0.000000 0.106412 0.000000 0.000000
# 5 0.000000 0.000000 0.000000 0.000000 0.041413 0.000000
# 6 0.000000 0.000000 0.000000 0.000000 0.000000 0.055598
#
#
# Mechanical properties :
#
#
# Convention : Reuss Voigt Hill
#
# Bulk Modulus (GPa) = 2.73340 59.50188 31.11764
# Shear Modulus (GPa) = 3.94626 19.38808 11.66717
#
# Velocity S-wave (km/s) = 1.60749 3.56307 2.76401
# Velocity P-wave (km/s) = 2.28806 7.47593 5.52832
#
# Compressibility (1/GPa) = 0.36584481
#
# Stress axis : x y z
#
# Youngs Moduli (GPa) = 1.64248 56.36682 36.80492
#
# Poissons Ratio (x) = 2.53793 3.61114
# Poissons Ratio (y) = 0.07395 0.02984
# Poissons Ratio (z) = 0.16115 0.04571
#
# Static dielectric constant tensor:
#      x y z
#    x 1.517990 0.000000 0.000000 
#    y 0.000000 1.507390 0.000000 
#    z 0.000000 0.000000 1.493540 
# 
# From -- ./inp_files/37578.got.cif
#   From: 2010.05.17/outbox.cif.g08.bks.cpg/sg51_19_cif.got.tgz:37578.got - 2010.06.03 11:52:47.
