data_PCOD9398889
_publ_section_title
;
Structure prediction by ZEFSAII (Michael W. Deem and Ramdas Pophale) SiO2 
 PCOD9398889
Probable space group: P M M A
;
_chemical_formula_sum "Si O2"
_cell_formula_units_Z 64
_cell_length_a 8.347097
_cell_length_b 20.540149
_cell_length_c 21.133017
_cell_angle_alpha 90.000000
_cell_angle_beta 90.000000
_cell_angle_gamma 90.000000
_cell_volume 3623.268785
_symmetry_space_group_name_H-M "P M M A"
_symmetry_group_IT_number 51
_symmetry_cell_setting 'orthorhombic'
loop_
_space_group_symop_operation_xyz
x,y,z
1/2-x,-y,z
1/2+x,-y,-z
-x,y,-z
-x,-y,-z
1/2+x,y,-z
1/2-x,y,z
x,-y,z
loop_
_atom_site_type_symbol
_atom_site_label
_atom_site_fract_x
_atom_site_fract_y
_atom_site_fract_z
Si Si1 0.058646 0.211506 0.253972
Si Si2 0.556567 0.425355 0.429493
Si Si3 0.942395 0.788730 0.108292
Si Si4 0.558679 0.657602 0.310856
Si Si5 0.942580 0.070026 0.758523
Si Si6 0.943801 0.574590 0.808623
Si Si7 0.559719 0.070137 0.097818
Si Si8 0.941061 0.650235 0.933293
O O1 0.250000 0.217772 0.251652
O O2 0.015689 0.137802 0.274779
O O3 0.996412 0.217771 0.181692
O O4 0.993227 0.268604 0.297630
O O5 0.500000 0.408741 0.500000
O O6 0.750000 0.425185 0.429133
O O7 0.504265 0.500000 0.415623
O O8 0.499204 0.375800 0.375568
O O9 0.750000 0.790218 0.106844
O O10 0.003551 0.858057 0.079929
O O11 0.002913 0.724691 0.073723
O O12 0.750000 0.655332 0.311579
O O13 0.498870 0.615065 0.251811
O O14 0.750000 0.072108 0.770437
O O15 0.029561 0.070089 0.826455
O O16 0.978036 0.000000 0.727616
O O17 0.750000 0.574797 0.809533
O O18 0.998622 0.500000 0.805390
O O19 0.000393 0.609825 0.872713
O O20 0.750000 0.069385 0.085239
O O21 0.492116 0.000000 0.074804
O O22 0.750000 0.649376 0.932337
O O23 0.000000 0.623212 0.000000
#
# Coordination Sequence:
#
# PCOD9398889 Si02
#       8
#     8   8   8   8   8   8   8   8
#     4  10  18  28  45  70 100 133 168 206 248 293
#     4   9  19  35  53  75 103 136 173 209 245 289
#     4  10  18  30  49  71  96 126 161 201 247 298
#     4  11  21  33  52  78 108 138 170 206 245 292
#     4   8  14  24  38  59  90 127 164 201 241 286
#     4  10  22  39  57  77 100 127 161 202 250 303
#     4   8  14  24  40  64  92 121 153 191 237 289
#     4  11  23  38  55  73  96 125 162 207 253 306
#
# _framework density 17.663609000000001
#
# number of rings (size 3 to 8) (size 9 to 14) (size 15 to 20)
#    0.000    2.375    1.250    1.875    0.000    3.500 
#    0.000    1.250    0.000    0.375    0.000    0.000 
#    0.000    0.500    0.000    1.125    0.000    2.000 
#
# Total GULP energy -356775.849527 kJ/mol
# GULP energy per Si atom -5574.622649 kJ/mol
# Density = 1.762341 g / cm^3
# Si number density = 17.663609 Si / 1000 Ang^3
#
#
#
# Elastic Constant Matrix: (Units=GPa)
#
#
# Indices 1 2 3 4 5 6 
#
# 1 16.8045 14.5568 11.6192 0.0000 0.0000 0.0000
# 2 14.5568 148.2889 64.6213 0.0000 0.0000 0.0000
# 3 11.6192 64.6213 95.1291 0.0000 0.0000 0.0000
# 4 0.0000 0.0000 0.0000 59.3204 0.0000 0.0000
# 5 0.0000 0.0000 0.0000 0.0000 19.7029 0.0000
# 6 0.0000 0.0000 0.0000 0.0000 0.0000 16.9294
#
#
#
# Elastic Compliance Matrix: (Units=1/GPa)
#
#
# Indices 1 2 3 4 5 6 
#
# 1 0.066845 -0.004267 -0.005266 0.000000 0.000000 0.000000
# 2 -0.004267 0.009852 -0.006171 0.000000 0.000000 0.000000
# 3 -0.005266 -0.006171 0.015347 0.000000 0.000000 0.000000
# 4 0.000000 0.000000 0.000000 0.016858 0.000000 0.000000
# 5 0.000000 0.000000 0.000000 0.000000 0.050754 0.000000
# 6 0.000000 0.000000 0.000000 0.000000 0.000000 0.059069
#
#
# Mechanical properties :
#
#
# Convention : Reuss Voigt Hill
#
# Bulk Modulus (GPa) = 16.49190 49.09079 32.79135
# Shear Modulus (GPa) = 18.49490 30.48553 24.49021
#
# Velocity S-wave (km/s) = 3.23934 4.15890 3.72758
# Velocity P-wave (km/s) = 4.83198 7.13542 6.09353
#
# Compressibility (1/GPa) = 0.06063583
#
# Stress axis : x y z
#
# Youngs Moduli (GPa) = 14.95997 101.50526 65.15822
#
# Poissons Ratio (x) = 0.43313 0.34312
# Poissons Ratio (y) = 0.06383 0.40210
# Poissons Ratio (z) = 0.07878 0.62640
#
# Static dielectric constant tensor:
#      x y z
#    x 1.616600 0.000000 0.000000 
#    y 0.000000 1.664730 0.000000 
#    z 0.000000 0.000000 1.574350 
# 
# From -- ./inp_files/32633.got.cif
#   From: 2010.05.17/outbox.cif.g08.bks.cpg/sg51_17_cif.got.tgz:32633.got - 2010.06.03 11:52:47.
