data_PCOD9398121
_publ_section_title
;
Structure prediction by ZEFSAII (Michael W. Deem and Ramdas Pophale) SiO2 
 PCOD9398121
Probable space group: P B A N
;
_chemical_formula_sum "Si O2"
_cell_formula_units_Z 32
_cell_length_a 14.556636
_cell_length_b 12.489590
_cell_length_c 7.358817
_cell_angle_alpha 90.000000
_cell_angle_beta 90.000000
_cell_angle_gamma 90.000000
_cell_volume 1337.880140
_symmetry_space_group_name_H-M "P B A N"
_symmetry_group_IT_number 50
_space_group.IT_coordinate_system_code '2'
_symmetry_cell_setting 'orthorhombic'
loop_
_space_group_symop_operation_xyz
x,y,z
1/2-x,1/2-y,z
x,1/2-y,-z
1/2-x,y,-z
-x,-y,-z
1/2+x,1/2+y,-z
-x,1/2+y,z
1/2+x,-y,z
loop_
_atom_site_type_symbol
_atom_site_label
_atom_site_fract_x
_atom_site_fract_y
_atom_site_fract_z
Si Si1 0.141729 0.746356 0.283221
Si Si2 0.613133 0.750000 0.500000
Si Si3 0.750000 0.569220 0.500000
Si Si4 0.523315 0.844149 0.142066
Si Si5 0.835507 0.032819 0.858947
O O1 0.250000 0.750000 0.244922
O O2 0.130512 0.750000 0.500000
O O3 0.085801 0.649768 0.190091
O O4 0.111781 0.857131 0.189620
O O5 0.674341 0.652212 0.424791
O O6 0.557877 0.800256 0.336342
O O7 0.709207 0.500881 0.663857
O O8 0.586475 0.945200 0.095006
O O9 0.540689 0.750000 0.000000
O O10 0.750000 0.036690 0.000000
#
# Coordination Sequence:
#
# PCOD9398121 Si02
#       5
#     8   4   4   8   8
#     4  11  26  49  70 101 147 193 244 303 360 430
#     4   9  18  38  63  98 138 180 237 300 360 409
#     4   9  18  38  67  96 138 186 233 296 359 434
#     4  11  24  43  70 106 143 188 242 303 356 439
#     4  11  25  45  74 106 143 192 242 300 371 432
#
# _framework density 23.918434999999999
#
# number of rings (size 3 to 8) (size 9 to 14) (size 15 to 20)
#    0.000    1.500    1.250    3.000    3.500    4.500 
#    4.500    0.000    0.000    0.000    0.000    0.000 
#    0.000    0.000    0.000    0.000    0.000    0.000 
#
# Total GULP energy -178942.379396 kJ/mol
# GULP energy per Si atom -5591.949356 kJ/mol
# Density = 2.386400 g / cm^3
# Si number density = 23.918435 Si / 1000 Ang^3
#
#
#
# Elastic Constant Matrix: (Units=GPa)
#
#
# Indices 1 2 3 4 5 6 
#
# 1 133.9832 53.5436 38.8658 0.0000 0.0000 0.0000
# 2 53.5436 106.6123 38.4340 0.0000 0.0000 0.0000
# 3 38.8658 38.4340 103.4428 0.0000 0.0000 0.0000
# 4 0.0000 0.0000 0.0000 38.1226 0.0000 0.0000
# 5 0.0000 0.0000 0.0000 0.0000 30.3559 0.0000
# 6 0.0000 0.0000 0.0000 0.0000 0.0000 24.7964
#
#
#
# Elastic Compliance Matrix: (Units=1/GPa)
#
#
# Indices 1 2 3 4 5 6 
#
# 1 0.009726 -0.004119 -0.002124 0.000000 0.000000 0.000000
# 2 -0.004119 0.012575 -0.003125 0.000000 0.000000 0.000000
# 3 -0.002124 -0.003125 0.011626 0.000000 0.000000 0.000000
# 4 0.000000 0.000000 0.000000 0.026231 0.000000 0.000000
# 5 0.000000 0.000000 0.000000 0.000000 0.032942 0.000000
# 6 0.000000 0.000000 0.000000 0.000000 0.000000 0.040328
#
#
# Mechanical properties :
#
#
# Convention : Reuss Voigt Hill
#
# Bulk Modulus (GPa) = 65.82391 67.30278 66.56334
# Shear Modulus (GPa) = 31.80110 32.86799 32.33455
#
# Velocity S-wave (km/s) = 3.65028 3.71100 3.68076
# Velocity P-wave (km/s) = 6.73394 6.82360 6.77892
#
# Compressibility (1/GPa) = 0.01519205
#
# Stress axis : x y z
#
# Youngs Moduli (GPa) = 102.82006 79.52396 86.01355
#
# Poissons Ratio (x) = 0.32755 0.18268
# Poissons Ratio (y) = 0.42350 0.26876
# Poissons Ratio (z) = 0.21837 0.24848
#
# Static dielectric constant tensor:
#      x y z
#    x 2.050250 0.000000 0.000000 
#    y 0.000000 1.930640 0.000000 
#    z 0.000000 0.000000 1.949600 
# 
# From -- ./inp_files/12227.got.cif
#   From: 2010.05.17/outbox.cif.g08.bks.cpg/sg50_7_cif.got.tgz:12227.got - 2010.06.03 11:33:33.
