data_PCOD9398092
_publ_section_title
;
Structure prediction by ZEFSAII (Michael W. Deem and Ramdas Pophale) SiO2 
 PCOD9398092
Probable space group: P B A N
;
_chemical_formula_sum "Si O2"
_cell_formula_units_Z 40
_cell_length_a 9.809269
_cell_length_b 9.539994
_cell_length_c 19.973034
_cell_angle_alpha 90.000000
_cell_angle_beta 90.000000
_cell_angle_gamma 90.000000
_cell_volume 1869.083860
_symmetry_space_group_name_H-M "P B A N"
_symmetry_group_IT_number 50
_space_group.IT_coordinate_system_code '2'
_symmetry_cell_setting 'orthorhombic'
loop_
_space_group_symop_operation_xyz
x,y,z
1/2-x,1/2-y,z
x,1/2-y,-z
1/2-x,y,-z
-x,-y,-z
1/2+x,1/2+y,-z
-x,1/2+y,z
1/2+x,-y,z
loop_
_atom_site_type_symbol
_atom_site_label
_atom_site_fract_x
_atom_site_fract_y
_atom_site_fract_z
Si Si1 0.087605 0.750980 0.240572
Si Si2 0.653172 0.861000 0.433373
Si Si3 0.399057 0.682697 0.394043
Si Si4 0.469084 0.001919 0.158742
Si Si5 0.718728 0.915540 0.075260
O O1 0.250000 0.750000 0.232299
O O2 0.061785 0.798301 0.316097
O O3 0.030530 0.598844 0.222879
O O4 0.021087 0.850750 0.185620
O O5 0.750000 0.750000 0.392747
O O6 0.750000 0.884064 0.500000
O O7 0.511845 0.773710 0.433392
O O8 0.614413 0.017183 0.409908
O O9 0.250000 0.750000 0.404828
O O10 0.567718 0.946599 0.100520
O O11 0.319690 0.012889 0.127987
O O12 0.750000 0.750000 0.076993
O O13 0.750000 0.964895 0.000000
#
# Coordination Sequence:
#
# PCOD9398092 Si02
#       5
#     8   8   8   8   8
#     4  11  24  42  68  98 138 173 232 283 345 405
#     4  11  26  47  74 108 142 183 230 282 352 421
#     4  11  25  47  71 106 142 186 234 291 349 427
#     4  12  22  43  66  98 132 186 229 286 345 409
#     4  11  24  41  64 100 140 183 232 289 348 411
#
# _framework density 21.400859000000001
#
# number of rings (size 3 to 8) (size 9 to 14) (size 15 to 20)
#    0.000    0.800    4.000    3.000    0.000    9.200 
#    3.600    2.000    0.000    0.000    0.000    0.000 
#    0.000    0.000    0.000    0.000    0.000    0.000 
#
# Total GULP energy -223283.457534 kJ/mol
# GULP energy per Si atom -5582.086438 kJ/mol
# Density = 2.135215 g / cm^3
# Si number density = 21.400859 Si / 1000 Ang^3
#
#
#
# Elastic Constant Matrix: (Units=GPa)
#
#
# Indices 1 2 3 4 5 6 
#
# 1 84.4287 28.0230 18.2891 0.0000 0.0000 0.0000
# 2 28.0230 136.2368 36.6067 0.0000 0.0000 0.0000
# 3 18.2891 36.6067 99.1605 0.0000 0.0000 0.0000
# 4 0.0000 0.0000 0.0000 32.2542 0.0000 0.0000
# 5 0.0000 0.0000 0.0000 0.0000 9.4036 0.0000
# 6 0.0000 0.0000 0.0000 0.0000 0.0000 8.3131
#
#
#
# Elastic Compliance Matrix: (Units=1/GPa)
#
#
# Indices 1 2 3 4 5 6 
#
# 1 0.012925 -0.002240 -0.001557 0.000000 0.000000 0.000000
# 2 -0.002240 0.008537 -0.002738 0.000000 0.000000 0.000000
# 3 -0.001557 -0.002738 0.011383 0.000000 0.000000 0.000000
# 4 0.000000 0.000000 0.000000 0.031004 0.000000 0.000000
# 5 0.000000 0.000000 0.000000 0.000000 0.106342 0.000000
# 6 0.000000 0.000000 0.000000 0.000000 0.000000 0.120293
#
#
# Mechanical properties :
#
#
# Convention : Reuss Voigt Hill
#
# Bulk Modulus (GPa) = 50.57222 53.96265 52.26743
# Shear Modulus (GPa) = 16.12147 25.78799 20.95473
#
# Velocity S-wave (km/s) = 2.74763 3.47507 3.13254
# Velocity P-wave (km/s) = 5.80932 6.43206 6.12860
#
# Compressibility (1/GPa) = 0.01977370
#
# Stress axis : x y z
#
# Youngs Moduli (GPa) = 77.36851 117.14068 87.85272
#
# Poissons Ratio (x) = 0.26243 0.13678
# Poissons Ratio (y) = 0.17333 0.24057
# Poissons Ratio (z) = 0.12045 0.32076
#
# Static dielectric constant tensor:
#      x y z
#    x 1.765780 0.000000 0.000000 
#    y 0.000000 1.774990 0.000000 
#    z 0.000000 0.000000 1.802270 
# 
# From -- ./inp_files/31570.got.cif
#   From: 2010.05.17/outbox.cif.g08.bks.cpg/sg50_16_cif.got.tgz:31570.got - 2010.06.03 11:33:33.
