data_PCOD9398171
_publ_section_title
;
Structure prediction by ZEFSAII (Michael W. Deem and Ramdas Pophale) SiO2 
 PCOD9398171
Probable space group: P B A N
;
_chemical_formula_sum "Si O2"
_cell_formula_units_Z 52
_cell_length_a 24.941971
_cell_length_b 8.324980
_cell_length_c 11.793743
_cell_angle_alpha 90.000000
_cell_angle_beta 90.000000
_cell_angle_gamma 90.000000
_cell_volume 2448.869423
_symmetry_space_group_name_H-M "P B A N"
_symmetry_group_IT_number 50
_space_group.IT_coordinate_system_code '2'
_symmetry_cell_setting 'orthorhombic'
loop_
_space_group_symop_operation_xyz
x,y,z
1/2-x,1/2-y,z
x,1/2-y,-z
1/2-x,y,-z
-x,-y,-z
1/2+x,1/2+y,-z
-x,1/2+y,z
1/2+x,-y,z
loop_
_atom_site_type_symbol
_atom_site_label
_atom_site_fract_x
_atom_site_fract_y
_atom_site_fract_z
Si Si1 0.008869 0.697008 0.768129
Si Si2 0.445491 0.250000 0.000000
Si Si3 0.776300 0.083769 0.879208
Si Si4 0.745964 0.565360 0.659343
Si Si5 0.955926 0.026933 0.401795
Si Si6 0.901830 0.086397 0.926694
Si Si7 0.342474 0.445588 0.508704
O O1 0.033728 0.820197 0.677883
O O2 0.058104 0.592597 0.818777
O O3 0.980642 0.753629 0.884774
O O4 0.963717 0.611376 0.692385
O O5 0.413728 0.420285 0.005323
O O6 0.750000 0.250000 0.836153
O O7 0.839984 0.091955 0.890498
O O8 0.758766 0.951258 0.791405
O O9 0.750000 0.055303 0.000000
O O10 0.750000 0.750000 0.625785
O O11 0.691228 0.502775 0.602199
O O12 0.800999 0.501076 0.607467
O O13 0.899227 0.021889 0.464021
O O14 0.000000 0.000000 0.500000
O O15 0.910818 0.250000 0.000000
O O16 0.350816 0.250000 0.500000
#
# Coordination Sequence:
#
# PCOD9398171 Si02
#       7
#     8   4   8   8   8   8   8
#     4  12  25  46  69 104 145 189 250 309 370 456
#     4  12  26  48  77 108 137 196 262 296 378 462
#     4  11  25  44  63  99 143 178 230 295 377 429
#     4   9  21  42  71  97 129 179 241 298 354 439
#     4  12  26  42  67 102 148 191 240 303 380 447
#     4  12  25  46  74 105 148 192 243 315 375 450
#     4   9  20  42  68  97 133 181 237 298 360 428
#
# _framework density 21.234287999999999
#
# number of rings (size 3 to 8) (size 9 to 14) (size 15 to 20)
#    0.000    1.077    3.846    3.692    4.308    5.231 
#    0.000    1.538    0.000    0.000    0.000    0.000 
#    0.000    0.000    0.000    0.000    0.000    0.000 
#
# Total GULP energy -290037.305142 kJ/mol
# GULP energy per Si atom -5577.640483 kJ/mol
# Density = 2.118596 g / cm^3
# Si number density = 21.234288 Si / 1000 Ang^3
#
#
#
# Elastic Constant Matrix: (Units=GPa)
#
#
# Indices 1 2 3 4 5 6 
#
# 1 138.0732 36.4088 18.2995 0.0000 0.0000 0.0000
# 2 36.4088 85.0926 29.4392 0.0000 0.0000 0.0000
# 3 18.2995 29.4392 53.0296 0.0000 0.0000 0.0000
# 4 0.0000 0.0000 0.0000 14.6524 0.0000 0.0000
# 5 0.0000 0.0000 0.0000 0.0000 63.0620 0.0000
# 6 0.0000 0.0000 0.0000 0.0000 0.0000 -1.0903
#
#
#
# Elastic Compliance Matrix: (Units=1/GPa)
#
#
# Indices 1 2 3 4 5 6 
#
# 1 0.008215 -0.003136 -0.001093 0.000000 0.000000 0.000000
# 2 -0.003136 0.015743 -0.007657 0.000000 0.000000 0.000000
# 3 -0.001093 -0.007657 0.023486 0.000000 0.000000 0.000000
# 4 0.000000 0.000000 0.000000 0.068248 0.000000 0.000000
# 5 0.000000 0.000000 0.000000 0.000000 0.015857 0.000000
# 6 0.000000 0.000000 0.000000 0.000000 0.000000 -0.917167
#
#
# Mechanical properties :
#
#
# Convention : Reuss Voigt Hill
#
# Bulk Modulus (GPa) = 42.24997 49.38782 45.81890
# Shear Modulus (GPa) = -6.63170 28.12801 10.74816
#
# Velocity S-wave (km/s) = -1.76915 3.64352 2.25226
# Velocity P-wave (km/s) = 3.97078 6.40386 5.32806
#
# Compressibility (1/GPa) = 0.02366865
#
# Stress axis : x y z
#
# Youngs Moduli (GPa) = 121.73564 63.51988 42.57915
#
# Poissons Ratio (x) = 0.19923 0.04656
# Poissons Ratio (y) = 0.38182 0.32604
# Poissons Ratio (z) = 0.13312 0.48640
#
# Static dielectric constant tensor:
#      x y z
#    x 1.656430 0.000000 0.000000 
#    y 0.000000 1.795790 0.000000 
#    z 0.000000 0.000000 1.731750 
# 
# From -- ./inp_files/23117.got.cif
#   From: 2010.05.17/outbox.cif.g08.bks.cpg/sg50_12_cif.got.tgz:23117.got - 2010.06.03 11:33:33.
