data_PCOD9398919
_publ_section_title
;
Structure prediction by ZEFSAII (Michael W. Deem and Ramdas Pophale) SiO2 
 PCOD9398919
Probable space group: P M M A
;
_chemical_formula_sum "Si O2"
_cell_formula_units_Z 48
_cell_length_a 17.224885
_cell_length_b 7.563834
_cell_length_c 14.271820
_cell_angle_alpha 90.000000
_cell_angle_beta 90.000000
_cell_angle_gamma 90.000000
_cell_volume 1859.420778
_symmetry_space_group_name_H-M "P M M A"
_symmetry_group_IT_number 51
_symmetry_cell_setting 'orthorhombic'
loop_
_space_group_symop_operation_xyz
x,y,z
1/2-x,-y,z
1/2+x,-y,-z
-x,y,-z
-x,-y,-z
1/2+x,y,-z
1/2-x,y,z
x,-y,z
loop_
_atom_site_type_symbol
_atom_site_label
_atom_site_fract_x
_atom_site_fract_y
_atom_site_fract_z
Si Si1 0.250000 0.284023 0.223650
Si Si2 0.250000 0.283652 0.443426
Si Si3 0.093827 0.288372 0.117479
Si Si4 0.835956 0.211257 0.070252
Si Si5 0.082528 0.285927 0.463317
Si Si6 0.333613 0.210853 0.715843
Si Si7 0.499637 0.290603 0.282147
O O1 0.250000 0.500000 0.223065
O O2 0.250000 0.234024 0.333211
O O3 0.173247 0.225293 0.167538
O O4 0.250000 0.500000 0.446728
O O5 0.168704 0.221388 0.488399
O O6 0.092422 0.500000 0.125970
O O7 0.022579 0.216819 0.180087
O O8 0.100780 0.253794 0.007538
O O9 0.750000 0.274008 0.038050
O O10 0.844773 0.277004 0.176525
O O11 0.833229 0.000000 0.076544
O O12 0.082430 0.500000 0.478278
O O13 0.000000 0.216866 0.500000
O O14 0.070648 0.251751 0.352315
O O15 0.250000 0.281755 0.682213
O O16 0.417404 0.245479 0.672794
O O17 0.327327 0.000000 0.718056
O O18 0.503343 0.500000 0.275305
#
# Coordination Sequence:
#
# PCOD9398919 Si02
#       7
#     4   4   8   8   8   8   8
#     4   9  14  24  43  67  96 133 170 198 241 307
#     4   9  14  26  48  69  98 145 176 198 251 313
#     4  10  18  28  47  74 102 133 168 207 257 311
#     4   9  18  32  49  70  97 131 175 221 255 294
#     4   9  17  30  48  75 111 141 170 209 256 312
#     4   9  20  39  56  68  93 139 183 212 253 314
#     4  10  20  33  51  78 107 130 164 218 264 305
#
# _framework density 25.814491
#
# number of rings (size 3 to 8) (size 9 to 14) (size 15 to 20)
#    0.000    2.667    2.500    1.000    0.000    2.333 
#    1.500    5.000    0.000    0.500    0.000    0.000 
#    0.000    0.000    0.000    0.000    0.000    0.000 
#
# Total GULP energy -268001.823285 kJ/mol
# GULP energy per Si atom -5583.371318 kJ/mol
# Density = 2.575574 g / cm^3
# Si number density = 25.814491 Si / 1000 Ang^3
#
#
#
# Elastic Constant Matrix: (Units=GPa)
#
#
# Indices 1 2 3 4 5 6 
#
# 1 210.0413 1.6688 46.0380 0.0000 0.0000 0.0000
# 2 1.6688 49.9418 8.5957 0.0000 0.0000 0.0000
# 3 46.0380 8.5957 45.3289 0.0000 0.0000 0.0000
# 4 0.0000 0.0000 0.0000 6.5534 0.0000 0.0000
# 5 0.0000 0.0000 0.0000 0.0000 74.1753 0.0000
# 6 0.0000 0.0000 0.0000 0.0000 0.0000 -15.1588
#
#
#
# Elastic Compliance Matrix: (Units=1/GPa)
#
#
# Indices 1 2 3 4 5 6 
#
# 1 0.006163 0.000901 -0.006431 0.000000 0.000000 0.000000
# 2 0.000901 0.020831 -0.004865 0.000000 0.000000 0.000000
# 3 -0.006431 -0.004865 0.029515 0.000000 0.000000 0.000000
# 4 0.000000 0.000000 0.000000 0.152593 0.000000 0.000000
# 5 0.000000 0.000000 0.000000 0.000000 0.013482 0.000000
# 6 0.000000 0.000000 0.000000 0.000000 0.000000 -0.065968
#
#
# Mechanical properties :
#
#
# Convention : Reuss Voigt Hill
#
# Bulk Modulus (GPa) = 27.99625 46.43522 37.21574
# Shear Modulus (GPa) = 26.41161 29.71462 28.06311
#
# Velocity S-wave (km/s) = 3.20211 3.39644 3.30071
# Velocity P-wave (km/s) = 4.95379 5.77998 5.38276
#
# Compressibility (1/GPa) = 0.03571907
#
# Stress axis : x y z
#
# Youngs Moduli (GPa) = 162.25095 48.00643 33.88146
#
# Poissons Ratio (x) = -0.04325 0.21788
# Poissons Ratio (y) = -0.14616 0.16483
# Poissons Ratio (z) = 1.04336 0.23355
#
# Static dielectric constant tensor:
#      x y z
#    x 2.129120 0.000000 0.000000 
#    y 0.000000 1.958720 0.000000 
#    z 0.000000 0.000000 2.098440 
# 
# From -- ./inp_files/24848.got.cif
#   From: 2010.05.17/outbox.cif.g08.bks.cpg/sg51_13_cif.got.tgz:24848.got - 2010.06.03 11:52:47.
