data_PCOD9398850
_publ_section_title
;
Structure prediction by ZEFSAII (Michael W. Deem and Ramdas Pophale) SiO2 
 PCOD9398850
Probable space group: P M M A
;
_chemical_formula_sum "Si O2"
_cell_formula_units_Z 56
_cell_length_a 20.644632
_cell_length_b 9.326295
_cell_length_c 18.211879
_cell_angle_alpha 90.000000
_cell_angle_beta 90.000000
_cell_angle_gamma 90.000000
_cell_volume 3506.477451
_symmetry_space_group_name_H-M "P M M A"
_symmetry_group_IT_number 51
_symmetry_cell_setting 'orthorhombic'
loop_
_space_group_symop_operation_xyz
x,y,z
1/2-x,-y,z
1/2+x,-y,-z
-x,y,-z
-x,-y,-z
1/2+x,y,-z
1/2-x,y,z
x,-y,z
loop_
_atom_site_type_symbol
_atom_site_label
_atom_site_fract_x
_atom_site_fract_y
_atom_site_fract_z
Si Si1 0.569667 0.829095 0.966206
Si Si2 0.078141 0.835234 0.486429
Si Si3 0.402953 0.335720 0.627771
Si Si4 0.896852 0.328308 0.210538
Si Si5 0.466166 0.828898 0.199073
Si Si6 0.176133 0.671611 0.937843
Si Si7 0.441206 0.334328 0.343054
O O1 0.567593 0.802411 0.879060
O O2 0.576170 0.000000 0.977997
O O3 0.500000 0.785793 0.000000
O O4 0.626452 0.747958 0.007838
O O5 0.109314 0.765575 0.558815
O O6 0.089681 0.742455 0.413515
O O7 0.000000 0.832983 0.500000
O O8 0.097117 0.000000 0.476417
O O9 0.385509 0.500000 0.610179
O O10 0.373703 0.294107 0.706748
O O11 0.480822 0.333118 0.642447
O O12 0.911994 0.500000 0.210592
O O13 0.846550 0.300041 0.145770
O O14 0.962032 0.239572 0.194980
O O15 0.431890 0.753293 0.268069
O O16 0.470913 0.000000 0.210668
O O17 0.250000 0.717635 0.949219
O O18 0.172393 0.500000 0.948333
O O19 0.421725 0.500000 0.336382
#
# Coordination Sequence:
#
# PCOD9398850 Si02
#       7
#     8   8   8   8   8   8   8
#     4  10  20  34  50  71  96 125 161 201 246 296
#     4   9  15  22  33  52  79 112 148 183 222 266
#     4   8  14  23  35  52  77 112 149 182 219 268
#     4   9  17  29  44  63  89 120 154 191 235 282
#     4  10  18  28  44  65  90 117 154 198 235 280
#     4  10  21  35  51  72  97 126 162 203 245 290
#     4   9  16  25  37  55  83 116 149 183 227 277
#
# _framework density 15.970442
#
# number of rings (size 3 to 8) (size 9 to 14) (size 15 to 20)
#    0.000    2.714    1.429    2.143    0.000    6.857 
#    0.000    0.000    0.000    0.000    0.000    0.000 
#    0.000    1.143    0.000    6.000    0.000    4.571 
#
# Total GULP energy -311964.541394 kJ/mol
# GULP energy per Si atom -5570.795382 kJ/mol
# Density = 1.593409 g / cm^3
# Si number density = 15.970442 Si / 1000 Ang^3
#
#
#
# Elastic Constant Matrix: (Units=GPa)
#
#
# Indices 1 2 3 4 5 6 
#
# 1 55.8831 35.1528 50.2631 0.0000 0.0000 0.0000
# 2 35.1528 83.9749 81.4434 0.0000 0.0000 0.0000
# 3 50.2631 81.4434 148.6479 0.0000 0.0000 0.0000
# 4 0.0000 0.0000 0.0000 31.0937 0.0000 0.0000
# 5 0.0000 0.0000 0.0000 0.0000 8.7004 0.0000
# 6 0.0000 0.0000 0.0000 0.0000 0.0000 11.1297
#
#
#
# Elastic Compliance Matrix: (Units=1/GPa)
#
#
# Indices 1 2 3 4 5 6 
#
# 1 0.026728 -0.005171 -0.006204 0.000000 0.000000 0.000000
# 2 -0.005171 0.026412 -0.012722 0.000000 0.000000 0.000000
# 3 -0.006204 -0.012722 0.015796 0.000000 0.000000 0.000000
# 4 0.000000 0.000000 0.000000 0.032161 0.000000 0.000000
# 5 0.000000 0.000000 0.000000 0.000000 0.114938 0.000000
# 6 0.000000 0.000000 0.000000 0.000000 0.000000 0.089849
#
#
# Mechanical properties :
#
#
# Convention : Reuss Voigt Hill
#
# Bulk Modulus (GPa) = 48.21706 69.13604 58.67655
# Shear Modulus (GPa) = 13.85072 18.29454 16.07263
#
# Velocity S-wave (km/s) = 2.94814 3.38823 3.17582
# Velocity P-wave (km/s) = 6.46883 7.66099 7.09001
#
# Compressibility (1/GPa) = 0.02073955
#
# Stress axis : x y z
#
# Youngs Moduli (GPa) = 37.41423 37.86174 63.30841
#
# Poissons Ratio (x) = 0.19579 0.39278
# Poissons Ratio (y) = 0.19348 0.80543
# Poissons Ratio (z) = 0.23213 0.48169
#
# Static dielectric constant tensor:
#      x y z
#    x 1.497480 0.000000 0.000000 
#    y 0.000000 1.535220 0.000000 
#    z 0.000000 0.000000 1.552840 
# 
# From -- ./inp_files/30412.got.cif
#   From: 2010.05.17/outbox.cif.g08.bks.cpg/sg51_16_cif.got.tgz:30412.got - 2010.06.03 11:52:47.
