data_PCOD9398670
_publ_section_title
;
Structure prediction by ZEFSAII (Michael W. Deem and Ramdas Pophale) SiO2 
 PCOD9398670
Probable space group: P M M A
;
_chemical_formula_sum "Si O2"
_cell_formula_units_Z 64
_cell_length_a 26.039025
_cell_length_b 7.584154
_cell_length_c 17.940509
_cell_angle_alpha 90.000000
_cell_angle_beta 90.000000
_cell_angle_gamma 90.000000
_cell_volume 3542.963042
_symmetry_space_group_name_H-M "P M M A"
_symmetry_group_IT_number 51
_symmetry_cell_setting 'orthorhombic'
loop_
_space_group_symop_operation_xyz
x,y,z
1/2-x,-y,z
1/2+x,-y,-z
-x,y,-z
-x,-y,-z
1/2+x,y,-z
1/2-x,y,z
x,-y,z
loop_
_atom_site_type_symbol
_atom_site_label
_atom_site_fract_x
_atom_site_fract_y
_atom_site_fract_z
Si Si1 0.429548 0.204131 0.844278
Si Si2 0.059570 0.213096 0.004011
Si Si3 0.308761 0.284467 0.414890
Si Si4 0.598948 0.291667 0.684338
Si Si5 0.191737 0.287440 0.584077
Si Si6 0.000168 0.786282 0.414592
Si Si7 0.451282 0.707833 0.165756
Si Si8 0.904688 0.790705 0.315894
O O1 0.416357 0.278798 0.926293
O O2 0.491807 0.208713 0.837343
O O3 0.407772 0.283683 0.767973
O O4 0.413158 0.000000 0.846775
O O5 0.060286 0.000000 0.002413
O O6 0.076631 0.268084 0.086258
O O7 0.000000 0.270919 0.000000
O O8 0.250000 0.232558 0.399438
O O9 0.309961 0.500000 0.414873
O O10 0.350275 0.219486 0.355607
O O11 0.321782 0.229225 0.499710
O O12 0.608084 0.500000 0.695282
O O13 0.551437 0.268787 0.628177
O O14 0.580843 0.220647 0.764391
O O15 0.250000 0.227629 0.600393
O O16 0.192531 0.500000 0.583056
O O17 0.149179 0.232839 0.643054
O O18 0.000000 0.724916 0.500000
O O19 0.950703 0.721940 0.368203
O O20 0.998888 0.000000 0.415869
O O21 0.460194 0.500000 0.177253
O O22 0.914298 0.000000 0.308802
#
# Coordination Sequence:
#
# PCOD9398670 Si02
#       8
#     8   8   8   8   8   8   8   8
#     4   9  17  30  44  60  85 119 153 178 208 262
#     4   8  15  27  43  59  80 115 152 177 208 259
#     4   8  15  30  49  65  84 114 152 190 222 255
#     4  10  19  29  44  67  90 116 150 184 219 265
#     4   9  18  32  49  67  86 112 149 190 228 262
#     4  10  20  31  43  62  90 122 150 177 218 268
#     4  10  18  26  39  64  93 115 142 181 223 263
#     4  10  19  30  45  65  90 118 148 182 218 262
#
# _framework density 18.063976
#
# number of rings (size 3 to 8) (size 9 to 14) (size 15 to 20)
#    0.000    2.750    1.250    2.625    0.000    4.250 
#    0.000    0.000    0.000    1.125    0.000    0.875 
#    0.000    3.000    0.000    0.000    0.000    0.000 
#
# Total GULP energy -356682.171494 kJ/mol
# GULP energy per Si atom -5573.158930 kJ/mol
# Density = 1.802286 g / cm^3
# Si number density = 18.063976 Si / 1000 Ang^3
#
#
#
# Elastic Constant Matrix: (Units=GPa)
#
#
# Indices 1 2 3 4 5 6 
#
# 1 72.9705 -11.1680 67.7851 0.0000 0.0000 0.0000
# 2 -11.1680 35.5642 -5.2414 0.0000 0.0000 0.0000
# 3 67.7851 -5.2414 183.2326 0.0000 0.0000 0.0000
# 4 0.0000 0.0000 0.0000 14.7625 0.0000 0.0000
# 5 0.0000 0.0000 0.0000 0.0000 18.7005 0.0000
# 6 0.0000 0.0000 0.0000 0.0000 0.0000 16.3180
#
#
#
# Elastic Compliance Matrix: (Units=1/GPa)
#
#
# Indices 1 2 3 4 5 6 
#
# 1 0.021983 0.005729 -0.007969 0.000000 0.000000 0.000000
# 2 0.005729 0.029730 -0.001269 0.000000 0.000000 0.000000
# 3 -0.007969 -0.001269 0.008369 0.000000 0.000000 0.000000
# 4 0.000000 0.000000 0.000000 0.067739 0.000000 0.000000
# 5 0.000000 0.000000 0.000000 0.000000 0.053475 0.000000
# 6 0.000000 0.000000 0.000000 0.000000 0.000000 0.061282
#
#
# Mechanical properties :
#
#
# Convention : Reuss Voigt Hill
#
# Bulk Modulus (GPa) = 18.84470 43.83541 31.34005
# Shear Modulus (GPa) = 18.70670 25.98232 22.34451
#
# Velocity S-wave (km/s) = 3.22153 3.79667 3.52087
# Velocity P-wave (km/s) = 4.92875 6.59841 5.82373
#
# Compressibility (1/GPa) = 0.05306532
#
# Stress axis : x y z
#
# Youngs Moduli (GPa) = 45.48896 33.63590 119.48615
#
# Poissons Ratio (x) = -0.19270 0.95214
# Poissons Ratio (y) = -0.26060 0.15162
# Poissons Ratio (z) = 0.36249 0.04268
#
# Static dielectric constant tensor:
#      x y z
#    x 1.579230 0.000000 0.000000 
#    y 0.000000 1.688330 0.000000 
#    z 0.000000 0.000000 1.674620 
# 
# From -- ./inp_files/30844.got.cif
#   From: 2010.05.17/outbox.cif.g08.bks.cpg/sg51_16_cif.got.tgz:30844.got - 2010.06.03 11:52:47.
