data_PCOD9398353
_publ_section_title
;
Structure prediction by ZEFSAII (Michael W. Deem and Ramdas Pophale) SiO2 
 PCOD9398353
Probable space group: P M M A
;
_chemical_formula_sum "Si O2"
_cell_formula_units_Z 52
_cell_length_a 8.645499
_cell_length_b 27.660389
_cell_length_c 13.909108
_cell_angle_alpha 90.000000
_cell_angle_beta 90.000000
_cell_angle_gamma 90.000000
_cell_volume 3326.194397
_symmetry_space_group_name_H-M "P M M A"
_symmetry_group_IT_number 51
_symmetry_cell_setting 'orthorhombic'
loop_
_space_group_symop_operation_xyz
x,y,z
1/2-x,-y,z
1/2+x,-y,-z
-x,y,-z
-x,-y,-z
1/2+x,y,-z
1/2-x,y,z
x,-y,z
loop_
_atom_site_type_symbol
_atom_site_label
_atom_site_fract_x
_atom_site_fract_y
_atom_site_fract_z
Si Si1 0.434843 0.401359 0.891324
Si Si2 0.436076 0.847804 0.604066
Si Si3 0.935576 0.894295 0.103439
Si Si4 0.562227 0.946344 0.298756
Si Si5 0.433914 0.500000 0.109482
Si Si6 0.435588 0.293992 0.891265
Si Si7 0.065402 0.800647 0.205883
O O1 0.250000 0.406704 0.894798
O O2 0.506271 0.449729 0.845689
O O3 0.472096 0.347978 0.851888
O O4 0.500000 0.399710 0.000000
O O5 0.500000 0.834837 0.500000
O O6 0.250000 0.846050 0.605254
O O7 0.486547 0.902689 0.631908
O O8 0.500317 0.814463 0.689361
O O9 0.750000 0.891686 0.100263
O O10 0.979871 0.930375 0.190242
O O11 0.000629 0.841933 0.134116
O O12 0.000000 0.908627 0.000000
O O13 0.750000 0.947367 0.301856
O O14 0.504918 0.000000 0.322159
O O15 0.250000 0.500000 0.105072
O O16 0.500000 0.500000 0.000000
O O17 0.250000 0.289233 0.894803
O O18 0.507205 0.251225 0.829225
O O19 0.500000 0.290369 0.000000
O O20 0.250000 0.802630 0.205868
#
# Coordination Sequence:
#
# PCOD9398353 Si02
#       7
#     8   8   8   8   4   8   8
#     4   9  16  25  37  53  77 110 149 189 226 263
#     4  10  20  35  54  73  93 115 142 176 217 267
#     4  10  19  31  47  66  91 121 152 184 218 260
#     4   8  16  31  49  69  93 119 146 178 215 256
#     4  10  16  22  34  50  74 108 149 192 227 260
#     4  10  19  30  44  64  90 120 154 191 229 268
#     4  11  21  33  49  67  89 116 148 185 224 267
#
# _framework density 15.633482000000001
#
# number of rings (size 3 to 8) (size 9 to 14) (size 15 to 20)
#    0.000    2.308    0.000    6.231    0.000    2.462 
#    0.000    0.000    0.000   15.692    0.000    0.000 
#    0.000    0.000    0.000    0.692    0.000    9.154 
#
# Total GULP energy -289895.653562 kJ/mol
# GULP energy per Si atom -5574.916415 kJ/mol
# Density = 1.559790 g / cm^3
# Si number density = 15.633482 Si / 1000 Ang^3
#
#
#
# Elastic Constant Matrix: (Units=GPa)
#
#
# Indices 1 2 3 4 5 6 
#
# 1 76.0287 34.3946 16.1391 0.0000 0.0000 0.0000
# 2 34.3946 119.1172 20.2223 0.0000 0.0000 0.0000
# 3 16.1391 20.2223 55.1214 0.0000 0.0000 0.0000
# 4 0.0000 0.0000 0.0000 8.0270 0.0000 0.0000
# 5 0.0000 0.0000 0.0000 0.0000 19.7621 0.0000
# 6 0.0000 0.0000 0.0000 0.0000 0.0000 18.0618
#
#
#
# Elastic Compliance Matrix: (Units=1/GPa)
#
#
# Indices 1 2 3 4 5 6 
#
# 1 0.015614 -0.003980 -0.003111 0.000000 0.000000 0.000000
# 2 -0.003980 0.009967 -0.002491 0.000000 0.000000 0.000000
# 3 -0.003111 -0.002491 0.019967 0.000000 0.000000 0.000000
# 4 0.000000 0.000000 0.000000 0.124580 0.000000 0.000000
# 5 0.000000 0.000000 0.000000 0.000000 0.050602 0.000000
# 6 0.000000 0.000000 0.000000 0.000000 0.000000 0.055365
#
#
# Mechanical properties :
#
#
# Convention : Reuss Voigt Hill
#
# Bulk Modulus (GPa) = 37.90446 43.53102 40.71774
# Shear Modulus (GPa) = 16.44436 21.13759 18.79097
#
# Velocity S-wave (km/s) = 3.24677 3.68104 3.47070
# Velocity P-wave (km/s) = 6.19303 6.78026 6.49329
#
# Compressibility (1/GPa) = 0.02638212
#
# Stress axis : x y z
#
# Youngs Moduli (GPa) = 64.04488 100.32784 50.08328
#
# Poissons Ratio (x) = 0.39933 0.15583
# Poissons Ratio (y) = 0.25492 0.12477
# Poissons Ratio (z) = 0.19927 0.24995
#
# Static dielectric constant tensor:
#      x y z
#    x 1.520000 0.000000 0.000000 
#    y 0.000000 1.564020 0.000000 
#    z 0.000000 0.000000 1.488560 
# 
# From -- ./inp_files/22425.got.cif
#   From: 2010.05.17/outbox.cif.g08.bks.cpg/sg51_12_cif.got.tgz:22425.got - 2010.06.03 11:52:47.
