data_PCOD9398854
_publ_section_title
;
Structure prediction by ZEFSAII (Michael W. Deem and Ramdas Pophale) SiO2 
 PCOD9398854
Probable space group: P M M A
;
_chemical_formula_sum "Si O2"
_cell_formula_units_Z 64
_cell_length_a 7.792454
_cell_length_b 19.494941
_cell_length_c 22.180341
_cell_angle_alpha 90.000000
_cell_angle_beta 90.000000
_cell_angle_gamma 90.000000
_cell_volume 3369.491702
_symmetry_space_group_name_H-M "P M M A"
_symmetry_group_IT_number 51
_symmetry_cell_setting 'orthorhombic'
loop_
_space_group_symop_operation_xyz
x,y,z
1/2-x,-y,z
1/2+x,-y,-z
-x,y,-z
-x,-y,-z
1/2+x,y,-z
1/2-x,y,z
x,-y,z
loop_
_atom_site_type_symbol
_atom_site_label
_atom_site_fract_x
_atom_site_fract_y
_atom_site_fract_z
Si Si1 0.043995 0.673760 0.675839
Si Si2 0.957666 0.779324 0.232309
Si Si3 0.952077 0.925788 0.192574
Si Si4 0.946821 0.424554 0.916525
Si Si5 0.456516 0.278174 0.102001
Si Si6 0.954668 0.871927 0.934216
Si Si7 0.050742 0.577464 0.781483
Si Si8 0.453190 0.423819 0.430307
O O1 0.250000 0.674333 0.678295
O O2 0.986620 0.746348 0.704087
O O3 0.980320 0.622575 0.727931
O O4 0.002078 0.639437 0.612431
O O5 0.750000 0.782018 0.231642
O O6 0.025543 0.856056 0.221210
O O7 0.004435 0.733194 0.173452
O O8 0.750000 0.927264 0.207420
O O9 0.968989 0.914241 0.120917
O O10 0.026676 0.000000 0.209016
O O11 0.750000 0.425478 0.938360
O O12 0.024563 0.500000 0.932246
O O13 0.025621 0.348922 0.927736
O O14 0.949223 0.422326 0.843678
O O15 0.250000 0.281825 0.096600
O O16 0.517799 0.207240 0.072103
O O17 0.750000 0.871425 0.926597
O O18 0.000000 0.898368 0.000000
O O19 0.250000 0.596892 0.795379
O O20 0.054110 0.500000 0.759019
O O21 0.500000 0.412259 0.500000
O O22 0.250000 0.428733 0.426343
O O23 0.525180 0.500000 0.412862
#
# Coordination Sequence:
#
# PCOD9398854 Si02
#       8
#     8   8   8   8   8   8   8   8
#     4  10  18  28  44  65  91 122 155 192 230 271
#     4   9  17  29  46  68  92 120 151 181 221 272
#     4   9  18  33  52  73  98 125 150 180 220 269
#     4   9  16  25  38  57  81 108 138 175 220 267
#     4   9  17  29  44  62  87 115 145 185 231 274
#     4  10  20  33  49  69  90 117 153 190 227 270
#     4   9  16  24  35  55  83 113 142 174 215 259
#     4  10  21  35  49  65  89 126 170 210 244 276
#
# _framework density 18.993962
#
# number of rings (size 3 to 8) (size 9 to 14) (size 15 to 20)
#    0.000    2.625    1.250    1.125    0.000    3.250 
#    0.000    1.250    0.000    0.375    0.000    0.000 
#    0.000    0.500    0.000    0.875    0.000    1.625 
#
# Total GULP energy -356550.124869 kJ/mol
# GULP energy per Si atom -5571.095701 kJ/mol
# Density = 1.895073 g / cm^3
# Si number density = 18.993962 Si / 1000 Ang^3
#
#
#
# Elastic Constant Matrix: (Units=GPa)
#
#
# Indices 1 2 3 4 5 6 
#
# 1 31.6457 9.0608 -2.1814 0.0000 0.0000 0.0000
# 2 9.0608 136.7040 41.1779 0.0000 0.0000 0.0000
# 3 -2.1814 41.1779 86.8853 0.0000 0.0000 0.0000
# 4 0.0000 0.0000 0.0000 -19.0928 0.0000 0.0000
# 5 0.0000 0.0000 0.0000 0.0000 7.5473 0.0000
# 6 0.0000 0.0000 0.0000 0.0000 0.0000 9.5709
#
#
#
# Elastic Compliance Matrix: (Units=1/GPa)
#
#
# Indices 1 2 3 4 5 6 
#
# 1 0.032551 -0.002804 0.002146 0.000000 0.000000 0.000000
# 2 -0.002804 0.008775 -0.004229 0.000000 0.000000 0.000000
# 3 0.002146 -0.004229 0.013568 0.000000 0.000000 0.000000
# 4 0.000000 0.000000 0.000000 -0.052376 0.000000 0.000000
# 5 0.000000 0.000000 0.000000 0.000000 0.132498 0.000000
# 6 0.000000 0.000000 0.000000 0.000000 0.000000 0.104483
#
#
# Mechanical properties :
#
#
# Convention : Reuss Voigt Hill
#
# Bulk Modulus (GPa) = 22.16348 39.03886 30.60117
# Shear Modulus (GPa) = 18.91705 13.41692 16.16699
#
# Velocity S-wave (km/s) = 3.15929 2.66066 2.92064
# Velocity P-wave (km/s) = 5.00022 5.48058 5.24590
#
# Compressibility (1/GPa) = 0.04511928
#
# Stress axis : x y z
#
# Youngs Moduli (GPa) = 30.72134 113.96273 73.70491
#
# Poissons Ratio (x) = 0.31954 -0.15818
# Poissons Ratio (y) = 0.08614 0.31170
# Poissons Ratio (z) = -0.06593 0.48196
#
# Static dielectric constant tensor:
#      x y z
#    x 1.702220 0.000000 0.000000 
#    y 0.000000 1.759410 0.000000 
#    z 0.000000 0.000000 2.049630 
# 
# From -- ./inp_files/32667.got.cif
#   From: 2010.05.17/outbox.cif.g08.bks.cpg/sg51_17_cif.got.tgz:32667.got - 2010.06.03 11:52:47.
