data_PCOD9398208
_publ_section_title
;
Structure prediction by ZEFSAII (Michael W. Deem and Ramdas Pophale) SiO2 
 PCOD9398208
Probable space group: P B A N
;
_chemical_formula_sum "Si O2"
_cell_formula_units_Z 34
_cell_length_a 9.906118
_cell_length_b 18.812694
_cell_length_c 8.185540
_cell_angle_alpha 90.000000
_cell_angle_beta 90.000000
_cell_angle_gamma 90.000000
_cell_volume 1525.463510
_symmetry_space_group_name_H-M "P B A N"
_symmetry_group_IT_number 50
_space_group.IT_coordinate_system_code '2'
_symmetry_cell_setting 'orthorhombic'
loop_
_space_group_symop_operation_xyz
x,y,z
1/2-x,1/2-y,z
x,1/2-y,-z
1/2-x,y,-z
-x,-y,-z
1/2+x,1/2+y,-z
-x,1/2+y,z
1/2+x,-y,z
loop_
_atom_site_type_symbol
_atom_site_label
_atom_site_fract_x
_atom_site_fract_y
_atom_site_fract_z
Si Si1 0.250000 0.750000 0.500000
Si Si2 0.402443 0.239624 0.193437
Si Si3 0.558349 0.140345 0.608350
Si Si4 0.756002 0.035827 0.804206
Si Si5 0.448868 0.080531 0.306909
O O1 0.363109 0.811779 0.525911
O O2 0.250000 0.250000 0.253961
O O3 0.488952 0.301757 0.276481
O O4 0.441587 0.158726 0.229103
O O5 0.407980 0.250000 0.000000
O O6 0.664363 0.095352 0.714062
O O7 0.459722 0.091349 0.502485
O O8 0.911595 0.043259 0.750283
O O9 0.680903 0.963641 0.750372
O O10 0.750000 0.043327 0.000000
#
# Coordination Sequence:
#
# PCOD9398208 Si02
#       5
#     2   8   8   8   8
#     4  12  20  44  68  96 144 172 248 306 344 432
#     4  11  26  46  76 107 143 184 241 304 368 432
#     4  12  23  46  74 104 142 189 247 306 363 430
#     4  12  27  45  73 104 151 194 240 299 370 439
#     4  12  26  47  70 109 145 192 243 298 365 439
#
# _framework density 22.288307
#
# number of rings (size 3 to 8) (size 9 to 14) (size 15 to 20)
#    0.000    0.235    4.706    2.824    6.588    1.882 
#    0.000    2.353    0.000    0.000    0.000    0.000 
#    0.000    0.000    0.000    0.000    0.000    0.000 
#
# Total GULP energy -189669.703763 kJ/mol
# GULP energy per Si atom -5578.520699 kJ/mol
# Density = 2.223758 g / cm^3
# Si number density = 22.288307 Si / 1000 Ang^3
#
#
#
# Elastic Constant Matrix: (Units=GPa)
#
#
# Indices 1 2 3 4 5 6 
#
# 1 80.1221 46.4402 26.9312 0.0000 0.0000 0.0000
# 2 46.4402 122.3249 60.7126 0.0000 0.0000 0.0000
# 3 26.9312 60.7126 92.0546 0.0000 0.0000 0.0000
# 4 0.0000 0.0000 0.0000 35.1942 0.0000 0.0000
# 5 0.0000 0.0000 0.0000 0.0000 22.5675 0.0000
# 6 0.0000 0.0000 0.0000 0.0000 0.0000 41.0722
#
#
#
# Elastic Compliance Matrix: (Units=1/GPa)
#
#
# Indices 1 2 3 4 5 6 
#
# 1 0.016065 -0.005599 -0.001007 0.000000 0.000000 0.000000
# 2 -0.005599 0.014105 -0.007664 0.000000 0.000000 0.000000
# 3 -0.001007 -0.007664 0.016213 0.000000 0.000000 0.000000
# 4 0.000000 0.000000 0.000000 0.028414 0.000000 0.000000
# 5 0.000000 0.000000 0.000000 0.000000 0.044311 0.000000
# 6 0.000000 0.000000 0.000000 0.000000 0.000000 0.024347
#
#
# Mechanical properties :
#
#
# Convention : Reuss Voigt Hill
#
# Bulk Modulus (GPa) = 56.05086 62.51884 59.28485
# Shear Modulus (GPa) = 28.09894 30.46130 29.28012
#
# Velocity S-wave (km/s) = 3.55449 3.70089 3.62843
# Velocity P-wave (km/s) = 6.48449 6.80978 6.64912
#
# Compressibility (1/GPa) = 0.01784094
#
# Stress axis : x y z
#
# Youngs Moduli (GPa) = 62.24792 70.89875 61.68039
#
# Poissons Ratio (x) = 0.39697 0.06212
# Poissons Ratio (y) = 0.34853 0.47274
# Poissons Ratio (z) = 0.06269 0.54339
#
# Static dielectric constant tensor:
#      x y z
#    x 1.834170 0.000000 0.000000 
#    y 0.000000 1.822180 0.000000 
#    z 0.000000 0.000000 1.811370 
# 
# From -- ./inp_files/9211.got.cif
#   From: 2010.05.17/outbox.cif.g08.bks.cpg/sg50_5_cif.got.tgz:9211.got - 2010.06.03 11:33:33.
