data_PCOD9398237
_publ_section_title
;
Structure prediction by ZEFSAII (Michael W. Deem and Ramdas Pophale) SiO2 
 PCOD9398237
Probable space group: P B A N
;
_chemical_formula_sum "Si O2"
_cell_formula_units_Z 24
_cell_length_a 8.812142
_cell_length_b 13.432145
_cell_length_c 8.494434
_cell_angle_alpha 90.000000
_cell_angle_beta 90.000000
_cell_angle_gamma 90.000000
_cell_volume 1005.451912
_symmetry_space_group_name_H-M "P B A N"
_symmetry_group_IT_number 50
_space_group.IT_coordinate_system_code '2'
_symmetry_cell_setting 'orthorhombic'
loop_
_space_group_symop_operation_xyz
x,y,z
1/2-x,1/2-y,z
x,1/2-y,-z
1/2-x,y,-z
-x,-y,-z
1/2+x,1/2+y,-z
-x,1/2+y,z
1/2+x,-y,z
loop_
_atom_site_type_symbol
_atom_site_label
_atom_site_fract_x
_atom_site_fract_y
_atom_site_fract_z
Si Si1 0.910882 0.625461 0.694650
Si Si2 0.482965 0.673673 0.624151
Si Si3 0.764911 0.049374 0.814885
O O1 0.776366 0.564342 0.773550
O O2 0.920146 0.744640 0.720015
O O3 0.919221 0.612500 0.504036
O O4 0.067972 0.580140 0.761173
O O5 0.404701 0.750000 0.500000
O O6 0.362598 0.613136 0.722817
O O7 0.750000 0.066173 0.000000
#
# Coordination Sequence:
#
# PCOD9398237 Si02
#       3
#     8   8   8
#     4   9  22  38  62  87 127 166 213 257 317 383
#     4   8  21  40  62  86 126 175 216 249 314 397
#     4  12  21  37  63  96 122 164 213 271 317 373
#
# _framework density 23.869864
#
# number of rings (size 3 to 8) (size 9 to 14) (size 15 to 20)
#    2.000    0.000    0.000    4.000    4.667    2.667 
#    0.000    1.667    7.333    2.000    0.000    0.000 
#    0.000    0.000    0.000    0.000    0.000    0.000 
#
# Total GULP energy -133977.871906 kJ/mol
# GULP energy per Si atom -5582.411329 kJ/mol
# Density = 2.381554 g / cm^3
# Si number density = 23.869864 Si / 1000 Ang^3
#
#
#
# Elastic Constant Matrix: (Units=GPa)
#
#
# Indices 1 2 3 4 5 6 
#
# 1 116.3399 26.8464 40.6045 0.0000 0.0000 0.0000
# 2 26.8464 105.8763 32.8576 0.0000 0.0000 0.0000
# 3 40.6045 32.8576 126.2441 0.0000 0.0000 0.0000
# 4 0.0000 0.0000 0.0000 -20.4536 0.0000 0.0000
# 5 0.0000 0.0000 0.0000 0.0000 -12.5505 0.0000
# 6 0.0000 0.0000 0.0000 0.0000 0.0000 20.1076
#
#
#
# Elastic Compliance Matrix: (Units=1/GPa)
#
#
# Indices 1 2 3 4 5 6 
#
# 1 0.009945 -0.001663 -0.002766 0.000000 0.000000 0.000000
# 2 -0.001663 0.010553 -0.002212 0.000000 0.000000 0.000000
# 3 -0.002766 -0.002212 0.009386 0.000000 0.000000 0.000000
# 4 0.000000 0.000000 0.000000 -0.048891 0.000000 0.000000
# 5 0.000000 0.000000 0.000000 0.000000 -0.079678 0.000000
# 6 0.000000 0.000000 0.000000 0.000000 0.000000 0.049733
#
#
# Mechanical properties :
#
#
# Convention : Reuss Voigt Hill
#
# Bulk Modulus (GPa) = 60.23084 61.00860 60.61972
# Shear Modulus (GPa) = -165.90725 13.96414 -75.97156
#
# Velocity S-wave (km/s) = -8.34600 2.42132 -5.64770
# Velocity P-wave (km/s) = 8.22111 5.78199 4.13250
#
# Compressibility (1/GPa) = 0.01660279
#
# Stress axis : x y z
#
# Youngs Moduli (GPa) = 100.55737 94.75876 106.53804
#
# Poissons Ratio (x) = 0.15761 0.29464
# Poissons Ratio (y) = 0.16726 0.23563
# Poissons Ratio (z) = 0.27810 0.20958
#
# Static dielectric constant tensor:
#      x y z
#    x 1.944920 0.000000 0.000000 
#    y 0.000000 2.003070 0.000000 
#    z 0.000000 0.000000 1.897950 
# 
# From -- ./inp_files/8514.got.cif
#   From: 2010.05.17/outbox.cif.g08.bks.cpg/sg50_5_cif.got.tgz:8514.got - 2010.06.03 11:33:33.
