data_PCOD9398814
_publ_section_title
;
Structure prediction by ZEFSAII (Michael W. Deem and Ramdas Pophale) SiO2 
 PCOD9398814
Probable space group: P M M A
;
_chemical_formula_sum "Si O2"
_cell_formula_units_Z 64
_cell_length_a 20.038899
_cell_length_b 9.545601
_cell_length_c 19.328092
_cell_angle_alpha 90.000000
_cell_angle_beta 90.000000
_cell_angle_gamma 90.000000
_cell_volume 3697.141884
_symmetry_space_group_name_H-M "P M M A"
_symmetry_group_IT_number 51
_symmetry_cell_setting 'orthorhombic'
loop_
_space_group_symop_operation_xyz
x,y,z
1/2-x,-y,z
1/2+x,-y,-z
-x,y,-z
-x,-y,-z
1/2+x,y,-z
1/2-x,y,z
x,-y,z
loop_
_atom_site_type_symbol
_atom_site_label
_atom_site_fract_x
_atom_site_fract_y
_atom_site_fract_z
Si Si1 0.549243 0.161026 0.348109
Si Si2 0.046734 0.667990 0.934917
Si Si3 0.367505 0.342849 0.263798
Si Si4 0.021501 0.657684 0.777378
Si Si5 0.171691 0.833142 0.979421
Si Si6 0.891282 0.161116 0.609870
Si Si7 0.078723 0.338289 0.520914
Si Si8 0.670617 0.846089 0.861924
O O1 0.556823 0.231268 0.272755
O O2 0.470150 0.158520 0.368686
O O3 0.582974 0.257726 0.406394
O O4 0.571979 0.000000 0.349752
O O5 0.054965 0.500000 0.941253
O O6 0.017126 0.696372 0.858408
O O7 0.118060 0.744318 0.937710
O O8 0.000000 0.712226 0.000000
O O9 0.341540 0.500000 0.273306
O O10 0.447205 0.351775 0.253568
O O11 0.354185 0.242805 0.328704
O O12 0.344080 0.270487 0.193816
O O13 0.050831 0.500000 0.772905
O O14 0.250000 0.794734 0.970339
O O15 0.166409 0.000000 0.966108
O O16 0.151351 0.811020 0.059828
O O17 0.886504 0.249106 0.539442
O O18 0.870095 0.000000 0.602504
O O19 0.100740 0.500000 0.524359
O O20 0.000000 0.341013 0.500000
O O21 0.750000 0.859781 0.865005
O O22 0.642303 0.000000 0.842427
#
# Coordination Sequence:
#
# PCOD9398814 Si02
#       8
#     8   8   8   8   8   8   8   8
#     4   9  16  25  38  56  79 110 147 182 216 259
#     4  10  20  33  49  71  98 126 158 197 241 290
#     4  10  18  28  43  62  86 116 149 184 222 265
#     4   9  18  30  42  60  89 120 147 181 227 274
#     4   9  19  35  52  70  93 122 158 199 241 286
#     4   9  16  25  37  55  81 112 145 179 214 256
#     4   9  15  23  36  54  78 109 144 179 216 258
#     4   9  18  32  47  62  83 112 145 183 227 271
#
# _framework density 17.310669000000001
#
# number of rings (size 3 to 8) (size 9 to 14) (size 15 to 20)
#    0.000    2.750    0.000    3.000    0.000    7.750 
#    0.000    1.250    0.000    0.000    0.000    0.000 
#    0.000    1.000    0.000    7.250    0.000    7.125 
#
# Total GULP energy -356386.322615 kJ/mol
# GULP energy per Si atom -5568.536291 kJ/mol
# Density = 1.727127 g / cm^3
# Si number density = 17.310669 Si / 1000 Ang^3
#
#
#
# Elastic Constant Matrix: (Units=GPa)
#
#
# Indices 1 2 3 4 5 6 
#
# 1 12.0540 0.8143 9.3291 0.0000 0.0000 0.0000
# 2 0.8143 102.7487 66.7470 0.0000 0.0000 0.0000
# 3 9.3291 66.7470 90.7287 0.0000 0.0000 0.0000
# 4 0.0000 0.0000 0.0000 30.6521 0.0000 0.0000
# 5 0.0000 0.0000 0.0000 0.0000 2.3795 0.0000
# 6 0.0000 0.0000 0.0000 0.0000 0.0000 16.1479
#
#
#
# Elastic Compliance Matrix: (Units=1/GPa)
#
#
# Indices 1 2 3 4 5 6 
#
# 1 0.096037 0.010829 -0.017842 0.000000 0.000000 0.000000
# 2 0.010829 0.019862 -0.015726 0.000000 0.000000 0.000000
# 3 -0.017842 -0.015726 0.024426 0.000000 0.000000 0.000000
# 4 0.000000 0.000000 0.000000 0.032624 0.000000 0.000000
# 5 0.000000 0.000000 0.000000 0.000000 0.420251 0.000000
# 6 0.000000 0.000000 0.000000 0.000000 0.000000 0.061927
#
#
# Mechanical properties :
#
#
# Convention : Reuss Voigt Hill
#
# Bulk Modulus (GPa) = 10.54318 39.92357 25.23337
# Shear Modulus (GPa) = 6.82855 18.41198 12.62026
#
# Velocity S-wave (km/s) = 1.98828 3.26486 2.70301
# Velocity P-wave (km/s) = 3.37266 6.10945 4.93458
#
# Compressibility (1/GPa) = 0.09484807
#
# Stress axis : x y z
#
# Youngs Moduli (GPa) = 10.41267 50.34654 40.94080
#
# Poissons Ratio (x) = -0.54521 0.73045
# Poissons Ratio (y) = -0.11276 0.64383
# Poissons Ratio (z) = 0.18578 0.79174
#
# Static dielectric constant tensor:
#      x y z
#    x 1.601490 0.000000 0.000000 
#    y 0.000000 1.589960 0.000000 
#    z 0.000000 0.000000 1.635820 
# 
# From -- ./inp_files/30505.got.cif
#   From: 2010.05.17/outbox.cif.g08.bks.cpg/sg51_16_cif.got.tgz:30505.got - 2010.06.03 11:52:47.
