data_PCOD9398565
_publ_section_title
;
Structure prediction by ZEFSAII (Michael W. Deem and Ramdas Pophale) SiO2 
 PCOD9398565
Probable space group: P M M A
;
_chemical_formula_sum "Si O2"
_cell_formula_units_Z 64
_cell_length_a 20.597621
_cell_length_b 7.472016
_cell_length_c 20.677882
_cell_angle_alpha 90.000000
_cell_angle_beta 90.000000
_cell_angle_gamma 90.000000
_cell_volume 3182.445014
_symmetry_space_group_name_H-M "P M M A"
_symmetry_group_IT_number 51
_symmetry_cell_setting 'orthorhombic'
loop_
_space_group_symop_operation_xyz
x,y,z
1/2-x,-y,z
1/2+x,-y,-z
-x,y,-z
-x,-y,-z
1/2+x,y,-z
1/2-x,y,z
x,-y,z
loop_
_atom_site_type_symbol
_atom_site_label
_atom_site_fract_x
_atom_site_fract_y
_atom_site_fract_z
Si Si1 0.678857 0.211842 0.655508
Si Si2 0.086852 0.714452 0.455592
Si Si3 0.174971 0.781031 0.992572
Si Si4 0.572624 0.299278 0.264048
Si Si5 0.947835 0.719207 0.403037
Si Si6 0.925473 0.216954 0.756667
Si Si7 0.066660 0.783232 0.096482
Si Si8 0.580425 0.209643 0.116362
O O1 0.750000 0.289263 0.661166
O O2 0.649282 0.235361 0.584815
O O3 0.628497 0.283262 0.707717
O O4 0.682495 0.000000 0.668182
O O5 0.081494 0.500000 0.457579
O O6 0.086171 0.774082 0.529966
O O7 0.022629 0.776581 0.416239
O O8 0.250000 0.721669 0.000631
O O9 0.141141 0.723167 0.925205
O O10 0.177542 0.000000 0.994819
O O11 0.121230 0.723428 0.045856
O O12 0.599037 0.500000 0.265062
O O13 0.582973 0.216525 0.335467
O O14 0.494435 0.299101 0.260737
O O15 0.590568 0.223583 0.193616
O O16 0.947671 0.500000 0.399357
O O17 0.910229 0.257451 0.830927
O O18 0.933020 0.000000 0.751910
O O19 0.991099 0.718087 0.094768
O O20 0.063329 0.000000 0.089866
O O21 0.576104 0.000000 0.101422
#
# Coordination Sequence:
#
# PCOD9398565 Si02
#       8
#     8   8   8   8   8   8   8   8
#     4  10  20  31  42  62  97 132 155 181 220 269
#     4   9  16  30  48  66  87 115 152 190 229 267
#     4   9  16  26  44  69  92 116 154 198 231 267
#     4  10  17  28  48  71  92 115 146 188 232 276
#     4   8  15  27  47  70  90 109 140 194 239 262
#     4   9  17  29  44  65  94 124 152 184 225 269
#     4   8  14  25  43  65  89 118 151 189 228 266
#     4   9  17  29  45  68  96 122 148 187 236 281
#
# _framework density 20.110325
#
# number of rings (size 3 to 8) (size 9 to 14) (size 15 to 20)
#    0.000    3.000    1.250    2.250    0.000    2.250 
#    0.000    5.000    0.000    7.125    0.000    3.500 
#    0.000    0.000    0.000    0.000    0.000    0.000 
#
# Total GULP energy -356487.064710 kJ/mol
# GULP energy per Si atom -5570.110386 kJ/mol
# Density = 2.006455 g / cm^3
# Si number density = 20.110325 Si / 1000 Ang^3
#
#
#
# Elastic Constant Matrix: (Units=GPa)
#
#
# Indices 1 2 3 4 5 6 
#
# 1 48.5945 4.4795 30.3516 0.0000 0.0000 0.0000
# 2 4.4795 52.1817 0.9800 0.0000 0.0000 0.0000
# 3 30.3516 0.9800 110.7968 0.0000 0.0000 0.0000
# 4 0.0000 0.0000 0.0000 19.3831 0.0000 0.0000
# 5 0.0000 0.0000 0.0000 0.0000 5.0192 0.0000
# 6 0.0000 0.0000 0.0000 0.0000 0.0000 5.9843
#
#
#
# Elastic Compliance Matrix: (Units=1/GPa)
#
#
# Indices 1 2 3 4 5 6 
#
# 1 0.025038 -0.002021 -0.006841 0.000000 0.000000 0.000000
# 2 -0.002021 0.019330 0.000383 0.000000 0.000000 0.000000
# 3 -0.006841 0.000383 0.010896 0.000000 0.000000 0.000000
# 4 0.000000 0.000000 0.000000 0.051591 0.000000 0.000000
# 5 0.000000 0.000000 0.000000 0.000000 0.199234 0.000000
# 6 0.000000 0.000000 0.000000 0.000000 0.000000 0.167103
#
#
# Mechanical properties :
#
#
# Convention : Reuss Voigt Hill
#
# Bulk Modulus (GPa) = 26.10592 31.46615 28.78603
# Shear Modulus (GPa) = 9.94197 17.79480 13.86838
#
# Velocity S-wave (km/s) = 2.22586 2.97788 2.62890
# Velocity P-wave (km/s) = 4.42893 5.24447 4.85386
#
# Compressibility (1/GPa) = 0.03830549
#
# Stress axis : x y z
#
# Youngs Moduli (GPa) = 39.94005 51.73280 91.77565
#
# Poissons Ratio (x) = 0.10454 0.62783
# Poissons Ratio (y) = 0.08071 -0.03511
# Poissons Ratio (z) = 0.27323 -0.01979
#
# Static dielectric constant tensor:
#      x y z
#    x 1.685390 0.000000 0.000000 
#    y 0.000000 1.782480 0.000000 
#    z 0.000000 0.000000 1.749660 
# 
# From -- ./inp_files/34178.got.cif
#   From: 2010.05.17/outbox.cif.g08.bks.cpg/sg51_18_cif.got.tgz:34178.got - 2010.06.03 11:52:47.
