data_PCOD9398081
_publ_section_title
;
Structure prediction by ZEFSAII (Michael W. Deem and Ramdas Pophale) SiO2 
 PCOD9398081
Probable space group: P B A N
;
_chemical_formula_sum "Si O2"
_cell_formula_units_Z 34
_cell_length_a 21.157315
_cell_length_b 8.236816
_cell_length_c 8.716603
_cell_angle_alpha 90.000000
_cell_angle_beta 90.000000
_cell_angle_gamma 90.000000
_cell_volume 1519.032910
_symmetry_space_group_name_H-M "P B A N"
_symmetry_group_IT_number 50
_space_group.IT_coordinate_system_code '2'
_symmetry_cell_setting 'orthorhombic'
loop_
_space_group_symop_operation_xyz
x,y,z
1/2-x,1/2-y,z
x,1/2-y,-z
1/2-x,y,-z
-x,-y,-z
1/2+x,1/2+y,-z
-x,1/2+y,z
1/2+x,-y,z
loop_
_atom_site_type_symbol
_atom_site_label
_atom_site_fract_x
_atom_site_fract_y
_atom_site_fract_z
Si Si1 0.820878 0.002703 0.444759
Si Si2 0.348784 0.824183 0.751834
Si Si3 0.530012 0.010432 0.165484
Si Si4 0.570280 0.802331 0.666245
Si Si5 0.750000 0.250000 0.000000
O O1 0.750000 0.970686 0.500000
O O2 0.828086 0.155780 0.329514
O O3 0.851998 0.054250 0.606416
O O4 0.858189 0.859621 0.361967
O O5 0.418077 0.845886 0.823015
O O6 0.296896 0.849755 0.886222
O O7 0.562089 0.841318 0.212785
O O8 0.472711 0.049275 0.279651
O O9 0.500000 0.000000 0.000000
O O10 0.545703 0.750000 0.500000
#
# Coordination Sequence:
#
# PCOD9398081 Si02
#       5
#     8   8   8   8   2
#     4  11  23  47  72 107 140 193 257 312 365 455
#     4  11  24  44  73 104 145 192 254 304 379 454
#     4  12  28  47  70 110 151 197 243 321 388 455
#     4  12  26  46  72 104 143 190 251 304 374 448
#     4  12  24  42  72 110 140 202 240 320 380 466
#
# _framework density 22.382663000000001
#
# number of rings (size 3 to 8) (size 9 to 14) (size 15 to 20)
#    0.000    0.471    4.706    3.529    9.882    0.471 
#    0.000    0.000    0.000    0.000    0.000    0.000 
#    0.000    0.000    0.000    0.000    0.000    0.000 
#
# Total GULP energy -190062.161971 kJ/mol
# GULP energy per Si atom -5590.063587 kJ/mol
# Density = 2.233172 g / cm^3
# Si number density = 22.382663 Si / 1000 Ang^3
#
#
#
# Elastic Constant Matrix: (Units=GPa)
#
#
# Indices 1 2 3 4 5 6 
#
# 1 165.1266 51.1133 63.9548 0.0000 0.0000 0.0000
# 2 51.1133 101.2629 44.1934 0.0000 0.0000 0.0000
# 3 63.9548 44.1934 154.5243 0.0000 0.0000 0.0000
# 4 0.0000 0.0000 0.0000 30.0135 0.0000 0.0000
# 5 0.0000 0.0000 0.0000 0.0000 52.3158 0.0000
# 6 0.0000 0.0000 0.0000 0.0000 0.0000 33.7582
#
#
#
# Elastic Compliance Matrix: (Units=1/GPa)
#
#
# Indices 1 2 3 4 5 6 
#
# 1 0.007905 -0.002928 -0.002434 0.000000 0.000000 0.000000
# 2 -0.002928 0.012368 -0.002325 0.000000 0.000000 0.000000
# 3 -0.002434 -0.002325 0.008144 0.000000 0.000000 0.000000
# 4 0.000000 0.000000 0.000000 0.033318 0.000000 0.000000
# 5 0.000000 0.000000 0.000000 0.000000 0.019115 0.000000
# 6 0.000000 0.000000 0.000000 0.000000 0.000000 0.029622
#
#
# Mechanical properties :
#
#
# Convention : Reuss Voigt Hill
#
# Bulk Modulus (GPa) = 76.67592 82.15965 79.41778
# Shear Modulus (GPa) = 38.40387 40.66098 39.53243
#
# Velocity S-wave (km/s) = 4.14670 4.26682 4.20719
# Velocity P-wave (km/s) = 7.56690 7.81414 7.69152
#
# Compressibility (1/GPa) = 0.01304190
#
# Stress axis : x y z
#
# Youngs Moduli (GPa) = 126.50085 80.85414 122.78787
#
# Poissons Ratio (x) = 0.23672 0.29892
# Poissons Ratio (y) = 0.37036 0.28554
# Poissons Ratio (z) = 0.30796 0.18802
#
# Static dielectric constant tensor:
#      x y z
#    x 1.866700 0.000000 0.000000 
#    y 0.000000 1.908140 0.000000 
#    z 0.000000 0.000000 1.813330 
# 
# From -- ./inp_files/9272.got.cif
#   From: 2010.05.17/outbox.cif.g08.bks.cpg/sg50_5_cif.got.tgz:9272.got - 2010.06.03 11:33:33.
