data_PCOD9398980
_publ_section_title
;
Structure prediction by ZEFSAII (Michael W. Deem and Ramdas Pophale) SiO2 
 PCOD9398980
Probable space group: P M M A
;
_chemical_formula_sum "Si O2"
_cell_formula_units_Z 52
_cell_length_a 9.036069
_cell_length_b 26.455304
_cell_length_c 13.195395
_cell_angle_alpha 90.000000
_cell_angle_beta 90.000000
_cell_angle_gamma 90.000000
_cell_volume 3154.384937
_symmetry_space_group_name_H-M "P M M A"
_symmetry_group_IT_number 51
_symmetry_cell_setting 'orthorhombic'
loop_
_space_group_symop_operation_xyz
x,y,z
1/2-x,-y,z
1/2+x,-y,-z
-x,y,-z
-x,-y,-z
1/2+x,y,-z
1/2-x,y,z
x,-y,z
loop_
_atom_site_type_symbol
_atom_site_label
_atom_site_fract_x
_atom_site_fract_y
_atom_site_fract_z
Si Si1 0.074114 0.205383 0.712648
Si Si2 0.577939 0.439410 0.391358
Si Si3 0.426550 0.000000 0.390320
Si Si4 0.427351 0.715421 0.892084
Si Si5 0.582649 0.368304 0.765906
Si Si6 0.571851 0.887894 0.613156
Si Si7 0.585525 0.713161 0.589098
O O1 0.250000 0.198518 0.709170
O O2 0.038173 0.238789 0.812891
O O3 0.992015 0.152908 0.691612
O O4 0.016428 0.240525 0.621485
O O5 0.500000 0.429328 0.500000
O O6 0.750000 0.423300 0.396726
O O7 0.572787 0.500000 0.377477
O O8 0.499337 0.412598 0.295774
O O9 0.500000 0.000000 0.500000
O O10 0.464631 0.944779 0.347269
O O11 0.250000 0.000000 0.401621
O O12 0.250000 0.711998 0.898515
O O13 0.491643 0.661720 0.851757
O O14 0.500000 0.726405 0.000000
O O15 0.750000 0.382455 0.798090
O O16 0.596217 0.324720 0.681479
O O17 0.500000 0.881755 0.500000
O O18 0.750000 0.882628 0.603830
O O19 0.500000 0.685722 0.500000
O O20 0.750000 0.729653 0.560684
#
# Coordination Sequence:
#
# PCOD9398980 Si02
#       7
#     8   8   4   8   8   8   8
#     4  10  20  32  46  67  93 122 155 192 236 285
#     4  10  20  33  50  74 105 139 172 204 239 281
#     4   8  16  28  42  62  89 126 167 200 233 272
#     4  10  21  37  56  75  97 123 156 199 246 297
#     4  10  20  33  51  73  97 127 163 200 240 287
#     4  10  18  29  45  66  96 131 165 200 235 277
#     4  10  19  29  42  63  92 125 157 190 229 276
#
# _framework density 16.484988999999999
#
# number of rings (size 3 to 8) (size 9 to 14) (size 15 to 20)
#    0.000    2.154    0.000    3.692    0.000    6.462 
#    0.000    0.000    0.000    0.462    0.000    0.538 
#    0.000    0.000    0.000    0.000    0.000    0.000 
#
# Total GULP energy -289603.667035 kJ/mol
# GULP energy per Si atom -5569.301289 kJ/mol
# Density = 1.644747 g / cm^3
# Si number density = 16.484989 Si / 1000 Ang^3
#
#
#
# Elastic Constant Matrix: (Units=GPa)
#
#
# Indices 1 2 3 4 5 6 
#
# 1 98.6939 47.5521 51.0288 0.0000 0.0000 0.0000
# 2 47.5521 98.6063 31.0004 0.0000 0.0000 0.0000
# 3 51.0288 31.0004 72.7764 0.0000 0.0000 0.0000
# 4 0.0000 0.0000 0.0000 19.0369 0.0000 0.0000
# 5 0.0000 0.0000 0.0000 0.0000 25.1512 0.0000
# 6 0.0000 0.0000 0.0000 0.0000 0.0000 27.0657
#
#
#
# Elastic Compliance Matrix: (Units=1/GPa)
#
#
# Indices 1 2 3 4 5 6 
#
# 1 0.018145 -0.005485 -0.010387 0.000000 0.000000 0.000000
# 2 -0.005485 0.013367 -0.001848 0.000000 0.000000 0.000000
# 3 -0.010387 -0.001848 0.021811 0.000000 0.000000 0.000000
# 4 0.000000 0.000000 0.000000 0.052530 0.000000 0.000000
# 5 0.000000 0.000000 0.000000 0.000000 0.039760 0.000000
# 6 0.000000 0.000000 0.000000 0.000000 0.000000 0.036947
#
#
# Mechanical properties :
#
#
# Convention : Reuss Voigt Hill
#
# Bulk Modulus (GPa) = 55.91576 58.80435 57.36006
# Shear Modulus (GPa) = 22.32531 23.61710 22.97121
#
# Velocity S-wave (km/s) = 3.68405 3.78913 3.73696
# Velocity P-wave (km/s) = 7.21728 7.40893 7.31373
#
# Compressibility (1/GPa) = 0.01788405
#
# Stress axis : x y z
#
# Youngs Moduli (GPa) = 55.11022 74.80830 45.84886
#
# Poissons Ratio (x) = 0.41033 0.47622
# Poissons Ratio (y) = 0.30228 0.08473
# Poissons Ratio (z) = 0.57241 0.13826
#
# Static dielectric constant tensor:
#      x y z
#    x 1.581350 0.000000 0.000000 
#    y 0.000000 1.587040 0.000000 
#    z 0.000000 0.000000 1.614460 
# 
# From -- ./inp_files/14621.got.cif
#   From: 2010.05.17/outbox.cif.g08.bks.cpg/sg51_8_cif.got.tgz:14621.got - 2010.06.03 11:52:47.
