data_PCOD9398413
_publ_section_title
;
Structure prediction by ZEFSAII (Michael W. Deem and Ramdas Pophale) SiO2 
 PCOD9398413
Probable space group: P M M A
;
_chemical_formula_sum "Si O2"
_cell_formula_units_Z 56
_cell_length_a 22.300257
_cell_length_b 7.641105
_cell_length_c 14.949619
_cell_angle_alpha 90.000000
_cell_angle_beta 90.000000
_cell_angle_gamma 90.000000
_cell_volume 2547.394227
_symmetry_space_group_name_H-M "P M M A"
_symmetry_group_IT_number 51
_symmetry_cell_setting 'orthorhombic'
loop_
_space_group_symop_operation_xyz
x,y,z
1/2-x,-y,z
1/2+x,-y,-z
-x,y,-z
-x,-y,-z
1/2+x,y,-z
1/2-x,y,z
x,-y,z
loop_
_atom_site_type_symbol
_atom_site_label
_atom_site_fract_x
_atom_site_fract_y
_atom_site_fract_z
Si Si1 0.819299 0.211048 0.934027
Si Si2 0.934254 0.202024 0.627496
Si Si3 0.250000 0.787809 0.774141
Si Si4 0.383699 0.206231 0.551403
Si Si5 0.250000 0.300581 0.566221
Si Si6 0.369468 0.213629 0.883216
Si Si7 0.050506 0.214395 0.727120
Si Si8 0.817581 0.296698 0.729517
O O1 0.750000 0.251423 0.958258
O O2 0.830189 0.283911 0.835557
O O3 0.823708 0.000000 0.927217
O O4 0.861547 0.272298 0.014666
O O5 0.922769 0.282546 0.529765
O O6 0.870491 0.205805 0.676486
O O7 0.985976 0.275383 0.691448
O O8 0.952080 0.000000 0.612797
O O9 0.250000 0.716683 0.673901
O O10 0.190619 0.738150 0.828567
O O11 0.250000 0.000000 0.765910
O O12 0.313095 0.224663 0.534277
O O13 0.402996 0.270348 0.649186
O O14 0.396036 0.000000 0.553602
O O15 0.250000 0.500000 0.538203
O O16 0.425457 0.273158 0.823434
O O17 0.370177 0.000000 0.886277
O O18 0.050424 0.000000 0.732224
O O19 0.750000 0.227050 0.714866
O O20 0.817965 0.500000 0.703273
#
# Coordination Sequence:
#
# PCOD9398413 Si02
#       8
#     8   8   4   8   4   8   8   8
#     4   9  16  29  53  83 108 134 175 223 265 313
#     4  10  21  36  58  84 105 135 183 229 268 314
#     4  10  16  30  54  79 110 147 178 213 266 324
#     4  10  20  36  58  80 108 144 181 221 269 319
#     4  12  24  34  48  79 116 145 180 225 266 310
#     4   9  15  26  53  86 112 138 172 215 268 318
#     4   9  17  32  56  85 113 139 173 219 267 322
#     4  10  22  39  56  75 104 143 180 223 277 323
#
# _framework density 21.983248
#
# number of rings (size 3 to 8) (size 9 to 14) (size 15 to 20)
#    0.000    2.286    2.143    1.500    1.000    3.143 
#    0.000    2.143    0.000    6.000    0.000    0.000 
#    0.000    0.000    0.000    0.000    0.000    0.000 
#
# Total GULP energy -312632.674834 kJ/mol
# GULP energy per Si atom -5582.726336 kJ/mol
# Density = 2.193321 g / cm^3
# Si number density = 21.983248 Si / 1000 Ang^3
#
#
#
# Elastic Constant Matrix: (Units=GPa)
#
#
# Indices 1 2 3 4 5 6 
#
# 1 74.9971 -2.1908 8.2548 0.0000 0.0000 0.0000
# 2 -2.1908 39.7027 0.2384 0.0000 0.0000 0.0000
# 3 8.2548 0.2384 32.7901 0.0000 0.0000 0.0000
# 4 0.0000 0.0000 0.0000 -288.3811 0.0000 0.0000
# 5 0.0000 0.0000 0.0000 0.0000 48.3528 0.0000
# 6 0.0000 0.0000 0.0000 0.0000 0.0000 -52.0423
#
#
#
# Elastic Compliance Matrix: (Units=1/GPa)
#
#
# Indices 1 2 3 4 5 6 
#
# 1 0.013738 0.000779 -0.003464 0.000000 0.000000 0.000000
# 2 0.000779 0.025232 -0.000379 0.000000 0.000000 0.000000
# 3 -0.003464 -0.000379 0.031372 0.000000 0.000000 0.000000
# 4 0.000000 0.000000 0.000000 -0.003468 0.000000 0.000000
# 5 0.000000 0.000000 0.000000 0.000000 0.020681 0.000000
# 6 0.000000 0.000000 0.000000 0.000000 0.000000 -0.019215
#
#
# Mechanical properties :
#
#
# Convention : Reuss Voigt Hill
#
# Bulk Modulus (GPa) = 15.57325 17.78829 16.68077
# Shear Modulus (GPa) = 52.15156 -49.00160 1.57498
#
# Velocity S-wave (km/s) = 4.87594 -4.72640 0.84735
# Velocity P-wave (km/s) = 6.22891 4.65572 2.92605
#
# Compressibility (1/GPa) = 0.06421265
#
# Stress axis : x y z
#
# Youngs Moduli (GPa) = 72.79144 39.63154 31.87573
#
# Poissons Ratio (x) = -0.03087 0.11042
# Poissons Ratio (y) = -0.05669 0.01210
# Poissons Ratio (z) = 0.25216 0.01504
#
# Static dielectric constant tensor:
#      x y z
#    x 1.821980 0.000000 0.000000 
#    y 0.000000 1.868050 0.000000 
#    z 0.000000 0.000000 1.811610 
# 
# From -- ./inp_files/25890.got.cif
#   From: 2010.05.17/outbox.cif.g08.bks.cpg/sg51_13_cif.got.tgz:25890.got - 2010.06.03 11:52:47.
