data_PCOD9398064
_publ_section_title
;
Structure prediction by ZEFSAII (Michael W. Deem and Ramdas Pophale) SiO2 
 PCOD9398064
Probable space group: P B A N
;
_chemical_formula_sum "Si O2"
_cell_formula_units_Z 40
_cell_length_a 10.982181
_cell_length_b 19.117017
_cell_length_c 7.588050
_cell_angle_alpha 90.000000
_cell_angle_beta 90.000000
_cell_angle_gamma 90.000000
_cell_volume 1593.084849
_symmetry_space_group_name_H-M "P B A N"
_symmetry_group_IT_number 50
_space_group.IT_coordinate_system_code '2'
_symmetry_cell_setting 'orthorhombic'
loop_
_space_group_symop_operation_xyz
x,y,z
1/2-x,1/2-y,z
x,1/2-y,-z
1/2-x,y,-z
-x,-y,-z
1/2+x,1/2+y,-z
-x,1/2+y,z
1/2+x,-y,z
loop_
_atom_site_type_symbol
_atom_site_label
_atom_site_fract_x
_atom_site_fract_y
_atom_site_fract_z
Si Si1 0.378224 0.523420 0.607140
Si Si2 0.748648 0.670676 0.784296
Si Si3 0.516914 0.596652 0.194224
Si Si4 0.991835 0.142211 0.204938
Si Si5 0.618890 0.277148 0.699448
O O1 0.250000 0.512766 0.500000
O O2 0.500000 0.500000 0.500000
O O3 0.416791 0.478233 0.781016
O O4 0.394895 0.602732 0.673793
O O5 0.750000 0.750000 0.729703
O O6 0.873646 0.640238 0.719918
O O7 0.628337 0.631250 0.722708
O O8 0.750000 0.666976 0.000000
O O9 0.403118 0.639644 0.279461
O O10 0.492913 0.611181 0.990270
O O11 0.973002 0.225743 0.196315
O O12 0.750000 0.250000 0.762274
O O13 0.605598 0.250000 0.500000
#
# Coordination Sequence:
#
# PCOD9398064 Si02
#       5
#     8   8   8   8   8
#     4  12  28  48  70 100 148 195 238 295 370 437
#     4   9  17  36  65  99 133 165 220 296 353 406
#     4  11  23  44  71 103 135 186 245 297 357 433
#     4  11  23  43  72 102 138 185 243 299 353 434
#     4  11  25  42  66  99 143 186 234 299 372 432
#
# _framework density 25.108519000000001
#
# number of rings (size 3 to 8) (size 9 to 14) (size 15 to 20)
#    0.000    1.200    2.000    3.600    5.600    1.600 
#    0.000    3.000    0.000    0.000    0.000    0.000 
#    0.000    0.000    0.000    0.000    0.000    0.000 
#
# Total GULP energy -222868.936458 kJ/mol
# GULP energy per Si atom -5571.723411 kJ/mol
# Density = 2.505137 g / cm^3
# Si number density = 25.108519 Si / 1000 Ang^3
#
#
#
# Elastic Constant Matrix: (Units=GPa)
#
#
# Indices 1 2 3 4 5 6 
#
# 1 153.8567 16.6273 32.1793 0.0000 0.0000 0.0000
# 2 16.6273 94.0696 13.2392 0.0000 0.0000 0.0000
# 3 32.1793 13.2392 93.4485 0.0000 0.0000 0.0000
# 4 0.0000 0.0000 0.0000 26.6551 0.0000 0.0000
# 5 0.0000 0.0000 0.0000 0.0000 22.1458 0.0000
# 6 0.0000 0.0000 0.0000 0.0000 0.0000 24.5244
#
#
#
# Elastic Compliance Matrix: (Units=1/GPa)
#
#
# Indices 1 2 3 4 5 6 
#
# 1 0.007082 -0.000927 -0.002307 0.000000 0.000000 0.000000
# 2 -0.000927 0.010968 -0.001235 0.000000 0.000000 0.000000
# 3 -0.002307 -0.001235 0.011671 0.000000 0.000000 0.000000
# 4 0.000000 0.000000 0.000000 0.037516 0.000000 0.000000
# 5 0.000000 0.000000 0.000000 0.000000 0.045155 0.000000
# 6 0.000000 0.000000 0.000000 0.000000 0.000000 0.040776
#
#
# Mechanical properties :
#
#
# Convention : Reuss Voigt Hill
#
# Bulk Modulus (GPa) = 48.11726 51.71849 49.91788
# Shear Modulus (GPa) = 29.57979 33.28699 31.43339
#
# Velocity S-wave (km/s) = 3.43604 3.64500 3.54206
# Velocity P-wave (km/s) = 5.91161 6.19334 6.05411
#
# Compressibility (1/GPa) = 0.02078256
#
# Stress axis : x y z
#
# Youngs Moduli (GPa) = 141.19590 91.17392 85.68552
#
# Poissons Ratio (x) = 0.08453 0.19772
# Poissons Ratio (y) = 0.13090 0.10579
# Poissons Ratio (z) = 0.32581 0.11257
#
# Static dielectric constant tensor:
#      x y z
#    x 2.029160 0.000000 0.000000 
#    y 0.000000 0.053000 0.000000 
#    z 0.000000 0.000000 1.853630 
# 
# From -- ./inp_files/11062.got.cif
#   From: 2010.05.17/outbox.cif.g08.bks.cpg/sg50_6_cif.got.tgz:11062.got - 2010.06.03 11:33:33.
