data_PCOD9398342
_publ_section_title
;
Structure prediction by ZEFSAII (Michael W. Deem and Ramdas Pophale) SiO2 
 PCOD9398342
Probable space group: P M M A
;
_chemical_formula_sum "Si O2"
_cell_formula_units_Z 40
_cell_length_a 20.748925
_cell_length_b 11.792201
_cell_length_c 9.473455
_cell_angle_alpha 90.000000
_cell_angle_beta 90.000000
_cell_angle_gamma 90.000000
_cell_volume 2317.922283
_symmetry_space_group_name_H-M "P M M A"
_symmetry_group_IT_number 51
_symmetry_cell_setting 'orthorhombic'
loop_
_space_group_symop_operation_xyz
x,y,z
1/2-x,-y,z
1/2+x,-y,-z
-x,y,-z
-x,-y,-z
1/2+x,y,-z
1/2-x,y,z
x,-y,z
loop_
_atom_site_type_symbol
_atom_site_label
_atom_site_fract_x
_atom_site_fract_y
_atom_site_fract_z
Si Si1 0.630780 0.134631 0.637292
Si Si2 0.492808 0.260813 0.328764
Si Si3 0.750000 0.863292 0.155475
Si Si4 0.750000 0.862574 0.829736
Si Si5 0.861621 0.746425 0.331498
Si Si6 0.674126 0.500000 0.437288
Si Si7 0.551044 0.500000 0.631187
O O1 0.561108 0.167327 0.699920
O O2 0.686859 0.172451 0.743235
O O3 0.639805 0.197909 0.488004
O O4 0.635159 0.000000 0.614209
O O5 0.500000 0.260627 0.500000
O O6 0.565127 0.244574 0.275809
O O7 0.464287 0.383654 0.289390
O O8 0.811928 0.812415 0.234033
O O9 0.750000 0.000000 0.164639
O O10 0.750000 0.827424 0.991896
O O11 0.750000 0.000000 0.830266
O O12 0.841984 0.614890 0.351548
O O13 0.750000 0.500000 0.475526
O O14 0.622766 0.500000 0.566354
O O15 0.500000 0.500000 0.500000
#
# Coordination Sequence:
#
# PCOD9398342 Si02
#       7
#     8   8   4   4   8   4   4
#     4  10  19  32  54  82 108 137 175 219 267 317
#     4   9  17  29  51  78 111 136 169 217 266 309
#     4  11  23  38  53  74 106 143 180 221 268 317
#     4   9  21  39  53  68 104 150 181 213 264 319
#     4  11  20  33  56  83 107 137 176 222 263 312
#     4  12  20  30  52  84 113 139 175 213 262 314
#     4  10  14  30  48  74 115 144 168 205 266 321
#
# _framework density 17.256834000000001
#
# number of rings (size 3 to 8) (size 9 to 14) (size 15 to 20)
#    0.000    1.800    7.000    1.200    0.000    5.200 
#    0.000    1.000    0.000    8.400    0.000    2.800 
#    0.000    0.000    0.000    0.000    0.000    0.000 
#
# Total GULP energy -222947.842946 kJ/mol
# GULP energy per Si atom -5573.696074 kJ/mol
# Density = 1.721756 g / cm^3
# Si number density = 17.256834 Si / 1000 Ang^3
#
#
#
# Elastic Constant Matrix: (Units=GPa)
#
#
# Indices 1 2 3 4 5 6 
#
# 1 177.3722 44.5770 53.2757 0.0000 0.0000 0.0000
# 2 44.5770 100.6178 33.5483 0.0000 0.0000 0.0000
# 3 53.2757 33.5483 61.1688 0.0000 0.0000 0.0000
# 4 0.0000 0.0000 0.0000 -1.1780 0.0000 0.0000
# 5 0.0000 0.0000 0.0000 0.0000 -0.1284 0.0000
# 6 0.0000 0.0000 0.0000 0.0000 0.0000 32.6637
#
#
#
# Elastic Compliance Matrix: (Units=1/GPa)
#
#
# Indices 1 2 3 4 5 6 
#
# 1 0.007806 -0.001458 -0.005999 0.000000 0.000000 0.000000
# 2 -0.001458 0.012435 -0.005550 0.000000 0.000000 0.000000
# 3 -0.005999 -0.005550 0.024617 0.000000 0.000000 0.000000
# 4 0.000000 0.000000 0.000000 -0.848927 0.000000 0.000000
# 5 0.000000 0.000000 0.000000 0.000000 -7.788985 0.000000
# 6 0.000000 0.000000 0.000000 0.000000 0.000000 0.030615
#
#
# Mechanical properties :
#
#
# Convention : Reuss Voigt Hill
#
# Bulk Modulus (GPa) = 53.06812 66.88453 59.97633
# Shear Modulus (GPa) = -0.58616 20.12201 9.76793
#
# Velocity S-wave (km/s) = -0.58344 3.41842 2.38172
# Velocity P-wave (km/s) = 5.51043 7.37721 6.51107
#
# Compressibility (1/GPa) = 0.01884370
#
# Stress axis : x y z
#
# Youngs Moduli (GPa) = 128.10251 80.41729 40.62193
#
# Poissons Ratio (x) = 0.11726 0.24370
# Poissons Ratio (y) = 0.18679 0.22546
# Poissons Ratio (z) = 0.76851 0.44632
#
# Static dielectric constant tensor:
#      x y z
#    x 1.617190 0.000000 0.000000 
#    y 0.000000 1.607100 0.000000 
#    z 0.000000 0.000000 1.554880 
# 
# From -- ./inp_files/10736.got.cif
#   From: 2010.05.17/outbox.cif.g08.bks.cpg/sg51_6_cif.got.tgz:10736.got - 2010.06.03 11:52:47.
