data_PCOD9398832
_publ_section_title
;
Structure prediction by ZEFSAII (Michael W. Deem and Ramdas Pophale) SiO2 
 PCOD9398832
Probable space group: P M M A
;
_chemical_formula_sum "Si O2"
_cell_formula_units_Z 64
_cell_length_a 15.706316
_cell_length_b 14.880147
_cell_length_c 16.086617
_cell_angle_alpha 90.000000
_cell_angle_beta 90.000000
_cell_angle_gamma 90.000000
_cell_volume 3759.640112
_symmetry_space_group_name_H-M "P M M A"
_symmetry_group_IT_number 51
_symmetry_cell_setting 'orthorhombic'
loop_
_space_group_symop_operation_xyz
x,y,z
1/2-x,-y,z
1/2+x,-y,-z
-x,y,-z
-x,-y,-z
1/2+x,y,-z
1/2-x,y,z
x,-y,z
loop_
_atom_site_type_symbol
_atom_site_label
_atom_site_fract_x
_atom_site_fract_y
_atom_site_fract_z
Si Si1 0.353731 0.099942 0.332834
Si Si2 0.352932 0.603633 0.560203
Si Si3 0.647428 0.288795 0.924354
Si Si4 0.353605 0.099791 0.138227
Si Si5 0.907601 0.396570 0.261413
Si Si6 0.650551 0.282628 0.594207
Si Si7 0.889725 0.603226 0.755667
Si Si8 0.147608 0.396697 0.916108
O O1 0.250000 0.268272 0.425523
O O2 0.376335 0.111227 0.235572
O O3 0.386537 0.184705 0.384712
O O4 0.380370 0.000000 0.359937
O O5 0.250000 0.600577 0.556549
O O6 0.383551 0.500000 0.553128
O O7 0.378622 0.641725 0.650315
O O8 0.386026 0.662353 0.483320
O O9 0.750000 0.283958 0.931450
O O10 0.615701 0.187020 0.911249
O O11 0.629281 0.346799 0.841904
O O12 0.615059 0.338589 0.006679
O O13 0.250000 0.099948 0.135145
O O14 0.381547 0.000000 0.111026
O O15 0.874463 0.500000 0.261985
O O16 0.875489 0.357615 0.174244
O O17 0.008960 0.398089 0.257425
O O18 0.750000 0.101789 0.664901
O O19 0.646712 0.342237 0.677657
O O20 0.859178 0.500000 0.757747
O O21 0.250000 0.400648 0.921405
O O22 0.115267 0.500000 0.921498
#
# Coordination Sequence:
#
# PCOD9398832 Si02
#       8
#     8   8   8   8   8   8   8   8
#     4   8  13  23  40  62  88 114 140 174 212 252
#     4   9  17  30  48  66  85 112 147 186 220 250
#     4  10  18  28  43  67  93 116 143 174 215 265
#     4   8  13  23  40  62  88 114 140 174 212 252
#     4   9  19  33  45  60  83 116 158 190 210 242
#     4  10  18  28  43  67  93 116 143 174 215 265
#     4  11  21  29  40  61  93 125 145 169 213 264
#     4   9  17  30  48  66  85 112 147 186 220 250
#
# _framework density 17.022905999999999
#
# number of rings (size 3 to 8) (size 9 to 14) (size 15 to 20)
#    0.000    2.750    1.250    2.250    0.000    4.500 
#    0.000    3.750    0.000    0.000    0.000    6.125 
#    0.000    6.000    0.000    0.000    0.000    0.000 
#
# Total GULP energy -356451.231969 kJ/mol
# GULP energy per Si atom -5569.550500 kJ/mol
# Density = 1.698416 g / cm^3
# Si number density = 17.022906 Si / 1000 Ang^3
#
#
#
# Elastic Constant Matrix: (Units=GPa)
#
#
# Indices 1 2 3 4 5 6 
#
# 1 8.0198 1.4413 -4.1907 0.0000 0.0000 0.0000
# 2 1.4413 124.8268 63.9428 0.0000 0.0000 0.0000
# 3 -4.1907 63.9428 122.8089 0.0000 0.0000 0.0000
# 4 0.0000 0.0000 0.0000 4.1809 0.0000 0.0000
# 5 0.0000 0.0000 0.0000 0.0000 -3.7049 0.0000
# 6 0.0000 0.0000 0.0000 0.0000 0.0000 5.0139
#
#
#
# Elastic Compliance Matrix: (Units=1/GPa)
#
#
# Indices 1 2 3 4 5 6 
#
# 1 0.129309 -0.005119 0.007078 0.000000 0.000000 0.000000
# 2 -0.005119 0.011128 -0.005968 0.000000 0.000000 0.000000
# 3 0.007078 -0.005968 0.011492 0.000000 0.000000 0.000000
# 4 0.000000 0.000000 0.000000 0.239186 0.000000 0.000000
# 5 0.000000 0.000000 0.000000 0.000000 -0.269916 0.000000
# 6 0.000000 0.000000 0.000000 0.000000 0.000000 0.199447
#
#
# Mechanical properties :
#
#
# Convention : Reuss Voigt Hill
#
# Bulk Modulus (GPa) = 6.94878 42.00469 24.47674
# Shear Modulus (GPa) = 13.27549 14.06211 13.66880
#
# Velocity S-wave (km/s) = 2.79563 2.87726 2.83674
# Velocity P-wave (km/s) = 3.80941 5.98056 5.01392
#
# Compressibility (1/GPa) = 0.14391013
#
# Stress axis : x y z
#
# Youngs Moduli (GPa) = 7.73338 89.86705 87.01837
#
# Poissons Ratio (x) = 0.45999 -0.61588
# Poissons Ratio (y) = 0.03958 0.51936
# Poissons Ratio (z) = -0.05473 0.53637
#
# Static dielectric constant tensor:
#      x y z
#    x 1.573300 0.000000 0.000000 
#    y 0.000000 1.603520 0.000000 
#    z 0.000000 0.000000 1.587630 
# 
# From -- ./inp_files/25330.got.cif
#   From: 2010.05.17/outbox.cif.g08.bks.cpg/sg51_13_cif.got.tgz:25330.got - 2010.06.03 11:52:47.
