data_PCOD9398073
_publ_section_title
;
Structure prediction by ZEFSAII (Michael W. Deem and Ramdas Pophale) SiO2 
 PCOD9398073
Probable space group: P B A N
;
_chemical_formula_sum "Si O2"
_cell_formula_units_Z 56
_cell_length_a 9.862045
_cell_length_b 14.272242
_cell_length_c 20.404799
_cell_angle_alpha 90.000000
_cell_angle_beta 90.000000
_cell_angle_gamma 90.000000
_cell_volume 2872.046730
_symmetry_space_group_name_H-M "P B A N"
_symmetry_group_IT_number 50
_space_group.IT_coordinate_system_code '2'
_symmetry_cell_setting 'orthorhombic'
loop_
_space_group_symop_operation_xyz
x,y,z
1/2-x,1/2-y,z
x,1/2-y,-z
1/2-x,y,-z
-x,-y,-z
1/2+x,1/2+y,-z
-x,1/2+y,z
1/2+x,-y,z
loop_
_atom_site_type_symbol
_atom_site_label
_atom_site_fract_x
_atom_site_fract_y
_atom_site_fract_z
Si Si1 0.746216 0.952988 0.164492
Si Si2 0.904504 0.360464 0.639033
Si Si3 0.406509 0.635722 0.497480
Si Si4 0.076381 0.645887 0.644804
Si Si5 0.482954 0.250000 0.000000
Si Si6 0.250000 0.250000 0.897118
Si Si7 0.498794 0.997156 0.249283
Si Si8 0.614654 0.056750 0.039898
O O1 0.774935 0.846558 0.141470
O O2 0.889818 0.992327 0.190492
O O3 0.641247 0.958084 0.223892
O O4 0.664321 0.014462 0.109618
O O5 0.962679 0.392421 0.568360
O O6 0.955541 0.255302 0.650942
O O7 0.740247 0.359113 0.638447
O O8 0.943298 0.425276 0.698106
O O9 0.402669 0.750000 0.500000
O O10 0.250000 0.603251 0.500000
O O11 0.472106 0.611698 0.427544
O O12 0.024489 0.590797 0.708031
O O13 0.378783 0.222400 0.942265
O O14 0.568616 0.334940 0.968483
O O15 0.750000 0.044677 0.000000
O O16 0.500000 0.000000 0.000000
#
# Coordination Sequence:
#
# PCOD9398073 Si02
#       8
#     8   8   8   8   4   4   8   8
#     4  12  27  43  65  95 133 171 212 254 312 389
#     4   9  18  36  59  85 121 164 214 268 315 372
#     4   7  12  27  56  85 111 154 214 270 314 361
#     4   9  18  36  59  86 120 165 216 263 315 377
#     4  11  23  44  76 104 122 162 208 264 322 368
#     4  11  24  44  70  98 130 171 204 252 330 381
#     4  12  24  41  58  92 130 173 207 259 312 385
#     4  12  24  47  72 100 131 162 211 269 311 370
#
# _framework density 19.498289
#
# number of rings (size 3 to 8) (size 9 to 14) (size 15 to 20)
#    0.000    1.714    2.857    4.500    2.000    0.571 
#    0.000    0.000    0.000    0.000    0.000    3.000 
#    0.000    0.000    0.000    0.000    0.000    0.000 
#
# Total GULP energy -311858.260628 kJ/mol
# GULP energy per Si atom -5568.897511 kJ/mol
# Density = 1.945391 g / cm^3
# Si number density = 19.498289 Si / 1000 Ang^3
#
#
#
# Elastic Constant Matrix: (Units=GPa)
#
#
# Indices 1 2 3 4 5 6 
#
# 1 67.2761 12.6910 16.1396 0.0000 0.0000 0.0000
# 2 12.6910 97.5953 39.0502 0.0000 0.0000 0.0000
# 3 16.1396 39.0502 88.0329 0.0000 0.0000 0.0000
# 4 0.0000 0.0000 0.0000 34.1025 0.0000 0.0000
# 5 0.0000 0.0000 0.0000 0.0000 43.3700 0.0000
# 6 0.0000 0.0000 0.0000 0.0000 0.0000 23.4432
#
#
#
# Elastic Compliance Matrix: (Units=1/GPa)
#
#
# Indices 1 2 3 4 5 6 
#
# 1 0.015641 -0.001078 -0.002389 0.000000 0.000000 0.000000
# 2 -0.001078 0.012532 -0.005361 0.000000 0.000000 0.000000
# 3 -0.002389 -0.005361 0.014176 0.000000 0.000000 0.000000
# 4 0.000000 0.000000 0.000000 0.029323 0.000000 0.000000
# 5 0.000000 0.000000 0.000000 0.000000 0.023057 0.000000
# 6 0.000000 0.000000 0.000000 0.000000 0.000000 0.042656
#
#
# Mechanical properties :
#
#
# Convention : Reuss Voigt Hill
#
# Bulk Modulus (GPa) = 40.50055 43.18511 41.84283
# Shear Modulus (GPa) = 30.62365 32.51804 31.57085
#
# Velocity S-wave (km/s) = 3.96736 4.08823 4.02824
# Velocity P-wave (km/s) = 6.46552 6.66941 6.56826
#
# Compressibility (1/GPa) = 0.02469102
#
# Stress axis : x y z
#
# Youngs Moduli (GPa) = 63.93591 79.79740 70.54350
#
# Poissons Ratio (x) = 0.08601 0.16856
# Poissons Ratio (y) = 0.06891 0.37821
# Poissons Ratio (z) = 0.15277 0.42782
#
# Static dielectric constant tensor:
#      x y z
#    x 1.663190 0.000000 0.000000 
#    y 0.000000 1.973340 0.000000 
#    z 0.000000 0.000000 1.710680 
# 
# From -- ./inp_files/30687.got.cif
#   From: 2010.05.17/outbox.cif.g08.bks.cpg/sg50_16_cif.got.tgz:30687.got - 2010.06.03 11:33:33.
