data_PCOD9398665
_publ_section_title
;
Structure prediction by ZEFSAII (Michael W. Deem and Ramdas Pophale) SiO2 
 PCOD9398665
Probable space group: P M M A
;
_chemical_formula_sum "Si O2"
_cell_formula_units_Z 56
_cell_length_a 9.026647
_cell_length_b 22.030580
_cell_length_c 18.590665
_cell_angle_alpha 90.000000
_cell_angle_beta 90.000000
_cell_angle_gamma 90.000000
_cell_volume 3696.981822
_symmetry_space_group_name_H-M "P M M A"
_symmetry_group_IT_number 51
_symmetry_cell_setting 'orthorhombic'
loop_
_space_group_symop_operation_xyz
x,y,z
1/2-x,-y,z
1/2+x,-y,-z
-x,y,-z
-x,-y,-z
1/2+x,y,-z
1/2-x,y,z
x,-y,z
loop_
_atom_site_type_symbol
_atom_site_label
_atom_site_fract_x
_atom_site_fract_y
_atom_site_fract_z
Si Si1 0.928202 0.569450 0.077176
Si Si2 0.072814 0.182567 0.577655
Si Si3 0.072102 0.317144 0.827953
Si Si4 0.080837 0.869594 0.200356
Si Si5 0.071692 0.069256 0.342657
Si Si6 0.579829 0.747461 0.701851
Si Si7 0.425962 0.802042 0.922321
O O1 0.750000 0.572586 0.069806
O O2 0.967770 0.500000 0.096482
O O3 0.972092 0.619643 0.135402
O O4 0.000000 0.583163 0.000000
O O5 0.250000 0.182258 0.573863
O O6 0.000000 0.191004 0.500000
O O7 0.013725 0.118652 0.610151
O O8 0.014796 0.234171 0.632463
O O9 0.250000 0.316271 0.817413
O O10 0.036731 0.262169 0.883392
O O11 0.992334 0.302925 0.752987
O O12 0.250000 0.881609 0.177803
O O13 0.033074 0.919772 0.258478
O O14 0.080462 0.808299 0.248760
O O15 0.982545 0.854459 0.131584
O O16 0.250000 0.080257 0.348573
O O17 0.041735 0.000000 0.363596
O O18 0.750000 0.733924 0.683125
O O19 0.250000 0.804951 0.929560
O O20 0.500000 0.805479 0.000000
#
# Coordination Sequence:
#
# PCOD9398665 Si02
#       7
#     8   8   8   8   8   8   8
#     4   9  17  28  41  59  88 126 164 199 233 268
#     4  11  21  33  49  69  95 122 146 175 213 257
#     4   9  17  28  42  62  87 116 151 188 226 266
#     4   8  15  28  44  61  82 107 135 171 216 262
#     4   9  18  33  51  69  89 115 147 179 212 255
#     4   9  17  30  47  66  87 113 145 180 221 265
#     4  10  18  26  39  59  82 107 138 180 225 267
#
# _framework density 15.147491
#
# number of rings (size 3 to 8) (size 9 to 14) (size 15 to 20)
#    0.000    2.714    0.000    3.429    0.000    5.143 
#    0.000    0.000    0.000    0.429    0.000    0.000 
#    0.000    0.571    0.000    1.571    0.000    2.286 
#
# Total GULP energy -312024.363786 kJ/mol
# GULP energy per Si atom -5571.863639 kJ/mol
# Density = 1.511301 g / cm^3
# Si number density = 15.147491 Si / 1000 Ang^3
#
#
#
# Elastic Constant Matrix: (Units=GPa)
#
#
# Indices 1 2 3 4 5 6 
#
# 1 71.1606 31.0241 66.4626 0.0000 0.0000 0.0000
# 2 31.0241 62.6980 49.9002 0.0000 0.0000 0.0000
# 3 66.4626 49.9002 123.3914 0.0000 0.0000 0.0000
# 4 0.0000 0.0000 0.0000 18.0274 0.0000 0.0000
# 5 0.0000 0.0000 0.0000 0.0000 27.2023 0.0000
# 6 0.0000 0.0000 0.0000 0.0000 0.0000 15.7219
#
#
#
# Elastic Compliance Matrix: (Units=1/GPa)
#
#
# Indices 1 2 3 4 5 6 
#
# 1 0.028606 -0.002790 -0.014280 0.000000 0.000000 0.000000
# 2 -0.002790 0.023791 -0.008119 0.000000 0.000000 0.000000
# 3 -0.014280 -0.008119 0.019079 0.000000 0.000000 0.000000
# 4 0.000000 0.000000 0.000000 0.055471 0.000000 0.000000
# 5 0.000000 0.000000 0.000000 0.000000 0.036762 0.000000
# 6 0.000000 0.000000 0.000000 0.000000 0.000000 0.063606
#
#
# Mechanical properties :
#
#
# Convention : Reuss Voigt Hill
#
# Bulk Modulus (GPa) = 47.39356 61.33600 54.36478
# Shear Modulus (GPa) = 17.56076 19.51452 18.53764
#
# Velocity S-wave (km/s) = 3.40857 3.59318 3.50209
# Velocity P-wave (km/s) = 6.84449 7.60231 7.23333
#
# Compressibility (1/GPa) = 0.02109991
#
# Stress axis : x y z
#
# Youngs Moduli (GPa) = 34.95740 42.03187 52.41276
#
# Poissons Ratio (x) = 0.11725 0.74846
# Poissons Ratio (y) = 0.09752 0.42553
# Poissons Ratio (z) = 0.49920 0.34125
#
# Static dielectric constant tensor:
#      x y z
#    x 1.508010 0.000000 0.000000 
#    y 0.000000 1.503170 0.000000 
#    z 0.000000 0.000000 1.491610 
# 
# From -- ./inp_files/28174.got.cif
#   From: 2010.05.17/outbox.cif.g08.bks.cpg/sg51_15_cif.got.tgz:28174.got - 2010.06.03 11:52:47.
