data_PCOD9398001
_publ_section_title
;
Structure prediction by ZEFSAII (Michael W. Deem and Ramdas Pophale) SiO2 
 PCOD9398001
Probable space group: P B A N
;
_chemical_formula_sum "Si O2"
_cell_formula_units_Z 40
_cell_length_a 9.011512
_cell_length_b 13.876007
_cell_length_c 13.904740
_cell_angle_alpha 90.000000
_cell_angle_beta 90.000000
_cell_angle_gamma 90.000000
_cell_volume 1738.701578
_symmetry_space_group_name_H-M "P B A N"
_symmetry_group_IT_number 50
_space_group.IT_coordinate_system_code '2'
_symmetry_cell_setting 'orthorhombic'
loop_
_space_group_symop_operation_xyz
x,y,z
1/2-x,1/2-y,z
x,1/2-y,-z
1/2-x,y,-z
-x,-y,-z
1/2+x,1/2+y,-z
-x,1/2+y,z
1/2+x,-y,z
loop_
_atom_site_type_symbol
_atom_site_label
_atom_site_fract_x
_atom_site_fract_y
_atom_site_fract_z
Si Si1 0.871153 0.967206 0.196087
Si Si2 0.613760 0.811870 0.656889
Si Si3 0.367886 0.534551 0.069106
Si Si4 0.395434 0.819182 0.274123
Si Si5 0.924555 0.102440 0.487750
O O1 0.835722 0.911802 0.294228
O O2 0.030892 0.930354 0.157867
O O3 0.739602 0.955343 0.118580
O O4 0.878809 0.083354 0.212524
O O5 0.750000 0.750000 0.618800
O O6 0.536779 0.749324 0.741709
O O7 0.497780 0.835497 0.572820
O O8 0.250000 0.590645 0.000000
O O9 0.500000 0.500000 0.000000
O O10 0.250000 0.750000 0.272134
O O11 0.436808 0.858032 0.380437
O O12 0.750000 0.094814 0.500000
O O13 0.000000 0.000000 0.500000
#
# Coordination Sequence:
#
# PCOD9398001 Si02
#       5
#     8   8   8   8   8
#     4  11  22  43  72 100 138 176 235 291 346 435
#     4  12  27  43  69 104 140 188 243 295 354 415
#     4   9  20  40  72 102 131 179 219 279 372 435
#     4  12  25  43  68  97 143 189 237 293 353 414
#     4  12  27  46  68  97 147 194 242 298 354 409
#
# _framework density 23.005671
#
# number of rings (size 3 to 8) (size 9 to 14) (size 15 to 20)
#    0.000    0.800    4.000    3.000    2.800    0.800 
#    0.000    0.000    0.000   84.000    0.000    0.000 
#    0.000    0.000    0.000    0.000    0.000    0.000 
#
# Total GULP energy -223105.326923 kJ/mol
# GULP energy per Si atom -5577.633173 kJ/mol
# Density = 2.295331 g / cm^3
# Si number density = 23.005671 Si / 1000 Ang^3
#
#
#
# Elastic Constant Matrix: (Units=GPa)
#
#
# Indices 1 2 3 4 5 6 
#
# 1 173.1972 38.2044 37.8476 0.0000 0.0000 0.0000
# 2 38.2044 115.9113 33.5422 0.0000 0.0000 0.0000
# 3 37.8476 33.5422 89.6486 0.0000 0.0000 0.0000
# 4 0.0000 0.0000 0.0000 1.7814 0.0000 0.0000
# 5 0.0000 0.0000 0.0000 0.0000 40.8537 0.0000
# 6 0.0000 0.0000 0.0000 0.0000 0.0000 35.9563
#
#
#
# Elastic Compliance Matrix: (Units=1/GPa)
#
#
# Indices 1 2 3 4 5 6 
#
# 1 0.006595 -0.001534 -0.002210 0.000000 0.000000 0.000000
# 2 -0.001534 0.010032 -0.003106 0.000000 0.000000 0.000000
# 3 -0.002210 -0.003106 0.013250 0.000000 0.000000 0.000000
# 4 0.000000 0.000000 0.000000 0.561349 0.000000 0.000000
# 5 0.000000 0.000000 0.000000 0.000000 0.024478 0.000000
# 6 0.000000 0.000000 0.000000 0.000000 0.000000 0.027812
#
#
# Mechanical properties :
#
#
# Convention : Reuss Voigt Hill
#
# Bulk Modulus (GPa) = 61.81874 66.43840 64.12857
# Shear Modulus (GPa) = 7.54595 33.66246 20.60420
#
# Velocity S-wave (km/s) = 1.81305 3.82936 2.99593
# Velocity P-wave (km/s) = 5.59574 6.96375 6.31689
#
# Compressibility (1/GPa) = 0.01617632
#
# Stress axis : x y z
#
# Youngs Moduli (GPa) = 151.62578 99.68436 75.47270
#
# Poissons Ratio (x) = 0.15293 0.16682
# Poissons Ratio (y) = 0.23262 0.23439
# Poissons Ratio (z) = 0.33514 0.30959
#
# Static dielectric constant tensor:
#      x y z
#    x 1.964500 0.000000 0.000000 
#    y 0.000000 1.938850 0.000000 
#    z 0.000000 0.000000 2.017350 
# 
# From -- ./inp_files/24645.got.cif
#   From: 2010.05.17/outbox.cif.g08.bks.cpg/sg50_13_cif.got.tgz:24645.got - 2010.06.03 11:33:33.
