data_PCOD9398255
_publ_section_title
;
Structure prediction by ZEFSAII (Michael W. Deem and Ramdas Pophale) SiO2 
 PCOD9398255
Probable space group: P B A N
;
_chemical_formula_sum "Si O2"
_cell_formula_units_Z 32
_cell_length_a 19.606445
_cell_length_b 8.307678
_cell_length_c 8.251990
_cell_angle_alpha 90.000000
_cell_angle_beta 90.000000
_cell_angle_gamma 90.000000
_cell_volume 1344.117401
_symmetry_space_group_name_H-M "P B A N"
_symmetry_group_IT_number 50
_space_group.IT_coordinate_system_code '2'
_symmetry_cell_setting 'orthorhombic'
loop_
_space_group_symop_operation_xyz
x,y,z
1/2-x,1/2-y,z
x,1/2-y,-z
1/2-x,y,-z
-x,-y,-z
1/2+x,1/2+y,-z
-x,1/2+y,z
1/2+x,-y,z
loop_
_atom_site_type_symbol
_atom_site_label
_atom_site_fract_x
_atom_site_fract_y
_atom_site_fract_z
Si Si1 0.956776 0.885028 0.119599
Si Si2 0.445722 0.898805 0.603268
Si Si3 0.178690 0.557866 0.793040
Si Si4 0.673027 0.444158 0.180281
O O1 0.012419 0.822929 0.246252
O O2 0.896890 0.968577 0.222410
O O3 0.928564 0.750000 0.000000
O O4 0.000000 0.000000 0.000000
O O5 0.418511 0.750000 0.500000
O O6 0.383475 0.999258 0.681701
O O7 0.500000 0.000000 0.500000
O O8 0.254590 0.500022 0.747710
O O9 0.173289 0.753225 0.787536
O O10 0.172871 0.528056 0.985204
#
# Coordination Sequence:
#
# PCOD9398255 Si02
#       4
#     8   8   8   8
#     4  12  23  40  68  98 134 180 235 282 328 405
#     4  12  25  40  62  96 139 178 219 277 352 410
#     4   9  18  37  64  95 126 165 221 281 333 391
#     4   9  18  36  67  97 120 161 232 285 317 388
#
# _framework density 23.807442000000002
#
# number of rings (size 3 to 8) (size 9 to 14) (size 15 to 20)
#    0.000    1.500    2.500    6.000    0.000    0.000 
#    0.000   11.250    0.000    1.500    0.000    0.000 
#    0.000    0.000    0.000    0.000    0.000    0.000 
#
# Total GULP energy -178765.315814 kJ/mol
# GULP energy per Si atom -5586.416119 kJ/mol
# Density = 2.375326 g / cm^3
# Si number density = 23.807442 Si / 1000 Ang^3
#
#
#
# Elastic Constant Matrix: (Units=GPa)
#
#
# Indices 1 2 3 4 5 6 
#
# 1 206.9860 27.0274 49.7401 0.0000 0.0000 0.0000
# 2 27.0274 40.9574 8.8810 0.0000 0.0000 0.0000
# 3 49.7401 8.8810 86.3476 0.0000 0.0000 0.0000
# 4 0.0000 0.0000 0.0000 29.1043 0.0000 0.0000
# 5 0.0000 0.0000 0.0000 0.0000 47.8004 0.0000
# 6 0.0000 0.0000 0.0000 0.0000 0.0000 31.0949
#
#
#
# Elastic Compliance Matrix: (Units=1/GPa)
#
#
# Indices 1 2 3 4 5 6 
#
# 1 0.006012 -0.003289 -0.003125 0.000000 0.000000 0.000000
# 2 -0.003289 0.026773 -0.000859 0.000000 0.000000 0.000000
# 3 -0.003125 -0.000859 0.013469 0.000000 0.000000 0.000000
# 4 0.000000 0.000000 0.000000 0.034359 0.000000 0.000000
# 5 0.000000 0.000000 0.000000 0.000000 0.020920 0.000000
# 6 0.000000 0.000000 0.000000 0.000000 0.000000 0.032160
#
#
# Mechanical properties :
#
#
# Convention : Reuss Voigt Hill
#
# Bulk Modulus (GPa) = 31.53794 56.17644 43.85719
# Shear Modulus (GPa) = 31.48465 38.17611 34.83038
#
# Velocity S-wave (km/s) = 3.64052 4.00876 3.82907
# Velocity P-wave (km/s) = 5.56301 6.71374 6.16528
#
# Compressibility (1/GPa) = 0.03170784
#
# Stress axis : x y z
#
# Youngs Moduli (GPa) = 166.34379 37.35171 74.24258
#
# Poissons Ratio (x) = 0.12287 0.23198
# Poissons Ratio (y) = 0.54719 0.06375
# Poissons Ratio (z) = 0.51977 0.03207
#
# Static dielectric constant tensor:
#      x y z
#    x 2.003500 0.000000 0.000000 
#    y 0.000000 1.932580 0.000000 
#    z 0.000000 0.000000 1.963150 
# 
# From -- ./inp_files/9039.got.cif
#   From: 2010.05.17/outbox.cif.g08.bks.cpg/sg50_5_cif.got.tgz:9039.got - 2010.06.03 11:33:33.
