data_PCOD9398504
_publ_section_title
;
Structure prediction by ZEFSAII (Michael W. Deem and Ramdas Pophale) SiO2 
 PCOD9398504
Probable space group: P M M A
;
_chemical_formula_sum "Si O2"
_cell_formula_units_Z 64
_cell_length_a 22.874459
_cell_length_b 8.943057
_cell_length_c 20.800469
_cell_angle_alpha 90.000000
_cell_angle_beta 90.000000
_cell_angle_gamma 90.000000
_cell_volume 4255.101828
_symmetry_space_group_name_H-M "P M M A"
_symmetry_group_IT_number 51
_symmetry_cell_setting 'orthorhombic'
loop_
_space_group_symop_operation_xyz
x,y,z
1/2-x,-y,z
1/2+x,-y,-z
-x,y,-z
-x,-y,-z
1/2+x,y,-z
1/2-x,y,z
x,-y,z
loop_
_atom_site_type_symbol
_atom_site_label
_atom_site_fract_x
_atom_site_fract_y
_atom_site_fract_z
Si Si1 0.110957 0.178782 0.745859
Si Si2 0.082983 0.819139 0.967540
Si Si3 0.035102 0.679300 0.090690
Si Si4 0.525924 0.822487 0.775185
Si Si5 0.569966 0.172478 0.514916
Si Si6 0.547484 0.327668 0.644195
Si Si7 0.407780 0.327986 0.614428
Si Si8 0.183602 0.181921 0.869217
O O1 0.120785 0.253524 0.676896
O O2 0.153777 0.230967 0.802412
O O3 0.043896 0.207391 0.767540
O O4 0.116476 0.000000 0.738756
O O5 0.141003 0.779169 0.928018
O O6 0.027386 0.751269 0.929574
O O7 0.077233 0.000000 0.970218
O O8 0.079306 0.748188 0.038236
O O9 0.032666 0.500000 0.085923
O O10 0.047655 0.733426 0.162708
O O11 0.554858 0.767247 0.708962
O O12 0.533220 0.000000 0.783905
O O13 0.500000 0.177470 0.500000
O O14 0.578290 0.260714 0.581278
O O15 0.600610 0.243337 0.452749
O O16 0.586095 0.000000 0.522667
O O17 0.563478 0.500000 0.654505
O O18 0.477781 0.323318 0.628564
O O19 0.390615 0.500000 0.608302
O O20 0.250000 0.234421 0.875930
O O21 0.184369 0.000000 0.867168
#
# Coordination Sequence:
#
# PCOD9398504 Si02
#       8
#     8   8   8   8   8   8   8   8
#     4   9  16  27  41  58  78 103 137 175 211 253
#     4  10  18  31  47  64  83 108 140 176 216 263
#     4  11  20  29  43  63  86 111 139 178 219 259
#     4  10  17  27  41  59  80 109 142 175 212 254
#     4   9  15  23  34  49  70 101 137 171 201 238
#     4   9  16  24  34  52  77 105 134 169 207 246
#     4   9  16  24  35  51  72 101 134 172 208 241
#     4   9  17  30  48  67  85 108 141 181 221 261
#
# _framework density 15.040768
#
# number of rings (size 3 to 8) (size 9 to 14) (size 15 to 20)
#    0.000    2.500    1.250    3.750    0.000    5.000 
#    0.000    0.000    0.000    3.375    0.000    0.000 
#    0.000    0.000    0.000    1.125    0.000   23.375 
#
# Total GULP energy -356573.194478 kJ/mol
# GULP energy per Si atom -5571.456164 kJ/mol
# Density = 1.500653 g / cm^3
# Si number density = 15.040768 Si / 1000 Ang^3
#
#
#
# Elastic Constant Matrix: (Units=GPa)
#
#
# Indices 1 2 3 4 5 6 
#
# 1 45.5902 23.2099 42.8730 0.0000 0.0000 0.0000
# 2 23.2099 78.4094 56.3257 0.0000 0.0000 0.0000
# 3 42.8730 56.3257 138.7183 0.0000 0.0000 0.0000
# 4 0.0000 0.0000 0.0000 22.2211 0.0000 0.0000
# 5 0.0000 0.0000 0.0000 0.0000 9.4801 0.0000
# 6 0.0000 0.0000 0.0000 0.0000 0.0000 2.9112
#
#
#
# Elastic Compliance Matrix: (Units=1/GPa)
#
#
# Indices 1 2 3 4 5 6 
#
# 1 0.031512 -0.003292 -0.008403 0.000000 0.000000 0.000000
# 2 -0.003292 0.018349 -0.006433 0.000000 0.000000 0.000000
# 3 -0.008403 -0.006433 0.012418 0.000000 0.000000 0.000000
# 4 0.000000 0.000000 0.000000 0.045002 0.000000 0.000000
# 5 0.000000 0.000000 0.000000 0.000000 0.105484 0.000000
# 6 0.000000 0.000000 0.000000 0.000000 0.000000 0.343506
#
#
# Mechanical properties :
#
#
# Convention : Reuss Voigt Hill
#
# Bulk Modulus (GPa) = 38.42590 56.39278 47.40934
# Shear Modulus (GPa) = 8.31666 16.27642 12.29654
#
# Velocity S-wave (km/s) = 2.35402 3.29318 2.86238
# Velocity P-wave (km/s) = 5.74385 7.21351 6.52022
#
# Compressibility (1/GPa) = 0.02602412
#
# Stress axis : x y z
#
# Youngs Moduli (GPa) = 31.73359 54.49789 80.52799
#
# Poissons Ratio (x) = 0.17940 0.67666
# Poissons Ratio (y) = 0.10446 0.51806
# Poissons Ratio (z) = 0.26665 0.35060
#
# Static dielectric constant tensor:
#      x y z
#    x 1.469660 0.000000 0.000000 
#    y 0.000000 1.500920 0.000000 
#    z 0.000000 0.000000 1.512820 
# 
# From -- ./inp_files/34122.got.cif
#   From: 2010.05.17/outbox.cif.g08.bks.cpg/sg51_18_cif.got.tgz:34122.got - 2010.06.03 11:52:47.
