data_PCOD9398384
_publ_section_title
;
Structure prediction by ZEFSAII (Michael W. Deem and Ramdas Pophale) SiO2 
 PCOD9398384
Probable space group: P M M A
;
_chemical_formula_sum "Si O2"
_cell_formula_units_Z 48
_cell_length_a 8.612830
_cell_length_b 21.441371
_cell_length_c 20.234549
_cell_angle_alpha 90.000000
_cell_angle_beta 90.000000
_cell_angle_gamma 90.000000
_cell_volume 3736.732039
_symmetry_space_group_name_H-M "P M M A"
_symmetry_group_IT_number 51
_symmetry_cell_setting 'orthorhombic'
loop_
_space_group_symop_operation_xyz
x,y,z
1/2-x,-y,z
1/2+x,-y,-z
-x,y,-z
-x,-y,-z
1/2+x,y,-z
1/2-x,y,z
x,-y,z
loop_
_atom_site_type_symbol
_atom_site_label
_atom_site_fract_x
_atom_site_fract_y
_atom_site_fract_z
Si Si1 0.564208 0.371201 0.075238
Si Si2 0.936694 0.927324 0.292987
Si Si3 0.564245 0.759743 0.925109
Si Si4 0.435692 0.500000 0.075510
Si Si5 0.063609 0.000000 0.074335
Si Si6 0.065035 0.073249 0.431498
Si Si7 0.937253 0.879141 0.150772
O O1 0.750000 0.372576 0.074268
O O2 0.502487 0.305664 0.102637
O O3 0.498717 0.435355 0.105665
O O4 0.500000 0.370485 0.000000
O O5 0.750000 0.927822 0.297439
O O6 0.980434 0.889498 0.227530
O O7 0.003280 0.901737 0.361805
O O8 0.987334 0.000000 0.284446
O O9 0.750000 0.756703 0.928276
O O10 0.507875 0.817351 0.881276
O O11 0.500000 0.768034 0.000000
O O12 0.250000 0.500000 0.073751
O O13 0.500000 0.500000 0.000000
O O14 0.999899 0.938955 0.111254
O O15 0.250000 0.000000 0.074320
O O16 0.000000 0.000000 0.000000
O O17 0.250000 0.075813 0.432835
O O18 0.000000 0.100369 0.500000
O O19 0.015779 0.000000 0.430630
O O20 0.750000 0.877586 0.145846
#
# Coordination Sequence:
#
# PCOD9398384 Si02
#       7
#     8   8   8   4   4   8   8
#     4  10  17  27  41  58  77  99 123 152 188 231
#     4   9  17  30  45  59  76  98 121 152 192 234
#     4  11  21  33  45  59  76  99 128 163 202 242
#     4  10  16  24  38  58  80 100 120 148 183 226
#     4  12  24  36  48  60  73  92 123 164 206 248
#     4   9  16  25  39  59  80 100 120 145 177 221
#     4  11  21  35  48  60  76  98 126 161 203 244
#
# _framework density 12.845449
#
# number of rings (size 3 to 8) (size 9 to 14) (size 15 to 20)
#    0.000    1.833    0.833    8.000    0.000    3.333 
#    0.000    0.000    0.000    0.000    0.000    0.000 
#    0.000    0.000    0.000    0.000    0.000    0.000 
#
# Total GULP energy -267622.313997 kJ/mol
# GULP energy per Si atom -5575.464875 kJ/mol
# Density = 1.281621 g / cm^3
# Si number density = 12.845449 Si / 1000 Ang^3
#
#
#
# Elastic Constant Matrix: (Units=GPa)
#
#
# Indices 1 2 3 4 5 6 
#
# 1 92.5955 40.8617 33.9170 0.0000 0.0000 0.0000
# 2 40.8617 105.6779 39.7690 0.0000 0.0000 0.0000
# 3 33.9170 39.7690 91.0404 0.0000 0.0000 0.0000
# 4 0.0000 0.0000 0.0000 -0.0501 0.0000 0.0000
# 5 0.0000 0.0000 0.0000 0.0000 18.1763 0.0000
# 6 0.0000 0.0000 0.0000 0.0000 0.0000 19.6651
#
#
#
# Elastic Compliance Matrix: (Units=1/GPa)
#
#
# Indices 1 2 3 4 5 6 
#
# 1 0.013836 -0.004081 -0.003372 0.000000 0.000000 0.000000
# 2 -0.004081 0.012528 -0.003952 0.000000 0.000000 0.000000
# 3 -0.003372 -0.003952 0.013967 0.000000 0.000000 0.000000
# 4 0.000000 0.000000 0.000000-19.971502 0.000000 0.000000
# 5 0.000000 0.000000 0.000000 0.000000 0.055017 0.000000
# 6 0.000000 0.000000 0.000000 0.000000 0.000000 0.050851
#
#
# Mechanical properties :
#
#
# Convention : Reuss Voigt Hill
#
# Bulk Modulus (GPa) = 57.07599 57.60104 57.33852
# Shear Modulus (GPa) = -0.25257 19.20934 9.47839
#
# Velocity S-wave (km/s) = -0.44390 3.87126 2.71934
# Velocity P-wave (km/s) = 6.65331 8.05737 7.38877
#
# Compressibility (1/GPa) = 0.01752050
#
# Stress axis : x y z
#
# Youngs Moduli (GPa) = 72.27750 79.82168 71.59863
#
# Poissons Ratio (x) = 0.32574 0.24142
# Poissons Ratio (y) = 0.29495 0.28298
# Poissons Ratio (z) = 0.24371 0.31547
#
# Static dielectric constant tensor:
#      x y z
#    x 1.428470 0.000000 0.000000 
#    y 0.000000 1.438800 0.000000 
#    z 0.000000 0.000000 1.413300 
# 
# From -- ./inp_files/28134.got.cif
#   From: 2010.05.17/outbox.cif.g08.bks.cpg/sg51_15_cif.got.tgz:28134.got - 2010.06.03 11:52:47.
