data_PCOD9398525
_publ_section_title
;
Structure prediction by ZEFSAII (Michael W. Deem and Ramdas Pophale) SiO2 
 PCOD9398525
Probable space group: P M M A
;
_chemical_formula_sum "Si O2"
_cell_formula_units_Z 56
_cell_length_a 20.661826
_cell_length_b 9.096853
_cell_length_c 18.418439
_cell_angle_alpha 90.000000
_cell_angle_beta 90.000000
_cell_angle_gamma 90.000000
_cell_volume 3461.885477
_symmetry_space_group_name_H-M "P M M A"
_symmetry_group_IT_number 51
_symmetry_cell_setting 'orthorhombic'
loop_
_space_group_symop_operation_xyz
x,y,z
1/2-x,-y,z
1/2+x,-y,-z
-x,y,-z
-x,-y,-z
1/2+x,y,-z
1/2-x,y,z
x,-y,z
loop_
_atom_site_type_symbol
_atom_site_label
_atom_site_fract_x
_atom_site_fract_y
_atom_site_fract_z
Si Si1 0.567268 0.821672 0.963477
Si Si2 0.077982 0.831300 0.486140
Si Si3 0.402654 0.331078 0.629310
Si Si4 0.892624 0.322849 0.210153
Si Si5 0.466285 0.823109 0.196446
Si Si6 0.175226 0.824334 0.922266
Si Si7 0.441727 0.330723 0.341821
O O1 0.568077 0.780307 0.878972
O O2 0.566159 0.000000 0.964720
O O3 0.500000 0.771230 0.000000
O O4 0.627277 0.776146 0.013178
O O5 0.109709 0.765855 0.558688
O O6 0.089819 0.738499 0.413480
O O7 0.000000 0.826507 0.500000
O O8 0.095975 0.000000 0.475088
O O9 0.385047 0.500000 0.614254
O O10 0.373458 0.284790 0.706768
O O11 0.480448 0.327932 0.643583
O O12 0.899329 0.500000 0.206928
O O13 0.844005 0.262015 0.150288
O O14 0.961908 0.246989 0.194675
O O15 0.432198 0.761376 0.268499
O O16 0.471692 0.000000 0.200240
O O17 0.250000 0.801651 0.940911
O O18 0.165176 0.000000 0.910262
O O19 0.423179 0.500000 0.331946
#
# Coordination Sequence:
#
# PCOD9398525 Si02
#       7
#     8   8   8   8   8   8   8
#     4   9  16  29  48  69  91 117 151 194 240 280
#     4   9  15  22  34  54  79 111 150 184 218 263
#     4   8  15  25  36  52  78 114 147 178 218 264
#     4  10  19  30  44  64  91 119 151 188 231 277
#     4  10  17  27  45  64  87 117 154 193 230 276
#     4  10  20  34  51  69  90 120 157 194 234 281
#     4   9  16  25  36  54  85 117 147 183 227 272
#
# _framework density 16.176155999999999
#
# number of rings (size 3 to 8) (size 9 to 14) (size 15 to 20)
#    0.000    2.714    1.429    2.571    0.000    6.000 
#    0.000    2.143    0.000    0.000    0.000    0.000 
#    0.000    1.143    0.000    6.000    0.000    4.714 
#
# Total GULP energy -311886.984235 kJ/mol
# GULP energy per Si atom -5569.410433 kJ/mol
# Density = 1.613934 g / cm^3
# Si number density = 16.176156 Si / 1000 Ang^3
#
#
#
# Elastic Constant Matrix: (Units=GPa)
#
#
# Indices 1 2 3 4 5 6 
#
# 1 40.8839 23.3342 41.9058 0.0000 0.0000 0.0000
# 2 23.3342 68.4982 59.8348 0.0000 0.0000 0.0000
# 3 41.9058 59.8348 152.9394 0.0000 0.0000 0.0000
# 4 0.0000 0.0000 0.0000 15.4858 0.0000 0.0000
# 5 0.0000 0.0000 0.0000 0.0000 10.8218 0.0000
# 6 0.0000 0.0000 0.0000 0.0000 0.0000 5.4516
#
#
#
# Elastic Compliance Matrix: (Units=1/GPa)
#
#
# Indices 1 2 3 4 5 6 
#
# 1 0.035294 -0.005432 -0.007545 0.000000 0.000000 0.000000
# 2 -0.005432 0.023014 -0.007516 0.000000 0.000000 0.000000
# 3 -0.007545 -0.007516 0.011546 0.000000 0.000000 0.000000
# 4 0.000000 0.000000 0.000000 0.064575 0.000000 0.000000
# 5 0.000000 0.000000 0.000000 0.000000 0.092406 0.000000
# 6 0.000000 0.000000 0.000000 0.000000 0.000000 0.183433
#
#
# Mechanical properties :
#
#
# Convention : Reuss Voigt Hill
#
# Bulk Modulus (GPa) = 34.63965 56.94122 45.79043
# Shear Modulus (GPa) = 10.84886 15.50162 13.17524
#
# Velocity S-wave (km/s) = 2.59254 3.09900 2.85701
# Velocity P-wave (km/s) = 5.51563 6.93413 6.26516
#
# Compressibility (1/GPa) = 0.02886865
#
# Stress axis : x y z
#
# Youngs Moduli (GPa) = 28.33363 43.45111 86.60733
#
# Poissons Ratio (x) = 0.23602 0.65349
# Poissons Ratio (y) = 0.15390 0.65091
# Poissons Ratio (z) = 0.21379 0.32656
#
# Static dielectric constant tensor:
#      x y z
#    x 1.518300 0.000000 0.000000 
#    y 0.000000 1.543390 0.000000 
#    z 0.000000 0.000000 1.562120 
# 
# From -- ./inp_files/30413.got.cif
#   From: 2010.05.17/outbox.cif.g08.bks.cpg/sg51_16_cif.got.tgz:30413.got - 2010.06.03 11:52:47.
