data_PCOD9398542
_publ_section_title
;
Structure prediction by ZEFSAII (Michael W. Deem and Ramdas Pophale) SiO2 
 PCOD9398542
Probable space group: P M M A
;
_chemical_formula_sum "Si O2"
_cell_formula_units_Z 40
_cell_length_a 20.643854
_cell_length_b 8.678019
_cell_length_c 13.176047
_cell_angle_alpha 90.000000
_cell_angle_beta 90.000000
_cell_angle_gamma 90.000000
_cell_volume 2360.459269
_symmetry_space_group_name_H-M "P M M A"
_symmetry_group_IT_number 51
_symmetry_cell_setting 'orthorhombic'
loop_
_space_group_symop_operation_xyz
x,y,z
1/2-x,-y,z
1/2+x,-y,-z
-x,y,-z
-x,-y,-z
1/2+x,y,-z
1/2-x,y,z
x,-y,z
loop_
_atom_site_type_symbol
_atom_site_label
_atom_site_fract_x
_atom_site_fract_y
_atom_site_fract_z
Si Si1 0.423235 0.178834 0.027727
Si Si2 0.955654 0.683839 0.766911
Si Si3 0.070185 0.312461 0.457522
Si Si4 0.324202 0.686433 0.621079
Si Si5 0.598710 0.814640 0.192387
O O1 0.416422 0.268245 0.132770
O O2 0.406580 0.000000 0.044317
O O3 0.500000 0.184709 0.000000
O O4 0.389563 0.235998 0.924498
O O5 0.963301 0.500000 0.765357
O O6 0.924700 0.733706 0.660057
O O7 0.027407 0.756098 0.775353
O O8 0.070569 0.500000 0.459809
O O9 0.127341 0.260675 0.531799
O O10 0.000000 0.263390 0.500000
O O11 0.250000 0.731291 0.602852
O O12 0.327319 0.500000 0.625197
O O13 0.350556 0.751385 0.727047
O O14 0.597944 0.000000 0.192347
#
# Coordination Sequence:
#
# PCOD9398542 Si02
#       5
#     8   8   8   8   8
#     4   8  16  29  43  65  98 128 153 190 241 288
#     4  10  17  27  48  73  97 127 163 202 242 286
#     4   9  16  29  48  71 100 127 156 200 250 293
#     4  10  20  34  52  72  95 127 165 203 244 294
#     4  10  19  31  47  68  99 131 159 197 247 295
#
# _framework density 16.945855999999999
#
# number of rings (size 3 to 8) (size 9 to 14) (size 15 to 20)
#    0.000    2.600    2.000    2.400    0.000    4.800 
#    0.000    3.000    0.000    1.200    0.000    2.800 
#    0.000    0.000    0.000    0.000    0.000    0.000 
#
# Total GULP energy -222853.927074 kJ/mol
# GULP energy per Si atom -5571.348177 kJ/mol
# Density = 1.690729 g / cm^3
# Si number density = 16.945856 Si / 1000 Ang^3
#
#
#
# Elastic Constant Matrix: (Units=GPa)
#
#
# Indices 1 2 3 4 5 6 
#
# 1 90.9212 20.0249 74.8189 0.0000 0.0000 0.0000
# 2 20.0249 18.7953 30.3681 0.0000 0.0000 0.0000
# 3 74.8189 30.3681 181.5926 0.0000 0.0000 0.0000
# 4 0.0000 0.0000 0.0000 128.3592 0.0000 0.0000
# 5 0.0000 0.0000 0.0000 0.0000 19.4146 0.0000
# 6 0.0000 0.0000 0.0000 0.0000 0.0000 -14.6356
#
#
#
# Elastic Compliance Matrix: (Units=1/GPa)
#
#
# Indices 1 2 3 4 5 6 
#
# 1 0.017864 -0.009784 -0.005724 0.000000 0.000000 0.000000
# 2 -0.009784 0.078262 -0.009057 0.000000 0.000000 0.000000
# 3 -0.005724 -0.009057 0.009380 0.000000 0.000000 0.000000
# 4 0.000000 0.000000 0.000000 0.007791 0.000000 0.000000
# 5 0.000000 0.000000 0.000000 0.000000 0.051508 0.000000
# 6 0.000000 0.000000 0.000000 0.000000 0.000000 -0.068327
#
#
# Mechanical properties :
#
#
# Convention : Reuss Voigt Hill
#
# Bulk Modulus (GPa) = 17.73800 60.19254 38.96527
# Shear Modulus (GPa) = 30.41393 37.70079 34.05736
#
# Velocity S-wave (km/s) = 4.24107 4.72187 4.48792
# Velocity P-wave (km/s) = 5.87132 8.08243 7.06393
#
# Compressibility (1/GPa) = 0.05637615
#
# Stress axis : x y z
#
# Youngs Moduli (GPa) = 55.97987 12.77756 106.61295
#
# Poissons Ratio (x) = 0.12502 0.61024
# Poissons Ratio (y) = 0.54771 0.96557
# Poissons Ratio (z) = 0.32042 0.11572
#
# Static dielectric constant tensor:
#      x y z
#    x 1.548740 0.000000 0.000000 
#    y 0.000000 1.574370 0.000000 
#    z 0.000000 0.000000 1.608420 
# 
# From -- ./inp_files/17886.got.cif
#   From: 2010.05.17/outbox.cif.g08.bks.cpg/sg51_9_cif.got.tgz:17886.got - 2010.06.03 11:52:47.
