data_PCOD9398369
_publ_section_title
;
Structure prediction by ZEFSAII (Michael W. Deem and Ramdas Pophale) SiO2 
 PCOD9398369
Probable space group: P M M A
;
_chemical_formula_sum "Si O2"
_cell_formula_units_Z 32
_cell_length_a 8.690741
_cell_length_b 22.038146
_cell_length_c 9.408975
_cell_angle_alpha 90.000000
_cell_angle_beta 90.000000
_cell_angle_gamma 90.000000
_cell_volume 1802.080461
_symmetry_space_group_name_H-M "P M M A"
_symmetry_group_IT_number 51
_symmetry_cell_setting 'orthorhombic'
loop_
_space_group_symop_operation_xyz
x,y,z
1/2-x,-y,z
1/2+x,-y,-z
-x,y,-z
-x,-y,-z
1/2+x,y,-z
1/2-x,y,z
x,-y,z
loop_
_atom_site_type_symbol
_atom_site_label
_atom_site_fract_x
_atom_site_fract_y
_atom_site_fract_z
Si Si1 0.934288 0.623474 0.660744
Si Si2 0.565066 0.132357 0.159857
Si Si3 0.933305 0.500000 0.338216
Si Si4 0.435139 0.000000 0.840064
Si Si5 0.565769 0.757416 0.659377
O O1 0.750000 0.616819 0.655377
O O2 0.972512 0.690160 0.720786
O O3 0.000000 0.625714 0.500000
O O4 0.006228 0.562925 0.728158
O O5 0.750000 0.135457 0.155560
O O6 0.519164 0.065631 0.221530
O O7 0.500679 0.187866 0.249568
O O8 0.500000 0.135783 0.000000
O O9 0.750000 0.500000 0.344668
O O10 0.000000 0.500000 0.500000
O O11 0.250000 0.000000 0.846561
O O12 0.500000 0.000000 0.000000
O O13 0.500000 0.760984 0.500000
O O14 0.750000 0.761503 0.653038
#
# Coordination Sequence:
#
# PCOD9398369 Si02
#       5
#     8   8   4   4   8
#     4   9  16  26  40  59  87 120 154 192 234 279
#     4  10  19  33  53  75  99 126 160 200 240 286
#     4  10  16  22  36  58  85 116 153 192 231 276
#     4   8  16  30  49  72  95 122 156 196 240 282
#     4  10  20  33  49  71  99 131 164 199 243 290
#
# _framework density 17.757252999999999
#
# number of rings (size 3 to 8) (size 9 to 14) (size 15 to 20)
#    0.000    2.500    0.000    4.875    0.000    4.000 
#    0.000    0.625    0.000    0.000    0.000    0.875 
#    0.000    0.000    0.000    0.000    0.000    0.000 
#
# Total GULP energy -178172.335437 kJ/mol
# GULP energy per Si atom -5567.885482 kJ/mol
# Density = 1.771684 g / cm^3
# Si number density = 17.757253 Si / 1000 Ang^3
#
#
#
# Elastic Constant Matrix: (Units=GPa)
#
#
# Indices 1 2 3 4 5 6 
#
# 1 81.5784 75.0392 15.3904 0.0000 0.0000 0.0000
# 2 75.0392 245.2587 48.1682 0.0000 0.0000 0.0000
# 3 15.3904 48.1682 23.1998 0.0000 0.0000 0.0000
# 4 0.0000 0.0000 0.0000 177.8147 0.0000 0.0000
# 5 0.0000 0.0000 0.0000 0.0000 20.0448 0.0000
# 6 0.0000 0.0000 0.0000 0.0000 0.0000 31.4866
#
#
#
# Elastic Compliance Matrix: (Units=1/GPa)
#
#
# Indices 1 2 3 4 5 6 
#
# 1 0.017068 -0.005063 -0.000811 0.000000 0.000000 0.000000
# 2 -0.005063 0.008386 -0.014054 0.000000 0.000000 0.000000
# 3 -0.000811 -0.014054 0.072820 0.000000 0.000000 0.000000
# 4 0.000000 0.000000 0.000000 0.005624 0.000000 0.000000
# 5 0.000000 0.000000 0.000000 0.000000 0.049888 0.000000
# 6 0.000000 0.000000 0.000000 0.000000 0.000000 0.031760
#
#
# Mechanical properties :
#
#
# Convention : Reuss Voigt Hill
#
# Bulk Modulus (GPa) = 17.11742 69.69247 43.40494
# Shear Modulus (GPa) = 20.41858 59.96515 40.19187
#
# Velocity S-wave (km/s) = 3.39466 5.81745 4.76269
# Velocity P-wave (km/s) = 5.00255 9.19000 7.39870
#
# Compressibility (1/GPa) = 0.05842003
#
# Stress axis : x y z
#
# Youngs Moduli (GPa) = 58.58839 119.23981 13.73242
#
# Poissons Ratio (x) = 0.60370 0.01114
# Poissons Ratio (y) = 0.29663 0.19299
# Poissons Ratio (z) = 0.04752 1.67575
#
# Static dielectric constant tensor:
#      x y z
#    x 1.595090 0.000000 0.000000 
#    y 0.000000 1.703020 0.000000 
#    z 0.000000 0.000000 1.566060 
# 
# From -- ./inp_files/5174.got.cif
#   From: 2010.05.17/outbox.cif.g08.bks.cpg/sg51_3_cif.got.tgz:5174.got - 2010.06.03 11:52:47.
