data_PCOD9398990
_publ_section_title
;
Structure prediction by ZEFSAII (Michael W. Deem and Ramdas Pophale) SiO2 
 PCOD9398990
Probable space group: P M M A
;
_chemical_formula_sum "Si O2"
_cell_formula_units_Z 64
_cell_length_a 14.405893
_cell_length_b 14.930327
_cell_length_c 17.935789
_cell_angle_alpha 90.000000
_cell_angle_beta 90.000000
_cell_angle_gamma 90.000000
_cell_volume 3857.713675
_symmetry_space_group_name_H-M "P M M A"
_symmetry_group_IT_number 51
_symmetry_cell_setting 'orthorhombic'
loop_
_space_group_symop_operation_xyz
x,y,z
1/2-x,-y,z
1/2+x,-y,-z
-x,y,-z
-x,-y,-z
1/2+x,y,-z
1/2-x,y,z
x,-y,z
loop_
_atom_site_type_symbol
_atom_site_label
_atom_site_fract_x
_atom_site_fract_y
_atom_site_fract_z
Si Si1 0.014215 0.893605 0.587600
Si Si2 0.855830 0.891548 0.704141
Si Si3 0.638520 0.785932 0.307641
Si Si4 0.637248 0.102353 0.160437
Si Si5 0.137122 0.599694 0.755200
Si Si6 0.137009 0.599410 0.929124
Si Si7 0.136720 0.211908 0.986469
Si Si8 0.636843 0.896548 0.869505
O O1 0.924139 0.868694 0.637050
O O2 0.000000 0.879888 0.500000
O O3 0.095919 0.834086 0.621193
O O4 0.032465 0.000000 0.599426
O O5 0.750000 0.859791 0.692897
O O6 0.890435 0.864775 0.786709
O O7 0.852194 0.000000 0.707385
O O8 0.750000 0.785847 0.311900
O O9 0.611928 0.843967 0.234714
O O10 0.606226 0.684127 0.293283
O O11 0.750000 0.100097 0.159069
O O12 0.608829 0.153746 0.085590
O O13 0.604247 0.000000 0.162743
O O14 0.250000 0.600208 0.754003
O O15 0.106880 0.500000 0.731784
O O16 0.111259 0.612609 0.842130
O O17 0.250000 0.598811 0.930611
O O18 0.106329 0.500000 0.952965
O O19 0.107104 0.685485 0.975731
O O20 0.250000 0.211278 0.986954
O O21 0.106131 0.165628 0.062760
O O22 0.750000 0.896733 0.868659
O O23 0.608943 0.000000 0.881687
#
# Coordination Sequence:
#
# PCOD9398990 Si02
#       8
#     8   8   8   8   8   8   8   8
#     4  10  21  34  48  68  93 121 151 184 227 279
#     4   8  15  30  49  65  84 115 157 199 230 258
#     4  10  18  29  45  68  97 124 150 181 223 278
#     4   9  15  21  31  52  85 122 150 173 210 261
#     4   8  13  23  40  62  89 121 155 187 221 265
#     4   8  12  18  29  49  81 117 151 188 224 256
#     4   9  13  18  30  53  83 113 149 185 214 254
#     4   8  13  21  36  58  81 108 145 188 226 256
#
# _framework density 16.590136999999999
#
# number of rings (size 3 to 8) (size 9 to 14) (size 15 to 20)
#    0.000    3.250    1.250    2.250    0.000    2.750 
#    0.000    1.250    0.000    1.125    0.000    4.375 
#    0.000    3.500    0.000    0.750    0.000    0.000 
#
# Total GULP energy -356663.030738 kJ/mol
# GULP energy per Si atom -5572.859855 kJ/mol
# Density = 1.655238 g / cm^3
# Si number density = 16.590137 Si / 1000 Ang^3
#
#
#
# Elastic Constant Matrix: (Units=GPa)
#
#
# Indices 1 2 3 4 5 6 
#
# 1 41.4906 29.8051 20.2228 0.0000 0.0000 0.0000
# 2 29.8051 126.8717 74.5561 0.0000 0.0000 0.0000
# 3 20.2228 74.5561 112.7406 0.0000 0.0000 0.0000
# 4 0.0000 0.0000 0.0000 67.7397 0.0000 0.0000
# 5 0.0000 0.0000 0.0000 0.0000 37.1556 0.0000
# 6 0.0000 0.0000 0.0000 0.0000 0.0000 1.9022
#
#
#
# Elastic Compliance Matrix: (Units=1/GPa)
#
#
# Indices 1 2 3 4 5 6 
#
# 1 0.029085 -0.006161 -0.001143 0.000000 0.000000 0.000000
# 2 -0.006161 0.014197 -0.008284 0.000000 0.000000 0.000000
# 3 -0.001143 -0.008284 0.014553 0.000000 0.000000 0.000000
# 4 0.000000 0.000000 0.000000 0.014762 0.000000 0.000000
# 5 0.000000 0.000000 0.000000 0.000000 0.026914 0.000000
# 6 0.000000 0.000000 0.000000 0.000000 0.000000 0.525715
#
#
# Mechanical properties :
#
#
# Convention : Reuss Voigt Hill
#
# Bulk Modulus (GPa) = 37.50936 58.91901 48.21419
# Shear Modulus (GPa) = 7.51554 31.79408 19.65481
#
# Velocity S-wave (km/s) = 2.13072 4.38247 3.44572
# Velocity P-wave (km/s) = 5.35834 7.82302 6.70490
#
# Compressibility (1/GPa) = 0.02666001
#
# Stress axis : x y z
#
# Youngs Moduli (GPa) = 34.38232 70.43632 68.71512
#
# Poissons Ratio (x) = 0.43397 0.07851
# Poissons Ratio (y) = 0.21184 0.56920
# Poissons Ratio (z) = 0.03929 0.58346
#
# Static dielectric constant tensor:
#      x y z
#    x 1.615670 0.000000 0.000000 
#    y 0.000000 1.562170 0.000000 
#    z 0.000000 0.000000 1.539410 
# 
# From -- ./inp_files/29981.got.cif
#   From: 2010.05.17/outbox.cif.g08.bks.cpg/sg51_15_cif.got.tgz:29981.got - 2010.06.03 11:52:47.
