data_PCOD9398300
_publ_section_title
;
Structure prediction by ZEFSAII (Michael W. Deem and Ramdas Pophale) SiO2 
 PCOD9398300
Probable space group: P B A N
;
_chemical_formula_sum "Si O2"
_cell_formula_units_Z 18
_cell_length_a 29.338906
_cell_length_b 5.182575
_cell_length_c 5.086236
_cell_angle_alpha 90.000000
_cell_angle_beta 90.000000
_cell_angle_gamma 90.000000
_cell_volume 773.367681
_symmetry_space_group_name_H-M "P B A N"
_symmetry_group_IT_number 50
_space_group.IT_coordinate_system_code '2'
_symmetry_cell_setting 'orthorhombic'
loop_
_space_group_symop_operation_xyz
x,y,z
1/2-x,1/2-y,z
x,1/2-y,-z
1/2-x,y,-z
-x,-y,-z
1/2+x,1/2+y,-z
-x,1/2+y,z
1/2+x,-y,z
loop_
_atom_site_type_symbol
_atom_site_label
_atom_site_fract_x
_atom_site_fract_y
_atom_site_fract_z
Si Si1 0.329756 0.007043 0.820460
Si Si2 0.596926 0.250000 0.500000
Si Si3 0.032042 0.750000 0.000000
Si Si4 0.750000 0.750000 0.500000
O O1 0.367957 0.966788 0.598864
O O2 0.282291 0.073674 0.679969
O O3 0.327346 0.750000 0.000000
O O4 0.341811 0.250000 0.000000
O O5 0.564442 0.211706 0.748519
O O6 0.000000 0.500000 0.000000
#
# Coordination Sequence:
#
# PCOD9398300 Si02
#       4
#     8   4   4   2
#     4  12  29  51  79 117 168 214 274 330 396 484
#     4  12  28  55  83 118 164 208 269 325 420 468
#     4  12  30  52  86 117 158 203 266 338 408 490
#     4  12  30  46  82 120 168 216 282 320 404 456
#
# _framework density 23.274830999999999
#
# number of rings (size 3 to 8) (size 9 to 14) (size 15 to 20)
#    0.000    0.000    2.222    4.667    3.111   16.889 
#    0.000    0.000    0.000    0.000    0.000    0.000 
#    0.000    0.000    0.000    0.000    0.000    0.000 
#
# Total GULP energy -100940.543203 kJ/mol
# GULP energy per Si atom -5607.807956 kJ/mol
# Density = 2.322186 g / cm^3
# Si number density = 23.274831 Si / 1000 Ang^3
#
#
#
# Elastic Constant Matrix: (Units=GPa)
#
#
# Indices 1 2 3 4 5 6 
#
# 1 211.2936 94.3645 118.3915 0.0000 0.0000 0.0000
# 2 94.3645 217.3302 98.9799 0.0000 0.0000 0.0000
# 3 118.3915 98.9799 220.8357 0.0000 0.0000 0.0000
# 4 0.0000 0.0000 0.0000 26.4439 0.0000 0.0000
# 5 0.0000 0.0000 0.0000 0.0000 96.9071 0.0000
# 6 0.0000 0.0000 0.0000 0.0000 0.0000 -194.8439
#
#
#
# Elastic Compliance Matrix: (Units=1/GPa)
#
#
# Indices 1 2 3 4 5 6 
#
# 1 0.007248 -0.001731 -0.003110 0.000000 0.000000 0.000000
# 2 -0.001731 0.006195 -0.001849 0.000000 0.000000 0.000000
# 3 -0.003110 -0.001849 0.007024 0.000000 0.000000 0.000000
# 4 0.000000 0.000000 0.000000 0.037816 0.000000 0.000000
# 5 0.000000 0.000000 0.000000 0.000000 0.010319 0.000000
# 6 0.000000 0.000000 0.000000 0.000000 0.000000 -0.005132
#
#
# Mechanical properties :
#
#
# Convention : Reuss Voigt Hill
#
# Bulk Modulus (GPa) = 141.07996 141.43680 141.25838
# Shear Modulus (GPa) = 63.12175 8.21633 35.66904
#
# Velocity S-wave (km/s) = 5.21335 1.88090 3.91898
# Velocity P-wave (km/s) = 9.84810 8.10044 9.01671
#
# Compressibility (1/GPa) = 0.00708818
#
# Stress axis : x y z
#
# Youngs Moduli (GPa) = 137.96152 161.42767 142.36473
#
# Poissons Ratio (x) = 0.27939 0.44278
# Poissons Ratio (y) = 0.23878 0.26318
# Poissons Ratio (z) = 0.42908 0.29842
#
# Static dielectric constant tensor:
#      x y z
#    x 1.852340 0.000000 0.000000 
#    y 0.000000 1.851990 0.000000 
#    z 0.000000 0.000000 1.891230 
# 
# From -- ./inp_files/354.got.cif
#   From: 2010.05.17/outbox.cif.g08.bks.cpg/sg50_1_cif.got.tgz:354.got - 2010.06.03 11:33:33.
