data_PCOD9398570
_publ_section_title
;
Structure prediction by ZEFSAII (Michael W. Deem and Ramdas Pophale) SiO2 
 PCOD9398570
Probable space group: P M M A
;
_chemical_formula_sum "Si O2"
_cell_formula_units_Z 56
_cell_length_a 17.754182
_cell_length_b 18.999608
_cell_length_c 9.983645
_cell_angle_alpha 90.000000
_cell_angle_beta 90.000000
_cell_angle_gamma 90.000000
_cell_volume 3367.708074
_symmetry_space_group_name_H-M "P M M A"
_symmetry_group_IT_number 51
_symmetry_cell_setting 'orthorhombic'
loop_
_space_group_symop_operation_xyz
x,y,z
1/2-x,-y,z
1/2+x,-y,-z
-x,y,-z
-x,-y,-z
1/2+x,y,-z
1/2-x,y,z
x,-y,z
loop_
_atom_site_type_symbol
_atom_site_label
_atom_site_fract_x
_atom_site_fract_y
_atom_site_fract_z
Si Si1 0.160244 0.225866 0.880493
Si Si2 0.159072 0.917291 0.353511
Si Si3 0.455101 0.419932 0.361400
Si Si4 0.659197 0.178264 0.403778
Si Si5 0.836889 0.301381 0.594376
Si Si6 0.603241 0.204687 0.822877
Si Si7 0.474560 0.683154 0.851316
O O1 0.250000 0.235801 0.883737
O O2 0.140638 0.176809 0.752662
O O3 0.112866 0.296631 0.852714
O O4 0.131809 0.200193 0.024959
O O5 0.250000 0.905577 0.333263
O O6 0.138722 0.886502 0.500395
O O7 0.112416 0.870395 0.248414
O O8 0.145355 0.000000 0.343295
O O9 0.500000 0.421941 0.500000
O O10 0.439607 0.500000 0.318675
O O11 0.381678 0.372938 0.387985
O O12 0.502770 0.376146 0.253120
O O13 0.750000 0.182441 0.409998
O O14 0.631052 0.249560 0.477992
O O15 0.750000 0.314735 0.566378
O O16 0.845569 0.256225 0.731017
O O17 0.522848 0.245036 0.821637
O O18 0.500000 0.661641 0.000000
#
# Coordination Sequence:
#
# PCOD9398570 Si02
#       7
#     8   8   8   8   8   8   8
#     4  10  17  28  49  72  91 113 152 199 230 263
#     4   9  16  28  46  67  94 127 158 188 226 272
#     4  10  20  32  46  67  95 124 154 188 228 276
#     4   8  15  26  43  67  91 117 150 190 232 268
#     4   9  16  29  48  67  89 119 156 195 231 270
#     4   9  17  30  48  71  95 118 152 193 232 272
#     4   9  19  33  50  70  93 123 151 184 233 279
#
# _framework density 16.628520999999999
#
# number of rings (size 3 to 8) (size 9 to 14) (size 15 to 20)
#    0.000    2.857    0.000    3.000    0.000    0.571 
#    0.000    0.714    0.000    9.429    0.000    0.000 
#    0.000    0.000    0.000    0.000    0.000    0.000 
#
# Total GULP energy -311756.103938 kJ/mol
# GULP energy per Si atom -5567.073285 kJ/mol
# Density = 1.659067 g / cm^3
# Si number density = 16.628521 Si / 1000 Ang^3
#
#
#
# Elastic Constant Matrix: (Units=GPa)
#
#
# Indices 1 2 3 4 5 6 
#
# 1 40.6650 29.5810 17.3236 0.0000 0.0000 0.0000
# 2 29.5810 120.4810 56.7784 0.0000 0.0000 0.0000
# 3 17.3236 56.7784 117.4894 0.0000 0.0000 0.0000
# 4 0.0000 0.0000 0.0000 11.1813 0.0000 0.0000
# 5 0.0000 0.0000 0.0000 0.0000 16.2652 0.0000
# 6 0.0000 0.0000 0.0000 0.0000 0.0000 41.3537
#
#
#
# Elastic Compliance Matrix: (Units=1/GPa)
#
#
# Indices 1 2 3 4 5 6 
#
# 1 0.030052 -0.006850 -0.001121 0.000000 0.000000 0.000000
# 2 -0.006850 0.012309 -0.004939 0.000000 0.000000 0.000000
# 3 -0.001121 -0.004939 0.011063 0.000000 0.000000 0.000000
# 4 0.000000 0.000000 0.000000 0.089435 0.000000 0.000000
# 5 0.000000 0.000000 0.000000 0.000000 0.061481 0.000000
# 6 0.000000 0.000000 0.000000 0.000000 0.000000 0.024182
#
#
# Mechanical properties :
#
#
# Convention : Reuss Voigt Hill
#
# Bulk Modulus (GPa) = 36.22482 54.00013 45.11247
# Shear Modulus (GPa) = 18.97225 25.42353 22.19789
#
# Velocity S-wave (km/s) = 3.38145 3.91437 3.65763
# Velocity P-wave (km/s) = 6.08914 7.27837 6.71015
#
# Compressibility (1/GPa) = 0.02760538
#
# Stress axis : x y z
#
# Youngs Moduli (GPa) = 33.27597 81.23885 90.38909
#
# Poissons Ratio (x) = 0.55651 0.10128
# Poissons Ratio (y) = 0.22795 0.44640
# Poissons Ratio (z) = 0.03729 0.40121
#
# Static dielectric constant tensor:
#      x y z
#    x 1.583240 0.000000 0.000000 
#    y 0.000000 1.539320 0.000000 
#    z 0.000000 0.000000 1.586080 
# 
# From -- ./inp_files/11121.got.cif
#   From: 2010.05.17/outbox.cif.g08.bks.cpg/sg51_6_cif.got.tgz:11121.got - 2010.06.03 11:52:47.
