data_PCOD9398262
_publ_section_title
;
Structure prediction by ZEFSAII (Michael W. Deem and Ramdas Pophale) SiO2 
 PCOD9398262
Probable space group: P B A N
;
_chemical_formula_sum "Si O2"
_cell_formula_units_Z 32
_cell_length_a 20.467782
_cell_length_b 8.742203
_cell_length_c 7.770450
_cell_angle_alpha 90.000000
_cell_angle_beta 90.000000
_cell_angle_gamma 90.000000
_cell_volume 1390.393856
_symmetry_space_group_name_H-M "P B A N"
_symmetry_group_IT_number 50
_space_group.IT_coordinate_system_code '2'
_symmetry_cell_setting 'orthorhombic'
loop_
_space_group_symop_operation_xyz
x,y,z
1/2-x,1/2-y,z
x,1/2-y,-z
1/2-x,y,-z
-x,-y,-z
1/2+x,1/2+y,-z
-x,1/2+y,z
1/2+x,-y,z
loop_
_atom_site_type_symbol
_atom_site_label
_atom_site_fract_x
_atom_site_fract_y
_atom_site_fract_z
Si Si1 0.187885 0.444208 0.786469
Si Si2 0.927331 0.147703 0.669688
Si Si3 0.831938 0.595872 0.799913
Si Si4 0.528630 0.053077 0.815894
O O1 0.142288 0.578539 0.720107
O O2 0.167863 0.271273 0.735105
O O3 0.263152 0.471133 0.734160
O O4 0.178094 0.426252 0.993390
O O5 0.924342 0.250000 0.500000
O O6 0.957961 0.267527 0.804978
O O7 0.974897 0.002357 0.679541
O O8 0.901854 0.522435 0.767889
O O9 0.500000 0.000000 0.000000
#
# Coordination Sequence:
#
# PCOD9398262 Si02
#       4
#     8   8   8   8
#     4   9  19  39  66  99 131 172 225 289 354 408
#     4  12  26  43  65  99 147 184 225 290 367 424
#     4   9  19  38  68  98 130 167 233 297 334 408
#     4  12  24  40  66  98 130 182 238 292 338 420
#
# _framework density 23.015060999999999
#
# number of rings (size 3 to 8) (size 9 to 14) (size 15 to 20)
#    0.000    1.500    2.500    4.500    3.500    1.000 
#    0.000    5.000    0.000    3.000    0.000    0.000 
#    0.000    0.000    0.000    0.000    0.000    0.000 
#
# Total GULP energy -178667.942490 kJ/mol
# GULP energy per Si atom -5583.373203 kJ/mol
# Density = 2.296268 g / cm^3
# Si number density = 23.015061 Si / 1000 Ang^3
#
#
#
# Elastic Constant Matrix: (Units=GPa)
#
#
# Indices 1 2 3 4 5 6 
#
# 1 156.6862 75.3967 10.6746 0.0000 0.0000 0.0000
# 2 75.3967 108.5416 33.3384 0.0000 0.0000 0.0000
# 3 10.6746 33.3384 87.0612 0.0000 0.0000 0.0000
# 4 0.0000 0.0000 0.0000 31.3757 0.0000 0.0000
# 5 0.0000 0.0000 0.0000 0.0000 3.3954 0.0000
# 6 0.0000 0.0000 0.0000 0.0000 0.0000 44.8859
#
#
#
# Elastic Compliance Matrix: (Units=1/GPa)
#
#
# Indices 1 2 3 4 5 6 
#
# 1 0.009777 -0.007279 0.001589 0.000000 0.000000 0.000000
# 2 -0.007279 0.015861 -0.005181 0.000000 0.000000 0.000000
# 3 0.001589 -0.005181 0.013275 0.000000 0.000000 0.000000
# 4 0.000000 0.000000 0.000000 0.031872 0.000000 0.000000
# 5 0.000000 0.000000 0.000000 0.000000 0.294514 0.000000
# 6 0.000000 0.000000 0.000000 0.000000 0.000000 0.022279
#
#
# Mechanical properties :
#
#
# Convention : Reuss Voigt Hill
#
# Bulk Modulus (GPa) = 58.24211 65.67873 61.96042
# Shear Modulus (GPa) = 12.04694 31.45669 21.75181
#
# Velocity S-wave (km/s) = 2.29036 3.70102 3.07760
# Velocity P-wave (km/s) = 5.68818 6.84563 6.29357
#
# Compressibility (1/GPa) = 0.01716971
#
# Stress axis : x y z
#
# Youngs Moduli (GPa) = 102.28456 63.04864 75.32747
#
# Poissons Ratio (x) = 0.45894 -0.11967
# Poissons Ratio (y) = 0.74455 0.39028
# Poissons Ratio (z) = -0.16250 0.32666
#
# Static dielectric constant tensor:
#      x y z
#    x 1.848070 0.000000 0.000000 
#    y 0.000000 1.740930 0.000000 
#    z 0.000000 0.000000 1.972480 
# 
# From -- ./inp_files/14833.got.cif
#   From: 2010.05.17/outbox.cif.g08.bks.cpg/sg50_8_cif.got.tgz:14833.got - 2010.06.03 11:33:33.
