data_PCOD9398595
_publ_section_title
;
Structure prediction by ZEFSAII (Michael W. Deem and Ramdas Pophale) SiO2 
 PCOD9398595
Probable space group: P M M A
;
_chemical_formula_sum "Si O2"
_cell_formula_units_Z 58
_cell_length_a 27.611255
_cell_length_b 20.738856
_cell_length_c 5.118408
_cell_angle_alpha 90.000000
_cell_angle_beta 90.000000
_cell_angle_gamma 90.000000
_cell_volume 2930.932688
_symmetry_space_group_name_H-M "P M M A"
_symmetry_group_IT_number 51
_symmetry_cell_setting 'orthorhombic'
loop_
_space_group_symop_operation_xyz
x,y,z
1/2-x,-y,z
1/2+x,-y,-z
-x,y,-z
-x,-y,-z
1/2+x,y,-z
1/2-x,y,z
x,-y,z
loop_
_atom_site_type_symbol
_atom_site_label
_atom_site_fract_x
_atom_site_fract_y
_atom_site_fract_z
Si Si1 0.691796 0.745347 0.905135
Si Si2 0.052887 0.421916 0.916925
Si Si3 0.053675 0.078205 0.930691
Si Si4 0.614049 0.922583 0.569447
Si Si5 0.196315 0.623998 0.767741
Si Si6 0.691834 0.822807 0.412243
Si Si7 0.250000 0.500000 0.941276
Si Si8 0.612673 0.422219 0.584139
O O1 0.750000 0.741334 0.890499
O O2 0.677169 0.678319 0.037946
O O3 0.680134 0.799905 0.120117
O O4 0.675848 0.767315 0.618914
O O5 0.050363 0.500000 0.921295
O O6 0.092449 0.403888 0.134104
O O7 0.071477 0.404961 0.629961
O O8 0.000000 0.397715 0.000000
O O9 0.073763 0.095361 0.647193
O O10 0.051168 0.000000 0.936716
O O11 0.092449 0.096564 0.150991
O O12 0.000000 0.102226 0.000000
O O13 0.662979 0.886174 0.494771
O O14 0.620584 0.000000 0.563724
O O15 0.250000 0.645086 0.666671
O O16 0.208401 0.557244 0.917772
O O17 0.161430 0.608817 0.527898
O O18 0.750000 0.831043 0.431499
O O19 0.619293 0.500000 0.579318
#
# Coordination Sequence:
#
# PCOD9398595 Si02
#       8
#     8   8   8   8   8   8   2   8
#     4   9  19  34  53  70 101 140 184 219 256 320
#     4   9  18  29  45  66  94 125 160 198 244 298
#     4   9  17  30  49  77 112 144 174 218 276 329
#     4  10  19  31  51  79 110 143 182 227 272 317
#     4   9  17  32  54  78 110 138 172 209 273 324
#     4  10  20  35  52  75 103 143 184 227 264 309
#     4   8  16  32  56  78 118 138 166 222 276 326
#     4  10  17  30  47  71  98 126 155 198 252 306
#
# _framework density 19.788921999999999
#
# number of rings (size 3 to 8) (size 9 to 14) (size 15 to 20)
#    0.414    2.207    0.690    1.655    0.000    4.690 
#    0.000    2.069    0.000   10.759    0.000   14.483 
#    0.000    0.000    0.000    0.000    0.000    0.000 
#
# Total GULP energy -323032.131385 kJ/mol
# GULP energy per Si atom -5569.519507 kJ/mol
# Density = 1.974388 g / cm^3
# Si number density = 19.788922 Si / 1000 Ang^3
#
#
#
# Elastic Constant Matrix: (Units=GPa)
#
#
# Indices 1 2 3 4 5 6 
#
# 1 59.9827 17.9942 -9.0517 0.0000 0.0000 0.0000
# 2 17.9942 44.1140 2.8356 0.0000 0.0000 0.0000
# 3 -9.0517 2.8356 54.9349 0.0000 0.0000 0.0000
# 4 0.0000 0.0000 0.0000 18.4834 0.0000 0.0000
# 5 0.0000 0.0000 0.0000 0.0000 18.5485 0.0000
# 6 0.0000 0.0000 0.0000 0.0000 0.0000 11.1164
#
#
#
# Elastic Compliance Matrix: (Units=1/GPa)
#
#
# Indices 1 2 3 4 5 6 
#
# 1 0.019708 -0.008275 0.003675 0.000000 0.000000 0.000000
# 2 -0.008275 0.026219 -0.002717 0.000000 0.000000 0.000000
# 3 0.003675 -0.002717 0.018949 0.000000 0.000000 0.000000
# 4 0.000000 0.000000 0.000000 0.054102 0.000000 0.000000
# 5 0.000000 0.000000 0.000000 0.000000 0.053913 0.000000
# 6 0.000000 0.000000 0.000000 0.000000 0.000000 0.089957
#
#
# Mechanical properties :
#
#
# Convention : Reuss Voigt Hill
#
# Bulk Modulus (GPa) = 19.90410 20.28754 20.09582
# Shear Modulus (GPa) = 16.99345 19.44657 18.22001
#
# Velocity S-wave (km/s) = 2.93360 3.13821 3.03762
# Velocity P-wave (km/s) = 4.64270 4.83791 4.74131
#
# Compressibility (1/GPa) = 0.05024091
#
# Stress axis : x y z
#
# Youngs Moduli (GPa) = 50.73956 38.14073 52.77305
#
# Poissons Ratio (x) = 0.31563 -0.19392
# Poissons Ratio (y) = 0.41989 0.14338
# Poissons Ratio (z) = -0.18645 0.10362
#
# Static dielectric constant tensor:
#      x y z
#    x 1.718860 0.000000 0.000000 
#    y 0.000000 1.700200 0.000000 
#    z 0.000000 0.000000 1.717580 
# 
# From -- ./inp_files/4083.got.cif
#   From: 2010.05.17/outbox.cif.g08.bks.cpg/sg51_3_cif.got.tgz:4083.got - 2010.06.03 11:52:47.
