data_PCOD9398098
_publ_section_title
;
Structure prediction by ZEFSAII (Michael W. Deem and Ramdas Pophale) SiO2 
 PCOD9398098
Probable space group: P B A N
;
_chemical_formula_sum "Si O2"
_cell_formula_units_Z 40
_cell_length_a 11.613217
_cell_length_b 18.225422
_cell_length_c 8.510743
_cell_angle_alpha 90.000000
_cell_angle_beta 90.000000
_cell_angle_gamma 90.000000
_cell_volume 1801.347953
_symmetry_space_group_name_H-M "P B A N"
_symmetry_group_IT_number 50
_space_group.IT_coordinate_system_code '2'
_symmetry_cell_setting 'orthorhombic'
loop_
_space_group_symop_operation_xyz
x,y,z
1/2-x,1/2-y,z
x,1/2-y,-z
1/2-x,y,-z
-x,-y,-z
1/2+x,1/2+y,-z
-x,1/2+y,z
1/2+x,-y,z
loop_
_atom_site_type_symbol
_atom_site_label
_atom_site_fract_x
_atom_site_fract_y
_atom_site_fract_z
Si Si1 0.221220 0.903496 0.323763
Si Si2 0.058985 0.638777 0.118887
Si Si3 0.162512 0.040965 0.142280
Si Si4 0.210463 0.328509 0.319937
Si Si5 0.544157 0.200875 0.230281
O O1 0.250000 0.926658 0.500000
O O2 0.331306 0.892538 0.210959
O O3 0.149592 0.828106 0.332654
O O4 0.147028 0.967775 0.243305
O O5 0.026291 0.711991 0.217232
O O6 0.959322 0.578253 0.103296
O O7 0.076310 0.670034 0.943235
O O8 0.228796 0.103740 0.238486
O O9 0.250000 0.024636 0.000000
O O10 0.250000 0.250000 0.248917
O O11 0.250000 0.328466 0.500000
O O12 0.074092 0.332431 0.294862
#
# Coordination Sequence:
#
# PCOD9398098 Si02
#       5
#     8   8   8   8   8
#     4  12  30  46  70 103 147 194 235 295 364 429
#     4  11  25  46  75 105 138 185 245 297 353 429
#     4  12  25  45  74 104 140 184 241 291 358 423
#     4  11  24  41  68 108 144 184 231 292 361 423
#     4  11  24  47  74 104 140 186 243 296 351 429
#
# _framework density 22.205593
#
# number of rings (size 3 to 8) (size 9 to 14) (size 15 to 20)
#    0.000    0.600    4.000    3.000    5.600    6.000 
#    0.000    0.000    0.000    0.000    0.000    0.000 
#    0.000    0.000    0.000    0.000    0.000    0.000 
#
# Total GULP energy -223779.041837 kJ/mol
# GULP energy per Si atom -5594.476046 kJ/mol
# Density = 2.215505 g / cm^3
# Si number density = 22.205593 Si / 1000 Ang^3
#
#
#
# Elastic Constant Matrix: (Units=GPa)
#
#
# Indices 1 2 3 4 5 6 
#
# 1 94.1370 16.0277 9.2397 0.0000 0.0000 0.0000
# 2 16.0277 95.3557 27.4187 0.0000 0.0000 0.0000
# 3 9.2397 27.4187 64.0656 0.0000 0.0000 0.0000
# 4 0.0000 0.0000 0.0000 36.4155 0.0000 0.0000
# 5 0.0000 0.0000 0.0000 0.0000 20.3752 0.0000
# 6 0.0000 0.0000 0.0000 0.0000 0.0000 33.8358
#
#
#
# Elastic Compliance Matrix: (Units=1/GPa)
#
#
# Indices 1 2 3 4 5 6 
#
# 1 0.010982 -0.001586 -0.000905 0.000000 0.000000 0.000000
# 2 -0.001586 0.012188 -0.004987 0.000000 0.000000 0.000000
# 3 -0.000905 -0.004987 0.017874 0.000000 0.000000 0.000000
# 4 0.000000 0.000000 0.000000 0.027461 0.000000 0.000000
# 5 0.000000 0.000000 0.000000 0.000000 0.049079 0.000000
# 6 0.000000 0.000000 0.000000 0.000000 0.000000 0.029554
#
#
# Mechanical properties :
#
#
# Convention : Reuss Voigt Hill
#
# Bulk Modulus (GPa) = 38.33324 39.88117 39.10721
# Shear Modulus (GPa) = 29.27576 31.51680 30.39628
#
# Velocity S-wave (km/s) = 3.63491 3.77147 3.70382
# Velocity P-wave (km/s) = 5.90907 6.07983 5.99506
#
# Compressibility (1/GPa) = 0.02608702
#
# Stress axis : x y z
#
# Youngs Moduli (GPa) = 91.06131 82.05044 55.94702
#
# Poissons Ratio (x) = 0.13009 0.05065
# Poissons Ratio (y) = 0.14438 0.27903
# Poissons Ratio (z) = 0.08243 0.40922
#
# Static dielectric constant tensor:
#      x y z
#    x 1.277560 0.000000 0.000000 
#    y 0.000000 1.817820 0.000000 
#    z 0.000000 0.000000 1.866730 
# 
# From -- ./inp_files/11029.got.cif
#   From: 2010.05.17/outbox.cif.g08.bks.cpg/sg50_6_cif.got.tgz:11029.got - 2010.06.03 11:33:33.
