data_PCOD9398378
_publ_section_title
;
Structure prediction by ZEFSAII (Michael W. Deem and Ramdas Pophale) SiO2 
 PCOD9398378
Probable space group: P M M A
;
_chemical_formula_sum "Si O2"
_cell_formula_units_Z 52
_cell_length_a 8.621435
_cell_length_b 27.485318
_cell_length_c 13.902842
_cell_angle_alpha 90.000000
_cell_angle_beta 90.000000
_cell_angle_gamma 90.000000
_cell_volume 3294.457517
_symmetry_space_group_name_H-M "P M M A"
_symmetry_group_IT_number 51
_symmetry_cell_setting 'orthorhombic'
loop_
_space_group_symop_operation_xyz
x,y,z
1/2-x,-y,z
1/2+x,-y,-z
-x,y,-z
-x,-y,-z
1/2+x,y,-z
1/2-x,y,z
x,-y,z
loop_
_atom_site_type_symbol
_atom_site_label
_atom_site_fract_x
_atom_site_fract_y
_atom_site_fract_z
Si Si1 0.435408 0.000000 0.609807
Si Si2 0.436958 0.446064 0.794380
Si Si3 0.935286 0.601749 0.605417
Si Si4 0.934944 0.798225 0.391490
Si Si5 0.563483 0.347101 0.105106
Si Si6 0.935387 0.100357 0.609484
Si Si7 0.435906 0.702741 0.292696
O O1 0.500000 0.000000 0.500000
O O2 0.498152 0.949559 0.653705
O O3 0.250000 0.000000 0.607078
O O4 0.250000 0.445793 0.792287
O O5 0.489794 0.500000 0.823208
O O6 0.496742 0.432843 0.688059
O O7 0.485910 0.401968 0.863760
O O8 0.750000 0.597698 0.605194
O O9 0.976325 0.656911 0.638263
O O10 0.000000 0.591520 0.500000
O O11 0.750000 0.802297 0.396351
O O12 0.000000 0.792165 0.500000
O O13 0.005000 0.848460 0.349573
O O14 0.986554 0.751571 0.331243
O O15 0.750000 0.344679 0.106436
O O16 0.495500 0.312269 0.187449
O O17 0.500000 0.335797 0.000000
O O18 0.750000 0.098721 0.607536
O O19 0.000000 0.101251 0.500000
O O20 0.250000 0.707871 0.292672
#
# Coordination Sequence:
#
# PCOD9398378 Si02
#       7
#     4   8   8   8   8   8   8
#     4  10  16  24  36  52  76 110 153 198 237 272
#     4   9  19  35  52  70  93 119 148 182 219 261
#     4  10  20  32  48  68  91 120 152 184 220 263
#     4  11  20  30  44  65  92 123 157 193 232 273
#     4  10  20  35  54  74  94 117 145 179 222 272
#     4  10  17  26  38  55  80 114 155 196 234 271
#     4  10  20  34  50  69  91 117 150 188 228 271
#
# _framework density 15.784086
#
# number of rings (size 3 to 8) (size 9 to 14) (size 15 to 20)
#    0.000    2.000    0.000    7.154    0.000    4.615 
#    0.000    0.000    0.000    0.000    0.000    0.000 
#    0.000    0.000    0.000    0.692    0.000    9.769 
#
# Total GULP energy -290115.857404 kJ/mol
# GULP energy per Si atom -5579.151104 kJ/mol
# Density = 1.574816 g / cm^3
# Si number density = 15.784086 Si / 1000 Ang^3
#
#
#
# Elastic Constant Matrix: (Units=GPa)
#
#
# Indices 1 2 3 4 5 6 
#
# 1 91.4166 40.0339 12.6516 0.0000 0.0000 0.0000
# 2 40.0339 120.4873 18.8396 0.0000 0.0000 0.0000
# 3 12.6516 18.8396 54.8118 0.0000 0.0000 0.0000
# 4 0.0000 0.0000 0.0000 9.2253 0.0000 0.0000
# 5 0.0000 0.0000 0.0000 0.0000 18.2986 0.0000
# 6 0.0000 0.0000 0.0000 0.0000 0.0000 57.7803
#
#
#
# Elastic Compliance Matrix: (Units=1/GPa)
#
#
# Indices 1 2 3 4 5 6 
#
# 1 0.012932 -0.004048 -0.001594 0.000000 0.000000 0.000000
# 2 -0.004048 0.010038 -0.002516 0.000000 0.000000 0.000000
# 3 -0.001594 -0.002516 0.019477 0.000000 0.000000 0.000000
# 4 0.000000 0.000000 0.000000 0.108397 0.000000 0.000000
# 5 0.000000 0.000000 0.000000 0.000000 0.054649 0.000000
# 6 0.000000 0.000000 0.000000 0.000000 0.000000 0.017307
#
#
# Mechanical properties :
#
#
# Convention : Reuss Voigt Hill
#
# Bulk Modulus (GPa) = 38.26689 45.52953 41.89821
# Shear Modulus (GPa) = 20.17550 30.07355 25.12453
#
# Velocity S-wave (km/s) = 3.57910 4.36972 3.99402
# Velocity P-wave (km/s) = 6.43246 7.37340 6.91894
#
# Compressibility (1/GPa) = 0.02613225
#
# Stress axis : x y z
#
# Youngs Moduli (GPa) = 77.32691 99.62203 51.34305
#
# Poissons Ratio (x) = 0.40324 0.08183
# Poissons Ratio (y) = 0.31300 0.12917
# Poissons Ratio (z) = 0.12324 0.25064
#
# Static dielectric constant tensor:
#      x y z
#    x 1.523500 0.000000 0.000000 
#    y 0.000000 1.574660 0.000000 
#    z 0.000000 0.000000 1.486850 
# 
# From -- ./inp_files/14646.got.cif
#   From: 2010.05.17/outbox.cif.g08.bks.cpg/sg51_8_cif.got.tgz:14646.got - 2010.06.03 11:52:47.
