data_PCOD9398806
_publ_section_title
;
Structure prediction by ZEFSAII (Michael W. Deem and Ramdas Pophale) SiO2 
 PCOD9398806
Probable space group: P M M A
;
_chemical_formula_sum "Si O2"
_cell_formula_units_Z 64
_cell_length_a 8.737669
_cell_length_b 18.994751
_cell_length_c 27.050379
_cell_angle_alpha 90.000000
_cell_angle_beta 90.000000
_cell_angle_gamma 90.000000
_cell_volume 4489.547263
_symmetry_space_group_name_H-M "P M M A"
_symmetry_group_IT_number 51
_symmetry_cell_setting 'orthorhombic'
loop_
_space_group_symop_operation_xyz
x,y,z
1/2-x,-y,z
1/2+x,-y,-z
-x,y,-z
-x,-y,-z
1/2+x,y,-z
1/2-x,y,z
x,-y,z
loop_
_atom_site_type_symbol
_atom_site_label
_atom_site_fract_x
_atom_site_fract_y
_atom_site_fract_z
Si Si1 0.433291 0.417998 0.945665
Si Si2 0.067585 0.337483 0.146724
Si Si3 0.926079 0.707566 0.301294
Si Si4 0.934988 0.155897 0.350433
Si Si5 0.563789 0.418549 0.241225
Si Si6 0.932848 0.916858 0.553372
Si Si7 0.926251 0.793044 0.197173
Si Si8 0.933260 0.918445 0.746581
O O1 0.250000 0.411182 0.946222
O O2 0.470055 0.500000 0.933631
O O3 0.503890 0.367595 0.904470
O O4 0.500000 0.403680 0.000000
O O5 0.250000 0.339470 0.147428
O O6 0.002374 0.387199 0.190514
O O7 0.009938 0.258655 0.159115
O O8 0.750000 0.695445 0.316235
O O9 0.992043 0.764124 0.339550
O O10 0.991927 0.632001 0.285925
O O11 0.926221 0.750091 0.249248
O O12 0.750000 0.155823 0.348553
O O13 0.993435 0.126130 0.401993
O O14 0.995827 0.108040 0.305294
O O15 0.750000 0.412788 0.238670
O O16 0.524188 0.500000 0.247358
O O17 0.750000 0.908483 0.553493
O O18 0.000000 0.896741 0.500000
O O19 0.967061 0.000000 0.560774
O O20 0.750000 0.803470 0.182883
O O21 0.005669 0.866461 0.210805
O O22 0.750000 0.912238 0.743313
O O23 0.973130 0.000000 0.754919
#
# Coordination Sequence:
#
# PCOD9398806 Si02
#       8
#     8   8   8   8   8   8   8   8
#     4  10  20  33  47  63  85 113 146 183 219 254
#     4  11  20  29  43  62  86 115 145 177 216 259
#     4   7  13  25  39  57  79 104 136 172 206 241
#     4  10  18  28  43  60  82 114 147 175 206 248
#     4   9  16  27  43  61  83 113 147 179 209 245
#     4  10  20  32  44  59  80 105 136 175 214 251
#     4   9  17  30  45  60  81 110 145 180 212 250
#     4  10  19  29  42  63  90 116 143 176 213 253
#
# _framework density 14.255335000000001
#
# number of rings (size 3 to 8) (size 9 to 14) (size 15 to 20)
#    0.000    2.500    0.000    5.250    0.000    5.750 
#    0.000    0.625    0.000    0.000    0.000    0.000 
#    0.000    1.000    0.000    2.750    0.000    4.125 
#
# Total GULP energy -356578.181121 kJ/mol
# GULP energy per Si atom -5571.534080 kJ/mol
# Density = 1.422289 g / cm^3
# Si number density = 14.255335 Si / 1000 Ang^3
#
#
#
# Elastic Constant Matrix: (Units=GPa)
#
#
# Indices 1 2 3 4 5 6 
#
# 1 57.9022 46.0300 38.4437 0.0000 0.0000 0.0000
# 2 46.0300 126.1699 67.6523 0.0000 0.0000 0.0000
# 3 38.4437 67.6523 91.1527 0.0000 0.0000 0.0000
# 4 0.0000 0.0000 0.0000 27.5449 0.0000 0.0000
# 5 0.0000 0.0000 0.0000 0.0000 22.3584 0.0000
# 6 0.0000 0.0000 0.0000 0.0000 0.0000 18.4009
#
#
#
# Elastic Compliance Matrix: (Units=1/GPa)
#
#
# Indices 1 2 3 4 5 6 
#
# 1 0.026555 -0.006117 -0.006660 0.000000 0.000000 0.000000
# 2 -0.006117 0.014574 -0.008237 0.000000 0.000000 0.000000
# 3 -0.006660 -0.008237 0.019893 0.000000 0.000000 0.000000
# 4 0.000000 0.000000 0.000000 0.036304 0.000000 0.000000
# 5 0.000000 0.000000 0.000000 0.000000 0.044726 0.000000
# 6 0.000000 0.000000 0.000000 0.000000 0.000000 0.054345
#
#
# Mechanical properties :
#
#
# Convention : Reuss Voigt Hill
#
# Bulk Modulus (GPa) = 52.64638 64.38630 58.51634
# Shear Modulus (GPa) = 20.42859 21.86743 21.14801
#
# Velocity S-wave (km/s) = 3.78967 3.92086 3.85582
# Velocity P-wave (km/s) = 7.49400 8.10938 7.80775
#
# Compressibility (1/GPa) = 0.01899466
#
# Stress axis : x y z
#
# Youngs Moduli (GPa) = 37.65790 68.61509 50.27018
#
# Poissons Ratio (x) = 0.41972 0.33478
# Poissons Ratio (y) = 0.23035 0.41407
# Poissons Ratio (z) = 0.25078 0.56517
#
# Static dielectric constant tensor:
#      x y z
#    x 1.482800 0.000000 0.000000 
#    y 0.000000 1.488300 0.000000 
#    z 0.000000 0.000000 1.443650 
# 
# From -- ./inp_files/36412.got.cif
#   From: 2010.05.17/outbox.cif.g08.bks.cpg/sg51_19_cif.got.tgz:36412.got - 2010.06.03 11:52:47.
