data_PCOD9398966
_publ_section_title
;
Structure prediction by ZEFSAII (Michael W. Deem and Ramdas Pophale) SiO2 
 PCOD9398966
Probable space group: P M M A
;
_chemical_formula_sum "Si O2"
_cell_formula_units_Z 48
_cell_length_a 42.275473
_cell_length_b 9.691399
_cell_length_c 5.560926
_cell_angle_alpha 90.000000
_cell_angle_beta 90.000000
_cell_angle_gamma 90.000000
_cell_volume 2278.358521
_symmetry_space_group_name_H-M "P M M A"
_symmetry_group_IT_number 51
_symmetry_cell_setting 'orthorhombic'
loop_
_space_group_symop_operation_xyz
x,y,z
1/2-x,-y,z
1/2+x,-y,-z
-x,y,-z
-x,-y,-z
1/2+x,y,-z
1/2-x,y,z
x,-y,z
loop_
_atom_site_type_symbol
_atom_site_label
_atom_site_fract_x
_atom_site_fract_y
_atom_site_fract_z
Si Si1 0.807513 0.199396 0.720473
Si Si2 0.483862 0.167593 0.750199
Si Si3 0.285822 0.760118 0.780368
Si Si4 0.409878 0.168206 0.717746
Si Si5 0.618245 0.840623 0.782383
Si Si6 0.833405 0.500000 0.204363
Si Si7 0.330527 0.500000 0.296009
O O1 0.790129 0.161594 0.966476
O O2 0.844154 0.160625 0.747264
O O3 0.808280 0.366518 0.707512
O O4 0.793625 0.157359 0.463654
O O5 0.500000 0.214587 0.500000
O O6 0.446749 0.201098 0.746848
O O7 0.486283 0.000000 0.750570
O O8 0.500000 0.215053 0.000000
O O9 0.250000 0.708375 0.764344
O O10 0.311090 0.635208 0.792357
O O11 0.396829 0.219983 0.461051
O O12 0.406513 0.000000 0.710104
O O13 0.391182 0.217159 0.955940
O O14 0.607230 0.000000 0.790772
O O15 0.850357 0.500000 0.459835
O O16 0.850308 0.500000 0.948659
#
# Coordination Sequence:
#
# PCOD9398966 Si02
#       7
#     8   8   8   8   8   4   4
#     4  10  19  31  46  64  85 110 138 172 216 256
#     4   9  15  23  37  58  85 114 139 166 204 246
#     4  10  18  29  45  64  85 106 134 172 216 266
#     4   9  17  28  42  62  85 113 149 178 202 238
#     4  10  19  31  46  61  82 115 151 180 201 236
#     4   8  15  26  42  64  86 106 126 157 207 266
#     4   8  16  28  43  64  86 106 130 165 211 258
#
# _framework density 21.067798
#
# number of rings (size 3 to 8) (size 9 to 14) (size 15 to 20)
#    0.000    2.667    0.000    2.750    0.000    4.000 
#    0.000    5.000    0.000    3.000    0.000    0.000 
#    0.000    0.000    0.000   15.000    0.000    6.667 
#
# Total GULP energy -267419.672835 kJ/mol
# GULP energy per Si atom -5571.243184 kJ/mol
# Density = 2.101985 g / cm^3
# Si number density = 21.067798 Si / 1000 Ang^3
#
#
#
# Elastic Constant Matrix: (Units=GPa)
#
#
# Indices 1 2 3 4 5 6 
#
# 1 35.3582 -19.4254 11.3452 0.0000 0.0000 0.0000
# 2 -19.4254 51.7154 -11.4167 0.0000 0.0000 0.0000
# 3 11.3452 -11.4167 208.8813 0.0000 0.0000 0.0000
# 4 0.0000 0.0000 0.0000 -12.9491 0.0000 0.0000
# 5 0.0000 0.0000 0.0000 0.0000 38.3924 0.0000
# 6 0.0000 0.0000 0.0000 0.0000 0.0000 13.2219
#
#
#
# Elastic Compliance Matrix: (Units=1/GPa)
#
#
# Indices 1 2 3 4 5 6 
#
# 1 0.035945 0.013230 -0.001229 0.000000 0.000000 0.000000
# 2 0.013230 0.024443 0.000617 0.000000 0.000000 0.000000
# 3 -0.001229 0.000617 0.004888 0.000000 0.000000 0.000000
# 4 0.000000 0.000000 0.000000 -0.077225 0.000000 0.000000
# 5 0.000000 0.000000 0.000000 0.000000 0.026047 0.000000
# 6 0.000000 0.000000 0.000000 0.000000 0.000000 0.075632
#
#
# Mechanical properties :
#
#
# Convention : Reuss Voigt Hill
#
# Bulk Modulus (GPa) = 11.04819 28.55122 19.79971
# Shear Modulus (GPa) = 52.81901 28.76316 40.79108
#
# Velocity S-wave (km/s) = 5.01252 3.69896 4.40498
# Velocity P-wave (km/s) = 6.22543 5.64133 5.94056
#
# Compressibility (1/GPa) = 0.09051255
#
# Stress axis : x y z
#
# Youngs Moduli (GPa) = 27.82026 40.91230 204.58637
#
# Poissons Ratio (x) = -0.54129 0.25148
# Poissons Ratio (y) = -0.36807 -0.12630
# Poissons Ratio (z) = 0.03420 -0.02526
#
# Static dielectric constant tensor:
#      x y z
#    x 1.693790 0.000000 0.000000 
#    y 0.000000 1.782820 0.000000 
#    z 0.000000 0.000000 1.872840 
# 
# From -- ./inp_files/3975.got.cif
#   From: 2010.05.17/outbox.cif.g08.bks.cpg/sg51_2_cif.got.tgz:3975.got - 2010.06.03 11:52:47.
