data_PCOD9398270
_publ_section_title
;
Structure prediction by ZEFSAII (Michael W. Deem and Ramdas Pophale) SiO2 
 PCOD9398270
Probable space group: P B A N
;
_chemical_formula_sum "Si O2"
_cell_formula_units_Z 34
_cell_length_a 15.827276
_cell_length_b 18.477306
_cell_length_c 5.124247
_cell_angle_alpha 90.000000
_cell_angle_beta 90.000000
_cell_angle_gamma 90.000000
_cell_volume 1498.562575
_symmetry_space_group_name_H-M "P B A N"
_symmetry_group_IT_number 50
_space_group.IT_coordinate_system_code '2'
_symmetry_cell_setting 'orthorhombic'
loop_
_space_group_symop_operation_xyz
x,y,z
1/2-x,1/2-y,z
x,1/2-y,-z
1/2-x,y,-z
-x,-y,-z
1/2+x,1/2+y,-z
-x,1/2+y,z
1/2+x,-y,z
loop_
_atom_site_type_symbol
_atom_site_label
_atom_site_fract_x
_atom_site_fract_y
_atom_site_fract_z
Si Si1 0.842350 0.906732 0.600546
Si Si2 0.160688 0.861267 0.854121
Si Si3 0.403849 0.250000 0.500000
Si Si4 0.976780 0.250000 0.000000
Si Si5 0.250000 0.750000 0.500000
Si Si6 0.590548 0.519009 0.120070
O O1 0.750000 0.930242 0.500000
O O2 0.849785 0.820567 0.572429
O O3 0.861247 0.936839 0.889749
O O4 0.909624 0.937039 0.389699
O O5 0.184384 0.806325 0.625985
O O6 0.250000 0.862273 0.000000
O O7 0.083660 0.820245 0.992977
O O8 0.134892 0.943176 0.807790
O O9 0.464314 0.258736 0.749323
O O10 0.500000 0.500000 0.000000
#
# Coordination Sequence:
#
# PCOD9398270 Si02
#       6
#     8   8   4   4   2   8
#     4  12  26  49  72 108 136 196 243 302 369 432
#     4  12  25  43  68 106 144 191 243 298 365 449
#     4  12  26  46  75  99 146 184 248 310 358 446
#     4  12  25  44  69 106 142 192 238 302 373 432
#     4  12  24  44  72 108 144 196 242 302 366 434
#     4  12  28  47  73 106 150 191 241 304 374 440
#
# _framework density 22.688407999999999
#
# number of rings (size 3 to 8) (size 9 to 14) (size 15 to 20)
#    0.000    0.000    2.353    8.118    4.941    0.000 
#    0.000    3.529    0.000    0.000    0.000    0.000 
#    0.000    0.000    0.000    0.000    0.000    0.000 
#
# Total GULP energy -190176.452660 kJ/mol
# GULP energy per Si atom -5593.425078 kJ/mol
# Density = 2.263677 g / cm^3
# Si number density = 22.688408 Si / 1000 Ang^3
#
#
#
# Elastic Constant Matrix: (Units=GPa)
#
#
# Indices 1 2 3 4 5 6 
#
# 1 71.6038 6.4570 3.8523 0.0000 0.0000 0.0000
# 2 6.4570 175.8891 31.5496 0.0000 0.0000 0.0000
# 3 3.8523 31.5496 87.7197 0.0000 0.0000 0.0000
# 4 0.0000 0.0000 0.0000 39.5737 0.0000 0.0000
# 5 0.0000 0.0000 0.0000 0.0000 32.8666 0.0000
# 6 0.0000 0.0000 0.0000 0.0000 0.0000 37.5371
#
#
#
# Elastic Compliance Matrix: (Units=1/GPa)
#
#
# Indices 1 2 3 4 5 6 
#
# 1 0.014030 -0.000432 -0.000461 0.000000 0.000000 0.000000
# 2 -0.000432 0.006091 -0.002172 0.000000 0.000000 0.000000
# 3 -0.000461 -0.002172 0.012201 0.000000 0.000000 0.000000
# 4 0.000000 0.000000 0.000000 0.025269 0.000000 0.000000
# 5 0.000000 0.000000 0.000000 0.000000 0.030426 0.000000
# 6 0.000000 0.000000 0.000000 0.000000 0.000000 0.026640
#
#
# Mechanical properties :
#
#
# Convention : Reuss Voigt Hill
#
# Bulk Modulus (GPa) = 38.17928 46.54784 42.36356
# Shear Modulus (GPa) = 38.60490 41.55240 40.07865
#
# Velocity S-wave (km/s) = 4.12943 4.28417 4.20751
# Velocity P-wave (km/s) = 6.29289 6.71065 6.50512
#
# Compressibility (1/GPa) = 0.02619222
#
# Stress axis : x y z
#
# Youngs Moduli (GPa) = 71.27836 164.18176 81.95889
#
# Poissons Ratio (x) = 0.07100 0.03775
# Poissons Ratio (y) = 0.03082 0.17799
# Poissons Ratio (z) = 0.03283 0.35655
#
# Static dielectric constant tensor:
#      x y z
#    x 1.872270 0.000000 0.000000 
#    y 0.000000 1.276040 0.000000 
#    z 0.000000 0.000000 1.866630 
# 
# From -- ./inp_files/3077.got.cif
#   From: 2010.05.17/outbox.cif.g08.bks.cpg/sg50_2_cif.got.tgz:3077.got - 2010.06.03 11:33:33.
