data_PCOD9398169
_publ_section_title
;
Structure prediction by ZEFSAII (Michael W. Deem and Ramdas Pophale) SiO2 
 PCOD9398169
Probable space group: P B A N
;
_chemical_formula_sum "Si O2"
_cell_formula_units_Z 38
_cell_length_a 9.538311
_cell_length_b 24.614333
_cell_length_c 7.781979
_cell_angle_alpha 90.000000
_cell_angle_beta 90.000000
_cell_angle_gamma 90.000000
_cell_volume 1827.046518
_symmetry_space_group_name_H-M "P B A N"
_symmetry_group_IT_number 50
_space_group.IT_coordinate_system_code '2'
_symmetry_cell_setting 'orthorhombic'
loop_
_space_group_symop_operation_xyz
x,y,z
1/2-x,1/2-y,z
x,1/2-y,-z
1/2-x,y,-z
-x,-y,-z
1/2+x,1/2+y,-z
-x,1/2+y,z
1/2+x,-y,z
loop_
_atom_site_type_symbol
_atom_site_label
_atom_site_fract_x
_atom_site_fract_y
_atom_site_fract_z
Si Si1 0.750000 0.512389 0.000000
Si Si2 0.446836 0.396574 0.151160
Si Si3 0.777147 0.812375 0.296801
Si Si4 0.750000 0.250000 0.000000
Si Si5 0.415959 0.656306 0.173706
Si Si6 0.294877 0.567627 0.682398
O O1 0.873580 0.551536 0.065453
O O2 0.713001 0.475094 0.162271
O O3 0.329275 0.352894 0.201216
O O4 0.545403 0.411236 0.311826
O O5 0.549532 0.372324 0.007434
O O6 0.750000 0.750000 0.240627
O O7 0.750000 0.815064 0.500000
O O8 0.935461 0.831089 0.260455
O O9 0.658248 0.212076 0.122844
O O10 0.313048 0.616886 0.278752
O O11 0.250000 0.543443 0.500000
#
# Coordination Sequence:
#
# PCOD9398169 Si02
#       6
#     4   8   8   2   8   8
#     4  12  25  46  73  99 136 185 240 290 350 414
#     4  12  23  46  72 100 138 182 234 292 344 415
#     4  11  25  43  68 104 143 181 233 283 347 423
#     4  12  22  40  80 100 140 184 238 272 360 428
#     4  12  23  45  70 102 136 184 231 283 346 419
#     4  12  27  46  70 101 142 183 234 292 352 413
#
# _framework density 20.798594000000001
#
# number of rings (size 3 to 8) (size 9 to 14) (size 15 to 20)
#    0.000    0.211    6.316    3.158    0.000    2.526 
#    0.000    0.000    0.000    0.000    0.000    0.000 
#    0.000    0.000    0.000    0.000    0.000    0.000 
#
# Total GULP energy -212703.338246 kJ/mol
# GULP energy per Si atom -5597.456270 kJ/mol
# Density = 2.075126 g / cm^3
# Si number density = 20.798594 Si / 1000 Ang^3
#
#
#
# Elastic Constant Matrix: (Units=GPa)
#
#
# Indices 1 2 3 4 5 6 
#
# 1 131.7383 53.2093 37.4963 0.0000 0.0000 0.0000
# 2 53.2093 125.7352 38.7852 0.0000 0.0000 0.0000
# 3 37.4963 38.7852 99.8353 0.0000 0.0000 0.0000
# 4 0.0000 0.0000 0.0000 24.9219 0.0000 0.0000
# 5 0.0000 0.0000 0.0000 0.0000 28.1661 0.0000
# 6 0.0000 0.0000 0.0000 0.0000 0.0000 44.1897
#
#
#
# Elastic Compliance Matrix: (Units=1/GPa)
#
#
# Indices 1 2 3 4 5 6 
#
# 1 0.009600 -0.003352 -0.002303 0.000000 0.000000 0.000000
# 2 -0.003352 0.010207 -0.002706 0.000000 0.000000 0.000000
# 3 -0.002303 -0.002706 0.011933 0.000000 0.000000 0.000000
# 4 0.000000 0.000000 0.000000 0.040125 0.000000 0.000000
# 5 0.000000 0.000000 0.000000 0.000000 0.035504 0.000000
# 6 0.000000 0.000000 0.000000 0.000000 0.000000 0.022630
#
#
# Mechanical properties :
#
#
# Convention : Reuss Voigt Hill
#
# Bulk Modulus (GPa) = 66.59407 68.47670 67.53538
# Shear Modulus (GPa) = 32.95380 34.64342 33.79861
#
# Velocity S-wave (km/s) = 3.98480 4.08568 4.03556
# Velocity P-wave (km/s) = 7.29792 7.43318 7.36586
#
# Compressibility (1/GPa) = 0.01501635
#
# Stress axis : x y z
#
# Youngs Moduli (GPa) = 104.16243 97.97589 83.80168
#
# Poissons Ratio (x) = 0.32844 0.19303
# Poissons Ratio (y) = 0.34918 0.22678
# Poissons Ratio (z) = 0.23993 0.26514
#
# Static dielectric constant tensor:
#      x y z
#    x 1.760880 0.000000 0.000000 
#    y 0.000000 1.754370 0.000000 
#    z 0.000000 0.000000 1.743400 
# 
# From -- ./inp_files/9581.got.cif
#   From: 2010.05.17/outbox.cif.g08.bks.cpg/sg50_5_cif.got.tgz:9581.got - 2010.06.03 11:33:33.
