data_PCOD9398780
_publ_section_title
;
Structure prediction by ZEFSAII (Michael W. Deem and Ramdas Pophale) SiO2 
 PCOD9398780
Probable space group: P M M A
;
_chemical_formula_sum "Si O2"
_cell_formula_units_Z 64
_cell_length_a 18.745590
_cell_length_b 9.091292
_cell_length_c 27.276601
_cell_angle_alpha 90.000000
_cell_angle_beta 90.000000
_cell_angle_gamma 90.000000
_cell_volume 4648.522869
_symmetry_space_group_name_H-M "P M M A"
_symmetry_group_IT_number 51
_symmetry_cell_setting 'orthorhombic'
loop_
_space_group_symop_operation_xyz
x,y,z
1/2-x,-y,z
1/2+x,-y,-z
-x,y,-z
-x,-y,-z
1/2+x,y,-z
1/2-x,y,z
x,-y,z
loop_
_atom_site_type_symbol
_atom_site_label
_atom_site_fract_x
_atom_site_fract_y
_atom_site_fract_z
Si Si1 0.668286 0.821235 0.198275
Si Si2 0.913422 0.821452 0.101655
Si Si3 0.084593 0.675616 0.601487
Si Si4 0.834515 0.823750 0.309484
Si Si5 0.833373 0.324626 0.010302
Si Si6 0.832636 0.676423 0.499121
Si Si7 0.449495 0.169302 0.048464
Si Si8 0.042931 0.169305 0.448266
O O1 0.750000 0.773794 0.188410
O O2 0.616385 0.775903 0.154506
O O3 0.648404 0.777188 0.253559
O O4 0.669138 0.000000 0.198483
O O5 0.864435 0.751937 0.059223
O O6 0.995759 0.781090 0.090711
O O7 0.909367 0.000000 0.097370
O O8 0.079618 0.500000 0.604667
O O9 0.119373 0.742538 0.649931
O O10 0.135453 0.711590 0.554743
O O11 0.007598 0.744276 0.589219
O O12 0.750000 0.795585 0.317042
O O13 0.844888 0.000000 0.313383
O O14 0.750000 0.289059 0.004432
O O15 0.841133 0.500000 0.014753
O O16 0.881738 0.266231 0.965495
O O17 0.750000 0.719229 0.502025
O O18 0.838033 0.500000 0.504878
O O19 0.882376 0.754155 0.539160
O O20 0.427978 0.000000 0.056866
O O21 0.500000 0.170648 0.000000
O O22 0.000000 0.172263 0.500000
O O23 0.051818 0.000000 0.433685
#
# Coordination Sequence:
#
# PCOD9398780 Si02
#       8
#     8   8   8   8   8   8   8   8
#     4   8  14  25  41  59  78 102 131 162 196 231
#     4   9  16  27  43  59  75 100 134 165 194 232
#     4  10  18  28  42  58  79 109 140 166 196 233
#     4   9  17  28  41  58  80 105 134 166 197 231
#     4  10  19  27  36  54  79 105 132 160 192 231
#     4   9  17  28  41  58  81 108 136 164 196 236
#     4   8  15  26  39  56  75  97 128 162 193 228
#     4   9  17  28  41  58  79 103 133 168 202 234
#
# _framework density 13.767815000000001
#
# number of rings (size 3 to 8) (size 9 to 14) (size 15 to 20)
#    0.000    3.000    0.000    3.375    0.000    6.750 
#    0.000    0.625    0.000    0.750    0.000    0.000 
#    0.000    1.000    0.000    9.250    0.000    3.125 
#
# Total GULP energy -356344.964728 kJ/mol
# GULP energy per Si atom -5567.890074 kJ/mol
# Density = 1.373648 g / cm^3
# Si number density = 13.767815 Si / 1000 Ang^3
#
#
#
# Elastic Constant Matrix: (Units=GPa)
#
#
# Indices 1 2 3 4 5 6 
#
# 1 111.7795 46.9329 62.9014 0.0000 0.0000 0.0000
# 2 46.9329 35.8796 35.2287 0.0000 0.0000 0.0000
# 3 62.9014 35.2287 94.7368 0.0000 0.0000 0.0000
# 4 0.0000 0.0000 0.0000 11.2307 0.0000 0.0000
# 5 0.0000 0.0000 0.0000 0.0000 27.1906 0.0000
# 6 0.0000 0.0000 0.0000 0.0000 0.0000 21.7489
#
#
#
# Elastic Compliance Matrix: (Units=1/GPa)
#
#
# Indices 1 2 3 4 5 6 
#
# 1 0.021889 -0.022622 -0.006121 0.000000 0.000000 0.000000
# 2 -0.022622 0.067279 -0.009998 0.000000 0.000000 0.000000
# 3 -0.006121 -0.009998 0.018338 0.000000 0.000000 0.000000
# 4 0.000000 0.000000 0.000000 0.089041 0.000000 0.000000
# 5 0.000000 0.000000 0.000000 0.000000 0.036777 0.000000
# 6 0.000000 0.000000 0.000000 0.000000 0.000000 0.045979
#
#
# Mechanical properties :
#
#
# Convention : Reuss Voigt Hill
#
# Bulk Modulus (GPa) = 33.30796 59.16910 46.23853
# Shear Modulus (GPa) = 13.63158 18.52290 16.07724
#
# Velocity S-wave (km/s) = 3.15001 3.67192 3.42093
# Velocity P-wave (km/s) = 6.12170 7.81326 7.01862
#
# Compressibility (1/GPa) = 0.03002286
#
# Stress axis : x y z
#
# Youngs Moduli (GPa) = 45.68449 14.86340 54.53252
#
# Poissons Ratio (x) = 0.33625 0.33381
# Poissons Ratio (y) = 1.03349 0.54522
# Poissons Ratio (z) = 0.27965 0.14861
#
# Static dielectric constant tensor:
#      x y z
#    x 1.447720 0.000000 0.000000 
#    y 0.000000 1.459870 0.000000 
#    z 0.000000 0.000000 1.442760 
# 
# From -- ./inp_files/36712.got.cif
#   From: 2010.05.17/outbox.cif.g08.bks.cpg/sg51_19_cif.got.tgz:36712.got - 2010.06.03 11:52:47.
