data_PCOD9398230
_publ_section_title
;
Structure prediction by ZEFSAII (Michael W. Deem and Ramdas Pophale) SiO2 
 PCOD9398230
Probable space group: P B A N
;
_chemical_formula_sum "Si O2"
_cell_formula_units_Z 40
_cell_length_a 19.647266
_cell_length_b 11.220827
_cell_length_c 7.273634
_cell_angle_alpha 90.000000
_cell_angle_beta 90.000000
_cell_angle_gamma 90.000000
_cell_volume 1603.534971
_symmetry_space_group_name_H-M "P B A N"
_symmetry_group_IT_number 50
_space_group.IT_coordinate_system_code '2'
_symmetry_cell_setting 'orthorhombic'
loop_
_space_group_symop_operation_xyz
x,y,z
1/2-x,1/2-y,z
x,1/2-y,-z
1/2-x,y,-z
-x,-y,-z
1/2+x,1/2+y,-z
-x,1/2+y,z
1/2+x,-y,z
loop_
_atom_site_type_symbol
_atom_site_label
_atom_site_fract_x
_atom_site_fract_y
_atom_site_fract_z
Si Si1 0.250000 0.750000 0.000000
Si Si2 0.431695 0.750000 0.000000
Si Si3 0.366499 0.113025 0.196427
Si Si4 0.768417 0.429958 0.696924
Si Si5 0.250000 0.250000 0.000000
Si Si6 0.882947 0.011893 0.816467
Si Si7 0.027866 0.187025 0.321199
O O1 0.213045 0.662449 0.142379
O O2 0.397485 0.851291 0.870499
O O3 0.476948 0.680696 0.849457
O O4 0.298581 0.176958 0.130001
O O5 0.415741 0.211375 0.276787
O O6 0.335019 0.011674 0.325033
O O7 0.394729 0.057645 0.008564
O O8 0.750000 0.378253 0.500000
O O9 0.697253 0.492141 0.762411
O O10 0.932384 0.940485 0.675043
O O11 0.994270 0.250000 0.500000
#
# Coordination Sequence:
#
# PCOD9398230 Si02
#       7
#     2   4   8   8   2   8   8
#     4  12  22  44  60  94 156 198 224 278 348 448
#     4  12  28  48  71  97 150 201 241 298 362 440
#     4  12  21  41  75 101 142 186 236 306 368 431
#     4  12  25  43  71 108 143 189 244 299 371 448
#     4  12  16  36  70 104 136 194 220 288 394 428
#     4  12  23  47  73 103 146 191 235 301 377 442
#     4  12  26  47  74 106 137 188 256 310 361 430
#
# _framework density 24.944887000000001
#
# number of rings (size 3 to 8) (size 9 to 14) (size 15 to 20)
#    0.000    0.000    8.000    2.700    0.000    0.800 
#    3.600    2.000    0.000    0.000    0.000    0.000 
#    0.000    0.000    0.000    0.000    0.000    0.000 
#
# Total GULP energy -223492.233470 kJ/mol
# GULP energy per Si atom -5587.305837 kJ/mol
# Density = 2.488811 g / cm^3
# Si number density = 24.944887 Si / 1000 Ang^3
#
#
#
# Elastic Constant Matrix: (Units=GPa)
#
#
# Indices 1 2 3 4 5 6 
#
# 1 49.4981 13.7796 6.6788 0.0000 0.0000 0.0000
# 2 13.7796 100.9004 19.3060 0.0000 0.0000 0.0000
# 3 6.6788 19.3060 116.0792 0.0000 0.0000 0.0000
# 4 0.0000 0.0000 0.0000 34.5744 0.0000 0.0000
# 5 0.0000 0.0000 0.0000 0.0000 -42.4360 0.0000
# 6 0.0000 0.0000 0.0000 0.0000 0.0000 20.9885
#
#
#
# Elastic Compliance Matrix: (Units=1/GPa)
#
#
# Indices 1 2 3 4 5 6 
#
# 1 0.021066 -0.002732 -0.000758 0.000000 0.000000 0.000000
# 2 -0.002732 0.010591 -0.001604 0.000000 0.000000 0.000000
# 3 -0.000758 -0.001604 0.008925 0.000000 0.000000 0.000000
# 4 0.000000 0.000000 0.000000 0.028923 0.000000 0.000000
# 5 0.000000 0.000000 0.000000 0.000000 -0.023565 0.000000
# 6 0.000000 0.000000 0.000000 0.000000 0.000000 0.047645
#
#
# Mechanical properties :
#
#
# Convention : Reuss Voigt Hill
#
# Bulk Modulus (GPa) = 32.90129 38.44518 35.67323
# Shear Modulus (GPa) = 43.89664 17.73959 30.81812
#
# Velocity S-wave (km/s) = 4.19948 2.66964 3.51871
# Velocity P-wave (km/s) = 6.06073 4.99481 5.55340
#
# Compressibility (1/GPa) = 0.03039395
#
# Stress axis : x y z
#
# Youngs Moduli (GPa) = 47.47086 94.42158 112.04212
#
# Poissons Ratio (x) = 0.25795 0.08489
# Poissons Ratio (y) = 0.12968 0.17974
# Poissons Ratio (z) = 0.03597 0.15148
#
# Static dielectric constant tensor:
#      x y z
#    x 2.018060 0.000000 0.000000 
#    y 0.000000 2.076790 0.000000 
#    z 0.000000 0.000000 1.977790 
# 
# From -- ./inp_files/15163.got.cif
#   From: 2010.05.17/outbox.cif.g08.bks.cpg/sg50_8_cif.got.tgz:15163.got - 2010.06.03 11:33:33.
