data_PCOD9398846
_publ_section_title
;
Structure prediction by ZEFSAII (Michael W. Deem and Ramdas Pophale) SiO2 
 PCOD9398846
Probable space group: P M M A
;
_chemical_formula_sum "Si O2"
_cell_formula_units_Z 56
_cell_length_a 9.044670
_cell_length_b 22.090607
_cell_length_c 18.816684
_cell_angle_alpha 90.000000
_cell_angle_beta 90.000000
_cell_angle_gamma 90.000000
_cell_volume 3759.615809
_symmetry_space_group_name_H-M "P M M A"
_symmetry_group_IT_number 51
_symmetry_cell_setting 'orthorhombic'
loop_
_space_group_symop_operation_xyz
x,y,z
1/2-x,-y,z
1/2+x,-y,-z
-x,y,-z
-x,-y,-z
1/2+x,y,-z
1/2-x,y,z
x,-y,z
loop_
_atom_site_type_symbol
_atom_site_label
_atom_site_fract_x
_atom_site_fract_y
_atom_site_fract_z
Si Si1 0.072783 0.931207 0.679140
Si Si2 0.073756 0.794224 0.923060
Si Si3 0.576176 0.329902 0.165546
Si Si4 0.073601 0.753238 0.712103
Si Si5 0.925719 0.178967 0.424003
Si Si6 0.425781 0.860808 0.200799
Si Si7 0.925850 0.570335 0.924991
O O1 0.250000 0.924622 0.689329
O O2 0.028475 0.881458 0.619985
O O3 0.992694 0.915552 0.753167
O O4 0.041986 0.000000 0.657013
O O5 0.250000 0.802565 0.927746
O O6 0.048340 0.729982 0.882725
O O7 0.001508 0.846602 0.874574
O O8 0.000000 0.792295 0.000000
O O9 0.750000 0.344247 0.159178
O O10 0.545894 0.309171 0.246692
O O11 0.482909 0.385020 0.135590
O O12 0.250000 0.767088 0.724210
O O13 0.045645 0.764417 0.629104
O O14 0.975376 0.802928 0.752081
O O15 0.750000 0.174921 0.433995
O O16 0.000000 0.183502 0.500000
O O17 0.250000 0.864909 0.194381
O O18 0.750000 0.574841 0.932208
O O19 0.964554 0.500000 0.911032
O O20 0.000000 0.587786 0.000000
#
# Coordination Sequence:
#
# PCOD9398846 Si02
#       7
#     8   8   8   8   8   8   8
#     4   9  18  33  49  62  82 116 150 176 208 252
#     4  10  19  30  44  64  88 112 141 178 221 264
#     4   9  17  29  46  64  83 112 149 185 216 251
#     4   8  16  31  46  61  85 116 146 176 214 259
#     4   9  17  29  45  66  92 118 142 171 210 256
#     4  10  18  28  44  65  86 108 138 178 220 259
#     4  10  20  31  42  59  87 122 155 186 220 257
#
# _framework density 14.895137999999999
#
# number of rings (size 3 to 8) (size 9 to 14) (size 15 to 20)
#    0.000    2.714    0.000    4.286    0.000    7.714 
#    0.000    0.000    0.000    0.429    0.000    0.000 
#    0.000    0.571    0.000    1.286    0.000    2.286 
#
# Total GULP energy -311841.267432 kJ/mol
# GULP energy per Si atom -5568.594061 kJ/mol
# Density = 1.486124 g / cm^3
# Si number density = 14.895138 Si / 1000 Ang^3
#
#
#
# Elastic Constant Matrix: (Units=GPa)
#
#
# Indices 1 2 3 4 5 6 
#
# 1 47.1912 29.2765 48.4357 0.0000 0.0000 0.0000
# 2 29.2765 60.3182 46.8057 0.0000 0.0000 0.0000
# 3 48.4357 46.8057 109.7922 0.0000 0.0000 0.0000
# 4 0.0000 0.0000 0.0000 16.5746 0.0000 0.0000
# 5 0.0000 0.0000 0.0000 0.0000 28.8209 0.0000
# 6 0.0000 0.0000 0.0000 0.0000 0.0000 19.4483
#
#
#
# Elastic Compliance Matrix: (Units=1/GPa)
#
#
# Indices 1 2 3 4 5 6 
#
# 1 0.041703 -0.008914 -0.014597 0.000000 0.000000 0.000000
# 2 -0.008914 0.026680 -0.007441 0.000000 0.000000 0.000000
# 3 -0.014597 -0.007441 0.018720 0.000000 0.000000 0.000000
# 4 0.000000 0.000000 0.000000 0.060333 0.000000 0.000000
# 5 0.000000 0.000000 0.000000 0.000000 0.034697 0.000000
# 6 0.000000 0.000000 0.000000 0.000000 0.000000 0.051418
#
#
# Mechanical properties :
#
#
# Convention : Reuss Voigt Hill
#
# Bulk Modulus (GPa) = 39.68694 51.81527 45.75110
# Shear Modulus (GPa) = 16.45517 19.15434 17.80475
#
# Velocity S-wave (km/s) = 3.32736 3.58990 3.46112
# Velocity P-wave (km/s) = 6.43924 7.21425 6.83773
#
# Compressibility (1/GPa) = 0.02519721
#
# Stress axis : x y z
#
# Youngs Moduli (GPa) = 23.97924 37.48180 53.41825
#
# Poissons Ratio (x) = 0.33411 0.77977
# Poissons Ratio (y) = 0.21375 0.39751
# Poissons Ratio (z) = 0.35003 0.27892
#
# Static dielectric constant tensor:
#      x y z
#    x 1.494790 0.000000 0.000000 
#    y 0.000000 1.497200 0.000000 
#    z 0.000000 0.000000 1.500570 
# 
# From -- ./inp_files/28238.got.cif
#   From: 2010.05.17/outbox.cif.g08.bks.cpg/sg51_15_cif.got.tgz:28238.got - 2010.06.03 11:52:47.
