data_PCOD9398763
_publ_section_title
;
Structure prediction by ZEFSAII (Michael W. Deem and Ramdas Pophale) SiO2 
 PCOD9398763
Probable space group: P M M A
;
_chemical_formula_sum "Si O2"
_cell_formula_units_Z 48
_cell_length_a 21.778652
_cell_length_b 8.776382
_cell_length_c 15.633273
_cell_angle_alpha 90.000000
_cell_angle_beta 90.000000
_cell_angle_gamma 90.000000
_cell_volume 2988.108930
_symmetry_space_group_name_H-M "P M M A"
_symmetry_group_IT_number 51
_symmetry_cell_setting 'orthorhombic'
loop_
_space_group_symop_operation_xyz
x,y,z
1/2-x,-y,z
1/2+x,-y,-z
-x,y,-z
-x,-y,-z
1/2+x,y,-z
1/2-x,y,z
x,-y,z
loop_
_atom_site_type_symbol
_atom_site_label
_atom_site_fract_x
_atom_site_fract_y
_atom_site_fract_z
Si Si1 0.954055 0.182273 0.387621
Si Si2 0.465623 0.180696 0.804183
Si Si3 0.677601 0.818464 0.691479
Si Si4 0.914828 0.318262 0.557455
Si Si5 0.071892 0.323201 0.972072
Si Si6 0.099273 0.683428 0.157275
O O1 0.938632 0.216731 0.289151
O O2 0.912823 0.262223 0.459438
O O3 0.023264 0.242107 0.404403
O O4 0.952852 0.000000 0.400070
O O5 0.424434 0.230510 0.884594
O O6 0.531365 0.263738 0.813596
O O7 0.476825 0.000000 0.807864
O O8 0.750000 0.788115 0.688454
O O9 0.641629 0.738496 0.614028
O O10 0.647950 0.755947 0.778845
O O11 0.667495 0.000000 0.686456
O O12 0.920800 0.500000 0.561393
O O13 0.086667 0.500000 0.955661
O O14 0.106828 0.270585 0.057561
O O15 0.000000 0.317171 0.000000
O O16 0.101595 0.500000 0.161198
#
# Coordination Sequence:
#
# PCOD9398763 Si02
#       6
#     8   8   8   8   8   8
#     4  10  19  31  48  70 101 132 161 199 246 295
#     4  10  18  27  45  71  98 130 161 192 235 288
#     4  11  23  37  52  70  95 129 166 205 249 295
#     4  11  21  32  49  71  95 127 165 203 246 294
#     4   8  16  28  42  64  95 127 156 190 234 278
#     4  10  19  31  47  67  95 128 161 200 240 284
#
# _framework density 16.063670999999999
#
# number of rings (size 3 to 8) (size 9 to 14) (size 15 to 20)
#    0.000    2.000    1.667    5.500    0.000    7.000 
#    0.000    0.000    0.000    0.000    0.000    1.167 
#    0.000    6.667    0.000    0.000    0.000    0.000 
#
# Total GULP energy -267683.902410 kJ/mol
# GULP energy per Si atom -5576.747967 kJ/mol
# Density = 1.602711 g / cm^3
# Si number density = 16.063671 Si / 1000 Ang^3
#
#
#
# Elastic Constant Matrix: (Units=GPa)
#
#
# Indices 1 2 3 4 5 6 
#
# 1 48.5204 27.8620 42.2232 0.0000 0.0000 0.0000
# 2 27.8620 57.7993 46.4823 0.0000 0.0000 0.0000
# 3 42.2232 46.4823 151.1429 0.0000 0.0000 0.0000
# 4 0.0000 0.0000 0.0000 34.5530 0.0000 0.0000
# 5 0.0000 0.0000 0.0000 0.0000 15.0014 0.0000
# 6 0.0000 0.0000 0.0000 0.0000 0.0000 8.7975
#
#
#
# Elastic Compliance Matrix: (Units=1/GPa)
#
#
# Indices 1 2 3 4 5 6 
#
# 1 0.031608 -0.010809 -0.005506 0.000000 0.000000 0.000000
# 2 -0.010809 0.026682 -0.005186 0.000000 0.000000 0.000000
# 3 -0.005506 -0.005186 0.009749 0.000000 0.000000 0.000000
# 4 0.000000 0.000000 0.000000 0.028941 0.000000 0.000000
# 5 0.000000 0.000000 0.000000 0.000000 0.066660 0.000000
# 6 0.000000 0.000000 0.000000 0.000000 0.000000 0.113669
#
#
# Mechanical properties :
#
#
# Convention : Reuss Voigt Hill
#
# Bulk Modulus (GPa) = 39.93952 54.51086 47.22519
# Shear Modulus (GPa) = 15.21342 21.06339 18.13840
#
# Velocity S-wave (km/s) = 3.08079 3.62504 3.36394
# Velocity P-wave (km/s) = 6.12962 7.17838 6.67463
#
# Compressibility (1/GPa) = 0.02503786
#
# Stress axis : x y z
#
# Youngs Moduli (GPa) = 31.63774 37.47784 102.57054
#
# Poissons Ratio (x) = 0.40508 0.56474
# Poissons Ratio (y) = 0.34196 0.53197
# Poissons Ratio (z) = 0.17419 0.19437
#
# Static dielectric constant tensor:
#      x y z
#    x 1.495640 0.000000 0.000000 
#    y 0.000000 1.537960 0.000000 
#    z 0.000000 0.000000 1.581530 
# 
# From -- ./inp_files/25476.got.cif
#   From: 2010.05.17/outbox.cif.g08.bks.cpg/sg51_13_cif.got.tgz:25476.got - 2010.06.03 11:52:47.
