data_PCOD9398810
_publ_section_title
;
Structure prediction by ZEFSAII (Michael W. Deem and Ramdas Pophale) SiO2 
 PCOD9398810
Probable space group: P M M A
;
_chemical_formula_sum "Si O2"
_cell_formula_units_Z 64
_cell_length_a 7.489203
_cell_length_b 20.585972
_cell_length_c 20.543104
_cell_angle_alpha 90.000000
_cell_angle_beta 90.000000
_cell_angle_gamma 90.000000
_cell_volume 3167.182179
_symmetry_space_group_name_H-M "P M M A"
_symmetry_group_IT_number 51
_symmetry_cell_setting 'orthorhombic'
loop_
_space_group_symop_operation_xyz
x,y,z
1/2-x,-y,z
1/2+x,-y,-z
-x,y,-z
-x,-y,-z
1/2+x,y,-z
1/2-x,y,z
x,-y,z
loop_
_atom_site_type_symbol
_atom_site_label
_atom_site_fract_x
_atom_site_fract_y
_atom_site_fract_z
Si Si1 0.968262 0.317104 0.717128
Si Si2 0.037509 0.826670 0.569645
Si Si3 0.534452 0.070787 0.326703
Si Si4 0.967631 0.426483 0.821392
Si Si5 0.037011 0.325719 0.075955
Si Si6 0.553671 0.678689 0.573010
Si Si7 0.468803 0.215550 0.176019
Si Si8 0.544975 0.071317 0.823594
O O1 0.750000 0.313593 0.714364
O O2 0.017075 0.377365 0.763409
O O3 0.037274 0.329506 0.643835
O O4 0.023176 0.250943 0.755794
O O5 0.250000 0.816060 0.575844
O O6 0.973453 0.871248 0.627979
O O7 0.000000 0.858783 0.500000
O O8 0.945673 0.756945 0.568724
O O9 0.750000 0.075063 0.320401
O O10 0.456406 0.072797 0.254870
O O11 0.492971 0.000000 0.355547
O O12 0.750000 0.428600 0.821269
O O13 0.031308 0.500000 0.814602
O O14 0.026444 0.391036 0.887905
O O15 0.250000 0.325251 0.083461
O O16 0.974348 0.264396 0.118643
O O17 0.000000 0.322293 0.000000
O O18 0.500000 0.657041 0.500000
O O19 0.750000 0.650724 0.581333
O O20 0.250000 0.212623 0.177796
O O21 0.533614 0.142451 0.161523
O O22 0.750000 0.071013 0.846960
O O23 0.466773 0.000000 0.841966
#
# Coordination Sequence:
#
# PCOD9398810 Si02
#       8
#     8   8   8   8   8   8   8   8
#     4   8  14  24  41  63  84 111 145 178 213 253
#     4  10  19  29  40  54  74 102 136 172 212 259
#     4   9  18  30  40  53  77 105 130 164 216 270
#     4   8  14  26  45  69  93 116 146 180 209 241
#     4   9  17  29  46  68  94 122 146 172 209 249
#     4  10  18  28  43  62  84 108 137 177 222 262
#     4   8  14  26  43  63  87 112 141 179 218 253
#     4   9  16  26  43  64  80 100 137 181 218 252
#
# _framework density 20.207236000000002
#
# number of rings (size 3 to 8) (size 9 to 14) (size 15 to 20)
#    0.000    3.125    0.000    3.750    0.000    2.500 
#    0.000    0.625    0.000    6.750    0.000    0.000 
#    0.000    0.000    0.000    0.000    0.000    0.500 
#
# Total GULP energy -356312.407607 kJ/mol
# GULP energy per Si atom -5567.381369 kJ/mol
# Density = 2.016124 g / cm^3
# Si number density = 20.207236 Si / 1000 Ang^3
#
#
#
# Elastic Constant Matrix: (Units=GPa)
#
#
# Indices 1 2 3 4 5 6 
#
# 1 54.3152 4.0941 0.9029 0.0000 0.0000 0.0000
# 2 4.0941 131.0379 44.0432 0.0000 0.0000 0.0000
# 3 0.9029 44.0432 121.7701 0.0000 0.0000 0.0000
# 4 0.0000 0.0000 0.0000 15.7611 0.0000 0.0000
# 5 0.0000 0.0000 0.0000 0.0000 16.0204 0.0000
# 6 0.0000 0.0000 0.0000 0.0000 0.0000 0.0224
#
#
#
# Elastic Compliance Matrix: (Units=1/GPa)
#
#
# Indices 1 2 3 4 5 6 
#
# 1 0.018455 -0.000604 0.000082 0.000000 0.000000 0.000000
# 2 -0.000604 0.008707 -0.003145 0.000000 0.000000 0.000000
# 3 0.000082 -0.003145 0.009349 0.000000 0.000000 0.000000
# 4 0.000000 0.000000 0.000000 0.063448 0.000000 0.000000
# 5 0.000000 0.000000 0.000000 0.000000 0.062421 0.000000
# 6 0.000000 0.000000 0.000000 0.000000 0.000000 44.716642
#
#
# Mechanical properties :
#
#
# Convention : Reuss Voigt Hill
#
# Bulk Modulus (GPa) = 34.27357 45.02263 39.64810
# Shear Modulus (GPa) = 0.11137 23.56629 11.83883
#
# Velocity S-wave (km/s) = 0.23502 3.41872 2.42310
# Velocity P-wave (km/s) = 4.13177 6.15730 5.24327
#
# Compressibility (1/GPa) = 0.02917700
#
# Stress axis : x y z
#
# Youngs Moduli (GPa) = 54.18521 114.84645 106.96252
#
# Poissons Ratio (x) = 0.06937 -0.00873
# Poissons Ratio (y) = 0.03273 0.33638
# Poissons Ratio (z) = -0.00442 0.36118
#
# Static dielectric constant tensor:
#      x y z
#    x 1.779630 0.000000 0.000000 
#    y 0.000000 1.726530 0.000000 
#    z 0.000000 0.000000 1.729860 
# 
# From -- ./inp_files/32601.got.cif
#   From: 2010.05.17/outbox.cif.g08.bks.cpg/sg51_17_cif.got.tgz:32601.got - 2010.06.03 11:52:47.
