data_PCOD9398531
_publ_section_title
;
Structure prediction by ZEFSAII (Michael W. Deem and Ramdas Pophale) SiO2 
 PCOD9398531
Probable space group: P M M A
;
_chemical_formula_sum "Si O2"
_cell_formula_units_Z 48
_cell_length_a 14.421176
_cell_length_b 15.754262
_cell_length_c 11.582830
_cell_angle_alpha 90.000000
_cell_angle_beta 90.000000
_cell_angle_gamma 90.000000
_cell_volume 2631.560889
_symmetry_space_group_name_H-M "P M M A"
_symmetry_group_IT_number 51
_symmetry_cell_setting 'orthorhombic'
loop_
_space_group_symop_operation_xyz
x,y,z
1/2-x,-y,z
1/2+x,-y,-z
-x,y,-z
-x,-y,-z
1/2+x,y,-z
1/2-x,y,z
x,-y,z
loop_
_atom_site_type_symbol
_atom_site_label
_atom_site_fract_x
_atom_site_fract_y
_atom_site_fract_z
Si Si1 0.610618 0.311659 0.498142
Si Si2 0.548730 0.906943 0.683345
Si Si3 0.855079 0.737894 0.756839
Si Si4 0.527959 0.401206 0.866522
Si Si5 0.356156 0.123503 0.565247
Si Si6 0.849420 0.400217 0.276129
O O1 0.500000 0.310227 0.500000
O O2 0.642345 0.305955 0.629687
O O3 0.643761 0.225398 0.437625
O O4 0.641401 0.385696 0.413148
O O5 0.581634 0.822598 0.750002
O O6 0.606497 0.902346 0.562231
O O7 0.439497 0.902319 0.650520
O O8 0.567334 0.000000 0.735694
O O9 0.750000 0.763891 0.781068
O O10 0.891412 0.665718 0.842332
O O11 0.549929 0.500000 0.834999
O O12 0.440982 0.369295 0.788994
O O13 0.500000 0.401005 0.000000
O O14 0.250000 0.095300 0.585128
O O15 0.750000 0.363705 0.237983
O O16 0.847764 0.500000 0.251336
#
# Coordination Sequence:
#
# PCOD9398531 Si02
#       6
#     8   8   8   8   8   8
#     4  11  17  31  51  73 110 148 180 218 267 329
#     4  10  19  31  46  72 110 148 187 230 273 321
#     4  11  22  36  55  82 112 145 185 226 274 332
#     4  10  22  40  60  81 106 137 178 231 282 328
#     4  10  17  27  45  70 104 149 192 226 266 319
#     4  10  20  33  51  75 104 140 178 217 270 333
#
# _framework density 18.240124999999999
#
# number of rings (size 3 to 8) (size 9 to 14) (size 15 to 20)
#    0.000    1.667    5.000    4.000    0.000    4.333 
#    0.000    1.667    0.000    0.500    0.000    0.000 
#    0.000    0.000    0.000    0.000    0.000    0.000 
#
# Total GULP energy -267467.189601 kJ/mol
# GULP energy per Si atom -5572.233117 kJ/mol
# Density = 1.819861 g / cm^3
# Si number density = 18.240125 Si / 1000 Ang^3
#
#
#
# Elastic Constant Matrix: (Units=GPa)
#
#
# Indices 1 2 3 4 5 6 
#
# 1 137.1969 29.0961 3.9337 0.0000 0.0000 0.0000
# 2 29.0961 65.7228 16.1807 0.0000 0.0000 0.0000
# 3 3.9337 16.1807 29.0900 0.0000 0.0000 0.0000
# 4 0.0000 0.0000 0.0000 4.3631 0.0000 0.0000
# 5 0.0000 0.0000 0.0000 0.0000 -1.6934 0.0000
# 6 0.0000 0.0000 0.0000 0.0000 0.0000 22.3100
#
#
#
# Elastic Compliance Matrix: (Units=1/GPa)
#
#
# Indices 1 2 3 4 5 6 
#
# 1 0.008071 -0.003829 0.001038 0.000000 0.000000 0.000000
# 2 -0.003829 0.019446 -0.010299 0.000000 0.000000 0.000000
# 3 0.001038 -0.010299 0.039964 0.000000 0.000000 0.000000
# 4 0.000000 0.000000 0.000000 0.229193 0.000000 0.000000
# 5 0.000000 0.000000 0.000000 0.000000 -0.590545 0.000000
# 6 0.000000 0.000000 0.000000 0.000000 0.000000 0.044823
#
#
# Mechanical properties :
#
#
# Convention : Reuss Voigt Hill
#
# Bulk Modulus (GPa) = 24.21147 36.71453 30.46300
# Shear Modulus (GPa) = -23.91179 17.18258 -3.36461
#
# Velocity S-wave (km/s) = -3.62462 3.07257 -1.35964
# Velocity P-wave (km/s) = 2.05296 5.72361 3.77790
#
# Compressibility (1/GPa) = 0.04130274
#
# Stress axis : x y z
#
# Youngs Moduli (GPa) = 123.90031 51.42464 25.02250
#
# Poissons Ratio (x) = 0.19689 -0.02598
# Poissons Ratio (y) = 0.47438 0.25770
# Poissons Ratio (z) = -0.12864 0.52960
#
# Static dielectric constant tensor:
#      x y z
#    x 1.689440 0.000000 0.000000 
#    y 0.000000 1.657140 0.000000 
#    z 0.000000 0.000000 1.598120 
# 
# From -- ./inp_files/16390.got.cif
#   From: 2010.05.17/outbox.cif.g08.bks.cpg/sg51_9_cif.got.tgz:16390.got - 2010.06.03 11:52:47.
