data_PCOD9398509
_publ_section_title
;
Structure prediction by ZEFSAII (Michael W. Deem and Ramdas Pophale) SiO2 
 PCOD9398509
Probable space group: P M M A
;
_chemical_formula_sum "Si O2"
_cell_formula_units_Z 64
_cell_length_a 27.026755
_cell_length_b 9.155106
_cell_length_c 17.597432
_cell_angle_alpha 90.000000
_cell_angle_beta 90.000000
_cell_angle_gamma 90.000000
_cell_volume 4354.181993
_symmetry_space_group_name_H-M "P M M A"
_symmetry_group_IT_number 51
_symmetry_cell_setting 'orthorhombic'
loop_
_space_group_symop_operation_xyz
x,y,z
1/2-x,-y,z
1/2+x,-y,-z
-x,y,-z
-x,-y,-z
1/2+x,y,-z
1/2-x,y,z
x,-y,z
loop_
_atom_site_type_symbol
_atom_site_label
_atom_site_fract_x
_atom_site_fract_y
_atom_site_fract_z
Si Si1 0.425623 0.174160 0.140931
Si Si2 0.307161 0.175637 0.399431
Si Si3 0.042399 0.174677 0.834022
Si Si4 0.892507 0.174919 0.484796
Si Si5 0.373111 0.330352 0.277394
Si Si6 0.940545 0.332163 0.013217
Si Si7 0.559368 0.175308 0.335369
Si Si8 0.037697 0.669188 0.398814
O O1 0.482999 0.204288 0.165322
O O2 0.389093 0.247403 0.201308
O O3 0.419613 0.000000 0.139775
O O4 0.418979 0.241897 0.057308
O O5 0.250000 0.214488 0.411203
O O6 0.342130 0.215064 0.471257
O O7 0.329991 0.252790 0.325393
O O8 0.310477 0.000000 0.389897
O O9 0.066235 0.256986 0.905255
O O10 0.064235 0.219744 0.752436
O O11 0.047992 0.000000 0.844013
O O12 0.897253 0.209447 0.395531
O O13 0.937025 0.253993 0.529108
O O14 0.898770 0.000000 0.493181
O O15 0.361740 0.500000 0.262680
O O16 0.420856 0.324423 0.332872
O O17 0.923914 0.500000 0.012410
O O18 0.000000 0.331704 0.000000
O O19 0.510192 0.247647 0.369151
O O20 0.552605 0.000000 0.334726
O O21 0.026697 0.500000 0.414452
#
# Coordination Sequence:
#
# PCOD9398509 Si02
#       8
#     8   8   8   8   8   8   8   8
#     4  10  17  27  43  60  82 112 147 180 209 249
#     4   9  18  33  50  65  83 109 142 180 221 263
#     4   9  17  27  39  56  80 113 149 180 211 248
#     4   9  18  30  44  60  80 108 142 177 215 258
#     4  10  19  29  43  64  87 112 143 178 217 259
#     4   9  17  27  39  56  81 112 145 179 214 247
#     4  10  18  28  41  58  82 113 146 178 212 252
#     4  10  19  28  39  57  84 113 142 176 212 249
#
# _framework density 14.698513
#
# number of rings (size 3 to 8) (size 9 to 14) (size 15 to 20)
#    0.000    2.500    1.250    1.875    0.000    5.750 
#    0.000    0.000    0.000    0.000    0.000    0.000 
#    0.000    1.000    0.000    7.500    0.000    1.750 
#
# Total GULP energy -356652.361481 kJ/mol
# GULP energy per Si atom -5572.693148 kJ/mol
# Density = 1.466506 g / cm^3
# Si number density = 14.698513 Si / 1000 Ang^3
#
#
#
# Elastic Constant Matrix: (Units=GPa)
#
#
# Indices 1 2 3 4 5 6 
#
# 1 47.5961 26.8612 44.0698 0.0000 0.0000 0.0000
# 2 26.8612 46.2631 56.4468 0.0000 0.0000 0.0000
# 3 44.0698 56.4468 153.8116 0.0000 0.0000 0.0000
# 4 0.0000 0.0000 0.0000 13.8640 0.0000 0.0000
# 5 0.0000 0.0000 0.0000 0.0000 11.4369 0.0000
# 6 0.0000 0.0000 0.0000 0.0000 0.0000 8.3800
#
#
#
# Elastic Compliance Matrix: (Units=1/GPa)
#
#
# Indices 1 2 3 4 5 6 
#
# 1 0.032789 -0.013718 -0.004361 0.000000 0.000000 0.000000
# 2 -0.013718 0.044881 -0.012540 0.000000 0.000000 0.000000
# 3 -0.004361 -0.012540 0.012353 0.000000 0.000000 0.000000
# 4 0.000000 0.000000 0.000000 0.072129 0.000000 0.000000
# 5 0.000000 0.000000 0.000000 0.000000 0.087436 0.000000
# 6 0.000000 0.000000 0.000000 0.000000 0.000000 0.119331
#
#
# Mechanical properties :
#
#
# Convention : Reuss Voigt Hill
#
# Bulk Modulus (GPa) = 34.73893 55.82515 45.28204
# Shear Modulus (GPa) = 11.37003 14.75572 13.06287
#
# Velocity S-wave (km/s) = 2.78429 3.17186 2.98438
# Velocity P-wave (km/s) = 5.83284 7.17474 6.53831
#
# Compressibility (1/GPa) = 0.02878615
#
# Stress axis : x y z
#
# Youngs Moduli (GPa) = 30.49783 22.28111 80.95213
#
# Poissons Ratio (x) = 0.30564 0.35299
# Poissons Ratio (y) = 0.41836 1.01517
# Poissons Ratio (z) = 0.13299 0.27941
#
# Static dielectric constant tensor:
#      x y z
#    x 1.454440 0.000000 0.000000 
#    y 0.000000 1.489120 0.000000 
#    z 0.000000 0.000000 1.500900 
# 
# From -- ./inp_files/26679.got.cif
#   From: 2010.05.17/outbox.cif.g08.bks.cpg/sg51_14_cif.got.tgz:26679.got - 2010.06.03 11:52:47.
