data_PCOD9398692
_publ_section_title
;
Structure prediction by ZEFSAII (Michael W. Deem and Ramdas Pophale) SiO2 
 PCOD9398692
Probable space group: P M M A
;
_chemical_formula_sum "Si O2"
_cell_formula_units_Z 64
_cell_length_a 9.157264
_cell_length_b 26.672603
_cell_length_c 18.412557
_cell_angle_alpha 90.000000
_cell_angle_beta 90.000000
_cell_angle_gamma 90.000000
_cell_volume 4497.231460
_symmetry_space_group_name_H-M "P M M A"
_symmetry_group_IT_number 51
_symmetry_cell_setting 'orthorhombic'
loop_
_space_group_symop_operation_xyz
x,y,z
1/2-x,-y,z
1/2+x,-y,-z
-x,y,-z
-x,-y,-z
1/2+x,y,-z
1/2-x,y,z
x,-y,z
loop_
_atom_site_type_symbol
_atom_site_label
_atom_site_fract_x
_atom_site_fract_y
_atom_site_fract_z
Si Si1 0.918761 0.695441 0.299494
Si Si2 0.922329 0.737185 0.922611
Si Si3 0.923459 0.148137 0.678240
Si Si4 0.917633 0.795581 0.198955
Si Si5 0.922875 0.362077 0.823650
Si Si6 0.425432 0.941985 0.423414
Si Si7 0.923655 0.754046 0.577832
Si Si8 0.078200 0.440183 0.923717
O O1 0.750000 0.682218 0.313450
O O2 0.918934 0.745583 0.249409
O O3 0.001744 0.654189 0.251542
O O4 0.003851 0.711336 0.371947
O O5 0.750000 0.745312 0.931300
O O6 0.942155 0.684836 0.879126
O O7 0.992492 0.780172 0.872154
O O8 0.000000 0.734479 0.000000
O O9 0.750000 0.146380 0.693518
O O10 0.969198 0.096857 0.639041
O O11 0.946183 0.193412 0.620632
O O12 0.008658 0.162192 0.751211
O O13 0.750000 0.807218 0.181515
O O14 0.750000 0.369950 0.814365
O O15 0.000712 0.409209 0.860491
O O16 0.500000 0.929069 0.500000
O O17 0.250000 0.938040 0.431843
O O18 0.460952 0.000000 0.406673
O O19 0.750000 0.746420 0.570945
O O20 0.000000 0.756061 0.500000
O O21 0.250000 0.427676 0.927925
O O22 0.064455 0.500000 0.912835
O O23 0.000000 0.427775 0.000000
#
# Coordination Sequence:
#
# PCOD9398692 Si02
#       8
#     8   8   8   8   8   8   8   8
#     4   9  17  29  43  59  81 108 138 172 208 247
#     4  10  19  29  42  61  85 111 139 170 204 244
#     4   9  17  28  41  57  80 110 141 173 209 248
#     4   9  17  28  42  59  79 105 137 171 206 245
#     4  10  19  30  45  63  84 112 143 174 209 248
#     4   9  17  28  41  58  81 109 141 176 211 245
#     4  10  18  27  40  59  83 110 141 174 209 249
#     4  10  20  32  45  62  85 113 145 180 214 246
#
# _framework density 14.230976999999999
#
# number of rings (size 3 to 8) (size 9 to 14) (size 15 to 20)
#    0.000    2.500    0.000    3.000    0.000    7.250 
#    0.000    0.000    0.000    0.000    0.000    0.000 
#    0.000    1.000    0.000    3.250    0.000    4.875 
#
# Total GULP energy -356816.135631 kJ/mol
# GULP energy per Si atom -5575.252119 kJ/mol
# Density = 1.419859 g / cm^3
# Si number density = 14.230977 Si / 1000 Ang^3
#
#
#
# Elastic Constant Matrix: (Units=GPa)
#
#
# Indices 1 2 3 4 5 6 
#
# 1 96.9766 33.5749 52.8454 0.0000 0.0000 0.0000
# 2 33.5749 39.6614 15.6647 0.0000 0.0000 0.0000
# 3 52.8454 15.6647 60.0128 0.0000 0.0000 0.0000
# 4 0.0000 0.0000 0.0000 27.8215 0.0000 0.0000
# 5 0.0000 0.0000 0.0000 0.0000 29.1290 0.0000
# 6 0.0000 0.0000 0.0000 0.0000 0.0000 18.1449
#
#
#
# Elastic Compliance Matrix: (Units=1/GPa)
#
#
# Indices 1 2 3 4 5 6 
#
# 1 0.025353 -0.014098 -0.018645 0.000000 0.000000 0.000000
# 2 -0.014098 0.035951 0.003030 0.000000 0.000000 0.000000
# 3 -0.018645 0.003030 0.032291 0.000000 0.000000 0.000000
# 4 0.000000 0.000000 0.000000 0.035943 0.000000 0.000000
# 5 0.000000 0.000000 0.000000 0.000000 0.034330 0.000000
# 6 0.000000 0.000000 0.000000 0.000000 0.000000 0.055112
#
#
# Mechanical properties :
#
#
# Convention : Reuss Voigt Hill
#
# Bulk Modulus (GPa) = 29.26651 44.53564 36.90107
# Shear Modulus (GPa) = 17.25350 21.32345 19.28847
#
# Velocity S-wave (km/s) = 3.48572 3.87509 3.68555
# Velocity P-wave (km/s) = 6.06715 7.16831 6.64059
#
# Compressibility (1/GPa) = 0.03416875
#
# Stress axis : x y z
#
# Youngs Moduli (GPa) = 39.44281 27.81541 30.96883
#
# Poissons Ratio (x) = 0.39215 0.57742
# Poissons Ratio (y) = 0.55608 -0.09385
# Poissons Ratio (z) = 0.73542 -0.08429
#
# Static dielectric constant tensor:
#      x y z
#    x 1.474520 0.000000 0.000000 
#    y 0.000000 1.457520 0.000000 
#    z 0.000000 0.000000 1.445200 
# 
# From -- ./inp_files/28677.got.cif
#   From: 2010.05.17/outbox.cif.g08.bks.cpg/sg51_15_cif.got.tgz:28677.got - 2010.06.03 11:52:47.
