data_PCOD9398650
_publ_section_title
;
Structure prediction by ZEFSAII (Michael W. Deem and Ramdas Pophale) SiO2 
 PCOD9398650
Probable space group: P M M A
;
_chemical_formula_sum "Si O2"
_cell_formula_units_Z 32
_cell_length_a 10.873027
_cell_length_b 16.437327
_cell_length_c 8.656471
_cell_angle_alpha 90.000000
_cell_angle_beta 90.000000
_cell_angle_gamma 90.000000
_cell_volume 1547.114797
_symmetry_space_group_name_H-M "P M M A"
_symmetry_group_IT_number 51
_symmetry_cell_setting 'orthorhombic'
loop_
_space_group_symop_operation_xyz
x,y,z
1/2-x,-y,z
1/2+x,-y,-z
-x,y,-z
-x,-y,-z
1/2+x,y,-z
1/2-x,y,z
x,-y,z
loop_
_atom_site_type_symbol
_atom_site_label
_atom_site_fract_x
_atom_site_fract_y
_atom_site_fract_z
Si Si1 0.985835 0.406883 0.811591
Si Si2 0.986007 0.093769 0.167476
Si Si3 0.750000 0.313613 0.830816
Si Si4 0.250000 0.100211 0.639272
Si Si5 0.750000 0.134705 0.711667
Si Si6 0.250000 0.598108 0.839102
O O1 0.954995 0.500000 0.774137
O O2 0.875504 0.349842 0.761838
O O3 0.122258 0.386999 0.752401
O O4 0.000000 0.403037 0.000000
O O5 0.120207 0.093841 0.244010
O O6 0.873569 0.125781 0.269658
O O7 0.948102 0.000000 0.140537
O O8 0.000000 0.134853 0.000000
O O9 0.750000 0.218606 0.804872
O O10 0.750000 0.346492 0.007337
O O11 0.250000 0.140264 0.472106
O O12 0.250000 0.000000 0.618844
O O13 0.250000 0.500000 0.881557
#
# Coordination Sequence:
#
# PCOD9398650 Si02
#       6
#     8   8   4   4   4   4
#     4   8  13  24  42  62  90 134 188 240 283 324
#     4  10  21  39  62  85 108 140 189 244 289 332
#     4  10  18  25  37  65 106 144 178 214 266 328
#     4  10  21  40  65  86 108 144 189 238 288 343
#     4  12  23  33  51  83 121 157 190 222 280 351
#     4   8  14  26  45  66  93 139 197 248 286 322
#
# _framework density 20.683662000000002
#
# number of rings (size 3 to 8) (size 9 to 14) (size 15 to 20)
#    0.000    2.500    0.000    5.250    0.000    7.000 
#    0.000    1.250    0.000    0.000    0.000    0.000 
#    0.000   36.000    0.000   24.750    0.000    2.250 
#
# Total GULP energy -178326.478979 kJ/mol
# GULP energy per Si atom -5572.702468 kJ/mol
# Density = 2.063659 g / cm^3
# Si number density = 20.683662 Si / 1000 Ang^3
#
#
#
# Elastic Constant Matrix: (Units=GPa)
#
#
# Indices 1 2 3 4 5 6 
#
# 1 137.6430 8.2334 25.2568 0.0000 0.0000 0.0000
# 2 8.2334 48.0884 -8.9128 0.0000 0.0000 0.0000
# 3 25.2568 -8.9128 75.8263 0.0000 0.0000 0.0000
# 4 0.0000 0.0000 0.0000 10.3131 0.0000 0.0000
# 5 0.0000 0.0000 0.0000 0.0000 21.2141 0.0000
# 6 0.0000 0.0000 0.0000 0.0000 0.0000 8.8422
#
#
#
# Elastic Compliance Matrix: (Units=1/GPa)
#
#
# Indices 1 2 3 4 5 6 
#
# 1 0.007901 -0.001882 -0.002853 0.000000 0.000000 0.000000
# 2 -0.001882 0.021706 0.003178 0.000000 0.000000 0.000000
# 3 -0.002853 0.003178 0.014512 0.000000 0.000000 0.000000
# 4 0.000000 0.000000 0.000000 0.096964 0.000000 0.000000
# 5 0.000000 0.000000 0.000000 0.000000 0.047139 0.000000
# 6 0.000000 0.000000 0.000000 0.000000 0.000000 0.113094
#
#
# Mechanical properties :
#
#
# Convention : Reuss Voigt Hill
#
# Bulk Modulus (GPa) = 24.38635 34.52360 29.45498
# Shear Modulus (GPa) = 15.71841 23.87255 19.79548
#
# Velocity S-wave (km/s) = 2.75970 3.40100 3.09699
# Velocity P-wave (km/s) = 4.68725 5.67009 5.20193
#
# Compressibility (1/GPa) = 0.04100654
#
# Stress axis : x y z
#
# Youngs Moduli (GPa) = 126.56270 46.06970 68.90900
#
# Poissons Ratio (x) = 0.08668 0.19659
# Poissons Ratio (y) = 0.23814 -0.21900
# Poissons Ratio (z) = 0.36108 -0.14642
#
# Static dielectric constant tensor:
#      x y z
#    x 1.804550 0.000000 0.000000 
#    y 0.000000 1.743290 0.000000 
#    z 0.000000 0.000000 1.736010 
# 
# From -- ./inp_files/6776.got.cif
#   From: 2010.05.17/outbox.cif.g08.bks.cpg/sg51_4_cif.got.tgz:6776.got - 2010.06.03 11:52:47.
