data_PCOD9398785
_publ_section_title
;
Structure prediction by ZEFSAII (Michael W. Deem and Ramdas Pophale) SiO2 
 PCOD9398785
Probable space group: P M M A
;
_chemical_formula_sum "Si O2"
_cell_formula_units_Z 64
_cell_length_a 27.034637
_cell_length_b 9.018086
_cell_length_c 18.462352
_cell_angle_alpha 90.000000
_cell_angle_beta 90.000000
_cell_angle_gamma 90.000000
_cell_volume 4501.133999
_symmetry_space_group_name_H-M "P M M A"
_symmetry_group_IT_number 51
_symmetry_cell_setting 'orthorhombic'
loop_
_space_group_symop_operation_xyz
x,y,z
1/2-x,-y,z
1/2+x,-y,-z
-x,y,-z
-x,-y,-z
1/2+x,y,-z
1/2-x,y,z
x,-y,z
loop_
_atom_site_type_symbol
_atom_site_label
_atom_site_fract_x
_atom_site_fract_y
_atom_site_fract_z
Si Si1 0.895147 0.178312 0.083462
Si Si2 0.513820 0.676375 0.170300
Si Si3 0.691722 0.676093 0.166983
Si Si4 0.047510 0.169927 0.053812
Si Si5 0.507360 0.175853 0.326363
Si Si6 0.104265 0.823639 0.575022
Si Si7 0.192432 0.822705 0.678435
Si Si8 0.049508 0.670396 0.450116
O O1 0.937593 0.249945 0.133996
O O2 0.843253 0.240617 0.110608
O O3 0.897752 0.000000 0.090327
O O4 0.908351 0.215281 0.999952
O O5 0.518923 0.500000 0.170240
O O6 0.467821 0.726963 0.120035
O O7 0.507736 0.739024 0.250763
O O8 0.750000 0.703380 0.153993
O O9 0.682913 0.500000 0.164685
O O10 0.680366 0.738338 0.247241
O O11 0.054660 0.000000 0.078556
O O12 0.000000 0.169135 0.000000
O O13 0.559287 0.202548 0.368407
O O14 0.464622 0.234986 0.379749
O O15 0.502804 0.000000 0.314670
O O16 0.154861 0.780338 0.614866
O O17 0.091537 0.738808 0.501330
O O18 0.105067 0.000000 0.560482
O O19 0.250000 0.794681 0.660822
O O20 0.186616 0.000000 0.690903
O O21 0.059614 0.500000 0.431211
O O22 0.000000 0.673547 0.500000
#
# Coordination Sequence:
#
# PCOD9398785 Si02
#       8
#     8   8   8   8   8   8   8   8
#     4  10  19  31  46  61  81 113 148 177 208 249
#     4  11  20  28  42  64  88 112 140 174 211 250
#     4  10  20  31  43  62  87 112 141 180 220 252
#     4   8  16  30  44  59  81 109 141 174 207 246
#     4  10  18  28  42  59  83 113 143 173 204 245
#     4   9  17  28  42  59  79 108 143 173 206 246
#     4   9  17  29  44  61  83 112 145 178 209 245
#     4   9  17  28  41  58  80 105 135 172 211 248
#
# _framework density 14.218639
#
# number of rings (size 3 to 8) (size 9 to 14) (size 15 to 20)
#    0.000    2.500    0.000    4.125    0.000    7.000 
#    0.000    0.000    0.000    0.000    0.000    0.000 
#    0.000    1.000    0.000    5.250    0.000    4.250 
#
# Total GULP energy -356744.622024 kJ/mol
# GULP energy per Si atom -5574.134719 kJ/mol
# Density = 1.418628 g / cm^3
# Si number density = 14.218639 Si / 1000 Ang^3
#
#
#
# Elastic Constant Matrix: (Units=GPa)
#
#
# Indices 1 2 3 4 5 6 
#
# 1 53.0307 32.1110 27.2974 0.0000 0.0000 0.0000
# 2 32.1110 72.9498 45.9905 0.0000 0.0000 0.0000
# 3 27.2974 45.9905 61.4669 0.0000 0.0000 0.0000
# 4 0.0000 0.0000 0.0000 2.6601 0.0000 0.0000
# 5 0.0000 0.0000 0.0000 0.0000 27.5362 0.0000
# 6 0.0000 0.0000 0.0000 0.0000 0.0000 18.0820
#
#
#
# Elastic Compliance Matrix: (Units=1/GPa)
#
#
# Indices 1 2 3 4 5 6 
#
# 1 0.026764 -0.008116 -0.005813 0.000000 0.000000 0.000000
# 2 -0.008116 0.028409 -0.017652 0.000000 0.000000 0.000000
# 3 -0.005813 -0.017652 0.032058 0.000000 0.000000 0.000000
# 4 0.000000 0.000000 0.000000 0.375932 0.000000 0.000000
# 5 0.000000 0.000000 0.000000 0.000000 0.036316 0.000000
# 6 0.000000 0.000000 0.000000 0.000000 0.000000 0.055304
#
#
# Mechanical properties :
#
#
# Convention : Reuss Voigt Hill
#
# Bulk Modulus (GPa) = 41.54780 44.24947 42.89863
# Shear Modulus (GPa) = 7.98766 15.12557 11.55661
#
# Velocity S-wave (km/s) = 2.37275 3.26511 2.85402
# Velocity P-wave (km/s) = 6.06553 6.73817 6.41068
#
# Compressibility (1/GPa) = 0.02406866
#
# Stress axis : x y z
#
# Youngs Moduli (GPa) = 37.36406 35.20036 31.19367
#
# Poissons Ratio (x) = 0.28568 0.18134
# Poissons Ratio (y) = 0.30324 0.55062
# Poissons Ratio (z) = 0.21721 0.62134
#
# Static dielectric constant tensor:
#      x y z
#    x 1.466780 0.000000 0.000000 
#    y 0.000000 1.474930 0.000000 
#    z 0.000000 0.000000 1.453890 
# 
# From -- ./inp_files/31009.got.cif
#   From: 2010.05.17/outbox.cif.g08.bks.cpg/sg51_16_cif.got.tgz:31009.got - 2010.06.03 11:52:47.
