data_PCOD9398076
_publ_section_title
;
Structure prediction by ZEFSAII (Michael W. Deem and Ramdas Pophale) SiO2 
 PCOD9398076
Probable space group: P B A N
;
_chemical_formula_sum "Si O2"
_cell_formula_units_Z 32
_cell_length_a 8.020123
_cell_length_b 19.928193
_cell_length_c 9.072831
_cell_angle_alpha 90.000000
_cell_angle_beta 90.000000
_cell_angle_gamma 90.000000
_cell_volume 1450.079359
_symmetry_space_group_name_H-M "P B A N"
_symmetry_group_IT_number 50
_space_group.IT_coordinate_system_code '2'
_symmetry_cell_setting 'orthorhombic'
loop_
_space_group_symop_operation_xyz
x,y,z
1/2-x,1/2-y,z
x,1/2-y,-z
1/2-x,y,-z
-x,-y,-z
1/2+x,1/2+y,-z
-x,1/2+y,z
1/2+x,-y,z
loop_
_atom_site_type_symbol
_atom_site_label
_atom_site_fract_x
_atom_site_fract_y
_atom_site_fract_z
Si Si1 0.681307 0.424148 0.333206
Si Si2 0.250000 0.364230 0.000000
Si Si3 0.506072 0.961443 0.842757
Si Si4 0.250000 0.250000 0.804764
Si Si5 0.422457 0.772172 0.331336
O O1 0.750000 0.431714 0.500000
O O2 0.565325 0.485503 0.280140
O O3 0.584008 0.353362 0.325764
O O4 0.836437 0.428488 0.217494
O O5 0.356248 0.406940 0.886555
O O6 0.162073 0.309446 0.897447
O O7 0.500000 0.000000 0.000000
O O8 0.412695 0.269058 0.715045
O O9 0.250000 0.750000 0.253675
O O10 0.409514 0.750000 0.500000
#
# Coordination Sequence:
#
# PCOD9398076 Si02
#       5
#     8   4   8   4   8
#     4  12  25  45  73 109 147 197 246 312 377 445
#     4  11  24  44  68 106 143 184 252 296 363 452
#     4  12  24  46  71 106 149 191 243 305 373 445
#     4  11  25  44  74 102 139 195 242 302 369 442
#     4  11  23  46  70 102 144 188 245 301 371 445
#
# _framework density 22.067757
#
# number of rings (size 3 to 8) (size 9 to 14) (size 15 to 20)
#    0.000    0.500    5.000    4.125    0.000    0.000 
#    0.000    7.500    0.000    0.000    0.000    0.000 
#    0.000    0.000    0.000    0.000    0.000    0.000 
#
# Total GULP energy -178171.663119 kJ/mol
# GULP energy per Si atom -5567.864472 kJ/mol
# Density = 2.201753 g / cm^3
# Si number density = 22.067757 Si / 1000 Ang^3
#
#
#
# Elastic Constant Matrix: (Units=GPa)
#
#
# Indices 1 2 3 4 5 6 
#
# 1 81.3998 21.7108 11.3462 0.0000 0.0000 0.0000
# 2 21.7108 134.7680 28.9171 0.0000 0.0000 0.0000
# 3 11.3462 28.9171 90.0153 0.0000 0.0000 0.0000
# 4 0.0000 0.0000 0.0000 32.8524 0.0000 0.0000
# 5 0.0000 0.0000 0.0000 0.0000 16.7876 0.0000
# 6 0.0000 0.0000 0.0000 0.0000 0.0000 70.1316
#
#
#
# Elastic Compliance Matrix: (Units=1/GPa)
#
#
# Indices 1 2 3 4 5 6 
#
# 1 0.012925 -0.001861 -0.001031 0.000000 0.000000 0.000000
# 2 -0.001861 0.008237 -0.002412 0.000000 0.000000 0.000000
# 3 -0.001031 -0.002412 0.012014 0.000000 0.000000 0.000000
# 4 0.000000 0.000000 0.000000 0.030439 0.000000 0.000000
# 5 0.000000 0.000000 0.000000 0.000000 0.059568 0.000000
# 6 0.000000 0.000000 0.000000 0.000000 0.000000 0.014259
#
#
# Mechanical properties :
#
#
# Convention : Reuss Voigt Hill
#
# Bulk Modulus (GPa) = 44.30932 47.79235 46.05084
# Shear Modulus (GPa) = 32.13922 40.23493 36.18707
#
# Velocity S-wave (km/s) = 3.82041 4.27458 4.05386
# Velocity P-wave (km/s) = 6.29150 6.78725 6.54407
#
# Compressibility (1/GPa) = 0.02256862
#
# Stress axis : x y z
#
# Youngs Moduli (GPa) = 77.36855 121.39727 83.23645
#
# Poissons Ratio (x) = 0.22591 0.08585
# Poissons Ratio (y) = 0.14398 0.20074
# Poissons Ratio (z) = 0.07980 0.29277
#
# Static dielectric constant tensor:
#      x y z
#    x 2.440620 0.000000 0.000000 
#    y 0.000000 1.896030 0.000000 
#    z 0.000000 0.000000 2.086660 
# 
# From -- ./inp_files/9149.got.cif
#   From: 2010.05.17/outbox.cif.g08.bks.cpg/sg50_5_cif.got.tgz:9149.got - 2010.06.03 11:33:33.
