data_PCOD9398162
_publ_section_title
;
Structure prediction by ZEFSAII (Michael W. Deem and Ramdas Pophale) SiO2 
 PCOD9398162
Probable space group: P B A N
;
_chemical_formula_sum "Si O2"
_cell_formula_units_Z 48
_cell_length_a 9.057076
_cell_length_b 30.497568
_cell_length_c 8.337359
_cell_angle_alpha 90.000000
_cell_angle_beta 90.000000
_cell_angle_gamma 90.000000
_cell_volume 2302.935225
_symmetry_space_group_name_H-M "P B A N"
_symmetry_group_IT_number 50
_space_group.IT_coordinate_system_code '2'
_symmetry_cell_setting 'orthorhombic'
loop_
_space_group_symop_operation_xyz
x,y,z
1/2-x,1/2-y,z
x,1/2-y,-z
1/2-x,y,-z
-x,-y,-z
1/2+x,1/2+y,-z
-x,1/2+y,z
1/2+x,-y,z
loop_
_atom_site_type_symbol
_atom_site_label
_atom_site_fract_x
_atom_site_fract_y
_atom_site_fract_z
Si Si1 0.923102 0.745924 0.805986
Si Si2 0.465627 0.918549 0.367150
Si Si3 0.862942 0.071891 0.709827
Si Si4 0.552959 0.849070 0.849701
Si Si5 0.875683 0.981798 0.884074
Si Si6 0.903497 0.659949 0.223455
O O1 0.750000 0.750000 0.758133
O O2 0.997445 0.698698 0.779491
O O3 0.974051 0.792484 0.738871
O O4 0.922493 0.750000 0.000000
O O5 0.299055 0.907979 0.312433
O O6 0.442896 0.939026 0.541664
O O7 0.551913 0.873170 0.362160
O O8 0.553969 0.949164 0.243992
O O9 0.825630 0.026183 0.796365
O O10 0.968732 0.107857 0.790196
O O11 0.726765 0.845672 0.803166
O O12 0.538728 0.850512 0.043247
O O13 0.750000 0.962017 0.000000
O O14 0.000000 0.000000 0.000000
#
# Coordination Sequence:
#
# PCOD9398162 Si02
#       6
#     8   8   8   8   8   8
#     4   7  12  28  52  86 119 149 193 250 293 334
#     4  11  25  42  60  85 122 160 195 243 302 362
#     4  11  25  43  58  85 125 160 192 241 305 366
#     4   9  18  33  61  89 118 155 200 250 297 345
#     4  12  25  44  67  88 113 149 202 251 298 357
#     4   9  18  33  60  90 118 153 203 248 293 351
#
# _framework density 20.842966000000001
#
# number of rings (size 3 to 8) (size 9 to 14) (size 15 to 20)
#    0.000    2.167    1.667    3.500    4.667    0.667 
#    0.000    1.667    0.000    8.000    0.000    0.000 
#    0.000    0.000    0.000    0.000    0.000    0.000 
#
# Total GULP energy -267245.513540 kJ/mol
# GULP energy per Si atom -5567.614865 kJ/mol
# Density = 2.079553 g / cm^3
# Si number density = 20.842966 Si / 1000 Ang^3
#
#
#
# Elastic Constant Matrix: (Units=GPa)
#
#
# Indices 1 2 3 4 5 6 
#
# 1 39.2832 9.9129 22.6670 0.0000 0.0000 0.0000
# 2 9.9129 85.9915 13.4949 0.0000 0.0000 0.0000
# 3 22.6670 13.4949 43.0301 0.0000 0.0000 0.0000
# 4 0.0000 0.0000 0.0000 -4.8710 0.0000 0.0000
# 5 0.0000 0.0000 0.0000 0.0000 27.4467 0.0000
# 6 0.0000 0.0000 0.0000 0.0000 0.0000 12.6873
#
#
#
# Elastic Compliance Matrix: (Units=1/GPa)
#
#
# Indices 1 2 3 4 5 6 
#
# 1 0.036702 -0.001259 -0.018939 0.000000 0.000000 0.000000
# 2 -0.001259 0.012274 -0.003186 0.000000 0.000000 0.000000
# 3 -0.018939 -0.003186 0.034215 0.000000 0.000000 0.000000
# 4 0.000000 0.000000 0.000000 -0.205295 0.000000 0.000000
# 5 0.000000 0.000000 0.000000 0.000000 0.036434 0.000000
# 6 0.000000 0.000000 0.000000 0.000000 0.000000 0.078819
#
#
# Mechanical properties :
#
#
# Convention : Reuss Voigt Hill
#
# Bulk Modulus (GPa) = 27.45473 28.93942 28.19708
# Shear Modulus (GPa) = 96.04738 15.20127 55.62433
#
# Velocity S-wave (km/s) = 6.79570 2.70353 5.17158
# Velocity P-wave (km/s) = 8.64732 4.86416 7.01556
#
# Compressibility (1/GPa) = 0.03642359
#
# Stress axis : x y z
#
# Youngs Moduli (GPa) = 27.24672 81.47173 29.22685
#
# Poissons Ratio (x) = 0.10256 0.55352
# Poissons Ratio (y) = 0.03430 0.09313
# Poissons Ratio (z) = 0.51601 0.25959
#
# Static dielectric constant tensor:
#      x y z
#    x 1.840530 0.000000 0.000000 
#    y 0.000000 1.787230 0.000000 
#    z 0.000000 0.000000 1.762050 
# 
# From -- ./inp_files/10117.got.cif
#   From: 2010.05.17/outbox.cif.g08.bks.cpg/sg50_6_cif.got.tgz:10117.got - 2010.06.03 11:33:33.
