data_PCOD9398843
_publ_section_title
;
Structure prediction by ZEFSAII (Michael W. Deem and Ramdas Pophale) SiO2 
 PCOD9398843
Probable space group: P M M A
;
_chemical_formula_sum "Si O2"
_cell_formula_units_Z 56
_cell_length_a 8.713518
_cell_length_b 19.034213
_cell_length_c 21.913903
_cell_angle_alpha 90.000000
_cell_angle_beta 90.000000
_cell_angle_gamma 90.000000
_cell_volume 3634.529453
_symmetry_space_group_name_H-M "P M M A"
_symmetry_group_IT_number 51
_symmetry_cell_setting 'orthorhombic'
loop_
_space_group_symop_operation_xyz
x,y,z
1/2-x,-y,z
1/2+x,-y,-z
-x,y,-z
-x,-y,-z
1/2+x,y,-z
1/2-x,y,z
x,-y,z
loop_
_atom_site_type_symbol
_atom_site_label
_atom_site_fract_x
_atom_site_fract_y
_atom_site_fract_z
Si Si1 0.935513 0.344757 0.814946
Si Si2 0.073928 0.707690 0.373424
Si Si3 0.433943 0.581425 0.694705
Si Si4 0.926004 0.207968 0.755526
Si Si5 0.936581 0.918948 0.682181
Si Si6 0.066662 0.583022 0.934089
Si Si7 0.067637 0.160981 0.565508
O O1 0.750000 0.344904 0.811751
O O2 0.992701 0.264784 0.802299
O O3 0.998272 0.392327 0.759402
O O4 0.992169 0.374562 0.878837
O O5 0.250000 0.699916 0.393401
O O6 0.075952 0.749321 0.308593
O O7 0.998815 0.633315 0.357190
O O8 0.983691 0.759345 0.418246
O O9 0.250000 0.587939 0.697145
O O10 0.473963 0.500000 0.684728
O O11 0.750000 0.195338 0.774609
O O12 0.993410 0.132888 0.736301
O O13 0.750000 0.913535 0.680127
O O14 0.000186 0.888338 0.618804
O O15 0.977854 0.000000 0.690568
O O16 0.250000 0.591491 0.933608
O O17 0.032468 0.500000 0.925373
O O18 0.000000 0.603445 0.000000
O O19 0.250000 0.156187 0.565173
O O20 0.000000 0.141360 0.500000
#
# Coordination Sequence:
#
# PCOD9398843 Si02
#       7
#     8   8   8   8   8   8   8
#     4  10  18  28  44  64  89 121 156 191 225 265
#     4   9  17  31  48  65  86 112 146 185 226 270
#     4  10  19  29  43  66  93 118 147 185 228 271
#     4   7  13  26  43  64  87 112 143 179 218 260
#     4   9  17  31  50  70  94 122 150 182 220 262
#     4  10  20  32  44  60  86 120 157 195 233 273
#     4  11  21  33  49  67  89 117 150 184 219 265
#
# _framework density 15.407772
#
# number of rings (size 3 to 8) (size 9 to 14) (size 15 to 20)
#    0.000    2.571    0.000    5.143    0.000    4.286 
#    0.000    0.714    0.000    0.429    0.000    0.000 
#    0.000    0.571    0.000    1.000    0.000    1.429 
#
# Total GULP energy -311984.412851 kJ/mol
# GULP energy per Si atom -5571.150229 kJ/mol
# Density = 1.537270 g / cm^3
# Si number density = 15.407772 Si / 1000 Ang^3
#
#
#
# Elastic Constant Matrix: (Units=GPa)
#
#
# Indices 1 2 3 4 5 6 
#
# 1 49.7862 35.5187 14.3606 0.0000 0.0000 0.0000
# 2 35.5187 129.4094 34.0391 0.0000 0.0000 0.0000
# 3 14.3606 34.0391 36.0998 0.0000 0.0000 0.0000
# 4 0.0000 0.0000 0.0000 17.8763 0.0000 0.0000
# 5 0.0000 0.0000 0.0000 0.0000 20.3277 0.0000
# 6 0.0000 0.0000 0.0000 0.0000 0.0000 18.9173
#
#
#
# Elastic Compliance Matrix: (Units=1/GPa)
#
#
# Indices 1 2 3 4 5 6 
#
# 1 0.025569 -0.005775 -0.004726 0.000000 0.000000 0.000000
# 2 -0.005775 0.011580 -0.008622 0.000000 0.000000 0.000000
# 3 -0.004726 -0.008622 0.037711 0.000000 0.000000 0.000000
# 4 0.000000 0.000000 0.000000 0.055940 0.000000 0.000000
# 5 0.000000 0.000000 0.000000 0.000000 0.049194 0.000000
# 6 0.000000 0.000000 0.000000 0.000000 0.000000 0.052862
#
#
# Mechanical properties :
#
#
# Convention : Reuss Voigt Hill
#
# Bulk Modulus (GPa) = 27.31191 42.57026 34.94108
# Shear Modulus (GPa) = 17.64871 20.18273 18.91572
#
# Velocity S-wave (km/s) = 3.38811 3.62319 3.50762
# Velocity P-wave (km/s) = 5.75067 6.72253 6.25550
#
# Compressibility (1/GPa) = 0.03661406
#
# Stress axis : x y z
#
# Youngs Moduli (GPa) = 39.10996 86.35384 26.51740
#
# Poissons Ratio (x) = 0.49866 0.12533
# Poissons Ratio (y) = 0.22585 0.22863
# Poissons Ratio (z) = 0.18485 0.74455
#
# Static dielectric constant tensor:
#      x y z
#    x 1.522740 0.000000 0.000000 
#    y 0.000000 1.538220 0.000000 
#    z 0.000000 0.000000 1.489840 
# 
# From -- ./inp_files/32216.got.cif
#   From: 2010.05.17/outbox.cif.g08.bks.cpg/sg51_17_cif.got.tgz:32216.got - 2010.06.03 11:52:47.
