data_PCOD9398194
_publ_section_title
;
Structure prediction by ZEFSAII (Michael W. Deem and Ramdas Pophale) SiO2 
 PCOD9398194
Probable space group: P B A N
;
_chemical_formula_sum "Si O2"
_cell_formula_units_Z 40
_cell_length_a 9.679869
_cell_length_b 16.987502
_cell_length_c 9.829749
_cell_angle_alpha 90.000000
_cell_angle_beta 90.000000
_cell_angle_gamma 90.000000
_cell_volume 1616.372411
_symmetry_space_group_name_H-M "P B A N"
_symmetry_group_IT_number 50
_space_group.IT_coordinate_system_code '2'
_symmetry_cell_setting 'orthorhombic'
loop_
_space_group_symop_operation_xyz
x,y,z
1/2-x,1/2-y,z
x,1/2-y,-z
1/2-x,y,-z
-x,-y,-z
1/2+x,1/2+y,-z
-x,1/2+y,z
1/2+x,-y,z
loop_
_atom_site_type_symbol
_atom_site_label
_atom_site_fract_x
_atom_site_fract_y
_atom_site_fract_z
Si Si1 0.416527 0.659826 0.526186
Si Si2 0.910595 0.162719 0.930343
Si Si3 0.153461 0.059349 0.622331
Si Si4 0.208565 0.160154 0.850627
Si Si5 0.368528 0.594684 0.801636
O O1 0.452983 0.750000 0.500000
O O2 0.250000 0.648927 0.500000
O O3 0.431599 0.649814 0.687640
O O4 0.517421 0.600096 0.444407
O O5 0.781398 0.130455 0.844928
O O6 0.043629 0.161546 0.839490
O O7 0.895722 0.250000 0.000000
O O8 0.941109 0.102742 0.053997
O O9 0.250000 0.030026 0.500000
O O10 0.248957 0.117201 0.712934
O O11 0.250000 0.250000 0.851523
O O12 0.125965 0.989474 0.729648
O O13 0.250000 0.127105 0.000000
#
# Coordination Sequence:
#
# PCOD9398194 Si02
#       5
#     8   8   8   8   8
#     4  11  27  46  78 113 158 212 265 324 396 480
#     4  11  25  48  82 116 153 205 275 333 400 482
#     4  12  30  50  79 118 166 211 267 330 410 482
#     4  11  26  48  78 113 159 206 263 327 400 482
#     4  11  26  48  77 113 156 204 262 334 393 477
#
# _framework density 24.746773000000001
#
# number of rings (size 3 to 8) (size 9 to 14) (size 15 to 20)
#    0.000    0.800    2.000    3.600   16.800    2.400 
#    0.000    0.000    0.000    0.000    0.000    0.000 
#    0.000    0.000    0.000    0.000    0.000    0.000 
#
# Total GULP energy -223664.944350 kJ/mol
# GULP energy per Si atom -5591.623609 kJ/mol
# Density = 2.469045 g / cm^3
# Si number density = 24.746773 Si / 1000 Ang^3
#
#
#
# Elastic Constant Matrix: (Units=GPa)
#
#
# Indices 1 2 3 4 5 6 
#
# 1 107.0090 35.9188 30.1585 0.0000 0.0000 0.0000
# 2 35.9188 134.5135 65.2923 0.0000 0.0000 0.0000
# 3 30.1585 65.2923 166.3369 0.0000 0.0000 0.0000
# 4 0.0000 0.0000 0.0000 29.1689 0.0000 0.0000
# 5 0.0000 0.0000 0.0000 0.0000 31.3017 0.0000
# 6 0.0000 0.0000 0.0000 0.0000 0.0000 -7.6099
#
#
#
# Elastic Compliance Matrix: (Units=1/GPa)
#
#
# Indices 1 2 3 4 5 6 
#
# 1 0.010393 -0.002299 -0.000982 0.000000 0.000000 0.000000
# 2 -0.002299 0.009692 -0.003388 0.000000 0.000000 0.000000
# 3 -0.000982 -0.003388 0.007520 0.000000 0.000000 0.000000
# 4 0.000000 0.000000 0.000000 0.034283 0.000000 0.000000
# 5 0.000000 0.000000 0.000000 0.000000 0.031947 0.000000
# 6 0.000000 0.000000 0.000000 0.000000 0.000000 -0.131407
#
#
# Mechanical properties :
#
#
# Convention : Reuss Voigt Hill
#
# Bulk Modulus (GPa) = 70.08462 74.51096 72.29779
# Shear Modulus (GPa) = -256.69548 29.00479 -113.84535
#
# Velocity S-wave (km/s) = -10.19579 3.42726 -6.78999
# Velocity P-wave (km/s) = 10.49872 6.77024 5.67393
#
# Compressibility (1/GPa) = 0.01426847
#
# Stress axis : x y z
#
# Youngs Moduli (GPa) = 96.21532 103.17347 132.98246
#
# Poissons Ratio (x) = 0.23715 0.13061
# Poissons Ratio (y) = 0.22116 0.45052
# Poissons Ratio (z) = 0.09450 0.34953
#
# Static dielectric constant tensor:
#      x y z
#    x 2.015700 0.000000 0.000000 
#    y 0.000000 1.904310 0.000000 
#    z 0.000000 0.000000 2.156110 
# 
# From -- ./inp_files/19989.got.cif
#   From: 2010.05.17/outbox.cif.g08.bks.cpg/sg50_10_cif.got.tgz:19989.got - 2010.06.03 11:33:33.
