data_PCOD9398962
_publ_section_title
;
Structure prediction by ZEFSAII (Michael W. Deem and Ramdas Pophale) SiO2 
 PCOD9398962
Probable space group: P M M A
;
_chemical_formula_sum "Si O2"
_cell_formula_units_Z 64
_cell_length_a 9.157095
_cell_length_b 18.756389
_cell_length_c 26.797082
_cell_angle_alpha 90.000000
_cell_angle_beta 90.000000
_cell_angle_gamma 90.000000
_cell_volume 4602.506985
_symmetry_space_group_name_H-M "P M M A"
_symmetry_group_IT_number 51
_symmetry_cell_setting 'orthorhombic'
loop_
_space_group_symop_operation_xyz
x,y,z
1/2-x,-y,z
1/2+x,-y,-z
-x,y,-z
-x,-y,-z
1/2+x,y,-z
1/2-x,y,z
x,-y,z
loop_
_atom_site_type_symbol
_atom_site_label
_atom_site_fract_x
_atom_site_fract_y
_atom_site_fract_z
Si Si1 0.425507 0.416605 0.948159
Si Si2 0.582379 0.206313 0.799690
Si Si3 0.924526 0.917630 0.252851
Si Si4 0.081470 0.707841 0.305628
Si Si5 0.575437 0.165011 0.356242
Si Si6 0.074720 0.666534 0.848916
Si Si7 0.576320 0.915547 0.552993
Si Si8 0.074872 0.583093 0.747047
O O1 0.250000 0.411867 0.952936
O O2 0.461463 0.500000 0.938947
O O3 0.470449 0.369738 0.900698
O O4 0.500000 0.395164 0.000000
O O5 0.750000 0.195510 0.813989
O O6 0.503099 0.132379 0.787358
O O7 0.579485 0.249414 0.747084
O O8 0.500024 0.257988 0.837946
O O9 0.750000 0.913395 0.245588
O O10 0.954114 0.884978 0.307795
O O11 0.969570 0.000000 0.250619
O O12 0.250000 0.700261 0.321004
O O13 0.990971 0.757720 0.343086
O O14 0.006607 0.632743 0.292856
O O15 0.750000 0.168797 0.362802
O O16 0.498029 0.130238 0.403695
O O17 0.250000 0.675318 0.849263
O O18 0.040558 0.614239 0.802216
O O19 0.500000 0.900703 0.500000
O O20 0.750000 0.902474 0.550346
O O21 0.554829 0.000000 0.563560
O O22 0.250000 0.590020 0.740558
O O23 0.036202 0.500000 0.743852
#
# Coordination Sequence:
#
# PCOD9398962 Si02
#       8
#     8   8   8   8   8   8   8   8
#     4   9  17  28  41  58  80 106 137 172 207 241
#     4   9  17  27  39  57  80 105 134 169 205 240
#     4   9  17  28  42  60  82 109 139 168 200 242
#     4   9  17  28  40  57  82 109 137 169 206 247
#     4  10  18  29  45  62  82 110 143 175 207 243
#     4   9  16  27  42  57  77 108 141 170 203 244
#     4  10  20  32  45  62  85 112 142 176 211 245
#     4   9  16  26  41  60  81 107 140 174 206 243
#
# _framework density 13.905465
#
# number of rings (size 3 to 8) (size 9 to 14) (size 15 to 20)
#    0.000    2.750    0.000    2.250    0.000    7.250 
#    0.000    0.000    0.000    2.250    0.000    0.000 
#    0.000    1.000    0.000    3.500    0.000    4.875 
#
# Total GULP energy -356610.446319 kJ/mol
# GULP energy per Si atom -5572.038224 kJ/mol
# Density = 1.387382 g / cm^3
# Si number density = 13.905465 Si / 1000 Ang^3
#
#
#
# Elastic Constant Matrix: (Units=GPa)
#
#
# Indices 1 2 3 4 5 6 
#
# 1 62.2441 59.7093 53.3942 0.0000 0.0000 0.0000
# 2 59.7093 120.8755 62.1055 0.0000 0.0000 0.0000
# 3 53.3942 62.1055 90.8484 0.0000 0.0000 0.0000
# 4 0.0000 0.0000 0.0000 27.2743 0.0000 0.0000
# 5 0.0000 0.0000 0.0000 0.0000 22.2931 0.0000
# 6 0.0000 0.0000 0.0000 0.0000 0.0000 20.3441
#
#
#
# Elastic Compliance Matrix: (Units=1/GPa)
#
#
# Indices 1 2 3 4 5 6 
#
# 1 0.041677 -0.012334 -0.016063 0.000000 0.000000 0.000000
# 2 -0.012334 0.016402 -0.003964 0.000000 0.000000 0.000000
# 3 -0.016063 -0.003964 0.023158 0.000000 0.000000 0.000000
# 4 0.000000 0.000000 0.000000 0.036665 0.000000 0.000000
# 5 0.000000 0.000000 0.000000 0.000000 0.044857 0.000000
# 6 0.000000 0.000000 0.000000 0.000000 0.000000 0.049154
#
#
# Mechanical properties :
#
#
# Convention : Reuss Voigt Hill
#
# Bulk Modulus (GPa) = 60.55022 69.37622 64.96322
# Shear Modulus (GPa) = 17.72179 20.56622 19.14401
#
# Velocity S-wave (km/s) = 3.57381 3.84995 3.71445
# Velocity P-wave (km/s) = 7.78898 8.35239 8.07560
#
# Compressibility (1/GPa) = 0.01651522
#
# Stress axis : x y z
#
# Youngs Moduli (GPa) = 23.99428 60.96710 43.18246
#
# Poissons Ratio (x) = 0.75198 0.69363
# Poissons Ratio (y) = 0.29595 0.17116
# Poissons Ratio (z) = 0.38541 0.24166
#
# Static dielectric constant tensor:
#      x y z
#    x 1.464470 0.000000 0.000000 
#    y 0.000000 1.444650 0.000000 
#    z 0.000000 0.000000 1.431110 
# 
# From -- ./inp_files/35106.got.cif
#   From: 2010.05.17/outbox.cif.g08.bks.cpg/sg51_18_cif.got.tgz:35106.got - 2010.06.03 11:52:47.
