data_PCOD9398143
_publ_section_title
;
Structure prediction by ZEFSAII (Michael W. Deem and Ramdas Pophale) SiO2 
 PCOD9398143
Probable space group: P B A N
;
_chemical_formula_sum "Si O2"
_cell_formula_units_Z 34
_cell_length_a 14.142994
_cell_length_b 9.822517
_cell_length_c 10.611230
_cell_angle_alpha 90.000000
_cell_angle_beta 90.000000
_cell_angle_gamma 90.000000
_cell_volume 1474.109939
_symmetry_space_group_name_H-M "P B A N"
_symmetry_group_IT_number 50
_space_group.IT_coordinate_system_code '2'
_symmetry_cell_setting 'orthorhombic'
loop_
_space_group_symop_operation_xyz
x,y,z
1/2-x,1/2-y,z
x,1/2-y,-z
1/2-x,y,-z
-x,-y,-z
1/2+x,1/2+y,-z
-x,1/2+y,z
1/2+x,-y,z
loop_
_atom_site_type_symbol
_atom_site_label
_atom_site_fract_x
_atom_site_fract_y
_atom_site_fract_z
Si Si1 0.620311 0.659357 0.744571
Si Si2 0.806668 0.539283 0.774117
Si Si3 0.250000 0.750000 0.500000
Si Si4 0.950985 0.116086 0.082178
Si Si5 0.115010 0.506083 0.506669
O O1 0.696365 0.555680 0.802043
O O2 0.649353 0.809537 0.786451
O O3 0.516174 0.634427 0.793993
O O4 0.634368 0.622754 0.597767
O O5 0.851407 0.433704 0.868395
O O6 0.839603 0.504867 0.631648
O O7 0.170935 0.642173 0.558864
O O8 0.948376 0.250000 0.000000
O O9 0.000000 0.000000 0.000000
O O10 0.000000 0.500000 0.500000
#
# Coordination Sequence:
#
# PCOD9398143 Si02
#       5
#     8   8   2   8   8
#     4  11  24  46  75 105 146 190 254 313 393 465
#     4  11  24  46  75 107 144 196 250 317 385 478
#     4  12  28  44  66 122 170 184 268 314 392 520
#     4  12  26  48  74 106 145 199 260 315 380 463
#     4  12  25  43  77 112 153 204 243 327 407 476
#
# _framework density 23.064764
#
# number of rings (size 3 to 8) (size 9 to 14) (size 15 to 20)
#    0.000    0.471    7.059    0.706    3.294    4.706 
#    0.000    1.176    0.000    0.000    0.000    0.000 
#    0.000    0.000    0.000    0.000    0.000    0.000 
#
# Total GULP energy -189652.630276 kJ/mol
# GULP energy per Si atom -5578.018538 kJ/mol
# Density = 2.301227 g / cm^3
# Si number density = 23.064764 Si / 1000 Ang^3
#
#
#
# Elastic Constant Matrix: (Units=GPa)
#
#
# Indices 1 2 3 4 5 6 
#
# 1 138.6271 38.5567 3.6693 0.0000 0.0000 0.0000
# 2 38.5567 122.4281 41.2464 0.0000 0.0000 0.0000
# 3 3.6693 41.2464 72.9357 0.0000 0.0000 0.0000
# 4 0.0000 0.0000 0.0000 35.5214 0.0000 0.0000
# 5 0.0000 0.0000 0.0000 0.0000 15.6748 0.0000
# 6 0.0000 0.0000 0.0000 0.0000 0.0000 31.8738
#
#
#
# Elastic Compliance Matrix: (Units=1/GPa)
#
#
# Indices 1 2 3 4 5 6 
#
# 1 0.007999 -0.002945 0.001263 0.000000 0.000000 0.000000
# 2 -0.002945 0.011175 -0.006171 0.000000 0.000000 0.000000
# 3 0.001263 -0.006171 0.017137 0.000000 0.000000 0.000000
# 4 0.000000 0.000000 0.000000 0.028152 0.000000 0.000000
# 5 0.000000 0.000000 0.000000 0.000000 0.063797 0.000000
# 6 0.000000 0.000000 0.000000 0.000000 0.000000 0.031374
#
#
# Mechanical properties :
#
#
# Convention : Reuss Voigt Hill
#
# Bulk Modulus (GPa) = 48.53269 55.65953 52.09611
# Shear Modulus (GPa) = 27.44120 33.31523 30.37822
#
# Velocity S-wave (km/s) = 3.45301 3.80468 3.63310
# Velocity P-wave (km/s) = 6.08156 6.59431 6.34312
#
# Compressibility (1/GPa) = 0.02060467
#
# Stress axis : x y z
#
# Youngs Moduli (GPa) = 125.01296 89.48914 58.35285
#
# Poissons Ratio (x) = 0.26351 -0.07369
# Poissons Ratio (y) = 0.36812 0.36011
# Poissons Ratio (z) = -0.15787 0.55226
#
# Static dielectric constant tensor:
#      x y z
#    x 1.872700 0.000000 0.000000 
#    y 0.000000 1.860080 0.000000 
#    z 0.000000 0.000000 1.906690 
# 
# From -- ./inp_files/18512.got.cif
#   From: 2010.05.17/outbox.cif.g08.bks.cpg/sg50_10_cif.got.tgz:18512.got - 2010.06.03 11:33:33.
