data_PCOD9398044
_publ_section_title
;
Structure prediction by ZEFSAII (Michael W. Deem and Ramdas Pophale) SiO2 
 PCOD9398044
Probable space group: P B A N
;
_chemical_formula_sum "Si O2"
_cell_formula_units_Z 48
_cell_length_a 8.864635
_cell_length_b 17.337600
_cell_length_c 13.519882
_cell_angle_alpha 90.000000
_cell_angle_beta 90.000000
_cell_angle_gamma 90.000000
_cell_volume 2077.890887
_symmetry_space_group_name_H-M "P B A N"
_symmetry_group_IT_number 50
_space_group.IT_coordinate_system_code '2'
_symmetry_cell_setting 'orthorhombic'
loop_
_space_group_symop_operation_xyz
x,y,z
1/2-x,1/2-y,z
x,1/2-y,-z
1/2-x,y,-z
-x,-y,-z
1/2+x,1/2+y,-z
-x,1/2+y,z
1/2+x,-y,z
loop_
_atom_site_type_symbol
_atom_site_label
_atom_site_fract_x
_atom_site_fract_y
_atom_site_fract_z
Si Si1 0.902841 0.296571 0.181327
Si Si2 0.262662 0.031533 0.250432
Si Si3 0.571919 0.160464 0.523049
Si Si4 0.562491 0.422887 0.660804
Si Si5 0.877002 0.809019 0.707556
Si Si6 0.110215 0.944905 0.064866
O O1 0.750000 0.250000 0.156028
O O2 0.879638 0.345622 0.283378
O O3 0.953801 0.363777 0.105987
O O4 0.032287 0.236464 0.208439
O O5 0.439515 0.035784 0.269556
O O6 0.210565 0.118866 0.249699
O O7 0.196474 0.983529 0.342518
O O8 0.196683 0.990460 0.153478
O O9 0.544634 0.250000 0.500000
O O10 0.750000 0.147585 0.500000
O O11 0.495495 0.104305 0.442924
O O12 0.498847 0.155662 0.630765
O O13 0.750000 0.750000 0.664463
O O14 0.250000 0.918632 0.000000
O O15 0.000000 0.000000 0.000000
#
# Coordination Sequence:
#
# PCOD9398044 Si02
#       6
#     8   8   8   8   8   8
#     4  11  24  44  76 107 143 190 247 303 380 448
#     4  11  26  45  72 102 148 196 242 305 380 449
#     4  11  23  42  69 105 144 191 250 303 356 431
#     4  11  24  45  69 104 148 200 244 300 372 442
#     4  12  25  45  74 103 146 195 246 312 364 438
#     4  11  26  49  76 106 145 189 245 314 386 460
#
# _framework density 23.100346999999999
#
# number of rings (size 3 to 8) (size 9 to 14) (size 15 to 20)
#    0.000    0.833    3.333    3.000    9.333    3.333 
#    0.000    0.000    0.000    0.000    0.000    0.000 
#    0.000    0.000    0.000    0.000    0.000    0.000 
#
# Total GULP energy -268072.157926 kJ/mol
# GULP energy per Si atom -5584.836623 kJ/mol
# Density = 2.304777 g / cm^3
# Si number density = 23.100347 Si / 1000 Ang^3
#
#
#
# Elastic Constant Matrix: (Units=GPa)
#
#
# Indices 1 2 3 4 5 6 
#
# 1 87.9251 9.4031 15.4069 0.0000 0.0000 0.0000
# 2 9.4031 93.2776 22.6327 0.0000 0.0000 0.0000
# 3 15.4069 22.6327 81.2830 0.0000 0.0000 0.0000
# 4 0.0000 0.0000 0.0000 37.3745 0.0000 0.0000
# 5 0.0000 0.0000 0.0000 0.0000 22.5452 0.0000
# 6 0.0000 0.0000 0.0000 0.0000 0.0000 44.0802
#
#
#
# Elastic Compliance Matrix: (Units=1/GPa)
#
#
# Indices 1 2 3 4 5 6 
#
# 1 0.011806 -0.000694 -0.002044 0.000000 0.000000 0.000000
# 2 -0.000694 0.011538 -0.003081 0.000000 0.000000 0.000000
# 3 -0.002044 -0.003081 0.013548 0.000000 0.000000 0.000000
# 4 0.000000 0.000000 0.000000 0.026756 0.000000 0.000000
# 5 0.000000 0.000000 0.000000 0.000000 0.044355 0.000000
# 6 0.000000 0.000000 0.000000 0.000000 0.000000 0.022686
#
#
# Mechanical properties :
#
#
# Convention : Reuss Voigt Hill
#
# Bulk Modulus (GPa) = 39.59965 39.70791 39.65378
# Shear Modulus (GPa) = 33.16820 35.13618 34.15219
#
# Velocity S-wave (km/s) = 3.79335 3.90426 3.84920
# Velocity P-wave (km/s) = 6.03039 6.12788 6.07933
#
# Compressibility (1/GPa) = 0.02525275
#
# Stress axis : x y z
#
# Youngs Moduli (GPa) = 84.70418 86.66809 73.81075
#
# Poissons Ratio (x) = 0.06015 0.15091
# Poissons Ratio (y) = 0.05879 0.22743
# Poissons Ratio (z) = 0.17318 0.26704
#
# Static dielectric constant tensor:
#      x y z
#    x 1.941950 0.000000 0.000000 
#    y 0.000000 1.842880 0.000000 
#    z 0.000000 0.000000 1.982040 
# 
# From -- ./inp_files/24998.got.cif
#   From: 2010.05.17/outbox.cif.g08.bks.cpg/sg50_13_cif.got.tgz:24998.got - 2010.06.03 11:33:33.
