data_PCOD9398134
_publ_section_title
;
Structure prediction by ZEFSAII (Michael W. Deem and Ramdas Pophale) SiO2 
 PCOD9398134
Probable space group: P B A N
;
_chemical_formula_sum "Si O2"
_cell_formula_units_Z 40
_cell_length_a 9.213646
_cell_length_b 13.884931
_cell_length_c 13.274103
_cell_angle_alpha 90.000000
_cell_angle_beta 90.000000
_cell_angle_gamma 90.000000
_cell_volume 1698.167133
_symmetry_space_group_name_H-M "P B A N"
_symmetry_group_IT_number 50
_space_group.IT_coordinate_system_code '2'
_symmetry_cell_setting 'orthorhombic'
loop_
_space_group_symop_operation_xyz
x,y,z
1/2-x,1/2-y,z
x,1/2-y,-z
1/2-x,y,-z
-x,-y,-z
1/2+x,1/2+y,-z
-x,1/2+y,z
1/2+x,-y,z
loop_
_atom_site_type_symbol
_atom_site_label
_atom_site_fract_x
_atom_site_fract_y
_atom_site_fract_z
Si Si1 0.318697 0.591312 0.103306
Si Si2 0.320551 0.657913 0.692210
Si Si3 0.600349 0.781809 0.701467
Si Si4 0.159007 0.110253 0.904547
Si Si5 0.877650 0.962657 0.426716
O O1 0.271342 0.647214 0.203934
O O2 0.248229 0.486361 0.120834
O O3 0.489492 0.584482 0.080375
O O4 0.250000 0.631230 0.000000
O O5 0.250000 0.750000 0.635549
O O6 0.485204 0.695713 0.708217
O O7 0.323523 0.554773 0.638207
O O8 0.750000 0.750000 0.650998
O O9 0.644121 0.818830 0.811574
O O10 0.555722 0.878176 0.641949
O O11 0.250000 0.147362 0.000000
O O12 0.750000 0.927942 0.500000
O O13 0.000000 0.000000 0.500000
#
# Coordination Sequence:
#
# PCOD9398134 Si02
#       5
#     8   8   8   8   8
#     4  11  24  44  76 108 152 199 250 305 379 459
#     4  12  26  48  77 110 153 203 256 316 392 471
#     4  12  28  46  76 112 154 200 255 319 388 467
#     4  11  24  45  74 111 149 201 247 305 376 460
#     4  12  28  50  79 107 149 197 259 334 397 461
#
# _framework density 23.554807
#
# number of rings (size 3 to 8) (size 9 to 14) (size 15 to 20)
#    0.000    0.400    4.000    4.800    5.600    5.600 
#    0.000    0.000    0.000    0.000    0.000    0.000 
#    0.000    0.000    0.000    0.000    0.000    0.000 
#
# Total GULP energy -223639.829398 kJ/mol
# GULP energy per Si atom -5590.995735 kJ/mol
# Density = 2.350120 g / cm^3
# Si number density = 23.554807 Si / 1000 Ang^3
#
#
#
# Elastic Constant Matrix: (Units=GPa)
#
#
# Indices 1 2 3 4 5 6 
#
# 1 167.6528 20.4538 34.3153 0.0000 0.0000 0.0000
# 2 20.4538 88.1072 23.3298 0.0000 0.0000 0.0000
# 3 34.3153 23.3298 107.5655 0.0000 0.0000 0.0000
# 4 0.0000 0.0000 0.0000 0.8831 0.0000 0.0000
# 5 0.0000 0.0000 0.0000 0.0000 33.9073 0.0000
# 6 0.0000 0.0000 0.0000 0.0000 0.0000 48.5998
#
#
#
# Elastic Compliance Matrix: (Units=1/GPa)
#
#
# Indices 1 2 3 4 5 6 
#
# 1 0.006465 -0.001013 -0.001843 0.000000 0.000000 0.000000
# 2 -0.001013 0.012200 -0.002323 0.000000 0.000000 0.000000
# 3 -0.001843 -0.002323 0.010388 0.000000 0.000000 0.000000
# 4 0.000000 0.000000 0.000000 1.132408 0.000000 0.000000
# 5 0.000000 0.000000 0.000000 0.000000 0.029492 0.000000
# 6 0.000000 0.000000 0.000000 0.000000 0.000000 0.020576
#
#
# Mechanical properties :
#
#
# Convention : Reuss Voigt Hill
#
# Bulk Modulus (GPa) = 53.48629 57.72482 55.60556
# Shear Modulus (GPa) = 4.07126 35.69314 19.88220
#
# Velocity S-wave (km/s) = 1.31612 3.89694 2.90846
# Velocity P-wave (km/s) = 5.00660 6.69388 5.91075
#
# Compressibility (1/GPa) = 0.01869638
#
# Stress axis : x y z
#
# Youngs Moduli (GPa) = 154.66717 81.96690 96.26129
#
# Poissons Ratio (x) = 0.08303 0.17740
# Poissons Ratio (y) = 0.15667 0.22361
# Poissons Ratio (z) = 0.28504 0.19040
#
# Static dielectric constant tensor:
#      x y z
#    x 1.956200 0.000000 0.000000 
#    y 0.000000 1.980420 0.000000 
#    z 0.000000 0.000000 1.895460 
# 
# From -- ./inp_files/24660.got.cif
#   From: 2010.05.17/outbox.cif.g08.bks.cpg/sg50_13_cif.got.tgz:24660.got - 2010.06.03 11:33:33.
