data_PCOD9398809
_publ_section_title
;
Structure prediction by ZEFSAII (Michael W. Deem and Ramdas Pophale) SiO2 
 PCOD9398809
Probable space group: P M M A
;
_chemical_formula_sum "Si O2"
_cell_formula_units_Z 64
_cell_length_a 8.952734
_cell_length_b 26.674913
_cell_length_c 18.870559
_cell_angle_alpha 90.000000
_cell_angle_beta 90.000000
_cell_angle_gamma 90.000000
_cell_volume 4506.542365
_symmetry_space_group_name_H-M "P M M A"
_symmetry_group_IT_number 51
_symmetry_cell_setting 'orthorhombic'
loop_
_space_group_symop_operation_xyz
x,y,z
1/2-x,-y,z
1/2+x,-y,-z
-x,y,-z
-x,-y,-z
1/2+x,y,-z
1/2-x,y,z
x,-y,z
loop_
_atom_site_type_symbol
_atom_site_label
_atom_site_fract_x
_atom_site_fract_y
_atom_site_fract_z
Si Si1 0.073199 0.059715 0.924345
Si Si2 0.926448 0.644005 0.662071
Si Si3 0.571326 0.289555 0.787290
Si Si4 0.570656 0.140480 0.826632
Si Si5 0.572278 0.802167 0.296194
Si Si6 0.427206 0.236863 0.076266
Si Si7 0.428919 0.747687 0.422444
Si Si8 0.927884 0.442291 0.424208
O O1 0.250000 0.070513 0.926253
O O2 0.994448 0.090989 0.862711
O O3 0.053312 0.000000 0.914834
O O4 0.000000 0.073424 0.000000
O O5 0.750000 0.634018 0.654518
O O6 0.956063 0.659971 0.743491
O O7 0.959867 0.693675 0.614870
O O8 0.016221 0.597011 0.633469
O O9 0.750000 0.277681 0.777248
O O10 0.475030 0.247090 0.748598
O O11 0.539701 0.283041 0.870257
O O12 0.750000 0.138920 0.820871
O O13 0.499089 0.153404 0.750550
O O14 0.531028 0.186410 0.880382
O O15 0.750000 0.806994 0.301079
O O16 0.499429 0.790593 0.372354
O O17 0.250000 0.234925 0.066459
O O18 0.500000 0.239780 0.000000
O O19 0.500000 0.748362 0.500000
O O20 0.250000 0.753229 0.425248
O O21 0.750000 0.439799 0.430824
O O22 0.970265 0.500000 0.407991
O O23 0.000000 0.429107 0.500000
#
# Coordination Sequence:
#
# PCOD9398809 Si02
#       8
#     8   8   8   8   8   8   8   8
#     4  10  20  32  45  63  87 114 146 183 219 255
#     4   9  17  29  45  60  78 108 142 173 205 244
#     4   8  16  30  42  56  81 110 138 170 207 245
#     4  10  19  31  45  60  83 115 147 179 214 251
#     4  10  18  28  43  62  83 109 141 175 211 251
#     4   9  17  27  40  59  83 109 137 169 203 242
#     4  10  19  30  43  62  87 113 142 174 209 248
#     4  10  20  31  42  58  81 107 136 171 207 243
#
# _framework density 14.201575
#
# number of rings (size 3 to 8) (size 9 to 14) (size 15 to 20)
#    0.000    2.500    0.000    4.875    0.000    8.500 
#    0.000    0.000    0.000    0.000    0.000    0.000 
#    0.000    1.000    0.000    3.000    0.000    4.875 
#
# Total GULP energy -356577.193193 kJ/mol
# GULP energy per Si atom -5571.518644 kJ/mol
# Density = 1.416925 g / cm^3
# Si number density = 14.201575 Si / 1000 Ang^3
#
#
#
# Elastic Constant Matrix: (Units=GPa)
#
#
# Indices 1 2 3 4 5 6 
#
# 1 55.8505 30.1942 37.2711 0.0000 0.0000 0.0000
# 2 30.1942 42.9708 26.2924 0.0000 0.0000 0.0000
# 3 37.2711 26.2924 87.8732 0.0000 0.0000 0.0000
# 4 0.0000 0.0000 0.0000 24.0794 0.0000 0.0000
# 5 0.0000 0.0000 0.0000 0.0000 26.8125 0.0000
# 6 0.0000 0.0000 0.0000 0.0000 0.0000 21.8255
#
#
#
# Elastic Compliance Matrix: (Units=1/GPa)
#
#
# Indices 1 2 3 4 5 6 
#
# 1 0.033656 -0.018257 -0.008812 0.000000 0.000000 0.000000
# 2 -0.018257 0.038391 -0.003743 0.000000 0.000000 0.000000
# 3 -0.008812 -0.003743 0.016238 0.000000 0.000000 0.000000
# 4 0.000000 0.000000 0.000000 0.041529 0.000000 0.000000
# 5 0.000000 0.000000 0.000000 0.000000 0.037296 0.000000
# 6 0.000000 0.000000 0.000000 0.000000 0.000000 0.045818
#
#
# Mechanical properties :
#
#
# Convention : Reuss Voigt Hill
#
# Bulk Modulus (GPa) = 37.51049 41.57889 39.54469
# Shear Modulus (GPa) = 17.64047 20.73926 19.18986
#
# Velocity S-wave (km/s) = 3.52824 3.82560 3.67992
# Velocity P-wave (km/s) = 6.56264 6.98962 6.77949
#
# Compressibility (1/GPa) = 0.02665921
#
# Stress axis : x y z
#
# Youngs Moduli (GPa) = 29.71242 26.04807 61.58485
#
# Poissons Ratio (x) = 0.47556 0.54271
# Poissons Ratio (y) = 0.54246 0.23052
# Poissons Ratio (z) = 0.26184 0.09750
#
# Static dielectric constant tensor:
#      x y z
#    x 1.472400 0.000000 0.000000 
#    y 0.000000 1.465240 0.000000 
#    z 0.000000 0.000000 1.475040 
# 
# From -- ./inp_files/28608.got.cif
#   From: 2010.05.17/outbox.cif.g08.bks.cpg/sg51_15_cif.got.tgz:28608.got - 2010.06.03 11:52:47.
