data_PCOD9398146
_publ_section_title
;
Structure prediction by ZEFSAII (Michael W. Deem and Ramdas Pophale) SiO2 
 PCOD9398146
Probable space group: P B A N
;
_chemical_formula_sum "Si O2"
_cell_formula_units_Z 32
_cell_length_a 21.130171
_cell_length_b 11.393657
_cell_length_c 4.877692
_cell_angle_alpha 90.000000
_cell_angle_beta 90.000000
_cell_angle_gamma 90.000000
_cell_volume 1174.303962
_symmetry_space_group_name_H-M "P B A N"
_symmetry_group_IT_number 50
_space_group.IT_coordinate_system_code '2'
_symmetry_cell_setting 'orthorhombic'
loop_
_space_group_symop_operation_xyz
x,y,z
1/2-x,1/2-y,z
x,1/2-y,-z
1/2-x,y,-z
-x,-y,-z
1/2+x,1/2+y,-z
-x,1/2+y,z
1/2+x,-y,z
loop_
_atom_site_type_symbol
_atom_site_label
_atom_site_fract_x
_atom_site_fract_y
_atom_site_fract_z
Si Si1 0.183381 0.950891 0.037561
Si Si2 0.994862 0.623958 0.830410
Si Si3 0.646136 0.669110 0.258976
Si Si4 0.116505 0.621005 0.458294
O O1 0.125905 0.894557 0.864950
O O2 0.190455 0.069321 0.862109
O O3 0.250000 0.887742 0.000000
O O4 0.159521 0.962259 0.346689
O O5 0.925322 0.622546 0.685883
O O6 0.047514 0.621576 0.592114
O O7 0.000554 0.750000 0.000000
O O8 0.000000 0.500000 0.000000
O O9 0.670314 0.750000 0.500000
O O10 0.635065 0.750000 0.000000
O O11 0.144603 0.750000 0.500000
#
# Coordination Sequence:
#
# PCOD9398146 Si02
#       4
#     8   8   8   8
#     4  12  27  47  73 106 149 204 274 331 397 476
#     4  11  24  46  78 119 165 209 264 333 419 501
#     4  11  25  46  73 108 151 202 256 329 403 481
#     4  12  26  46  74 108 152 203 258 330 407 484
#
# _framework density 27.250187
#
# number of rings (size 3 to 8) (size 9 to 14) (size 15 to 20)
#    0.000    0.500    2.500    5.250    3.500    6.500 
#    0.000    1.250    0.000    0.000    0.000    0.000 
#    0.000    0.000    0.000    0.000    0.000    0.000 
#
# Total GULP energy -179063.497088 kJ/mol
# GULP energy per Si atom -5595.734284 kJ/mol
# Density = 2.718816 g / cm^3
# Si number density = 27.250187 Si / 1000 Ang^3
#
#
#
# Elastic Constant Matrix: (Units=GPa)
#
#
# Indices 1 2 3 4 5 6 
#
# 1 140.8521 14.2710 52.0329 0.0000 0.0000 0.0000
# 2 14.2710 135.7343 28.4664 0.0000 0.0000 0.0000
# 3 52.0329 28.4664 135.8010 0.0000 0.0000 0.0000
# 4 0.0000 0.0000 0.0000 58.9681 0.0000 0.0000
# 5 0.0000 0.0000 0.0000 0.0000 10.5526 0.0000
# 6 0.0000 0.0000 0.0000 0.0000 0.0000 7.6392
#
#
#
# Elastic Compliance Matrix: (Units=1/GPa)
#
#
# Indices 1 2 3 4 5 6 
#
# 1 0.008276 -0.000215 -0.003126 0.000000 0.000000 0.000000
# 2 -0.000215 0.007712 -0.001534 0.000000 0.000000 0.000000
# 3 -0.003126 -0.001534 0.008883 0.000000 0.000000 0.000000
# 4 0.000000 0.000000 0.000000 0.016958 0.000000 0.000000
# 5 0.000000 0.000000 0.000000 0.000000 0.094764 0.000000
# 6 0.000000 0.000000 0.000000 0.000000 0.000000 0.130904
#
#
# Mechanical properties :
#
#
# Convention : Reuss Voigt Hill
#
# Bulk Modulus (GPa) = 66.13280 66.88091 66.50685
# Shear Modulus (GPa) = 17.71245 36.60644 27.15944
#
# Velocity S-wave (km/s) = 2.55226 3.66915 3.16043
# Velocity P-wave (km/s) = 5.74516 6.52279 6.14628
#
# Compressibility (1/GPa) = 0.01512109
#
# Stress axis : x y z
#
# Youngs Moduli (GPa) = 120.82823 129.67361 112.57304
#
# Poissons Ratio (x) = 0.02782 0.35192
# Poissons Ratio (y) = 0.02592 0.17272
# Poissons Ratio (z) = 0.37772 0.19896
#
# Static dielectric constant tensor:
#      x y z
#    x 2.049600 0.000000 0.000000 
#    y 0.000000 2.278510 0.000000 
#    z 0.000000 0.000000 1.869260 
# 
# From -- ./inp_files/4917.got.cif
#   From: 2010.05.17/outbox.cif.g08.bks.cpg/sg50_3_cif.got.tgz:4917.got - 2010.06.03 11:33:33.
