data_PCOD9398031
_publ_section_title
;
Structure prediction by ZEFSAII (Michael W. Deem and Ramdas Pophale) SiO2 
 PCOD9398031
Probable space group: P B A N
;
_chemical_formula_sum "Si O2"
_cell_formula_units_Z 32
_cell_length_a 13.578928
_cell_length_b 8.477421
_cell_length_c 12.357484
_cell_angle_alpha 90.000000
_cell_angle_beta 90.000000
_cell_angle_gamma 90.000000
_cell_volume 1422.522989
_symmetry_space_group_name_H-M "P B A N"
_symmetry_group_IT_number 50
_space_group.IT_coordinate_system_code '2'
_symmetry_cell_setting 'orthorhombic'
loop_
_space_group_symop_operation_xyz
x,y,z
1/2-x,1/2-y,z
x,1/2-y,-z
1/2-x,y,-z
-x,-y,-z
1/2+x,1/2+y,-z
-x,1/2+y,z
1/2+x,-y,z
loop_
_atom_site_type_symbol
_atom_site_label
_atom_site_fract_x
_atom_site_fract_y
_atom_site_fract_z
Si Si1 0.450190 0.121181 0.919363
Si Si2 0.711123 0.928502 0.255356
Si Si3 0.550101 0.062284 0.390582
Si Si4 0.403526 0.628742 0.733546
O O1 0.364400 0.054886 0.843875
O O2 0.537402 0.184153 0.840122
O O3 0.406164 0.250000 0.000000
O O4 0.500000 0.000000 0.000000
O O5 0.750000 0.750000 0.254579
O O6 0.645139 0.957137 0.362125
O O7 0.794745 0.062218 0.248734
O O8 0.584863 0.239687 0.361072
O O9 0.500000 0.000000 0.500000
O O10 0.464941 0.023772 0.304377
#
# Coordination Sequence:
#
# PCOD9398031 Si02
#       4
#     8   8   8   8
#     4  11  23  41  66  98 139 186 233 285 350 415
#     4  11  24  44  69 101 138 180 233 291 350 423
#     4  11  24  44  69  97 134 179 225 286 355 420
#     4  11  23  43  67 100 139 177 232 292 347 420
#
# _framework density 22.495244
#
# number of rings (size 3 to 8) (size 9 to 14) (size 15 to 20)
#    0.000    1.000    0.000    9.000    0.000    4.500 
#    0.000    7.500    0.000    0.000    0.000    0.000 
#    0.000    0.000    0.000    0.000    0.000    0.000 
#
# Total GULP energy -178685.964734 kJ/mol
# GULP energy per Si atom -5583.936398 kJ/mol
# Density = 2.244404 g / cm^3
# Si number density = 22.495244 Si / 1000 Ang^3
#
#
#
# Elastic Constant Matrix: (Units=GPa)
#
#
# Indices 1 2 3 4 5 6 
#
# 1 170.2038 66.5163 76.5846 0.0000 0.0000 0.0000
# 2 66.5163 136.7727 58.8109 0.0000 0.0000 0.0000
# 3 76.5846 58.8109 131.3136 0.0000 0.0000 0.0000
# 4 0.0000 0.0000 0.0000 38.7921 0.0000 0.0000
# 5 0.0000 0.0000 0.0000 0.0000 30.5397 0.0000
# 6 0.0000 0.0000 0.0000 0.0000 0.0000 42.5194
#
#
#
# Elastic Compliance Matrix: (Units=1/GPa)
#
#
# Indices 1 2 3 4 5 6 
#
# 1 0.008610 -0.002512 -0.003897 0.000000 0.000000 0.000000
# 2 -0.002512 0.009788 -0.002919 0.000000 0.000000 0.000000
# 3 -0.003897 -0.002919 0.011195 0.000000 0.000000 0.000000
# 4 0.000000 0.000000 0.000000 0.025778 0.000000 0.000000
# 5 0.000000 0.000000 0.000000 0.000000 0.032744 0.000000
# 6 0.000000 0.000000 0.000000 0.000000 0.000000 0.023519
#
#
# Mechanical properties :
#
#
# Convention : Reuss Voigt Hill
#
# Bulk Modulus (GPa) = 91.41721 93.56819 92.49270
# Shear Modulus (GPa) = 37.33127 38.12878 37.73003
#
# Velocity S-wave (km/s) = 4.07814 4.12147 4.09986
# Velocity P-wave (km/s) = 7.93105 8.02082 7.97607
#
# Compressibility (1/GPa) = 0.01093886
#
# Stress axis : x y z
#
# Youngs Moduli (GPa) = 116.13960 102.16556 89.32386
#
# Poissons Ratio (x) = 0.25663 0.34807
# Poissons Ratio (y) = 0.29173 0.26071
# Poissons Ratio (z) = 0.45256 0.29820
#
# Static dielectric constant tensor:
#      x y z
#    x 1.821530 0.000000 0.000000 
#    y 0.000000 1.864180 0.000000 
#    z 0.000000 0.000000 1.860840 
# 
# From -- ./inp_files/20713.got.cif
#   From: 2010.05.17/outbox.cif.g08.bks.cpg/sg50_11_cif.got.tgz:20713.got - 2010.06.03 11:33:33.
