data_PCOD9398738
_publ_section_title
;
Structure prediction by ZEFSAII (Michael W. Deem and Ramdas Pophale) SiO2 
 PCOD9398738
Probable space group: P M M A
;
_chemical_formula_sum "Si O2"
_cell_formula_units_Z 64
_cell_length_a 18.944716
_cell_length_b 7.897188
_cell_length_c 22.514313
_cell_angle_alpha 90.000000
_cell_angle_beta 90.000000
_cell_angle_gamma 90.000000
_cell_volume 3368.366005
_symmetry_space_group_name_H-M "P M M A"
_symmetry_group_IT_number 51
_symmetry_cell_setting 'orthorhombic'
loop_
_space_group_symop_operation_xyz
x,y,z
1/2-x,-y,z
1/2+x,-y,-z
-x,y,-z
-x,-y,-z
1/2+x,y,-z
1/2-x,y,z
x,-y,z
loop_
_atom_site_type_symbol
_atom_site_label
_atom_site_fract_x
_atom_site_fract_y
_atom_site_fract_z
Si Si1 0.971658 0.293032 0.936551
Si Si2 0.086102 0.802234 0.628404
Si Si3 0.171502 0.293117 0.125386
Si Si4 0.328587 0.299643 0.741401
Si Si5 0.042081 0.293047 0.815436
Si Si6 0.575556 0.199982 0.624693
Si Si7 0.898381 0.296091 0.752935
Si Si8 0.081051 0.699589 0.502148
O O1 0.970883 0.500000 0.937754
O O2 0.892645 0.239453 0.917379
O O3 0.022421 0.242255 0.882147
O O4 0.000000 0.234328 0.000000
O O5 0.135939 0.719620 0.677011
O O6 0.113389 0.780351 0.561024
O O7 0.005451 0.731250 0.630525
O O8 0.082381 0.000000 0.642841
O O9 0.250000 0.236617 0.108962
O O10 0.171065 0.500000 0.124875
O O11 0.152217 0.241902 0.193058
O O12 0.250000 0.226521 0.743461
O O13 0.323285 0.500000 0.753267
O O14 0.384700 0.229784 0.788844
O O15 0.042409 0.500000 0.814536
O O16 0.976944 0.240740 0.773271
O O17 0.614761 0.236500 0.686245
O O18 0.609242 0.269379 0.563991
O O19 0.569976 0.000000 0.616695
O O20 0.897405 0.500000 0.752129
O O21 0.079072 0.500000 0.512909
O O22 0.000000 0.766044 0.500000
#
# Coordination Sequence:
#
# PCOD9398738 Si02
#       8
#     8   8   8   8   8   8   8   8
#     4   8  13  22  38  61  91 127 158 186 229 279
#     4  10  19  30  44  63  90 119 149 194 244 284
#     4   8  14  24  39  62  89 117 155 198 233 272
#     4  10  19  30  45  63  86 120 160 198 235 280
#     4   8  14  25  40  59  85 116 153 191 225 270
#     4  10  18  27  42  67  94 116 146 192 241 283
#     4   9  15  25  44  63  84 119 154 187 231 279
#     4   9  17  28  44  65  89 118 150 185 229 283
#
# _framework density 19.000309999999999
#
# number of rings (size 3 to 8) (size 9 to 14) (size 15 to 20)
#    0.000    3.000    1.250    2.625    0.000    2.750 
#    0.000    0.625    0.000    4.875    0.000    1.750 
#    0.000   12.500    0.000    1.000    0.000    0.500 
#
# Total GULP energy -356554.077540 kJ/mol
# GULP energy per Si atom -5571.157462 kJ/mol
# Density = 1.895706 g / cm^3
# Si number density = 19.000310 Si / 1000 Ang^3
#
#
#
# Elastic Constant Matrix: (Units=GPa)
#
#
# Indices 1 2 3 4 5 6 
#
# 1 103.3005 3.2763 59.2673 0.0000 0.0000 0.0000
# 2 3.2763 20.4672 -4.9206 0.0000 0.0000 0.0000
# 3 59.2673 -4.9206 148.2310 0.0000 0.0000 0.0000
# 4 0.0000 0.0000 0.0000 -23.6043 0.0000 0.0000
# 5 0.0000 0.0000 0.0000 0.0000 14.1391 0.0000
# 6 0.0000 0.0000 0.0000 0.0000 0.0000 3.3162
#
#
#
# Elastic Compliance Matrix: (Units=1/GPa)
#
#
# Indices 1 2 3 4 5 6 
#
# 1 0.012780 -0.003300 -0.005219 0.000000 0.000000 0.000000
# 2 -0.003300 0.050104 0.002983 0.000000 0.000000 0.000000
# 3 -0.005219 0.002983 0.008932 0.000000 0.000000 0.000000
# 4 0.000000 0.000000 0.000000 -0.042365 0.000000 0.000000
# 5 0.000000 0.000000 0.000000 0.000000 0.070726 0.000000
# 6 0.000000 0.000000 0.000000 0.000000 0.000000 0.301547
#
#
# Mechanical properties :
#
#
# Convention : Reuss Voigt Hill
#
# Bulk Modulus (GPa) = 16.46307 43.02720 29.74513
# Shear Modulus (GPa) = 11.54615 13.06192 12.30403
#
# Velocity S-wave (km/s) = 2.46780 2.62479 2.54750
# Velocity P-wave (km/s) = 4.09920 5.64630 4.93377
#
# Compressibility (1/GPa) = 0.06074202
#
# Stress axis : x y z
#
# Youngs Moduli (GPa) = 78.24935 19.95845 111.95623
#
# Poissons Ratio (x) = 0.06587 0.58433
# Poissons Ratio (y) = 0.25826 -0.33395
# Poissons Ratio (z) = 0.40840 -0.05953
#
# Static dielectric constant tensor:
#      x y z
#    x 1.670690 0.000000 0.000000 
#    y 0.000000 1.670610 0.000000 
#    z 0.000000 0.000000 1.673180 
# 
# From -- ./inp_files/33831.got.cif
#   From: 2010.05.17/outbox.cif.g08.bks.cpg/sg51_17_cif.got.tgz:33831.got - 2010.06.03 11:52:47.
