data_PCOD9398145
_publ_section_title
;
Structure prediction by ZEFSAII (Michael W. Deem and Ramdas Pophale) SiO2 
 PCOD9398145
Probable space group: P B A N
;
_chemical_formula_sum "Si O2"
_cell_formula_units_Z 34
_cell_length_a 18.937270
_cell_length_b 16.284346
_cell_length_c 5.090608
_cell_angle_alpha 90.000000
_cell_angle_beta 90.000000
_cell_angle_gamma 90.000000
_cell_volume 1569.847076
_symmetry_space_group_name_H-M "P B A N"
_symmetry_group_IT_number 50
_space_group.IT_coordinate_system_code '2'
_symmetry_cell_setting 'orthorhombic'
loop_
_space_group_symop_operation_xyz
x,y,z
1/2-x,1/2-y,z
x,1/2-y,-z
1/2-x,y,-z
-x,-y,-z
1/2+x,1/2+y,-z
-x,1/2+y,z
1/2+x,-y,z
loop_
_atom_site_type_symbol
_atom_site_label
_atom_site_fract_x
_atom_site_fract_y
_atom_site_fract_z
Si Si1 0.795881 0.918318 0.268387
Si Si2 0.945484 0.840821 0.391939
Si Si3 0.979370 0.092247 0.087684
Si Si4 0.315700 0.602843 0.800483
Si Si5 0.750000 0.250000 0.500000
O O1 0.750000 0.880291 0.500000
O O2 0.872103 0.877060 0.281397
O O3 0.809874 0.014192 0.337524
O O4 0.750000 0.912950 0.000000
O O5 0.934521 0.750000 0.500000
O O6 0.981842 0.889935 0.634580
O O7 0.995270 0.846574 0.139581
O O8 0.895194 0.101775 0.097924
O O9 0.000000 0.000000 0.000000
O O10 0.301319 0.686644 0.647402
O O11 0.250000 0.601541 0.000000
#
# Coordination Sequence:
#
# PCOD9398145 Si02
#       5
#     8   8   8   8   2
#     4  11  24  46  77 104 144 195 250 302 372 462
#     4  12  28  48  74 115 148 194 258 321 381 452
#     4  12  27  48  79 107 150 205 253 314 387 464
#     4  11  27  44  73 107 148 198 250 302 384 452
#     4  12  26  44  72 110 154 184 256 312 382 444
#
# _framework density 21.658162999999998
#
# number of rings (size 3 to 8) (size 9 to 14) (size 15 to 20)
#    0.000    0.471    3.529    3.176    8.235    2.353 
#    0.000    1.176    0.000    0.000    0.000    0.000 
#    0.000    0.000    0.000    0.000    0.000    0.000 
#
# Total GULP energy -189952.559187 kJ/mol
# GULP energy per Si atom -5586.839976 kJ/mol
# Density = 2.160887 g / cm^3
# Si number density = 21.658163 Si / 1000 Ang^3
#
#
#
# Elastic Constant Matrix: (Units=GPa)
#
#
# Indices 1 2 3 4 5 6 
#
# 1 230.3928 72.8492 69.6127 0.0000 0.0000 0.0000
# 2 72.8492 124.2766 23.0829 0.0000 0.0000 0.0000
# 3 69.6127 23.0829 99.9389 0.0000 0.0000 0.0000
# 4 0.0000 0.0000 0.0000 -8.4464 0.0000 0.0000
# 5 0.0000 0.0000 0.0000 0.0000 41.9682 0.0000
# 6 0.0000 0.0000 0.0000 0.0000 0.0000 23.0149
#
#
#
# Elastic Compliance Matrix: (Units=1/GPa)
#
#
# Indices 1 2 3 4 5 6 
#
# 1 0.006460 -0.003083 -0.003787 0.000000 0.000000 0.000000
# 2 -0.003083 0.009879 -0.000134 0.000000 0.000000 0.000000
# 3 -0.003787 -0.000134 0.012675 0.000000 0.000000 0.000000
# 4 0.000000 0.000000 0.000000 -0.118393 0.000000 0.000000
# 5 0.000000 0.000000 0.000000 0.000000 0.023828 0.000000
# 6 0.000000 0.000000 0.000000 0.000000 0.000000 0.043450
#
#
# Mechanical properties :
#
#
# Convention : Reuss Voigt Hill
#
# Bulk Modulus (GPa) = 66.64736 87.29977 76.97356
# Shear Modulus (GPa) = -1617.54482 30.57823 -793.48329
#
# Velocity S-wave (km/s) = -27.35825 3.76155 -19.16148
# Velocity P-wave (km/s) = 31.09864 7.69813 21.30569
#
# Compressibility (1/GPa) = 0.01500435
#
# Stress axis : x y z
#
# Youngs Moduli (GPa) = 154.80792 101.22747 78.89416
#
# Poissons Ratio (x) = 0.31209 0.29880
# Poissons Ratio (y) = 0.47729 0.01058
# Poissons Ratio (z) = 0.58631 0.01358
#
# Static dielectric constant tensor:
#      x y z
#    x 1.813110 0.000000 0.000000 
#    y 0.000000 1.829530 0.000000 
#    z 0.000000 0.000000 1.819720 
# 
# From -- ./inp_files/4059.got.cif
#   From: 2010.05.17/outbox.cif.g08.bks.cpg/sg50_3_cif.got.tgz:4059.got - 2010.06.03 11:33:33.
