data_PCOD9398383
_publ_section_title
;
Structure prediction by ZEFSAII (Michael W. Deem and Ramdas Pophale) SiO2 
 PCOD9398383
Probable space group: P M M A
;
_chemical_formula_sum "Si O2"
_cell_formula_units_Z 44
_cell_length_a 8.771698
_cell_length_b 18.367444
_cell_length_c 20.849822
_cell_angle_alpha 90.000000
_cell_angle_beta 90.000000
_cell_angle_gamma 90.000000
_cell_volume 3359.191379
_symmetry_space_group_name_H-M "P M M A"
_symmetry_group_IT_number 51
_symmetry_cell_setting 'orthorhombic'
loop_
_space_group_symop_operation_xyz
x,y,z
1/2-x,-y,z
1/2+x,-y,-z
-x,y,-z
-x,-y,-z
1/2+x,y,-z
1/2-x,y,z
x,-y,z
loop_
_atom_site_type_symbol
_atom_site_label
_atom_site_fract_x
_atom_site_fract_y
_atom_site_fract_z
Si Si1 0.566726 0.500000 0.427153
Si Si2 0.926381 0.088690 0.933047
Si Si3 0.433059 0.351110 0.427453
Si Si4 0.070207 0.086428 0.333856
Si Si5 0.924085 0.911584 0.199703
Si Si6 0.568584 0.799101 0.428760
O O1 0.750000 0.500000 0.429261
O O2 0.500000 0.500000 0.500000
O O3 0.502291 0.424993 0.397805
O O4 0.750000 0.109361 0.930336
O O5 0.011577 0.113510 0.868731
O O6 0.932977 0.000000 0.933128
O O7 0.000000 0.112940 0.000000
O O8 0.500000 0.349314 0.500000
O O9 0.250000 0.354250 0.429013
O O10 0.492595 0.274571 0.400329
O O11 0.250000 0.097991 0.344037
O O12 0.024132 0.107975 0.261411
O O13 0.975461 0.133540 0.384072
O O14 0.039046 0.000000 0.340909
O O15 0.750000 0.887925 0.208901
O O16 0.924577 0.000000 0.197288
O O17 0.500000 0.810447 0.500000
O O18 0.750000 0.789552 0.433626
#
# Coordination Sequence:
#
# PCOD9398383 Si02
#       6
#     4   8   8   8   8   8
#     4  10  16  24  38  58  80 100 120 140 169 212
#     4   9  15  22  33  50  71  93 115 141 175 215
#     4  10  17  27  41  58  78  98 119 144 178 219
#     4  10  20  33  46  58  72  93 123 159 198 237
#     4   9  16  26  39  54  71  91 116 147 183 223
#     4  11  21  33  46  59  75  95 121 156 197 236
#
# _framework density 13.098390999999999
#
# number of rings (size 3 to 8) (size 9 to 14) (size 15 to 20)
#    0.000    2.182    0.000    7.909    0.000    5.818 
#    0.000    0.000    0.000    0.000    0.000    0.000 
#    0.000    0.000    0.000    0.000    0.000    0.000 
#
# Total GULP energy -245117.412220 kJ/mol
# GULP energy per Si atom -5570.850278 kJ/mol
# Density = 1.306858 g / cm^3
# Si number density = 13.098391 Si / 1000 Ang^3
#
#
#
# Elastic Constant Matrix: (Units=GPa)
#
#
# Indices 1 2 3 4 5 6 
#
# 1 111.7779 31.0838 23.6961 0.0000 0.0000 0.0000
# 2 31.0838 42.9609 21.6595 0.0000 0.0000 0.0000
# 3 23.6961 21.6595 52.3933 0.0000 0.0000 0.0000
# 4 0.0000 0.0000 0.0000 -0.4853 0.0000 0.0000
# 5 0.0000 0.0000 0.0000 0.0000 21.5852 0.0000
# 6 0.0000 0.0000 0.0000 0.0000 0.0000 17.5908
#
#
#
# Elastic Compliance Matrix: (Units=1/GPa)
#
#
# Indices 1 2 3 4 5 6 
#
# 1 0.011398 -0.007135 -0.002205 0.000000 0.000000 0.000000
# 2 -0.007135 0.033872 -0.010776 0.000000 0.000000 0.000000
# 3 -0.002205 -0.010776 0.024539 0.000000 0.000000 0.000000
# 4 0.000000 0.000000 0.000000 -2.060696 0.000000 0.000000
# 5 0.000000 0.000000 0.000000 0.000000 0.046328 0.000000
# 6 0.000000 0.000000 0.000000 0.000000 0.000000 0.056848
#
#
# Mechanical properties :
#
#
# Convention : Reuss Voigt Hill
#
# Bulk Modulus (GPa) = 33.81084 40.00123 36.90603
# Shear Modulus (GPa) = -2.72091 16.45099 6.86504
#
# Velocity S-wave (km/s) = -1.44284 3.54779 2.29184
# Velocity P-wave (km/s) = 4.80555 6.88388 5.93637
#
# Compressibility (1/GPa) = 0.02957632
#
# Stress axis : x y z
#
# Youngs Moduli (GPa) = 87.73498 29.52273 40.75206
#
# Poissons Ratio (x) = 0.21064 0.08987
# Poissons Ratio (y) = 0.62598 0.43914
# Poissons Ratio (z) = 0.19349 0.31813
#
# Static dielectric constant tensor:
#      x y z
#    x 1.441100 0.000000 0.000000 
#    y 0.000000 1.453900 0.000000 
#    z 0.000000 0.000000 1.417400 
# 
# From -- ./inp_files/31628.got.cif
#   From: 2010.05.17/outbox.cif.g08.bks.cpg/sg51_16_cif.got.tgz:31628.got - 2010.06.03 11:52:47.
