data_PCOD9398131
_publ_section_title
;
Structure prediction by ZEFSAII (Michael W. Deem and Ramdas Pophale) SiO2 
 PCOD9398131
Probable space group: P B A N
;
_chemical_formula_sum "Si O2"
_cell_formula_units_Z 48
_cell_length_a 17.876134
_cell_length_b 13.870763
_cell_length_c 8.296466
_cell_angle_alpha 90.000000
_cell_angle_beta 90.000000
_cell_angle_gamma 90.000000
_cell_volume 2057.155355
_symmetry_space_group_name_H-M "P B A N"
_symmetry_group_IT_number 50
_space_group.IT_coordinate_system_code '2'
_symmetry_cell_setting 'orthorhombic'
loop_
_space_group_symop_operation_xyz
x,y,z
1/2-x,1/2-y,z
x,1/2-y,-z
1/2-x,y,-z
-x,-y,-z
1/2+x,1/2+y,-z
-x,1/2+y,z
1/2+x,-y,z
loop_
_atom_site_type_symbol
_atom_site_label
_atom_site_fract_x
_atom_site_fract_y
_atom_site_fract_z
Si Si1 0.509682 0.870052 0.845583
Si Si2 0.148712 0.421015 0.602087
Si Si3 0.868768 0.475561 0.737690
Si Si4 0.655778 0.383391 0.732315
Si Si5 0.502265 0.650660 0.772454
Si Si6 0.250000 0.250000 0.500000
Si Si7 0.750000 0.097727 0.000000
Si Si8 0.750000 0.250000 0.500000
O O1 0.572719 0.944975 0.799292
O O2 0.432580 0.885997 0.750658
O O3 0.526664 0.761472 0.790304
O O4 0.500855 0.879708 0.038577
O O5 0.156207 0.477101 0.431347
O O6 0.175741 0.503216 0.723629
O O7 0.063949 0.396789 0.655749
O O8 0.196763 0.323348 0.598297
O O9 0.806286 0.455310 0.872713
O O10 0.919449 0.378942 0.711017
O O11 0.691861 0.343258 0.893966
O O12 0.695294 0.320846 0.597331
#
# Coordination Sequence:
#
# PCOD9398131 Si02
#       8
#     8   8   8   8   8   2   4   2
#     4  11  25  44  74 105 149 194 251 307 384 463
#     4  12  26  47  74 106 149 195 254 324 389 461
#     4  12  24  47  73 110 146 199 252 320 384 468
#     4  12  27  47  69 106 147 196 244 318 385 464
#     4  11  24  44  71 109 143 198 252 313 378 474
#     4  12  26  48  70 104 152 196 256 318 404 462
#     4  12  26  45  78 101 150 200 252 307 396 455
#     4  12  30  42  70 110 156 194 266 318 400 468
#
# _framework density 23.333190999999999
#
# number of rings (size 3 to 8) (size 9 to 14) (size 15 to 20)
#    0.000    0.333    3.333    5.500    4.667    0.333 
#    0.000    0.000    0.000    2.000    0.000    0.000 
#    0.000    0.000    0.000    0.000    0.000    0.000 
#
# Total GULP energy -268157.088519 kJ/mol
# GULP energy per Si atom -5586.606011 kJ/mol
# Density = 2.328008 g / cm^3
# Si number density = 23.333191 Si / 1000 Ang^3
#
#
#
# Elastic Constant Matrix: (Units=GPa)
#
#
# Indices 1 2 3 4 5 6 
#
# 1 141.4848 18.8804 42.9251 0.0000 0.0000 0.0000
# 2 18.8804 82.5424 8.2656 0.0000 0.0000 0.0000
# 3 42.9251 8.2656 78.3294 0.0000 0.0000 0.0000
# 4 0.0000 0.0000 0.0000 -113.0592 0.0000 0.0000
# 5 0.0000 0.0000 0.0000 0.0000 52.1255 0.0000
# 6 0.0000 0.0000 0.0000 0.0000 0.0000 20.7281
#
#
#
# Elastic Compliance Matrix: (Units=1/GPa)
#
#
# Indices 1 2 3 4 5 6 
#
# 1 0.008663 -0.001522 -0.004587 0.000000 0.000000 0.000000
# 2 -0.001522 0.012512 -0.000486 0.000000 0.000000 0.000000
# 3 -0.004587 -0.000486 0.015331 0.000000 0.000000 0.000000
# 4 0.000000 0.000000 0.000000 -0.008845 0.000000 0.000000
# 5 0.000000 0.000000 0.000000 0.000000 0.019184 0.000000
# 6 0.000000 0.000000 0.000000 0.000000 0.000000 0.048244
#
#
# Mechanical properties :
#
#
# Convention : Reuss Voigt Hill
#
# Bulk Modulus (GPa) = 42.88885 49.16655 46.02770
# Shear Modulus (GPa) = 43.08465 7.44457 25.26461
#
# Velocity S-wave (km/s) = 4.30175 1.78815 3.29413
# Velocity P-wave (km/s) = 6.56463 5.03791 5.85128
#
# Compressibility (1/GPa) = 0.02331608
#
# Stress axis : x y z
#
# Youngs Moduli (GPa) = 115.43987 79.92436 65.22589
#
# Poissons Ratio (x) = 0.12166 0.29916
# Poissons Ratio (y) = 0.17572 0.03171
# Poissons Ratio (z) = 0.52947 0.03886
#
# Static dielectric constant tensor:
#      x y z
#    x 1.884450 0.000000 0.000000 
#    y 0.000000 1.898690 0.000000 
#    z 0.000000 0.000000 1.989950 
# 
# From -- ./inp_files/14284.got.cif
#   From: 2010.05.17/outbox.cif.g08.bks.cpg/sg50_8_cif.got.tgz:14284.got - 2010.06.03 11:33:33.
