data_PCOD9398177
_publ_section_title
;
Structure prediction by ZEFSAII (Michael W. Deem and Ramdas Pophale) SiO2 
 PCOD9398177
Probable space group: P B A N
;
_chemical_formula_sum "Si O2"
_cell_formula_units_Z 40
_cell_length_a 8.399192
_cell_length_b 22.781882
_cell_length_c 9.617070
_cell_angle_alpha 90.000000
_cell_angle_beta 90.000000
_cell_angle_gamma 90.000000
_cell_volume 1840.220584
_symmetry_space_group_name_H-M "P B A N"
_symmetry_group_IT_number 50
_space_group.IT_coordinate_system_code '2'
_symmetry_cell_setting 'orthorhombic'
loop_
_space_group_symop_operation_xyz
x,y,z
1/2-x,1/2-y,z
x,1/2-y,-z
1/2-x,y,-z
-x,-y,-z
1/2+x,1/2+y,-z
-x,1/2+y,z
1/2+x,-y,z
loop_
_atom_site_type_symbol
_atom_site_label
_atom_site_fract_x
_atom_site_fract_y
_atom_site_fract_z
Si Si1 0.061467 0.684513 0.030704
Si Si2 0.434548 0.935128 0.539247
Si Si3 0.125599 0.526948 0.104498
Si Si4 0.051522 0.124343 0.283642
Si Si5 0.891337 0.598338 0.809251
O O1 0.963334 0.635566 0.938802
O O2 0.002856 0.750000 0.000000
O O3 0.250000 0.682397 0.000000
O O4 0.033675 0.674199 0.194366
O O5 0.250000 0.934537 0.500000
O O6 0.521692 0.886586 0.444694
O O7 0.470966 0.917780 0.698535
O O8 0.500000 0.000000 0.500000
O O9 0.189616 0.466119 0.166463
O O10 0.039642 0.567852 0.214242
O O11 0.250000 0.556699 0.000000
O O12 0.000000 0.500000 0.000000
O O13 0.238618 0.130830 0.253495
#
# Coordination Sequence:
#
# PCOD9398177 Si02
#       5
#     8   8   8   8   8
#     4  11  25  45  70  96 125 166 217 269 321 376
#     4  12  26  40  61  93 137 176 211 257 321 391
#     4  12  22  34  58  94 129 167 208 259 320 380
#     4  12  24  40  64  94 130 170 214 264 317 381
#     4  12  24  41  63  95 130 169 213 265 318 380
#
# _framework density 21.736523999999999
#
# number of rings (size 3 to 8) (size 9 to 14) (size 15 to 20)
#    0.000    0.200    6.000    4.200    2.800    1.600 
#    0.000    1.000    0.000    6.000    0.000    0.000 
#    0.000    0.000    0.000    0.000    0.000    0.000 
#
# Total GULP energy -223247.750399 kJ/mol
# GULP energy per Si atom -5581.193760 kJ/mol
# Density = 2.168705 g / cm^3
# Si number density = 21.736524 Si / 1000 Ang^3
#
#
#
# Elastic Constant Matrix: (Units=GPa)
#
#
# Indices 1 2 3 4 5 6 
#
# 1 107.0415 -11.1064 -0.3773 0.0000 0.0000 0.0000
# 2 -11.1064 99.4040 13.9515 0.0000 0.0000 0.0000
# 3 -0.3773 13.9515 80.9747 0.0000 0.0000 0.0000
# 4 0.0000 0.0000 0.0000 19.3692 0.0000 0.0000
# 5 0.0000 0.0000 0.0000 0.0000 38.9825 0.0000
# 6 0.0000 0.0000 0.0000 0.0000 0.0000 14.8059
#
#
#
# Elastic Compliance Matrix: (Units=1/GPa)
#
#
# Indices 1 2 3 4 5 6 
#
# 1 0.009453 0.001076 -0.000141 0.000000 0.000000 0.000000
# 2 0.001076 0.010432 -0.001792 0.000000 0.000000 0.000000
# 3 -0.000141 -0.001792 0.012658 0.000000 0.000000 0.000000
# 4 0.000000 0.000000 0.000000 0.051628 0.000000 0.000000
# 5 0.000000 0.000000 0.000000 0.000000 0.025653 0.000000
# 6 0.000000 0.000000 0.000000 0.000000 0.000000 0.067541
#
#
# Mechanical properties :
#
#
# Convention : Reuss Voigt Hill
#
# Bulk Modulus (GPa) = 32.43856 32.48400 32.46128
# Shear Modulus (GPa) = 26.40538 33.62835 30.01686
#
# Velocity S-wave (km/s) = 3.48917 3.93757 3.72013
# Velocity P-wave (km/s) = 5.58465 5.97072 5.78091
#
# Compressibility (1/GPa) = 0.03082751
#
# Stress axis : x y z
#
# Youngs Moduli (GPa) = 105.78297 95.86133 79.00336
#
# Poissons Ratio (x) = -0.10315 0.01117
# Poissons Ratio (y) = -0.11383 0.14160
# Poissons Ratio (z) = 0.01495 0.17181
#
# Static dielectric constant tensor:
#      x y z
#    x 1.841520 0.000000 0.000000 
#    y 0.000000 2.191630 0.000000 
#    z 0.000000 0.000000 2.237090 
# 
# From -- ./inp_files/9509.got.cif
#   From: 2010.05.17/outbox.cif.g08.bks.cpg/sg50_5_cif.got.tgz:9509.got - 2010.06.03 11:33:33.
