data_PCOD9398487
_publ_section_title
;
Structure prediction by ZEFSAII (Michael W. Deem and Ramdas Pophale) SiO2 
 PCOD9398487
Probable space group: P M M A
;
_chemical_formula_sum "Si O2"
_cell_formula_units_Z 56
_cell_length_a 25.005044
_cell_length_b 8.879162
_cell_length_c 16.694431
_cell_angle_alpha 90.000000
_cell_angle_beta 90.000000
_cell_angle_gamma 90.000000
_cell_volume 3706.561619
_symmetry_space_group_name_H-M "P M M A"
_symmetry_group_IT_number 51
_symmetry_cell_setting 'orthorhombic'
loop_
_space_group_symop_operation_xyz
x,y,z
1/2-x,-y,z
1/2+x,-y,-z
-x,y,-z
-x,-y,-z
1/2+x,y,-z
1/2-x,y,z
x,-y,z
loop_
_atom_site_type_symbol
_atom_site_label
_atom_site_fract_x
_atom_site_fract_y
_atom_site_fract_z
Si Si1 0.505402 0.819642 0.191081
Si Si2 0.397930 0.681150 0.116705
Si Si3 0.488163 0.817339 0.626531
Si Si4 0.811821 0.319748 0.595281
Si Si5 0.313456 0.823971 0.231164
Si Si6 0.412474 0.817868 0.483162
Si Si7 0.557293 0.674364 0.046132
O O1 0.449624 0.747917 0.161953
O O2 0.516846 0.768590 0.281833
O O3 0.549599 0.768699 0.126448
O O4 0.500472 0.000000 0.189982
O O5 0.400755 0.500000 0.119250
O O6 0.346577 0.742020 0.162441
O O7 0.401980 0.726177 0.022945
O O8 0.440566 0.771803 0.566592
O O9 0.544562 0.773525 0.585801
O O10 0.488012 0.000000 0.626142
O O11 0.750000 0.279291 0.576177
O O12 0.815436 0.500000 0.598824
O O13 0.824317 0.251300 0.682796
O O14 0.855517 0.254473 0.534775
O O15 0.250000 0.812764 0.217036
O O16 0.328434 0.000000 0.234685
O O17 0.407879 0.000000 0.481912
O O18 0.567671 0.500000 0.066500
O O19 0.500000 0.679021 0.000000
#
# Coordination Sequence:
#
# PCOD9398487 Si02
#       7
#     8   8   8   8   8   8   8
#     4  10  17  26  43  66  90 116 148 181 214 254
#     4  10  19  30  44  62  88 119 146 176 215 256
#     4   8  16  28  43  65  90 116 144 181 224 260
#     4  10  20  32  45  64  91 118 145 180 219 256
#     4  10  20  32  46  65  87 112 145 179 211 254
#     4   9  16  30  48  63  86 118 150 180 215 262
#     4   8  16  29  41  58  86 116 144 173 208 251
#
# _framework density 15.108343
#
# number of rings (size 3 to 8) (size 9 to 14) (size 15 to 20)
#    0.000    2.714    0.000    4.286    0.000    6.000 
#    0.000    3.571    0.000    0.000    0.000    1.000 
#    0.000    1.143    0.000    0.000    0.000    0.000 
#
# Total GULP energy -312024.392757 kJ/mol
# GULP energy per Si atom -5571.864156 kJ/mol
# Density = 1.507396 g / cm^3
# Si number density = 15.108343 Si / 1000 Ang^3
#
#
#
# Elastic Constant Matrix: (Units=GPa)
#
#
# Indices 1 2 3 4 5 6 
#
# 1 59.6288 28.3098 45.8927 0.0000 0.0000 0.0000
# 2 28.3098 46.7083 38.8531 0.0000 0.0000 0.0000
# 3 45.8927 38.8531 122.1794 0.0000 0.0000 0.0000
# 4 0.0000 0.0000 0.0000 12.3061 0.0000 0.0000
# 5 0.0000 0.0000 0.0000 0.0000 26.4587 0.0000
# 6 0.0000 0.0000 0.0000 0.0000 0.0000 21.1935
#
#
#
# Elastic Compliance Matrix: (Units=1/GPa)
#
#
# Indices 1 2 3 4 5 6 
#
# 1 0.027090 -0.010816 -0.006736 0.000000 0.000000 0.000000
# 2 -0.010816 0.033428 -0.006567 0.000000 0.000000 0.000000
# 3 -0.006736 -0.006567 0.012803 0.000000 0.000000 0.000000
# 4 0.000000 0.000000 0.000000 0.081261 0.000000 0.000000
# 5 0.000000 0.000000 0.000000 0.000000 0.037795 0.000000
# 6 0.000000 0.000000 0.000000 0.000000 0.000000 0.047184
#
#
# Mechanical properties :
#
#
# Convention : Reuss Voigt Hill
#
# Bulk Modulus (GPa) = 39.86864 50.51419 45.19141
# Shear Modulus (GPa) = 16.88277 19.68904 18.28591
#
# Velocity S-wave (km/s) = 3.34645 3.61389 3.48274
# Velocity P-wave (km/s) = 6.43253 7.13588 6.79331
#
# Compressibility (1/GPa) = 0.02508237
#
# Stress axis : x y z
#
# Youngs Moduli (GPa) = 36.91443 29.91510 78.10500
#
# Poissons Ratio (x) = 0.32356 0.52611
# Poissons Ratio (y) = 0.39926 0.51295
# Poissons Ratio (z) = 0.24865 0.19647
#
# Static dielectric constant tensor:
#      x y z
#    x 1.495180 0.000000 0.000000 
#    y 0.000000 1.507100 0.000000 
#    z 0.000000 0.000000 1.508910 
# 
# From -- ./inp_files/30784.got.cif
#   From: 2010.05.17/outbox.cif.g08.bks.cpg/sg51_16_cif.got.tgz:30784.got - 2010.06.03 11:52:47.
