data_PCOD9398311
_publ_section_title
;
Structure prediction by ZEFSAII (Michael W. Deem and Ramdas Pophale) SiO2 
 PCOD9398311
Probable space group: P B A N
;
_chemical_formula_sum "Si O2"
_cell_formula_units_Z 40
_cell_length_a 12.000000
_cell_length_b 9.000000
_cell_length_c 21.000000
_cell_angle_alpha 90.000000
_cell_angle_beta 90.000000
_cell_angle_gamma 90.000000
_cell_volume 2268.000000
_symmetry_space_group_name_H-M "P B A N"
_symmetry_group_IT_number 50
_space_group.IT_coordinate_system_code '2'
_symmetry_cell_setting 'orthorhombic'
loop_
_space_group_symop_operation_xyz
x,y,z
1/2-x,1/2-y,z
x,1/2-y,-z
1/2-x,y,-z
-x,-y,-z
1/2+x,1/2+y,-z
-x,1/2+y,z
1/2+x,-y,z
loop_
_atom_site_type_symbol
_atom_site_label
_atom_site_fract_x
_atom_site_fract_y
_atom_site_fract_z
Si Si1 0.994867 0.516166 0.656056
Si Si2 0.617428 0.234173 0.573824
Si Si3 0.119787 0.232954 0.264559
Si Si4 0.128210 0.175799 0.114801
Si Si5 0.440440 0.620289 0.045284
O O1 0.917751 0.419109 0.608534
O O2 0.934393 0.613848 0.710484
O O3 0.063116 0.632666 0.613818
O O4 0.071495 0.397787 0.692068
O O5 0.750000 0.250000 0.575558
O O6 0.581135 0.250000 0.500000
O O7 0.250000 0.250000 0.275200
O O8 0.104512 0.191627 0.190297
O O9 0.250000 0.250000 0.101712
O O10 0.034192 0.280612 0.081614
O O11 0.123692 0.001071 0.091204
O O12 0.384266 0.750000 0.000000
O O13 0.500000 0.500000 0.000000
#
# Coordination Sequence:
#
# PCOD9398311 Si02
#       5
#     8   8   8   8   8
#     4  10  20  34  53  76 105 137 174 217 263 309
#     4  10  20  34  52  75 104 138 176 217 261 311
#     4  10  20  34  54  78 104 137 174 214 261 312
#     4  10  20  36  56  78 107 140 173 216 266 313
#     4   9  19  35  54  78 105 134 173 214 256 313
#
# _framework density 17.636683999999999
#
# number of rings (size 3 to 8) (size 9 to 14) (size 15 to 20)
#    0.000    2.200    0.000    3.000    0.000    3.600 
#    0.000    7.000    0.000   26.400    0.000    0.000 
#    0.000    0.000    0.000    0.000    0.000    0.000 
#
# Total GULP energy -222749.272507 kJ/mol
# GULP energy per Si atom -5568.731813 kJ/mol
# Density = 1.759654 g / cm^3
# Si number density = 17.636684 Si / 1000 Ang^3
#
#
#
# Elastic Constant Matrix: (Units=GPa)
#
#
# Indices 1 2 3 4 5 6 
#
# 1 73.3518 43.4847 51.6125 0.0000 0.0000 0.0000
# 2 43.4847 156.8429 59.3726 0.0000 0.0000 0.0000
# 3 51.6125 59.3726 112.4678 0.0000 0.0000 0.0000
# 4 0.0000 0.0000 0.0000 36.2848 0.0000 0.0000
# 5 0.0000 0.0000 0.0000 0.0000 -248.0026 0.0000
# 6 0.0000 0.0000 0.0000 0.0000 0.0000 19.7416
#
#
#
# Elastic Compliance Matrix: (Units=1/GPa)
#
#
# Indices 1 2 3 4 5 6 
#
# 1 0.021024 -0.002720 -0.008212 0.000000 0.000000 0.000000
# 2 -0.002720 0.008320 -0.003144 0.000000 0.000000 0.000000
# 3 -0.008212 -0.003144 0.014320 0.000000 0.000000 0.000000
# 4 0.000000 0.000000 0.000000 0.027560 0.000000 0.000000
# 5 0.000000 0.000000 0.000000 0.000000 -0.004032 0.000000
# 6 0.000000 0.000000 0.000000 0.000000 0.000000 0.050655
#
#
# Mechanical properties :
#
#
# Convention : Reuss Voigt Hill
#
# Bulk Modulus (GPa) = 64.46900 72.40024 68.43462
# Shear Modulus (GPa) = 33.07576 -25.84906 3.61335
#
# Velocity S-wave (km/s) = 4.33528 -3.83252 1.43290
# Velocity P-wave (km/s) = 7.85448 4.64282 6.45169
#
# Compressibility (1/GPa) = 0.01551133
#
# Stress axis : x y z
#
# Youngs Moduli (GPa) = 47.56538 120.19077 69.83398
#
# Poissons Ratio (x) = 0.32694 0.57347
# Poissons Ratio (y) = 0.12939 0.21955
# Poissons Ratio (z) = 0.39060 0.37787
#
# Static dielectric constant tensor:
#      x y z
#    x 1.613910 0.000000 0.000000 
#    y 0.000000 1.582260 0.000000 
#    z 0.000000 0.000000 1.626200 
# 
# From -- ./inp_files/28500.got.cif
#   From: 2010.05.17/outbox.ucp.g08.bks.cvg/sg50_15_cif.got.tgz:28500.got - 2010.06.11 16:26:39.
