data_PCOD9398318
_publ_section_title
;
Structure prediction by ZEFSAII (Michael W. Deem and Ramdas Pophale) SiO2 
 PCOD9398318
Probable space group: P B A N
;
_chemical_formula_sum "Si O2"
_cell_formula_units_Z 48
_cell_length_a 9.000000
_cell_length_b 15.000000
_cell_length_c 18.000000
_cell_angle_alpha 90.000000
_cell_angle_beta 90.000000
_cell_angle_gamma 90.000000
_cell_volume 2430.000000
_symmetry_space_group_name_H-M "P B A N"
_symmetry_group_IT_number 50
_space_group.IT_coordinate_system_code '2'
_symmetry_cell_setting 'orthorhombic'
loop_
_space_group_symop_operation_xyz
x,y,z
1/2-x,1/2-y,z
x,1/2-y,-z
1/2-x,y,-z
-x,-y,-z
1/2+x,1/2+y,-z
-x,1/2+y,z
1/2+x,-y,z
loop_
_atom_site_type_symbol
_atom_site_label
_atom_site_fract_x
_atom_site_fract_y
_atom_site_fract_z
Si Si1 0.567890 0.247789 0.100075
Si Si2 0.068980 0.400159 0.991681
Si Si3 0.922291 0.643386 0.488541
Si Si4 0.574256 0.075132 0.660408
Si Si5 0.071740 0.755416 0.737021
Si Si6 0.425558 0.598632 0.364860
O O1 0.750000 0.250000 0.092034
O O2 0.492939 0.343558 0.079630
O O3 0.524415 0.223499 0.183517
O O4 0.500474 0.167771 0.052068
O O5 0.250000 0.402726 0.000000
O O6 0.000000 0.500000 0.000000
O O7 0.933497 0.750000 0.500000
O O8 0.750000 0.618080 0.500000
O O9 0.983935 0.612026 0.410130
O O10 0.025701 0.598454 0.550222
O O11 0.533368 0.142522 0.725449
O O12 0.750183 0.082097 0.644425
O O13 0.519136 0.976920 0.675790
O O14 0.250000 0.750000 0.736200
O O15 0.026086 0.692785 0.669685
#
# Coordination Sequence:
#
# PCOD9398318 Si02
#       6
#     8   8   8   8   8   8
#     4  10  20  39  63  91 123 155 192 240 290 344
#     4  11  22  39  62  92 122 157 198 237 284 340
#     4  11  22  37  58  84 110 144 194 247 293 343
#     4  11  22  39  59  83 113 151 193 238 291 346
#     4   9  21  39  60  84 118 155 190 231 288 348
#     4  11  22  39  59  83 113 151 193 238 291 346
#
# _framework density 19.753086
#
# number of rings (size 3 to 8) (size 9 to 14) (size 15 to 20)
#    0.000    1.500    1.667    5.000    0.000    2.000 
#    0.000   10.000    0.000    0.000    0.000    0.000 
#    0.000    0.000    0.000    0.000    0.000    0.000 
#
# Total GULP energy -267557.373470 kJ/mol
# GULP energy per Si atom -5574.111947 kJ/mol
# Density = 1.970813 g / cm^3
# Si number density = 19.753086 Si / 1000 Ang^3
#
#
#
# Elastic Constant Matrix: (Units=GPa)
#
#
# Indices 1 2 3 4 5 6 
#
# 1 117.3485 32.1145 6.1504 0.0000 0.0000 0.0000
# 2 32.1145 98.2224 1.7615 0.0000 0.0000 0.0000
# 3 6.1504 1.7615 65.8664 0.0000 0.0000 0.0000
# 4 0.0000 0.0000 0.0000 -21.9518 0.0000 0.0000
# 5 0.0000 0.0000 0.0000 0.0000 2.2927 0.0000
# 6 0.0000 0.0000 0.0000 0.0000 0.0000 -45.9129
#
#
#
# Elastic Compliance Matrix: (Units=1/GPa)
#
#
# Indices 1 2 3 4 5 6 
#
# 1 0.009401 -0.003059 -0.000796 0.000000 0.000000 0.000000
# 2 -0.003059 0.011181 -0.000013 0.000000 0.000000 0.000000
# 3 -0.000796 -0.000013 0.015257 0.000000 0.000000 0.000000
# 4 0.000000 0.000000 0.000000 -0.045554 0.000000 0.000000
# 5 0.000000 0.000000 0.000000 0.000000 0.436163 0.000000
# 6 0.000000 0.000000 0.000000 0.000000 0.000000 -0.021780
#
#
# Mechanical properties :
#
#
# Convention : Reuss Voigt Hill
#
# Bulk Modulus (GPa) = 35.58505 40.16557 37.87531
# Shear Modulus (GPa) = 11.85475 2.97967 7.41721
#
# Velocity S-wave (km/s) = 2.45245 1.22953 1.93987
# Velocity P-wave (km/s) = 5.10621 4.73219 4.92275
#
# Compressibility (1/GPa) = 0.02810169
#
# Stress axis : x y z
#
# Youngs Moduli (GPa) = 106.37645 89.43360 65.54395
#
# Poissons Ratio (x) = 0.27361 0.05217
# Poissons Ratio (y) = 0.32544 0.00088
# Poissons Ratio (z) = 0.08467 0.00119
#
# Static dielectric constant tensor:
#      x y z
#    x 1.664640 0.000000 0.000000 
#    y 0.000000 1.719890 0.000000 
#    z 0.000000 0.000000 1.761760 
# 
# From -- ./inp_files/28695.got.cif
#   From: 2010.05.17/outbox.ucp.g08.bks.cvg/sg50_15_cif.got.tgz:28695.got - 2010.06.11 16:26:39.
