data_PCOD9398528
_publ_section_title
;
Structure prediction by ZEFSAII (Michael W. Deem and Ramdas Pophale) SiO2 
 PCOD9398528
Probable space group: P M M A
;
_chemical_formula_sum "Si O2"
_cell_formula_units_Z 64
_cell_length_a 29.470311
_cell_length_b 8.688321
_cell_length_c 16.073876
_cell_angle_alpha 90.000000
_cell_angle_beta 90.000000
_cell_angle_gamma 90.000000
_cell_volume 4115.676118
_symmetry_space_group_name_H-M "P M M A"
_symmetry_group_IT_number 51
_symmetry_cell_setting 'orthorhombic'
loop_
_space_group_symop_operation_xyz
x,y,z
1/2-x,-y,z
1/2+x,-y,-z
-x,y,-z
-x,-y,-z
1/2+x,y,-z
1/2-x,y,z
x,-y,z
loop_
_atom_site_type_symbol
_atom_site_label
_atom_site_fract_x
_atom_site_fract_y
_atom_site_fract_z
Si Si1 0.141774 0.185941 0.664167
Si Si2 0.051696 0.685550 0.403425
Si Si3 0.302535 0.188090 0.825168
Si Si4 0.642597 0.815874 0.662866
Si Si5 0.305050 0.177577 0.008159
Si Si6 0.302683 0.316794 0.183228
Si Si7 0.697706 0.812340 0.498980
Si Si8 0.051061 0.314582 0.597362
O O1 0.166199 0.237502 0.748841
O O2 0.171072 0.236897 0.583828
O O3 0.090870 0.244668 0.652120
O O4 0.141583 0.000000 0.664083
O O5 0.054098 0.500000 0.399802
O O6 0.091618 0.756230 0.349306
O O7 0.058440 0.730568 0.500474
O O8 0.000359 0.731347 0.379798
O O9 0.250000 0.235162 0.812317
O O10 0.302292 0.000000 0.826966
O O11 0.318929 0.237429 0.917000
O O12 0.666546 0.756474 0.745821
O O13 0.671532 0.762442 0.582125
O O14 0.642676 0.000000 0.662901
O O15 0.250000 0.177806 0.004700
O O16 0.317913 0.269570 0.090449
O O17 0.319589 0.000000 0.017390
O O18 0.250000 0.264863 0.193362
O O19 0.303586 0.500000 0.190993
O O20 0.750000 0.761707 0.498705
O O21 0.697913 0.000000 0.498807
O O22 0.053198 0.500000 0.600610
#
# Coordination Sequence:
#
# PCOD9398528 Si02
#       8
#     8   8   8   8   8   8   8   8
#     4  10  17  27  45  69  93 120 155 191 223 263
#     4   9  18  33  49  63  85 120 157 193 234 277
#     4   8  14  25  44  69  95 123 154 187 225 268
#     4  11  20  30  46  69  93 120 154 194 233 269
#     4   8  14  27  46  66  88 117 154 193 227 261
#     4  10  20  32  46  66  93 125 157 189 227 272
#     4   9  17  27  39  60  92 125 153 180 214 257
#     4   9  18  32  48  64  87 120 154 192 236 275
#
# _framework density 15.5503
#
# number of rings (size 3 to 8) (size 9 to 14) (size 15 to 20)
#    0.000    2.750    1.250    3.000    0.000    3.250 
#    0.000    1.875    0.000    3.000    0.000    0.875 
#    0.000    7.000    0.000    0.000    0.000    0.000 
#
# Total GULP energy -356639.880879 kJ/mol
# GULP energy per Si atom -5572.498139 kJ/mol
# Density = 1.551491 g / cm^3
# Si number density = 15.550300 Si / 1000 Ang^3
#
#
#
# Elastic Constant Matrix: (Units=GPa)
#
#
# Indices 1 2 3 4 5 6 
#
# 1 116.7664 24.3214 77.6804 0.0000 0.0000 0.0000
# 2 24.3214 15.2092 27.2179 0.0000 0.0000 0.0000
# 3 77.6804 27.2179 138.0283 0.0000 0.0000 0.0000
# 4 0.0000 0.0000 0.0000 12.9769 0.0000 0.0000
# 5 0.0000 0.0000 0.0000 0.0000 9.6928 0.0000
# 6 0.0000 0.0000 0.0000 0.0000 0.0000 17.2136
#
#
#
# Elastic Compliance Matrix: (Units=1/GPa)
#
#
# Indices 1 2 3 4 5 6 
#
# 1 0.015429 -0.014115 -0.005900 0.000000 0.000000 0.000000
# 2 -0.014115 0.114517 -0.014638 0.000000 0.000000 0.000000
# 3 -0.005900 -0.014638 0.013452 0.000000 0.000000 0.000000
# 4 0.000000 0.000000 0.000000 0.077060 0.000000 0.000000
# 5 0.000000 0.000000 0.000000 0.000000 0.103170 0.000000
# 6 0.000000 0.000000 0.000000 0.000000 0.000000 0.058094
#
#
# Mechanical properties :
#
#
# Convention : Reuss Voigt Hill
#
# Bulk Modulus (GPa) = 13.49672 58.71594 36.10633
# Shear Modulus (GPa) = 10.51030 17.36225 13.93628
#
# Velocity S-wave (km/s) = 2.60261 3.34507 2.99692
# Velocity P-wave (km/s) = 4.21066 7.26361 5.93673
#
# Compressibility (1/GPa) = 0.07409208
#
# Stress axis : x y z
#
# Youngs Moduli (GPa) = 64.81251 8.73236 74.33914
#
# Poissons Ratio (x) = 0.12325 0.43860
# Poissons Ratio (y) = 0.91480 1.08819
# Poissons Ratio (z) = 0.38240 0.12783
#
# Static dielectric constant tensor:
#      x y z
#    x 1.503670 0.000000 0.000000 
#    y 0.000000 1.526240 0.000000 
#    z 0.000000 0.000000 1.518260 
# 
# From -- ./inp_files/26651.got.cif
#   From: 2010.05.17/outbox.cif.g08.bks.cpg/sg51_14_cif.got.tgz:26651.got - 2010.06.03 11:52:47.
