data_PCOD9398994
_publ_section_title
;
Structure prediction by ZEFSAII (Michael W. Deem and Ramdas Pophale) SiO2 
 PCOD9398994
Probable space group: P M M A
;
_chemical_formula_sum "Si O2"
_cell_formula_units_Z 64
_cell_length_a 9.504748
_cell_length_b 18.435887
_cell_length_c 23.066254
_cell_angle_alpha 90.000000
_cell_angle_beta 90.000000
_cell_angle_gamma 90.000000
_cell_volume 4041.864168
_symmetry_space_group_name_H-M "P M M A"
_symmetry_group_IT_number 51
_symmetry_cell_setting 'orthorhombic'
loop_
_space_group_symop_operation_xyz
x,y,z
1/2-x,-y,z
1/2+x,-y,-z
-x,y,-z
-x,-y,-z
1/2+x,y,-z
1/2-x,y,z
x,-y,z
loop_
_atom_site_type_symbol
_atom_site_label
_atom_site_fract_x
_atom_site_fract_y
_atom_site_fract_z
Si Si1 0.083381 0.415623 0.811580
Si Si2 0.919587 0.082647 0.439171
Si Si3 0.587798 0.198199 0.342516
Si Si4 0.590247 0.170189 0.835446
Si Si5 0.588600 0.611245 0.055933
Si Si6 0.589396 0.786474 0.054842
Si Si7 0.905161 0.918829 0.239896
Si Si8 0.086461 0.702453 0.261224
O O1 0.250000 0.395265 0.810453
O O2 0.070878 0.500000 0.795288
O O3 0.036851 0.408609 0.879310
O O4 0.996933 0.363922 0.768585
O O5 0.750000 0.086490 0.446519
O O6 0.959928 0.149731 0.397385
O O7 0.000000 0.089045 0.500000
O O8 0.949273 0.000000 0.416648
O O9 0.750000 0.222586 0.351667
O O10 0.590677 0.138537 0.291398
O O11 0.491604 0.262966 0.317355
O O12 0.750000 0.162037 0.855245
O O13 0.487895 0.190134 0.887225
O O14 0.528567 0.099969 0.803893
O O15 0.585584 0.234620 0.787961
O O16 0.750000 0.585893 0.051013
O O17 0.589865 0.698733 0.054081
O O18 0.500000 0.586551 0.000000
O O19 0.750000 0.811202 0.052452
O O20 0.500000 0.811860 0.000000
O O21 0.750000 0.911272 0.211796
O O22 0.916586 0.000000 0.262701
O O23 0.250000 0.684887 0.273299
#
# Coordination Sequence:
#
# PCOD9398994 Si02
#       8
#     8   8   8   8   8   8   8   8
#     4  10  20  34  50  67  91 124 158 192 236 291
#     4   9  17  29  46  71 104 141 176 206 236 273
#     4   9  17  30  49  69  94 129 166 200 232 269
#     4  10  19  30  45  65  88 114 144 182 228 276
#     4   9  18  30  45  65  88 115 148 186 228 278
#     4  10  18  29  46  65  85 109 141 183 226 272
#     4   9  17  29  46  67  89 116 151 189 228 270
#     4  10  20  32  47  68  93 119 155 198 239 279
#
# _framework density 15.834277
#
# number of rings (size 3 to 8) (size 9 to 14) (size 15 to 20)
#    0.000    2.500    1.250    1.500    0.000    4.750 
#    0.000    0.000    0.000    2.625    0.000    0.000 
#    0.000    0.500    0.000    1.625    0.000    2.000 
#
# Total GULP energy -356447.726333 kJ/mol
# GULP energy per Si atom -5569.495724 kJ/mol
# Density = 1.579824 g / cm^3
# Si number density = 15.834277 Si / 1000 Ang^3
#
#
#
# Elastic Constant Matrix: (Units=GPa)
#
#
# Indices 1 2 3 4 5 6 
#
# 1 90.9486 36.6410 45.4437 0.0000 0.0000 0.0000
# 2 36.6410 55.0802 29.6956 0.0000 0.0000 0.0000
# 3 45.4437 29.6956 72.9542 0.0000 0.0000 0.0000
# 4 0.0000 0.0000 0.0000 10.5643 0.0000 0.0000
# 5 0.0000 0.0000 0.0000 0.0000 24.6357 0.0000
# 6 0.0000 0.0000 0.0000 0.0000 0.0000 10.0884
#
#
#
# Elastic Compliance Matrix: (Units=1/GPa)
#
#
# Indices 1 2 3 4 5 6 
#
# 1 0.018187 -0.007675 -0.008205 0.000000 0.000000 0.000000
# 2 -0.007675 0.026499 -0.006005 0.000000 0.000000 0.000000
# 3 -0.008205 -0.006005 0.021262 0.000000 0.000000 0.000000
# 4 0.000000 0.000000 0.000000 0.094659 0.000000 0.000000
# 5 0.000000 0.000000 0.000000 0.000000 0.040591 0.000000
# 6 0.000000 0.000000 0.000000 0.000000 0.000000 0.099123
#
#
# Mechanical properties :
#
#
# Convention : Reuss Voigt Hill
#
# Bulk Modulus (GPa) = 45.08984 49.17152 47.13068
# Shear Modulus (GPa) = 14.22540 16.20454 15.21497
#
# Velocity S-wave (km/s) = 3.00057 3.20251 3.10318
# Velocity P-wave (km/s) = 6.36730 6.69298 6.53217
#
# Compressibility (1/GPa) = 0.02217795
#
# Stress axis : x y z
#
# Youngs Moduli (GPa) = 54.98465 37.73778 47.03144
#
# Poissons Ratio (x) = 0.28964 0.38588
# Poissons Ratio (y) = 0.42201 0.28244
# Poissons Ratio (z) = 0.45113 0.22663
#
# Static dielectric constant tensor:
#      x y z
#    x 1.545810 0.000000 0.000000 
#    y 0.000000 1.526560 0.000000 
#    z 0.000000 0.000000 1.519810 
# 
# From -- ./inp_files/32344.got.cif
#   From: 2010.05.17/outbox.cif.g08.bks.cpg/sg51_17_cif.got.tgz:32344.got - 2010.06.03 11:52:47.
