data_PCOD9398856
_publ_section_title
;
Structure prediction by ZEFSAII (Michael W. Deem and Ramdas Pophale) SiO2 
 PCOD9398856
Probable space group: P M M A
;
_chemical_formula_sum "Si O2"
_cell_formula_units_Z 56
_cell_length_a 8.066877
_cell_length_b 19.222469
_cell_length_c 21.773857
_cell_angle_alpha 90.000000
_cell_angle_beta 90.000000
_cell_angle_gamma 90.000000
_cell_volume 3376.369517
_symmetry_space_group_name_H-M "P M M A"
_symmetry_group_IT_number 51
_symmetry_cell_setting 'orthorhombic'
loop_
_space_group_symop_operation_xyz
x,y,z
1/2-x,-y,z
1/2+x,-y,-z
-x,y,-z
-x,-y,-z
1/2+x,y,-z
1/2-x,y,z
x,-y,z
loop_
_atom_site_type_symbol
_atom_site_label
_atom_site_fract_x
_atom_site_fract_y
_atom_site_fract_z
Si Si1 0.550138 0.652660 0.566476
Si Si2 0.053128 0.838854 0.187713
Si Si3 0.450593 0.578833 0.307822
Si Si4 0.059207 0.209225 0.379414
Si Si5 0.546892 0.920577 0.689619
Si Si6 0.940990 0.716906 0.259874
Si Si7 0.947996 0.079583 0.068083
O O1 0.500000 0.625809 0.500000
O O2 0.750000 0.655652 0.569359
O O3 0.495963 0.606308 0.624490
O O4 0.484483 0.731990 0.576243
O O5 0.250000 0.831727 0.192910
O O6 0.997162 0.889361 0.243954
O O7 0.974051 0.763553 0.200418
O O8 0.011052 0.872777 0.122997
O O9 0.250000 0.579876 0.306669
O O10 0.506040 0.500000 0.297627
O O11 0.515190 0.635880 0.259748
O O12 0.250000 0.198493 0.398057
O O13 0.987604 0.133620 0.362776
O O14 0.052628 0.248707 0.313486
O O15 0.750000 0.919798 0.688357
O O16 0.492913 0.000000 0.682186
O O17 0.750000 0.725143 0.278245
O O18 0.750000 0.078026 0.070775
O O19 0.010860 0.000000 0.076194
O O20 0.000000 0.102725 0.000000
#
# Coordination Sequence:
#
# PCOD9398856 Si02
#       7
#     8   8   8   8   8   8   8
#     4   9  17  28  42  60  81 109 144 177 210 254
#     4  10  18  29  45  64  89 120 154 188 222 265
#     4   9  18  33  49  64  87 116 141 170 214 266
#     4   8  15  28  42  57  80 108 138 174 218 266
#     4   8  13  22  40  63  80  99 135 181 222 259
#     4  10  18  28  44  66  89 112 142 179 218 261
#     4  10  20  32  45  64  93 128 164 200 236 270
#
# _framework density 16.585863
#
# number of rings (size 3 to 8) (size 9 to 14) (size 15 to 20)
#    0.000    2.857    0.000    4.286    0.000    4.286 
#    0.000    0.000    0.000    4.286    0.000    0.000 
#    0.000    0.571    0.000    2.143    0.000    4.429 
#
# Total GULP energy -311832.836049 kJ/mol
# GULP energy per Si atom -5568.443501 kJ/mol
# Density = 1.654811 g / cm^3
# Si number density = 16.585863 Si / 1000 Ang^3
#
#
#
# Elastic Constant Matrix: (Units=GPa)
#
#
# Indices 1 2 3 4 5 6 
#
# 1 28.2556 12.1963 3.0032 0.0000 0.0000 0.0000
# 2 12.1963 127.5526 24.2588 0.0000 0.0000 0.0000
# 3 3.0032 24.2588 36.0666 0.0000 0.0000 0.0000
# 4 0.0000 0.0000 0.0000 20.8726 0.0000 0.0000
# 5 0.0000 0.0000 0.0000 0.0000 16.7386 0.0000
# 6 0.0000 0.0000 0.0000 0.0000 0.0000 9.7068
#
#
#
# Elastic Compliance Matrix: (Units=1/GPa)
#
#
# Indices 1 2 3 4 5 6 
#
# 1 0.036935 -0.003379 -0.000803 0.000000 0.000000 0.000000
# 2 -0.003379 0.009299 -0.005973 0.000000 0.000000 0.000000
# 3 -0.000803 -0.005973 0.031811 0.000000 0.000000 0.000000
# 4 0.000000 0.000000 0.000000 0.047910 0.000000 0.000000
# 5 0.000000 0.000000 0.000000 0.000000 0.059742 0.000000
# 6 0.000000 0.000000 0.000000 0.000000 0.000000 0.103020
#
#
# Mechanical properties :
#
#
# Convention : Reuss Voigt Hill
#
# Bulk Modulus (GPa) = 17.32048 30.08793 23.70420
# Shear Modulus (GPa) = 15.23125 19.62470 17.42798
#
# Velocity S-wave (km/s) = 3.03368 3.44353 3.24508
# Velocity P-wave (km/s) = 4.76828 5.83014 5.32575
#
# Compressibility (1/GPa) = 0.05773512
#
# Stress axis : x y z
#
# Youngs Moduli (GPa) = 27.07451 107.53802 31.43563
#
# Poissons Ratio (x) = 0.36337 0.02524
# Poissons Ratio (y) = 0.09148 0.18777
# Poissons Ratio (z) = 0.02173 0.64235
#
# Static dielectric constant tensor:
#      x y z
#    x 1.584120 0.000000 0.000000 
#    y 0.000000 1.600130 0.000000 
#    z 0.000000 0.000000 1.542150 
# 
# From -- ./inp_files/32500.got.cif
#   From: 2010.05.17/outbox.cif.g08.bks.cpg/sg51_17_cif.got.tgz:32500.got - 2010.06.03 11:52:47.
