data_PCOD9398395
_publ_section_title
;
Structure prediction by ZEFSAII (Michael W. Deem and Ramdas Pophale) SiO2 
 PCOD9398395
Probable space group: P M M A
;
_chemical_formula_sum "Si O2"
_cell_formula_units_Z 56
_cell_length_a 18.227507
_cell_length_b 14.122135
_cell_length_c 9.872581
_cell_angle_alpha 90.000000
_cell_angle_beta 90.000000
_cell_angle_gamma 90.000000
_cell_volume 2541.314053
_symmetry_space_group_name_H-M "P M M A"
_symmetry_group_IT_number 51
_symmetry_cell_setting 'orthorhombic'
loop_
_space_group_symop_operation_xyz
x,y,z
1/2-x,-y,z
1/2+x,-y,-z
-x,y,-z
-x,-y,-z
1/2+x,y,-z
1/2-x,y,z
x,-y,z
loop_
_atom_site_type_symbol
_atom_site_label
_atom_site_fract_x
_atom_site_fract_y
_atom_site_fract_z
Si Si1 0.670268 0.386037 0.102430
Si Si2 0.666107 0.397928 0.525378
Si Si3 0.638815 0.690605 0.804500
Si Si4 0.473995 0.110118 0.645563
Si Si5 0.137146 0.107187 0.291169
Si Si6 0.987956 0.391912 0.162927
Si Si7 0.164118 0.805272 0.584202
O O1 0.750000 0.357262 0.157338
O O2 0.669221 0.500000 0.093230
O O3 0.661328 0.345783 0.951437
O O4 0.596211 0.362591 0.182986
O O5 0.750000 0.404925 0.478607
O O6 0.630142 0.500000 0.496458
O O7 0.667965 0.376902 0.685813
O O8 0.639845 0.299741 0.462525
O O9 0.548769 0.889355 0.729702
O O10 0.550711 0.677704 0.786027
O O11 0.500000 0.151480 0.500000
O O12 0.656440 0.129112 0.551405
O O13 0.397865 0.157838 0.686950
O O14 0.455956 0.000000 0.623045
O O15 0.163940 0.201427 0.215468
O O16 0.161153 0.000000 0.257366
O O17 0.999696 0.500000 0.212665
O O18 0.000000 0.395508 0.000000
O O19 0.250000 0.807501 0.623529
#
# Coordination Sequence:
#
# PCOD9398395 Si02
#       7
#     8   8   8   8   8   8   8
#     4   9  16  26  42  64  86 105 126 154 191 233
#     4   9  16  24  35  56  86 113 131 151 189 240
#     4  10  16  24  41  59  79 105 133 162 192 228
#     4   8  14  26  41  54  73 102 132 164 201 235
#     4   9  18  29  40  57  81 106 130 160 201 241
#     4   8  14  24  39  60  82 103 129 160 188 217
#     4   9  16  25  41  62  79 100 132 167 199 231
#
# _framework density 22.035844999999998
#
# number of rings (size 3 to 8) (size 9 to 14) (size 15 to 20)
#    0.000    3.143    0.000    3.857    0.000    2.857 
#    0.000    0.000    0.000   17.143    0.000    0.000 
#    0.000    0.000    0.000    0.000    0.000    0.000 
#
# Total GULP energy -312058.399053 kJ/mol
# GULP energy per Si atom -5572.471412 kJ/mol
# Density = 2.198569 g / cm^3
# Si number density = 22.035845 Si / 1000 Ang^3
#
#
#
# Elastic Constant Matrix: (Units=GPa)
#
#
# Indices 1 2 3 4 5 6 
#
# 1 153.1383 44.6136 7.8656 0.0000 0.0000 0.0000
# 2 44.6136 128.6438 11.2521 0.0000 0.0000 0.0000
# 3 7.8656 11.2521 33.5478 0.0000 0.0000 0.0000
# 4 0.0000 0.0000 0.0000 16.8086 0.0000 0.0000
# 5 0.0000 0.0000 0.0000 0.0000 3.5627 0.0000
# 6 0.0000 0.0000 0.0000 0.0000 0.0000 17.1687
#
#
#
# Elastic Compliance Matrix: (Units=1/GPa)
#
#
# Indices 1 2 3 4 5 6 
#
# 1 0.007289 -0.002450 -0.000887 0.000000 0.000000 0.000000
# 2 -0.002450 0.008832 -0.002388 0.000000 0.000000 0.000000
# 3 -0.000887 -0.002388 0.030817 0.000000 0.000000 0.000000
# 4 0.000000 0.000000 0.000000 0.059493 0.000000 0.000000
# 5 0.000000 0.000000 0.000000 0.000000 0.280683 0.000000
# 6 0.000000 0.000000 0.000000 0.000000 0.000000 0.058245
#
#
# Mechanical properties :
#
#
# Convention : Reuss Voigt Hill
#
# Bulk Modulus (GPa) = 28.17869 49.19918 38.68894
# Shear Modulus (GPa) = 10.66916 24.28124 17.47520
#
# Velocity S-wave (km/s) = 2.20278 3.32309 2.81914
# Velocity P-wave (km/s) = 4.39148 6.09091 5.30963
#
# Compressibility (1/GPa) = 0.03548781
#
# Stress axis : x y z
#
# Youngs Moduli (GPa) = 137.18387 113.22395 32.44953
#
# Poissons Ratio (x) = 0.27744 0.02879
# Poissons Ratio (y) = 0.33615 0.07748
# Poissons Ratio (z) = 0.12171 0.27036
#
# Static dielectric constant tensor:
#      x y z
#    x -0.468280 0.000000 0.000000 
#    y 0.000000 1.815590 0.000000 
#    z 0.000000 0.000000 1.794210 
# 
# From -- ./inp_files/25252.got.cif
#   From: 2010.05.17/outbox.cif.g08.bks.cpg/sg51_13_cif.got.tgz:25252.got - 2010.06.03 11:52:47.
