data_PCOD9398734
_publ_section_title
;
Structure prediction by ZEFSAII (Michael W. Deem and Ramdas Pophale) SiO2 
 PCOD9398734
Probable space group: P M M A
;
_chemical_formula_sum "Si O2"
_cell_formula_units_Z 48
_cell_length_a 8.695509
_cell_length_b 24.938309
_cell_length_c 13.863360
_cell_angle_alpha 90.000000
_cell_angle_beta 90.000000
_cell_angle_gamma 90.000000
_cell_volume 3006.287505
_symmetry_space_group_name_H-M "P M M A"
_symmetry_group_IT_number 51
_symmetry_cell_setting 'orthorhombic'
loop_
_space_group_symop_operation_xyz
x,y,z
1/2-x,-y,z
1/2+x,-y,-z
-x,y,-z
-x,-y,-z
1/2+x,y,-z
1/2-x,y,z
x,-y,z
loop_
_atom_site_type_symbol
_atom_site_label
_atom_site_fract_x
_atom_site_fract_y
_atom_site_fract_z
Si Si1 0.935699 0.560878 0.305771
Si Si2 0.435061 0.175252 0.108875
Si Si3 0.935455 0.057617 0.891193
Si Si4 0.065903 0.388959 0.896680
Si Si5 0.934709 0.719884 0.206853
Si Si6 0.566972 0.666488 0.603689
O O1 0.750000 0.566994 0.313293
O O2 0.976302 0.500000 0.330457
O O3 0.977720 0.574006 0.194344
O O4 0.014061 0.605928 0.370698
O O5 0.250000 0.178674 0.105355
O O6 0.480088 0.116006 0.148924
O O7 0.501049 0.223965 0.170268
O O8 0.500000 0.179393 0.000000
O O9 0.750000 0.057584 0.895277
O O10 0.983457 0.000000 0.846709
O O11 0.000000 0.057414 0.000000
O O12 0.250000 0.390057 0.903200
O O13 0.019075 0.328451 0.866044
O O14 0.000000 0.404206 0.000000
O O15 0.750000 0.720886 0.210032
O O16 0.998716 0.702878 0.310819
O O17 0.500000 0.681472 0.500000
O O18 0.750000 0.669708 0.603454
#
# Coordination Sequence:
#
# PCOD9398734 Si02
#       6
#     8   8   8   8   8   8
#     4   9  19  36  53  70  95 124 154 188 225 268
#     4  10  18  27  42  66  95 129 166 200 236 275
#     4   8  14  24  37  55  84 123 164 201 233 267
#     4   9  18  30  45  65  90 122 154 185 222 263
#     4  10  20  34  49  67  93 122 155 194 234 277
#     4  11  22  37  56  75  94 116 145 183 232 285
#
# _framework density 15.966536
#
# number of rings (size 3 to 8) (size 9 to 14) (size 15 to 20)
#    0.000    2.500    0.000    4.000    0.000    6.333 
#    0.000    0.000    0.000    0.000    0.000    0.000 
#    0.000    0.667    0.000    1.833    0.000    3.000 
#
# Total GULP energy -267520.128442 kJ/mol
# GULP energy per Si atom -5573.336009 kJ/mol
# Density = 1.593020 g / cm^3
# Si number density = 15.966536 Si / 1000 Ang^3
#
#
#
# Elastic Constant Matrix: (Units=GPa)
#
#
# Indices 1 2 3 4 5 6 
#
# 1 45.0789 31.0461 17.4827 0.0000 0.0000 0.0000
# 2 31.0461 117.3011 17.6524 0.0000 0.0000 0.0000
# 3 17.4827 17.6524 56.5525 0.0000 0.0000 0.0000
# 4 0.0000 0.0000 0.0000 8.9186 0.0000 0.0000
# 5 0.0000 0.0000 0.0000 0.0000 24.8505 0.0000
# 6 0.0000 0.0000 0.0000 0.0000 0.0000 41.8713
#
#
#
# Elastic Compliance Matrix: (Units=1/GPa)
#
#
# Indices 1 2 3 4 5 6 
#
# 1 0.029571 -0.006769 -0.007029 0.000000 0.000000 0.000000
# 2 -0.006769 0.010495 -0.001183 0.000000 0.000000 0.000000
# 3 -0.007029 -0.001183 0.020225 0.000000 0.000000 0.000000
# 4 0.000000 0.000000 0.000000 0.112125 0.000000 0.000000
# 5 0.000000 0.000000 0.000000 0.000000 0.040241 0.000000
# 6 0.000000 0.000000 0.000000 0.000000 0.000000 0.023883
#
#
# Mechanical properties :
#
#
# Convention : Reuss Voigt Hill
#
# Bulk Modulus (GPa) = 32.97199 39.03277 36.00238
# Shear Modulus (GPa) = 18.07597 25.31151 21.69374
#
# Velocity S-wave (km/s) = 3.36834 3.98588 3.69005
# Velocity P-wave (km/s) = 5.98525 6.75890 6.38380
#
# Compressibility (1/GPa) = 0.03032877
#
# Stress axis : x y z
#
# Youngs Moduli (GPa) = 33.81693 95.28675 49.44389
#
# Poissons Ratio (x) = 0.64498 0.34753
# Poissons Ratio (y) = 0.22890 0.05851
# Poissons Ratio (z) = 0.23769 0.11275
#
# Static dielectric constant tensor:
#      x y z
#    x 1.535920 0.000000 0.000000 
#    y 0.000000 1.571020 0.000000 
#    z 0.000000 0.000000 1.506070 
# 
# From -- ./inp_files/14411.got.cif
#   From: 2010.05.17/outbox.cif.g08.bks.cpg/sg51_8_cif.got.tgz:14411.got - 2010.06.03 11:52:47.
