data_PCOD9398924
_publ_section_title
;
Structure prediction by ZEFSAII (Michael W. Deem and Ramdas Pophale) SiO2 
 PCOD9398924
Probable space group: P M M A
;
_chemical_formula_sum "Si O2"
_cell_formula_units_Z 40
_cell_length_a 7.535963
_cell_length_b 11.236565
_cell_length_c 22.911836
_cell_angle_alpha 90.000000
_cell_angle_beta 90.000000
_cell_angle_gamma 90.000000
_cell_volume 1940.136195
_symmetry_space_group_name_H-M "P M M A"
_symmetry_group_IT_number 51
_symmetry_cell_setting 'orthorhombic'
loop_
_space_group_symop_operation_xyz
x,y,z
1/2-x,-y,z
1/2+x,-y,-z
-x,y,-z
-x,-y,-z
1/2+x,y,-z
1/2-x,y,z
x,-y,z
loop_
_atom_site_type_symbol
_atom_site_label
_atom_site_fract_x
_atom_site_fract_y
_atom_site_fract_z
Si Si1 0.037316 0.500000 0.568222
Si Si2 0.050976 0.000000 0.619446
Si Si3 0.549080 0.000000 0.747424
Si Si4 0.463699 0.000000 0.068246
Si Si5 0.035000 0.634505 0.247685
Si Si6 0.541967 0.198997 0.846106
Si Si7 0.461228 0.740615 0.628104
O O1 0.250000 0.500000 0.578064
O O2 0.967349 0.377543 0.596441
O O3 0.000000 0.500000 0.500000
O O4 0.967430 0.869819 0.607892
O O5 0.066074 0.000000 0.690136
O O6 0.250000 0.000000 0.593784
O O7 0.530100 0.109653 0.791146
O O8 0.750000 0.000000 0.724724
O O9 0.531628 0.120077 0.100563
O O10 0.250000 0.000000 0.077735
O O11 0.500000 0.000000 0.000000
O O12 0.250000 0.635078 0.245211
O O13 0.974533 0.500000 0.258969
O O14 0.969423 0.682643 0.184721
O O15 0.986351 0.715410 0.303107
O O16 0.750000 0.220950 0.859827
O O17 0.250000 0.746380 0.617730
#
# Coordination Sequence:
#
# PCOD9398924 Si02
#       7
#     4   4   4   4   8   8   8
#     4  10  22  40  58  72  96 136 177 212 251 298
#     4  10  19  29  46  74 105 131 157 194 246 305
#     4   9  14  24  43  64  92 127 154 183 234 291
#     4   9  17  31  49  66  91 130 172 211 251 298
#     4  10  18  28  48  77 103 129 167 207 246 304
#     4   8  15  27  43  66  97 128 155 197 252 291
#     4  10  20  34  51  75 106 137 164 202 259 308
#
# _framework density 20.61711
#
# number of rings (size 3 to 8) (size 9 to 14) (size 15 to 20)
#    0.000    2.600    3.000    1.200    0.000    0.800 
#    0.000    3.500    0.000    0.600    0.000    0.000 
#    0.000    0.000    0.000    0.000    0.000    0.000 
#
# Total GULP energy -222742.124117 kJ/mol
# GULP energy per Si atom -5568.553103 kJ/mol
# Density = 2.057018 g / cm^3
# Si number density = 20.617110 Si / 1000 Ang^3
#
#
#
# Elastic Constant Matrix: (Units=GPa)
#
#
# Indices 1 2 3 4 5 6 
#
# 1 47.2225 8.0663 -6.3541 0.0000 0.0000 0.0000
# 2 8.0663 176.8656 46.9639 0.0000 0.0000 0.0000
# 3 -6.3541 46.9639 87.9741 0.0000 0.0000 0.0000
# 4 0.0000 0.0000 0.0000 28.4200 0.0000 0.0000
# 5 0.0000 0.0000 0.0000 0.0000 16.7791 0.0000
# 6 0.0000 0.0000 0.0000 0.0000 0.0000 2.4788
#
#
#
# Elastic Compliance Matrix: (Units=1/GPa)
#
#
# Indices 1 2 3 4 5 6 
#
# 1 0.021787 -0.001645 0.002452 0.000000 0.000000 0.000000
# 2 -0.001645 0.006712 -0.003702 0.000000 0.000000 0.000000
# 3 0.002452 -0.003702 0.013520 0.000000 0.000000 0.000000
# 4 0.000000 0.000000 0.000000 0.035186 0.000000 0.000000
# 5 0.000000 0.000000 0.000000 0.000000 0.059598 0.000000
# 6 0.000000 0.000000 0.000000 0.000000 0.000000 0.403417
#
#
# Mechanical properties :
#
#
# Convention : Reuss Voigt Hill
#
# Bulk Modulus (GPa) = 27.60177 45.49047 36.54612
# Shear Modulus (GPa) = 8.95918 27.09466 18.02692
#
# Velocity S-wave (km/s) = 2.08685 3.62910 2.96018
# Velocity P-wave (km/s) = 4.38446 6.29864 5.42661
#
# Compressibility (1/GPa) = 0.03622956
#
# Stress axis : x y z
#
# Youngs Moduli (GPa) = 45.89860 148.98690 73.96299
#
# Poissons Ratio (x) = 0.24503 -0.18133
# Poissons Ratio (y) = 0.07549 0.27380
# Poissons Ratio (z) = -0.11252 0.55154
#
# Static dielectric constant tensor:
#      x y z
#    x 1.787210 0.000000 0.000000 
#    y 0.000000 1.706080 0.000000 
#    z 0.000000 0.000000 1.684600 
# 
# From -- ./inp_files/31488.got.cif
#   From: 2010.05.17/outbox.cif.g08.bks.cpg/sg51_16_cif.got.tgz:31488.got - 2010.06.03 11:52:47.
