data_PCOD9398803
_publ_section_title
;
Structure prediction by ZEFSAII (Michael W. Deem and Ramdas Pophale) SiO2 
 PCOD9398803
Probable space group: P M M A
;
_chemical_formula_sum "Si O2"
_cell_formula_units_Z 48
_cell_length_a 8.675943
_cell_length_b 23.707456
_cell_length_c 13.662336
_cell_angle_alpha 90.000000
_cell_angle_beta 90.000000
_cell_angle_gamma 90.000000
_cell_volume 2810.131254
_symmetry_space_group_name_H-M "P M M A"
_symmetry_group_IT_number 51
_symmetry_cell_setting 'orthorhombic'
loop_
_space_group_symop_operation_xyz
x,y,z
1/2-x,-y,z
1/2+x,-y,-z
-x,y,-z
-x,-y,-z
1/2+x,y,-z
1/2-x,y,z
x,-y,z
loop_
_atom_site_type_symbol
_atom_site_label
_atom_site_fract_x
_atom_site_fract_y
_atom_site_fract_z
Si Si1 0.435959 0.566422 0.393334
Si Si2 0.424207 0.346186 0.239252
Si Si3 0.569104 0.162016 0.268563
Si Si4 0.076768 0.250440 0.403424
Si Si5 0.063640 0.753094 0.108432
Si Si6 0.565997 0.933782 0.606475
O O1 0.500000 0.584080 0.500000
O O2 0.250000 0.573868 0.395944
O O3 0.469811 0.500000 0.382160
O O4 0.495468 0.601412 0.298872
O O5 0.250000 0.362972 0.208782
O O6 0.413113 0.299261 0.324046
O O7 0.492942 0.307752 0.152194
O O8 0.750000 0.157585 0.250846
O O9 0.531304 0.202117 0.360779
O O10 0.491121 0.195678 0.178486
O O11 0.500113 0.102722 0.303977
O O12 0.250000 0.228609 0.419921
O O13 0.000000 0.273687 0.500000
O O14 0.250000 0.751983 0.110416
O O15 0.000000 0.760767 0.000000
O O16 0.500000 0.915957 0.500000
O O17 0.750000 0.927657 0.603916
O O18 0.527471 0.000000 0.618247
#
# Coordination Sequence:
#
# PCOD9398803 Si02
#       6
#     8   8   8   8   8   8
#     4   9  16  27  44  67  96 130 165 198 235 281
#     4   8  16  29  45  66  92 123 158 198 241 289
#     4  11  21  33  50  72  98 128 163 200 243 292
#     4  10  18  28  42  63  94 127 160 198 241 290
#     4  10  20  36  55  74  96 121 157 203 253 303
#     4  10  20  34  52  75 105 140 174 205 238 280
#
# _framework density 17.081052
#
# number of rings (size 3 to 8) (size 9 to 14) (size 15 to 20)
#    0.000    2.333    0.000    5.000    0.000    1.000 
#    0.000    4.167    0.000    1.000    0.000    0.000 
#    0.000    0.000    0.000    0.000    0.000    0.667 
#
# Total GULP energy -267293.442365 kJ/mol
# GULP energy per Si atom -5568.613383 kJ/mol
# Density = 1.704218 g / cm^3
# Si number density = 17.081052 Si / 1000 Ang^3
#
#
#
# Elastic Constant Matrix: (Units=GPa)
#
#
# Indices 1 2 3 4 5 6 
#
# 1 48.3062 25.4196 36.1720 0.0000 0.0000 0.0000
# 2 25.4196 89.0338 47.3493 0.0000 0.0000 0.0000
# 3 36.1720 47.3493 93.5544 0.0000 0.0000 0.0000
# 4 0.0000 0.0000 0.0000 23.8169 0.0000 0.0000
# 5 0.0000 0.0000 0.0000 0.0000 24.5437 0.0000
# 6 0.0000 0.0000 0.0000 0.0000 0.0000 17.2739
#
#
#
# Elastic Compliance Matrix: (Units=1/GPa)
#
#
# Indices 1 2 3 4 5 6 
#
# 1 0.029812 -0.003259 -0.009877 0.000000 0.000000 0.000000
# 2 -0.003259 0.015724 -0.006698 0.000000 0.000000 0.000000
# 3 -0.009877 -0.006698 0.017898 0.000000 0.000000 0.000000
# 4 0.000000 0.000000 0.000000 0.041987 0.000000 0.000000
# 5 0.000000 0.000000 0.000000 0.000000 0.040744 0.000000
# 6 0.000000 0.000000 0.000000 0.000000 0.000000 0.057891
#
#
# Mechanical properties :
#
#
# Convention : Reuss Voigt Hill
#
# Bulk Modulus (GPa) = 42.07716 49.86404 45.97060
# Shear Modulus (GPa) = 19.86908 21.25712 20.56310
#
# Velocity S-wave (km/s) = 3.41431 3.53155 3.47342
# Velocity P-wave (km/s) = 6.34276 6.77386 6.56185
#
# Compressibility (1/GPa) = 0.02376586
#
# Stress axis : x y z
#
# Youngs Moduli (GPa) = 33.54322 63.59571 55.87164
#
# Poissons Ratio (x) = 0.20723 0.55187
# Poissons Ratio (y) = 0.10930 0.37425
# Poissons Ratio (z) = 0.33132 0.42599
#
# Static dielectric constant tensor:
#      x y z
#    x 1.600690 0.000000 0.000000 
#    y 0.000000 1.616180 0.000000 
#    z 0.000000 0.000000 1.574030 
# 
# From -- ./inp_files/14463.got.cif
#   From: 2010.05.17/outbox.cif.g08.bks.cpg/sg51_8_cif.got.tgz:14463.got - 2010.06.03 11:52:47.
