data_PCOD9398137
_publ_section_title
;
Structure prediction by ZEFSAII (Michael W. Deem and Ramdas Pophale) SiO2 
 PCOD9398137
Probable space group: P B A N
;
_chemical_formula_sum "Si O2"
_cell_formula_units_Z 28
_cell_length_a 30.834571
_cell_length_b 7.369320
_cell_length_c 5.242189
_cell_angle_alpha 90.000000
_cell_angle_beta 90.000000
_cell_angle_gamma 90.000000
_cell_volume 1191.181667
_symmetry_space_group_name_H-M "P B A N"
_symmetry_group_IT_number 50
_space_group.IT_coordinate_system_code '2'
_symmetry_cell_setting 'orthorhombic'
loop_
_space_group_symop_operation_xyz
x,y,z
1/2-x,1/2-y,z
x,1/2-y,-z
1/2-x,y,-z
-x,-y,-z
1/2+x,1/2+y,-z
-x,1/2+y,z
1/2+x,-y,z
loop_
_atom_site_type_symbol
_atom_site_label
_atom_site_fract_x
_atom_site_fract_y
_atom_site_fract_z
Si Si1 0.250000 0.250000 0.500000
Si Si2 0.750000 0.250000 0.000000
Si Si3 0.910522 0.058259 0.350343
Si Si4 0.312760 0.552589 0.622881
Si Si5 0.031451 0.750000 0.000000
Si Si6 0.028270 0.250000 0.500000
O O1 0.287407 0.406478 0.450658
O O2 0.718330 0.109041 0.855100
O O3 0.909341 0.250000 0.500000
O O4 0.861382 0.992501 0.310657
O O5 0.940094 0.921391 0.508224
O O6 0.935603 0.091024 0.084372
O O7 0.317043 0.750000 0.500000
O O8 0.001235 0.769840 0.248187
#
# Coordination Sequence:
#
# PCOD9398137 Si02
#       6
#     2   2   8   8   4   4
#     4  12  20  46  72  94 138 188 226 298 366 426
#     4  12  20  46  68 102 134 188 230 294 358 442
#     4  11  26  45  71 104 144 191 235 302 360 425
#     4  11  24  45  69 101 143 178 238 293 358 434
#     4  12  25  48  74 103 146 195 238 300 359 426
#     4  12  27  46  72 109 144 187 252 292 355 434
#
# _framework density 23.506070999999999
#
# number of rings (size 3 to 8) (size 9 to 14) (size 15 to 20)
#    0.000    0.571    4.286    3.429    4.000    0.571 
#    0.000    0.000    0.000    0.000    0.000    0.000 
#    0.000    0.000    0.000    0.000    0.000    0.000 
#
# Total GULP energy -155962.978676 kJ/mol
# GULP energy per Si atom -5570.106381 kJ/mol
# Density = 2.345257 g / cm^3
# Si number density = 23.506071 Si / 1000 Ang^3
#
#
#
# Elastic Constant Matrix: (Units=GPa)
#
#
# Indices 1 2 3 4 5 6 
#
# 1 243.8886 42.7595 68.1575 0.0000 0.0000 0.0000
# 2 42.7595 91.3882 6.7680 0.0000 0.0000 0.0000
# 3 68.1575 6.7680 112.4714 0.0000 0.0000 0.0000
# 4 0.0000 0.0000 0.0000 7.5007 0.0000 0.0000
# 5 0.0000 0.0000 0.0000 0.0000 9.0813 0.0000
# 6 0.0000 0.0000 0.0000 0.0000 0.0000 55.3093
#
#
#
# Elastic Compliance Matrix: (Units=1/GPa)
#
#
# Indices 1 2 3 4 5 6 
#
# 1 0.005372 -0.002282 -0.003118 0.000000 0.000000 0.000000
# 2 -0.002282 0.011961 0.000663 0.000000 0.000000 0.000000
# 3 -0.003118 0.000663 0.010741 0.000000 0.000000 0.000000
# 4 0.000000 0.000000 0.000000 0.133321 0.000000 0.000000
# 5 0.000000 0.000000 0.000000 0.000000 0.110116 0.000000
# 6 0.000000 0.000000 0.000000 0.000000 0.000000 0.018080
#
#
# Mechanical properties :
#
#
# Convention : Reuss Voigt Hill
#
# Bulk Modulus (GPa) = 53.76461 75.90202 64.83331
# Shear Modulus (GPa) = 16.37923 36.38248 26.38085
#
# Velocity S-wave (km/s) = 2.64258 3.93847 3.35371
# Velocity P-wave (km/s) = 5.67743 7.28303 6.52977
#
# Compressibility (1/GPa) = 0.01859960
#
# Stress axis : x y z
#
# Youngs Moduli (GPa) = 186.15934 83.60412 93.10391
#
# Poissons Ratio (x) = 0.19082 0.29029
# Poissons Ratio (y) = 0.42490 -0.06177
# Poissons Ratio (z) = 0.58043 -0.05546
#
# Static dielectric constant tensor:
#      x y z
#    x 1.938730 0.000000 0.000000 
#    y 0.000000 1.896270 0.000000 
#    z 0.000000 0.000000 1.759050 
# 
# From -- ./inp_files/6927.got.cif
#   From: 2010.05.17/outbox.cif.g08.bks.cpg/sg50_4_cif.got.tgz:6927.got - 2010.06.03 11:33:33.
