data_PCOD9398394
_publ_section_title
;
Structure prediction by ZEFSAII (Michael W. Deem and Ramdas Pophale) SiO2 
 PCOD9398394
Probable space group: P M M A
;
_chemical_formula_sum "Si O2"
_cell_formula_units_Z 48
_cell_length_a 16.111206
_cell_length_b 13.969708
_cell_length_c 9.353037
_cell_angle_alpha 90.000000
_cell_angle_beta 90.000000
_cell_angle_gamma 90.000000
_cell_volume 2105.077219
_symmetry_space_group_name_H-M "P M M A"
_symmetry_group_IT_number 51
_symmetry_cell_setting 'orthorhombic'
loop_
_space_group_symop_operation_xyz
x,y,z
1/2-x,-y,z
1/2+x,-y,-z
-x,y,-z
-x,-y,-z
1/2+x,y,-z
1/2-x,y,z
x,-y,z
loop_
_atom_site_type_symbol
_atom_site_label
_atom_site_fract_x
_atom_site_fract_y
_atom_site_fract_z
Si Si1 0.577131 0.384357 0.399095
Si Si2 0.079718 0.896378 0.868727
Si Si3 0.250000 0.884379 0.391400
Si Si4 0.060113 0.111896 0.371533
Si Si5 0.250000 0.644607 0.870927
Si Si6 0.250000 0.146103 0.726493
Si Si7 0.750000 0.395721 0.454744
Si Si8 0.420418 0.316269 0.922249
O O1 0.500000 0.369976 0.500000
O O2 0.584734 0.500000 0.374156
O O3 0.660959 0.350039 0.478492
O O4 0.569714 0.331228 0.248292
O O5 0.163216 0.898426 0.774428
O O6 0.086191 0.797130 0.954836
O O7 0.999254 0.886443 0.767366
O O8 0.079122 0.000000 0.944309
O O9 0.344551 0.852485 0.342748
O O10 0.250000 0.855167 0.557281
O O11 0.250000 0.000000 0.371788
O O12 0.000000 0.152241 0.500000
O O13 0.072475 0.000000 0.411410
O O14 0.250000 0.752836 0.808969
O O15 0.250000 0.592959 0.718703
O O16 0.165861 0.631879 0.956480
O O17 0.750000 0.500000 0.524982
O O18 0.500000 0.356683 0.000000
#
# Coordination Sequence:
#
# PCOD9398394 Si02
#       8
#     8   8   4   8   4   4   4   8
#     4   9  18  35  60  87 113 141 174 216 268 325
#     4  10  19  31  47  69  99 137 181 224 267 311
#     4  10  16  24  39  61  92 126 163 212 270 317
#     4   9  16  25  39  61  90 123 160 209 264 312
#     4   8  18  34  50  75 101 135 181 223 263 316
#     4  10  16  26  46  69  94 127 178 233 263 300
#     4   8  14  30  55  79 107 140 171 206 256 317
#     4  10  21  37  56  79 108 143 182 228 268 317
#
# _framework density 22.802012000000001
#
# number of rings (size 3 to 8) (size 9 to 14) (size 15 to 20)
#    0.000    2.667    1.667    0.750    0.000    1.333 
#    3.000    1.667    0.000    0.000    0.000    0.000 
#    0.000    0.000    0.000    0.000    0.000    0.000 
#
# Total GULP energy -267389.803394 kJ/mol
# GULP energy per Si atom -5570.620904 kJ/mol
# Density = 2.275011 g / cm^3
# Si number density = 22.802012 Si / 1000 Ang^3
#
#
#
# Elastic Constant Matrix: (Units=GPa)
#
#
# Indices 1 2 3 4 5 6 
#
# 1 260.5666 5.9034 37.7721 0.0000 0.0000 0.0000
# 2 5.9034 80.8571 -1.4007 0.0000 0.0000 0.0000
# 3 37.7721 -1.4007 15.5574 0.0000 0.0000 0.0000
# 4 0.0000 0.0000 0.0000 4.5081 0.0000 0.0000
# 5 0.0000 0.0000 0.0000 0.0000 45.6979 0.0000
# 6 0.0000 0.0000 0.0000 0.0000 0.0000 -29.0256
#
#
#
# Elastic Compliance Matrix: (Units=1/GPa)
#
#
# Indices 1 2 3 4 5 6 
#
# 1 0.005960 -0.000687 -0.014532 0.000000 0.000000 0.000000
# 2 -0.000687 0.012466 0.002790 0.000000 0.000000 0.000000
# 3 -0.014532 0.002790 0.099812 0.000000 0.000000 0.000000
# 4 0.000000 0.000000 0.000000 0.221825 0.000000 0.000000
# 5 0.000000 0.000000 0.000000 0.000000 0.021883 0.000000
# 6 0.000000 0.000000 0.000000 0.000000 0.000000 -0.034452
#
#
# Mechanical properties :
#
#
# Convention : Reuss Voigt Hill
#
# Bulk Modulus (GPa) = 10.70893 49.05898 29.88396
# Shear Modulus (GPa) = 13.03856 25.21648 19.12752
#
# Velocity S-wave (km/s) = 2.39386 3.32910 2.89944
# Velocity P-wave (km/s) = 3.51389 6.02819 4.93389
#
# Compressibility (1/GPa) = 0.09337999
#
# Stress axis : x y z
#
# Youngs Moduli (GPa) = 167.78688 80.21833 10.01884
#
# Poissons Ratio (x) = 0.05510 0.14559
# Poissons Ratio (y) = 0.11525 -0.02795
# Poissons Ratio (z) = 2.43829 -0.22381
#
# Static dielectric constant tensor:
#      x y z
#    x 1.937070 0.000000 0.000000 
#    y 0.000000 1.902700 0.000000 
#    z 0.000000 0.000000 1.801450 
# 
# From -- ./inp_files/16553.got.cif
#   From: 2010.05.17/outbox.cif.g08.bks.cpg/sg51_9_cif.got.tgz:16553.got - 2010.06.03 11:52:47.
