data_PCOD9398600
_publ_section_title
;
Structure prediction by ZEFSAII (Michael W. Deem and Ramdas Pophale) SiO2 
 PCOD9398600
Probable space group: P M M A
;
_chemical_formula_sum "Si O2"
_cell_formula_units_Z 52
_cell_length_a 15.958118
_cell_length_b 18.405006
_cell_length_c 7.130801
_cell_angle_alpha 90.000000
_cell_angle_beta 90.000000
_cell_angle_gamma 90.000000
_cell_volume 2094.382267
_symmetry_space_group_name_H-M "P M M A"
_symmetry_group_IT_number 51
_symmetry_cell_setting 'orthorhombic'
loop_
_space_group_symop_operation_xyz
x,y,z
1/2-x,-y,z
1/2+x,-y,-z
-x,y,-z
-x,-y,-z
1/2+x,y,-z
1/2-x,y,z
x,-y,z
loop_
_atom_site_type_symbol
_atom_site_label
_atom_site_fract_x
_atom_site_fract_y
_atom_site_fract_z
Si Si1 0.101910 0.083333 0.108173
Si Si2 0.115703 0.295028 0.330323
Si Si3 0.250000 0.824011 0.236417
Si Si4 0.846033 0.083200 0.333943
Si Si5 0.535706 0.808104 0.263463
Si Si6 0.496223 0.583410 0.271563
Si Si7 0.348468 0.683916 0.768996
O O1 0.177954 0.112678 0.228686
O O2 0.024347 0.133786 0.164894
O O3 0.078758 0.000000 0.145204
O O4 0.136544 0.085808 0.892299
O O5 0.178782 0.240476 0.234671
O O6 0.149217 0.307396 0.541070
O O7 0.027046 0.253928 0.326891
O O8 0.088192 0.370147 0.232192
O O9 0.750000 0.105954 0.367092
O O10 0.910523 0.142892 0.407111
O O11 0.858339 0.000000 0.392766
O O12 0.608181 0.759522 0.160835
O O13 0.500000 0.585483 0.500000
O O14 0.490545 0.500000 0.214567
O O15 0.582170 0.620861 0.197250
O O16 0.250000 0.675558 0.823370
#
# Coordination Sequence:
#
# PCOD9398600 Si02
#       7
#     8   8   4   8   8   8   8
#     4  10  19  32  50  70  92 121 159 204 256 302
#     4   9  18  31  48  70  95 131 168 192 229 281
#     4  10  17  30  51  70  92 124 164 200 237 288
#     4  10  19  32  49  71  96 119 149 198 260 305
#     4  10  19  29  47  70  93 127 157 197 243 294
#     4   8  15  28  45  69 102 129 154 192 235 279
#     4  10  18  31  49  70  97 132 168 197 232 278
#
# _framework density 24.828323000000001
#
# number of rings (size 3 to 8) (size 9 to 14) (size 15 to 20)
#    0.000    2.462    1.538    3.000    0.000    1.538 
#    0.000    0.385    0.000   19.385    0.000    0.000 
#    0.000   93.538    0.000    0.000    0.000    0.000 
#
# Total GULP energy -289500.342515 kJ/mol
# GULP energy per Si atom -5567.314279 kJ/mol
# Density = 2.477181 g / cm^3
# Si number density = 24.828323 Si / 1000 Ang^3
#
#
#
# Elastic Constant Matrix: (Units=GPa)
#
#
# Indices 1 2 3 4 5 6 
#
# 1 121.4436 35.2945 -11.8842 0.0000 0.0000 0.0000
# 2 35.2945 184.6231 -8.7894 0.0000 0.0000 0.0000
# 3 -11.8842 -8.7894 80.3310 0.0000 0.0000 0.0000
# 4 0.0000 0.0000 0.0000 185.0107 0.0000 0.0000
# 5 0.0000 0.0000 0.0000 0.0000 19.0644 0.0000
# 6 0.0000 0.0000 0.0000 0.0000 0.0000 30.2674
#
#
#
# Elastic Compliance Matrix: (Units=1/GPa)
#
#
# Indices 1 2 3 4 5 6 
#
# 1 0.008819 -0.001632 0.001126 0.000000 0.000000 0.000000
# 2 -0.001632 0.005747 0.000387 0.000000 0.000000 0.000000
# 3 0.001126 0.000387 0.012657 0.000000 0.000000 0.000000
# 4 0.000000 0.000000 0.000000 0.005405 0.000000 0.000000
# 5 0.000000 0.000000 0.000000 0.000000 0.052454 0.000000
# 6 0.000000 0.000000 0.000000 0.000000 0.000000 0.033039
#
#
# Mechanical properties :
#
#
# Convention : Reuss Voigt Hill
#
# Bulk Modulus (GPa) = 37.05704 46.18216 41.61960
# Shear Modulus (GPa) = 39.26071 71.65364 55.45717
#
# Velocity S-wave (km/s) = 3.98085 5.37794 4.73125
# Velocity P-wave (km/s) = 6.00727 7.56333 6.82976
#
# Compressibility (1/GPa) = 0.02698543
#
# Stress axis : x y z
#
# Youngs Moduli (GPa) = 113.39338 174.00604 79.00477
#
# Poissons Ratio (x) = 0.28403 -0.08896
# Poissons Ratio (y) = 0.18509 -0.03060
# Poissons Ratio (z) = -0.12769 -0.06740
#
# Static dielectric constant tensor:
#      x y z
#    x 1.922520 0.000000 0.000000 
#    y 0.000000 1.957850 0.000000 
#    z 0.000000 0.000000 2.192610 
# 
# From -- ./inp_files/16750.got.cif
#   From: 2010.05.17/outbox.cif.g08.bks.cpg/sg51_9_cif.got.tgz:16750.got - 2010.06.03 11:52:47.
