data_PCOD9398190
_publ_section_title
;
Structure prediction by ZEFSAII (Michael W. Deem and Ramdas Pophale) SiO2 
 PCOD9398190
Probable space group: P B A N
;
_chemical_formula_sum "Si O2"
_cell_formula_units_Z 38
_cell_length_a 23.907951
_cell_length_b 9.330442
_cell_length_c 7.556974
_cell_angle_alpha 90.000000
_cell_angle_beta 90.000000
_cell_angle_gamma 90.000000
_cell_volume 1685.747416
_symmetry_space_group_name_H-M "P B A N"
_symmetry_group_IT_number 50
_space_group.IT_coordinate_system_code '2'
_symmetry_cell_setting 'orthorhombic'
loop_
_space_group_symop_operation_xyz
x,y,z
1/2-x,1/2-y,z
x,1/2-y,-z
1/2-x,y,-z
-x,-y,-z
1/2+x,1/2+y,-z
-x,1/2+y,z
1/2+x,-y,z
loop_
_atom_site_type_symbol
_atom_site_label
_atom_site_fract_x
_atom_site_fract_y
_atom_site_fract_z
Si Si1 0.250000 0.250000 0.500000
Si Si2 0.553230 0.762967 0.695654
Si Si3 0.162607 0.414192 0.764917
Si Si4 0.882538 0.490360 0.892676
Si Si5 0.312429 0.741623 0.290303
Si Si6 0.963773 0.250000 0.000000
O O1 0.210333 0.341871 0.637476
O O2 0.529707 0.750000 0.500000
O O3 0.603851 0.650151 0.703360
O O4 0.504212 0.736110 0.833203
O O5 0.583233 0.909789 0.757946
O O6 0.165648 0.583819 0.743365
O O7 0.156883 0.410950 0.981381
O O8 0.846819 0.371961 0.790117
O O9 0.926443 0.393591 0.003407
O O10 0.250000 0.750000 0.216684
O O11 0.310629 0.750000 0.500000
#
# Coordination Sequence:
#
# PCOD9398190 Si02
#       6
#     2   8   8   8   8   4
#     4  12  28  48  84 116 162 204 266 306 394 468
#     4  12  27  48  78 112 155 203 260 321 389 459
#     4  12  25  50  76 113 155 202 255 320 379 465
#     4  12  26  51  77 113 156 204 262 319 393 464
#     4  11  25  46  76 109 158 203 257 317 389 472
#     4  12  26  52  79 111 152 204 264 328 386 458
#
# _framework density 22.541930000000001
#
# number of rings (size 3 to 8) (size 9 to 14) (size 15 to 20)
#    0.000    0.211    5.263    3.158    2.947    3.368 
#    3.789    0.000    0.000    0.000    0.000    0.000 
#    0.000    0.000    0.000    0.000    0.000    0.000 
#
# Total GULP energy -212380.049432 kJ/mol
# GULP energy per Si atom -5588.948669 kJ/mol
# Density = 2.249062 g / cm^3
# Si number density = 22.541930 Si / 1000 Ang^3
#
#
#
# Elastic Constant Matrix: (Units=GPa)
#
#
# Indices 1 2 3 4 5 6 
#
# 1 141.4896 66.0776 70.5521 0.0000 0.0000 0.0000
# 2 66.0776 139.0519 48.2820 0.0000 0.0000 0.0000
# 3 70.5521 48.2820 176.3704 0.0000 0.0000 0.0000
# 4 0.0000 0.0000 0.0000 31.4932 0.0000 0.0000
# 5 0.0000 0.0000 0.0000 0.0000 22.6223 0.0000
# 6 0.0000 0.0000 0.0000 0.0000 0.0000 -6.2296
#
#
#
# Elastic Compliance Matrix: (Units=1/GPa)
#
#
# Indices 1 2 3 4 5 6 
#
# 1 0.010429 -0.003876 -0.003111 0.000000 0.000000 0.000000
# 2 -0.003876 0.009387 -0.001019 0.000000 0.000000 0.000000
# 3 -0.003111 -0.001019 0.007193 0.000000 0.000000 0.000000
# 4 0.000000 0.000000 0.000000 0.031753 0.000000 0.000000
# 5 0.000000 0.000000 0.000000 0.000000 0.044204 0.000000
# 6 0.000000 0.000000 0.000000 0.000000 0.000000 -0.160523
#
#
# Mechanical properties :
#
#
# Convention : Reuss Voigt Hill
#
# Bulk Modulus (GPa) = 90.92857 91.85949 91.39403
# Shear Modulus (GPa) = -131.99885 27.71053 -52.14416
#
# Velocity S-wave (km/s) = -7.66056 3.50992 -4.81480
# Velocity P-wave (km/s) = 6.14983 7.56737 3.11806
#
# Compressibility (1/GPa) = 0.01099764
#
# Stress axis : x y z
#
# Youngs Moduli (GPa) = 95.88847 106.52757 139.01735
#
# Poissons Ratio (x) = 0.41286 0.43245
# Poissons Ratio (y) = 0.37163 0.14172
# Poissons Ratio (z) = 0.29829 0.10860
#
# Static dielectric constant tensor:
#      x y z
#    x 1.840940 0.000000 0.000000 
#    y 0.000000 2.639860 0.000000 
#    z 0.000000 0.000000 1.924030 
# 
# From -- ./inp_files/15819.got.cif
#   From: 2010.05.17/outbox.cif.g08.bks.cpg/sg50_8_cif.got.tgz:15819.got - 2010.06.03 11:33:33.
