data_PCOD9398304
_publ_section_title
;
Structure prediction by ZEFSAII (Michael W. Deem and Ramdas Pophale) SiO2 
 PCOD9398304
Probable space group: P B A N
;
_chemical_formula_sum "Si O2"
_cell_formula_units_Z 56
_cell_length_a 14.743118
_cell_length_b 7.171489
_cell_length_c 22.969520
_cell_angle_alpha 90.000000
_cell_angle_beta 90.000000
_cell_angle_gamma 90.000000
_cell_volume 2428.569843
_symmetry_space_group_name_H-M "P B A N"
_symmetry_group_IT_number 50
_space_group.IT_coordinate_system_code '2'
_symmetry_cell_setting 'orthorhombic'
loop_
_space_group_symop_operation_xyz
x,y,z
1/2-x,1/2-y,z
x,1/2-y,-z
1/2-x,y,-z
-x,-y,-z
1/2+x,1/2+y,-z
-x,1/2+y,z
1/2+x,-y,z
loop_
_atom_site_type_symbol
_atom_site_label
_atom_site_fract_x
_atom_site_fract_y
_atom_site_fract_z
Si Si1 0.626925 0.474220 0.618070
Si Si2 0.391548 0.470035 0.506803
Si Si3 0.761173 0.523455 0.845930
Si Si4 0.583512 0.589490 0.368547
Si Si5 0.767950 0.525336 0.713985
Si Si6 0.118296 0.000055 0.058132
Si Si7 0.093051 0.439611 0.068786
O O1 0.651035 0.435002 0.550219
O O2 0.615435 0.698733 0.622507
O O3 0.525192 0.403771 0.631032
O O4 0.699378 0.433156 0.667790
O O5 0.371387 0.250000 0.500000
O O6 0.500000 0.500000 0.500000
O O7 0.377933 0.517576 0.574384
O O8 0.750000 0.750000 0.844250
O O9 0.753529 0.460337 0.779692
O O10 0.689020 0.442966 0.892396
O O11 0.859304 0.486276 0.873772
O O12 0.630473 0.507585 0.311456
O O13 0.750000 0.750000 0.714403
O O14 0.120346 0.224854 0.061490
O O15 0.129761 0.957950 0.989376
O O16 0.015075 0.944316 0.071369
#
# Coordination Sequence:
#
# PCOD9398304 Si02
#       7
#     8   8   8   8   8   8   8
#     4   9  17  30  47  66  89 116 147 184 224 264
#     4   8  14  25  43  65  86 110 142 181 223 263
#     4   9  17  30  47  66  91 122 152 180 215 264
#     4   9  17  30  47  66  89 116 147 184 224 264
#     4   9  18  30  45  67  91 118 152 184 217 261
#     4   9  17  30  49  71  92 116 148 184 221 261
#     4   9  17  30  49  71  92 116 148 184 221 261
#
# _framework density 23.058838999999999
#
# number of rings (size 3 to 8) (size 9 to 14) (size 15 to 20)
#    0.000    3.143    0.000    0.429    0.000    3.429 
#    0.000    4.286    0.000    5.143    0.000   10.000 
#    0.000    0.000    0.000    0.000    0.000    0.000 
#
# Total GULP energy -312547.506424 kJ/mol
# GULP energy per Si atom -5581.205472 kJ/mol
# Density = 2.300636 g / cm^3
# Si number density = 23.058839 Si / 1000 Ang^3
#
#
#
# Elastic Constant Matrix: (Units=GPa)
#
#
# Indices 1 2 3 4 5 6 
#
# 1 74.9155 -12.3700 70.0511 0.0000 0.0000 0.0000
# 2 -12.3700 76.1899 -9.6659 0.0000 0.0000 0.0000
# 3 70.0511 -9.6659 180.6452 0.0000 0.0000 0.0000
# 4 0.0000 0.0000 0.0000 2.3929 0.0000 0.0000
# 5 0.0000 0.0000 0.0000 0.0000 30.0814 0.0000
# 6 0.0000 0.0000 0.0000 0.0000 0.0000 19.9543
#
#
#
# Elastic Compliance Matrix: (Units=1/GPa)
#
#
# Indices 1 2 3 4 5 6 
#
# 1 0.021382 0.002436 -0.008161 0.000000 0.000000 0.000000
# 2 0.002436 0.013492 -0.000223 0.000000 0.000000 0.000000
# 3 -0.008161 -0.000223 0.008689 0.000000 0.000000 0.000000
# 4 0.000000 0.000000 0.000000 0.417898 0.000000 0.000000
# 5 0.000000 0.000000 0.000000 0.000000 0.033243 0.000000
# 6 0.000000 0.000000 0.000000 0.000000 0.000000 0.050115
#
#
# Mechanical properties :
#
#
# Convention : Reuss Voigt Hill
#
# Bulk Modulus (GPa) = 31.57840 47.53121 39.55480
# Shear Modulus (GPa) = 8.81415 29.40142 19.10778
#
# Velocity S-wave (km/s) = 1.95723 3.57467 2.88176
# Velocity P-wave (km/s) = 4.33960 6.13966 5.31637
#
# Compressibility (1/GPa) = 0.03166722
#
# Stress axis : x y z
#
# Youngs Moduli (GPa) = 46.76859 74.11603 115.09399
#
# Poissons Ratio (x) = -0.18056 0.93930
# Poissons Ratio (y) = -0.11393 0.02564
# Poissons Ratio (z) = 0.38169 0.01651
#
# Static dielectric constant tensor:
#      x y z
#    x 1.838860 0.000000 0.000000 
#    y 0.000000 1.974130 0.000000 
#    z 0.000000 0.000000 1.890640 
# 
# From -- ./inp_files/30974.got.cif
#   From: 2010.05.17/outbox.cif.g08.bks.cpg/sg50_16_cif.got.tgz:30974.got - 2010.06.03 11:33:33.
