data_PCOD9398623
_publ_section_title
;
Structure prediction by ZEFSAII (Michael W. Deem and Ramdas Pophale) SiO2 
 PCOD9398623
Probable space group: P M M A
;
_chemical_formula_sum "Si O2"
_cell_formula_units_Z 40
_cell_length_a 14.486583
_cell_length_b 14.569196
_cell_length_c 9.624258
_cell_angle_alpha 90.000000
_cell_angle_beta 90.000000
_cell_angle_gamma 90.000000
_cell_volume 2031.275366
_symmetry_space_group_name_H-M "P M M A"
_symmetry_group_IT_number 51
_symmetry_cell_setting 'orthorhombic'
loop_
_space_group_symop_operation_xyz
x,y,z
1/2-x,-y,z
1/2+x,-y,-z
-x,y,-z
-x,-y,-z
1/2+x,y,-z
1/2-x,y,z
x,-y,z
loop_
_atom_site_type_symbol
_atom_site_label
_atom_site_fract_x
_atom_site_fract_y
_atom_site_fract_z
Si Si1 0.139316 0.107420 0.375742
Si Si2 0.356525 0.394694 0.161652
Si Si3 0.610866 0.601095 0.509442
Si Si4 0.023646 0.783073 0.147357
Si Si5 0.647079 0.218044 0.349492
O O1 0.250000 0.118717 0.361372
O O2 0.089575 0.160918 0.251503
O O3 0.115660 0.150142 0.526343
O O4 0.116825 0.000000 0.371928
O O5 0.250000 0.377978 0.119025
O O6 0.381412 0.500000 0.121332
O O7 0.360782 0.391812 0.329958
O O8 0.425450 0.314159 0.116769
O O9 0.500000 0.609031 0.500000
O O10 0.636758 0.500000 0.458174
O O11 0.651158 0.683086 0.422134
O O12 0.927955 0.774142 0.229918
O O13 0.000000 0.828155 0.000000
O O14 0.750000 0.190935 0.302677
#
# Coordination Sequence:
#
# PCOD9398623 Si02
#       5
#     8   8   8   8   8
#     4  10  22  43  70  93 114 147 195 249 302 356
#     4  10  20  36  59  85 116 158 205 249 295 348
#     4  10  17  30  57  88 117 149 193 252 307 347
#     4  12  25  39  59  88 127 164 197 238 293 356
#     4  11  22  38  60  89 119 153 200 249 295 347
#
# _framework density 19.692062
#
# number of rings (size 3 to 8) (size 9 to 14) (size 15 to 20)
#    0.000    1.400    4.000    1.800    0.000    5.200 
#    0.000    0.000    0.000    2.400    0.000    0.000 
#    0.000    0.000    0.000    0.000    0.000    0.000 
#
# Total GULP energy -223437.100406 kJ/mol
# GULP energy per Si atom -5585.927510 kJ/mol
# Density = 1.964724 g / cm^3
# Si number density = 19.692062 Si / 1000 Ang^3
#
#
#
# Elastic Constant Matrix: (Units=GPa)
#
#
# Indices 1 2 3 4 5 6 
#
# 1 105.9697 40.4580 27.3574 0.0000 0.0000 0.0000
# 2 40.4580 89.0627 24.1534 0.0000 0.0000 0.0000
# 3 27.3574 24.1534 51.0503 0.0000 0.0000 0.0000
# 4 0.0000 0.0000 0.0000 3.5342 0.0000 0.0000
# 5 0.0000 0.0000 0.0000 0.0000 -11.1951 0.0000
# 6 0.0000 0.0000 0.0000 0.0000 0.0000 25.1871
#
#
#
# Elastic Compliance Matrix: (Units=1/GPa)
#
#
# Indices 1 2 3 4 5 6 
#
# 1 0.012261 -0.004345 -0.004515 0.000000 0.000000 0.000000
# 2 -0.004345 0.014421 -0.004494 0.000000 0.000000 0.000000
# 3 -0.004515 -0.004494 0.024134 0.000000 0.000000 0.000000
# 4 0.000000 0.000000 0.000000 0.282947 0.000000 0.000000
# 5 0.000000 0.000000 0.000000 0.000000 -0.089325 0.000000
# 6 0.000000 0.000000 0.000000 0.000000 0.000000 0.039703
#
#
# Mechanical properties :
#
#
# Convention : Reuss Voigt Hill
#
# Bulk Modulus (GPa) = 41.48082 47.78004 44.63043
# Shear Modulus (GPa) = 15.67960 13.77950 14.72955
#
# Velocity S-wave (km/s) = 2.82483 2.64815 2.73792
# Velocity P-wave (km/s) = 5.63472 5.80229 5.71912
#
# Compressibility (1/GPa) = 0.02410753
#
# Stress axis : x y z
#
# Youngs Moduli (GPa) = 81.55777 69.34400 41.43481
#
# Poissons Ratio (x) = 0.30133 0.18707
# Poissons Ratio (y) = 0.35441 0.18622
# Poissons Ratio (z) = 0.36821 0.31165
#
# Static dielectric constant tensor:
#      x y z
#    x 1.723190 0.000000 0.000000 
#    y 0.000000 1.697770 0.000000 
#    z 0.000000 0.000000 1.645900 
# 
# From -- ./inp_files/7913.got.cif
#   From: 2010.05.17/outbox.cif.g08.bks.cpg/sg51_4_cif.got.tgz:7913.got - 2010.06.03 11:52:47.
