data_PCOD9398537
_publ_section_title
;
Structure prediction by ZEFSAII (Michael W. Deem and Ramdas Pophale) SiO2 
 PCOD9398537
Probable space group: P M M A
;
_chemical_formula_sum "Si O2"
_cell_formula_units_Z 44
_cell_length_a 8.416318
_cell_length_b 17.821482
_cell_length_c 15.891050
_cell_angle_alpha 90.000000
_cell_angle_beta 90.000000
_cell_angle_gamma 90.000000
_cell_volume 2383.518608
_symmetry_space_group_name_H-M "P M M A"
_symmetry_group_IT_number 51
_symmetry_cell_setting 'orthorhombic'
loop_
_space_group_symop_operation_xyz
x,y,z
1/2-x,-y,z
1/2+x,-y,-z
-x,y,-z
-x,-y,-z
1/2+x,y,-z
1/2-x,y,z
x,-y,z
loop_
_atom_site_type_symbol
_atom_site_label
_atom_site_fract_x
_atom_site_fract_y
_atom_site_fract_z
Si Si1 0.059881 0.287343 0.414709
Si Si2 0.442192 0.585282 0.093929
Si Si3 0.562984 0.116196 0.410650
Si Si4 0.056947 0.704246 0.230087
Si Si5 0.442056 0.000000 0.095778
Si Si6 0.441642 0.122701 0.229664
O O1 0.250000 0.277747 0.418907
O O2 0.018449 0.322501 0.324771
O O3 0.000000 0.325430 0.500000
O O4 0.982046 0.204691 0.412445
O O5 0.250000 0.586453 0.094524
O O6 0.492378 0.500000 0.115110
O O7 0.501104 0.647135 0.159707
O O8 0.500000 0.601919 0.000000
O O9 0.500000 0.085682 0.500000
O O10 0.750000 0.105942 0.409229
O O11 0.493728 0.091038 0.320765
O O12 0.250000 0.706218 0.224876
O O13 0.003307 0.790753 0.220517
O O14 0.493937 0.928280 0.151519
O O15 0.250000 0.000000 0.094003
O O16 0.500000 0.000000 0.000000
O O17 0.250000 0.123452 0.230598
#
# Coordination Sequence:
#
# PCOD9398537 Si02
#       6
#     8   8   8   8   4   8
#     4   9  15  25  42  65  94 125 156 189 226 269
#     4   9  17  30  47  67  91 119 150 185 229 277
#     4  10  17  27  46  72  99 126 155 190 233 279
#     4   8  15  28  47  68  91 120 152 186 223 269
#     4  10  22  38  55  70  91 124 157 196 242 284
#     4   9  18  34  51  69  94 124 159 195 232 274
#
# _framework density 18.460103
#
# number of rings (size 3 to 8) (size 9 to 14) (size 15 to 20)
#    0.000    2.909    0.000    4.364    0.000    1.455 
#    0.000    5.000    0.000    0.545    0.000    0.000 
#    0.000    0.000    0.000    0.000    0.000    6.545 
#
# Total GULP energy -245098.750441 kJ/mol
# GULP energy per Si atom -5570.426146 kJ/mol
# Density = 1.841809 g / cm^3
# Si number density = 18.460103 Si / 1000 Ang^3
#
#
#
# Elastic Constant Matrix: (Units=GPa)
#
#
# Indices 1 2 3 4 5 6 
#
# 1 22.6186 15.1019 23.4545 0.0000 0.0000 0.0000
# 2 15.1019 86.5815 94.7072 0.0000 0.0000 0.0000
# 3 23.4545 94.7072 205.4281 0.0000 0.0000 0.0000
# 4 0.0000 0.0000 0.0000 -141.1794 0.0000 0.0000
# 5 0.0000 0.0000 0.0000 0.0000 34.1549 0.0000
# 6 0.0000 0.0000 0.0000 0.0000 0.0000 5.2603
#
#
#
# Elastic Compliance Matrix: (Units=1/GPa)
#
#
# Indices 1 2 3 4 5 6 
#
# 1 0.051250 -0.005121 -0.003490 0.000000 0.000000 0.000000
# 2 -0.005121 0.023811 -0.010393 0.000000 0.000000 0.000000
# 3 -0.003490 -0.010393 0.010058 0.000000 0.000000 0.000000
# 4 0.000000 0.000000 0.000000 -0.007083 0.000000 0.000000
# 5 0.000000 0.000000 0.000000 0.000000 0.029278 0.000000
# 6 0.000000 0.000000 0.000000 0.000000 0.000000 0.190102
#
#
# Mechanical properties :
#
#
# Convention : Reuss Voigt Hill
#
# Bulk Modulus (GPa) = 21.22684 64.57281 42.89982
# Shear Modulus (GPa) = 14.23979 -8.26187 2.98896
#
# Velocity S-wave (km/s) = 2.78039 -2.11784 1.27384
# Velocity P-wave (km/s) = 4.67238 5.39215 5.04512
#
# Compressibility (1/GPa) = 0.04711016
#
# Stress axis : x y z
#
# Youngs Moduli (GPa) = 19.51210 41.99678 99.42586
#
# Poissons Ratio (x) = 0.21508 0.34703
# Poissons Ratio (y) = 0.09993 1.03332
# Poissons Ratio (z) = 0.06810 0.43647
#
# Static dielectric constant tensor:
#      x y z
#    x 1.632650 0.000000 0.000000 
#    y 0.000000 1.646620 0.000000 
#    z 0.000000 0.000000 1.669140 
# 
# From -- ./inp_files/20967.got.cif
#   From: 2010.05.17/outbox.cif.g08.bks.cpg/sg51_11_cif.got.tgz:20967.got - 2010.06.03 11:52:47.
