data_PCOD9398402
_publ_section_title
;
Structure prediction by ZEFSAII (Michael W. Deem and Ramdas Pophale) SiO2 
 PCOD9398402
Probable space group: P M M A
;
_chemical_formula_sum "Si O2"
_cell_formula_units_Z 48
_cell_length_a 16.068728
_cell_length_b 14.317859
_cell_length_c 10.622810
_cell_angle_alpha 90.000000
_cell_angle_beta 90.000000
_cell_angle_gamma 90.000000
_cell_volume 2443.987579
_symmetry_space_group_name_H-M "P M M A"
_symmetry_group_IT_number 51
_symmetry_cell_setting 'orthorhombic'
loop_
_space_group_symop_operation_xyz
x,y,z
1/2-x,-y,z
1/2+x,-y,-z
-x,y,-z
-x,-y,-z
1/2+x,y,-z
1/2-x,y,z
x,-y,z
loop_
_atom_site_type_symbol
_atom_site_label
_atom_site_fract_x
_atom_site_fract_y
_atom_site_fract_z
Si Si1 0.914007 0.608904 0.574877
Si Si2 0.099490 0.786099 0.259676
Si Si3 0.897995 0.107691 0.496158
Si Si4 0.398260 0.108475 0.012837
Si Si5 0.097906 0.797971 0.758268
Si Si6 0.845338 0.602337 0.308069
O O1 0.918825 0.500000 0.612735
O O2 0.896043 0.679646 0.688750
O O3 0.850131 0.616827 0.458985
O O4 0.000000 0.634618 0.500000
O O5 0.133604 0.846762 0.375516
O O6 0.131148 0.823183 0.125408
O O7 0.001360 0.809381 0.249139
O O8 0.868354 0.162469 0.373128
O O9 0.000000 0.113124 0.500000
O O10 0.875690 0.000000 0.486907
O O11 0.375738 0.000000 0.035422
O O12 0.500000 0.110646 0.000000
O O13 0.368311 0.147277 0.878502
O O14 0.112642 0.687665 0.761989
O O15 0.750000 0.600549 0.269807
O O16 0.883762 0.500000 0.284616
#
# Coordination Sequence:
#
# PCOD9398402 Si02
#       6
#     8   8   8   8   8   8
#     4  10  17  29  50  75 102 130 166 214 264 306
#     4  10  16  27  45  74 102 131 162 201 254 304
#     4   9  15  23  41  68  96 125 164 206 243 288
#     4   9  18  29  44  70 106 137 162 200 250 300
#     4  10  17  29  46  70 100 131 167 205 251 297
#     4  10  20  33  51  75 101 132 171 214 259 305
#
# _framework density 19.640034
#
# number of rings (size 3 to 8) (size 9 to 14) (size 15 to 20)
#    0.000    2.333    3.333    1.500    0.000    4.000 
#    0.000    0.833    0.000    6.000    0.000    2.333 
#    0.000    0.000    0.000    0.000    0.000    0.000 
#
# Total GULP energy -267446.772214 kJ/mol
# GULP energy per Si atom -5571.807754 kJ/mol
# Density = 1.959533 g / cm^3
# Si number density = 19.640034 Si / 1000 Ang^3
#
#
#
# Elastic Constant Matrix: (Units=GPa)
#
#
# Indices 1 2 3 4 5 6 
#
# 1 10.7154 -6.0326 -0.7122 0.0000 0.0000 0.0000
# 2 -6.0326 145.8012 72.8378 0.0000 0.0000 0.0000
# 3 -0.7122 72.8378 118.5950 0.0000 0.0000 0.0000
# 4 0.0000 0.0000 0.0000 32.2803 0.0000 0.0000
# 5 0.0000 0.0000 0.0000 0.0000 0.0283 0.0000
# 6 0.0000 0.0000 0.0000 0.0000 0.0000 -10.5553
#
#
#
# Elastic Compliance Matrix: (Units=1/GPa)
#
#
# Indices 1 2 3 4 5 6 
#
# 1 0.096141 0.005323 -0.002692 0.000000 0.000000 0.000000
# 2 0.005323 0.010189 -0.006226 0.000000 0.000000 0.000000
# 3 -0.002692 -0.006226 0.012240 0.000000 0.000000 0.000000
# 4 0.000000 0.000000 0.000000 0.030979 0.000000 0.000000
# 5 0.000000 0.000000 0.000000 0.000000 35.386060 0.000000
# 6 0.000000 0.000000 0.000000 0.000000 0.000000 -0.094739
#
#
# Mechanical properties :
#
#
# Convention : Reuss Voigt Hill
#
# Bulk Modulus (GPa) = 8.97825 45.25529 27.11677
# Shear Modulus (GPa) = 0.14090 18.28523 9.21307
#
# Velocity S-wave (km/s) = 0.26814 3.05457 2.16821
# Velocity P-wave (km/s) = 2.16268 5.96095 4.48387
#
# Compressibility (1/GPa) = 0.11138026
#
# Stress axis : x y z
#
# Youngs Moduli (GPa) = 10.40134 98.14353 81.70140
#
# Poissons Ratio (x) = -0.52237 0.21991
# Poissons Ratio (y) = -0.05536 0.50867
# Poissons Ratio (z) = 0.02800 0.61104
#
# Static dielectric constant tensor:
#      x y z
#    x 1.740410 0.000000 0.000000 
#    y 0.000000 1.706270 0.000000 
#    z 0.000000 0.000000 1.684880 
# 
# From -- ./inp_files/9577.got.cif
#   From: 2010.05.17/outbox.cif.g08.bks.cpg/sg51_5_cif.got.tgz:9577.got - 2010.06.03 11:52:47.
