data_PCOD9398825
_publ_section_title
;
Structure prediction by ZEFSAII (Michael W. Deem and Ramdas Pophale) SiO2 
 PCOD9398825
Probable space group: P M M A
;
_chemical_formula_sum "Si O2"
_cell_formula_units_Z 64
_cell_length_a 27.346793
_cell_length_b 8.913739
_cell_length_c 17.687404
_cell_angle_alpha 90.000000
_cell_angle_beta 90.000000
_cell_angle_gamma 90.000000
_cell_volume 4311.520074
_symmetry_space_group_name_H-M "P M M A"
_symmetry_group_IT_number 51
_symmetry_cell_setting 'orthorhombic'
loop_
_space_group_symop_operation_xyz
x,y,z
1/2-x,-y,z
1/2+x,-y,-z
-x,y,-z
-x,-y,-z
1/2+x,y,-z
1/2-x,y,z
x,-y,z
loop_
_atom_site_type_symbol
_atom_site_label
_atom_site_fract_x
_atom_site_fract_y
_atom_site_fract_z
Si Si1 0.962430 0.317989 0.320678
Si Si2 0.058390 0.674004 0.516461
Si Si3 0.371017 0.825126 0.216921
Si Si4 0.957107 0.174760 0.905610
Si Si5 0.389636 0.321460 0.973982
Si Si6 0.306188 0.680810 0.091252
Si Si7 0.562559 0.820772 0.162954
Si Si8 0.424434 0.318341 0.352961
O O1 0.960271 0.500000 0.318948
O O2 0.937317 0.263347 0.398958
O O3 0.938801 0.250722 0.245868
O O4 0.020289 0.277833 0.326057
O O5 0.073909 0.500000 0.520765
O O6 0.081510 0.737406 0.439622
O O7 0.000000 0.673172 0.500000
O O8 0.419098 0.813177 0.163573
O O9 0.328489 0.749055 0.167842
O O10 0.385306 0.746158 0.294911
O O11 0.360580 0.000000 0.228655
O O12 0.010266 0.217644 0.875793
O O13 0.958124 0.000000 0.930114
O O14 0.935016 0.272944 0.972728
O O15 0.389075 0.500000 0.964675
O O16 0.396715 0.242893 0.893579
O O17 0.341646 0.274452 0.021785
O O18 0.250000 0.724908 0.079908
O O19 0.308731 0.500000 0.096473
O O20 0.565502 0.000000 0.168158
O O21 0.422488 0.500000 0.353275
#
# Coordination Sequence:
#
# PCOD9398825 Si02
#       8
#     8   8   8   8   8   8   8   8
#     4   9  16  26  41  59  82 115 154 188 213 241
#     4   7  12  23  38  57  80 110 147 184 215 240
#     4  10  18  28  43  65  90 115 145 177 212 257
#     4   9  18  30  40  54  83 118 144 171 210 249
#     4  10  20  31  45  64  80 102 141 180 214 258
#     4   9  19  36  53  66  83 107 137 178 225 266
#     4  11  20  29  40  57  87 120 146 175 214 254
#     4   9  15  25  42  61  84 114 149 183 214 249
#
# _framework density 14.843952
#
# number of rings (size 3 to 8) (size 9 to 14) (size 15 to 20)
#    0.000    2.750    1.250    3.000    0.000    3.750 
#    0.000    0.625    0.000    2.250    0.000    0.000 
#    0.000    1.000    0.000    8.000    0.000    3.625 
#
# Total GULP energy -356440.327895 kJ/mol
# GULP energy per Si atom -5569.380123 kJ/mol
# Density = 1.481017 g / cm^3
# Si number density = 14.843952 Si / 1000 Ang^3
#
#
#
# Elastic Constant Matrix: (Units=GPa)
#
#
# Indices 1 2 3 4 5 6 
#
# 1 54.5000 18.0437 49.8981 0.0000 0.0000 0.0000
# 2 18.0437 20.4829 40.5882 0.0000 0.0000 0.0000
# 3 49.8981 40.5882 149.2310 0.0000 0.0000 0.0000
# 4 0.0000 0.0000 0.0000 -4.7023 0.0000 0.0000
# 5 0.0000 0.0000 0.0000 0.0000 11.6491 0.0000
# 6 0.0000 0.0000 0.0000 0.0000 0.0000 11.6029
#
#
#
# Elastic Compliance Matrix: (Units=1/GPa)
#
#
# Indices 1 2 3 4 5 6 
#
# 1 0.028013 -0.013266 -0.005758 0.000000 0.000000 0.000000
# 2 -0.013266 0.112175 -0.026074 0.000000 0.000000 0.000000
# 3 -0.005758 -0.026074 0.015718 0.000000 0.000000 0.000000
# 4 0.000000 0.000000 0.000000 -0.212664 0.000000 0.000000
# 5 0.000000 0.000000 0.000000 0.000000 0.085844 0.000000
# 6 0.000000 0.000000 0.000000 0.000000 0.000000 0.086186
#
#
# Mechanical properties :
#
#
# Convention : Reuss Voigt Hill
#
# Bulk Modulus (GPa) = 15.21866 49.03043 32.12455
# Shear Modulus (GPa) = 21.99052 11.42220 16.70636
#
# Velocity S-wave (km/s) = 3.85313 2.77697 3.35844
# Velocity P-wave (km/s) = 5.48363 6.58668 6.06030
#
# Compressibility (1/GPa) = 0.06570880
#
# Stress axis : x y z
#
# Youngs Moduli (GPa) = 35.69766 8.91467 63.62097
#
# Poissons Ratio (x) = 0.11826 0.36636
# Poissons Ratio (y) = 0.47357 1.65884
# Poissons Ratio (z) = 0.20556 0.23244
#
# Static dielectric constant tensor:
#      x y z
#    x 1.468010 0.000000 0.000000 
#    y 0.000000 1.494360 0.000000 
#    z 0.000000 0.000000 1.518980 
# 
# From -- ./inp_files/30997.got.cif
#   From: 2010.05.17/outbox.cif.g08.bks.cpg/sg51_16_cif.got.tgz:30997.got - 2010.06.03 11:52:47.
