data_PCOD9398390
_publ_section_title
;
Structure prediction by ZEFSAII (Michael W. Deem and Ramdas Pophale) SiO2 
 PCOD9398390
Probable space group: P M M A
;
_chemical_formula_sum "Si O2"
_cell_formula_units_Z 28
_cell_length_a 8.616104
_cell_length_b 18.880527
_cell_length_c 9.574100
_cell_angle_alpha 90.000000
_cell_angle_beta 90.000000
_cell_angle_gamma 90.000000
_cell_volume 1557.481885
_symmetry_space_group_name_H-M "P M M A"
_symmetry_group_IT_number 51
_symmetry_cell_setting 'orthorhombic'
loop_
_space_group_symop_operation_xyz
x,y,z
1/2-x,-y,z
1/2+x,-y,-z
-x,y,-z
-x,-y,-z
1/2+x,y,-z
1/2-x,y,z
x,-y,z
loop_
_atom_site_type_symbol
_atom_site_label
_atom_site_fract_x
_atom_site_fract_y
_atom_site_fract_z
Si Si1 0.565044 0.793326 0.657143
Si Si2 0.935464 0.646026 0.340760
Si Si3 0.935479 0.500000 0.659662
Si Si4 0.064070 0.080881 0.843247
O O1 0.500000 0.801073 0.500000
O O2 0.750000 0.787021 0.651445
O O3 0.494828 0.720379 0.719700
O O4 0.513037 0.860706 0.745766
O O5 0.750000 0.643659 0.343624
O O6 0.000000 0.647356 0.500000
O O7 0.001847 0.573388 0.276459
O O8 0.750000 0.500000 0.655738
O O9 0.000000 0.500000 0.500000
O O10 0.250000 0.089633 0.843120
O O11 0.029150 0.000000 0.797790
O O12 0.000000 0.088686 0.000000
#
# Coordination Sequence:
#
# PCOD9398390 Si02
#       4
#     8   8   4   8
#     4  11  21  34  52  76 106 138 172 213 260 307
#     4  10  17  27  42  64  95 130 167 207 252 300
#     4  10  16  24  38  60  91 128 167 204 247 298
#     4  10  21  38  58  79 103 133 170 211 255 306
#
# _framework density 17.977737000000001
#
# number of rings (size 3 to 8) (size 9 to 14) (size 15 to 20)
#    0.000    1.714    0.000   10.714    0.000    2.286 
#    0.000    0.000    0.000    0.000    0.000    1.000 
#    0.000    0.000    0.000    0.000    0.000    0.000 
#
# Total GULP energy -156239.900592 kJ/mol
# GULP energy per Si atom -5579.996450 kJ/mol
# Density = 1.793682 g / cm^3
# Si number density = 17.977737 Si / 1000 Ang^3
#
#
#
# Elastic Constant Matrix: (Units=GPa)
#
#
# Indices 1 2 3 4 5 6 
#
# 1 191.3166 93.7614 26.3409 0.0000 0.0000 0.0000
# 2 93.7614 197.3103 53.2295 0.0000 0.0000 0.0000
# 3 26.3409 53.2295 25.1843 0.0000 0.0000 0.0000
# 4 0.0000 0.0000 0.0000 -14.8300 0.0000 0.0000
# 5 0.0000 0.0000 0.0000 0.0000 20.6346 0.0000
# 6 0.0000 0.0000 0.0000 0.0000 0.0000 37.3158
#
#
#
# Elastic Compliance Matrix: (Units=1/GPa)
#
#
# Indices 1 2 3 4 5 6 
#
# 1 0.006818 -0.003062 -0.000659 0.000000 0.000000 0.000000
# 2 -0.003062 0.013167 -0.024627 0.000000 0.000000 0.000000
# 3 -0.000659 -0.024627 0.092449 0.000000 0.000000 0.000000
# 4 0.000000 0.000000 0.000000 -0.067431 0.000000 0.000000
# 5 0.000000 0.000000 0.000000 0.000000 0.048462 0.000000
# 6 0.000000 0.000000 0.000000 0.000000 0.000000 0.026798
#
#
# Mechanical properties :
#
#
# Convention : Reuss Voigt Hill
#
# Bulk Modulus (GPa) = 17.94137 84.49718 51.21927
# Shear Modulus (GPa) = 25.57014 24.65603 25.11309
#
# Velocity S-wave (km/s) = 3.77546 3.70736 3.74157
# Velocity P-wave (km/s) = 5.38581 8.08882 6.87154
#
# Compressibility (1/GPa) = 0.05573711
#
# Stress axis : x y z
#
# Youngs Moduli (GPa) = 146.66023 75.94647 10.81681
#
# Poissons Ratio (x) = 0.23257 0.00713
# Poissons Ratio (y) = 0.44912 0.26639
# Poissons Ratio (z) = 0.09667 1.87035
#
# Static dielectric constant tensor:
#      x y z
#    x 1.596050 0.000000 0.000000 
#    y 0.000000 1.686020 0.000000 
#    z 0.000000 0.000000 1.583110 
# 
# From -- ./inp_files/4657.got.cif
#   From: 2010.05.17/outbox.cif.g08.bks.cpg/sg51_3_cif.got.tgz:4657.got - 2010.06.03 11:52:47.
