data_PCOD9398983
_publ_section_title
;
Structure prediction by ZEFSAII (Michael W. Deem and Ramdas Pophale) SiO2 
 PCOD9398983
Probable space group: P M M A
;
_chemical_formula_sum "Si O2"
_cell_formula_units_Z 64
_cell_length_a 9.024304
_cell_length_b 19.480120
_cell_length_c 24.228131
_cell_angle_alpha 90.000000
_cell_angle_beta 90.000000
_cell_angle_gamma 90.000000
_cell_volume 4259.172777
_symmetry_space_group_name_H-M "P M M A"
_symmetry_group_IT_number 51
_symmetry_cell_setting 'orthorhombic'
loop_
_space_group_symop_operation_xyz
x,y,z
1/2-x,-y,z
1/2+x,-y,-z
-x,y,-z
-x,-y,-z
1/2+x,y,-z
1/2-x,y,z
x,-y,z
loop_
_atom_site_type_symbol
_atom_site_label
_atom_site_fract_x
_atom_site_fract_y
_atom_site_fract_z
Si Si1 0.072363 0.289025 0.942058
Si Si2 0.927232 0.421520 0.891199
Si Si3 0.428377 0.920221 0.441537
Si Si4 0.571444 0.162760 0.666533
Si Si5 0.426744 0.713914 0.725509
Si Si6 0.572540 0.422144 0.760119
Si Si7 0.572542 0.200957 0.163977
Si Si8 0.428282 0.078757 0.223328
O O1 0.250000 0.289783 0.946072
O O2 0.028553 0.236960 0.892980
O O3 0.014442 0.364124 0.924437
O O4 0.000000 0.269770 0.000000
O O5 0.750000 0.412196 0.898250
O O6 0.963493 0.500000 0.907119
O O7 0.959588 0.414440 0.825696
O O8 0.500000 0.901554 0.500000
O O9 0.250000 0.917020 0.445991
O O10 0.473888 0.871658 0.391040
O O11 0.467360 0.000000 0.429574
O O12 0.750000 0.170289 0.666691
O O13 0.497208 0.235329 0.680491
O O14 0.532670 0.111370 0.717038
O O15 0.250000 0.712608 0.720295
O O16 0.492131 0.637724 0.727061
O O17 0.464922 0.748543 0.784905
O O18 0.750000 0.415696 0.754062
O O19 0.530377 0.500000 0.744460
O O20 0.750000 0.192498 0.163979
O O21 0.496781 0.128863 0.177702
O O22 0.250000 0.080340 0.219216
O O23 0.477316 0.000000 0.219306
#
# Coordination Sequence:
#
# PCOD9398983 Si02
#       8
#     8   8   8   8   8   8   8   8
#     4  11  22  35  49  66  87 114 148 185 223 269
#     4   9  18  32  49  68  89 115 148 183 219 263
#     4   9  17  29  45  65  93 130 168 201 231 266
#     4   9  17  29  45  66  94 127 158 190 227 267
#     4  10  18  29  45  67  93 119 150 189 230 271
#     4   9  17  29  46  67  91 120 152 183 220 271
#     4   9  19  33  46  64  90 115 141 176 224 275
#     4   9  17  29  48  72  92 113 145 183 222 267
#
# _framework density 15.026392
#
# number of rings (size 3 to 8) (size 9 to 14) (size 15 to 20)
#    0.000    2.625    1.250    1.875    0.000    4.500 
#    0.000    1.250    0.000    2.625    0.000    0.000 
#    0.000    0.500    0.000    1.625    0.000    2.000 
#
# Total GULP energy -356797.819252 kJ/mol
# GULP energy per Si atom -5574.965926 kJ/mol
# Density = 1.499219 g / cm^3
# Si number density = 15.026392 Si / 1000 Ang^3
#
#
#
# Elastic Constant Matrix: (Units=GPa)
#
#
# Indices 1 2 3 4 5 6 
#
# 1 21.5077 38.6076 34.9662 0.0000 0.0000 0.0000
# 2 38.6076 119.1890 64.1172 0.0000 0.0000 0.0000
# 3 34.9662 64.1172 102.8107 0.0000 0.0000 0.0000
# 4 0.0000 0.0000 0.0000 24.5554 0.0000 0.0000
# 5 0.0000 0.0000 0.0000 0.0000 21.4075 0.0000
# 6 0.0000 0.0000 0.0000 0.0000 0.0000 24.3435
#
#
#
# Elastic Compliance Matrix: (Units=1/GPa)
#
#
# Indices 1 2 3 4 5 6 
#
# 1 0.165246 -0.035053 -0.034340 0.000000 0.000000 0.000000
# 2 -0.035053 0.020062 -0.000590 0.000000 0.000000 0.000000
# 3 -0.034340 -0.000590 0.021773 0.000000 0.000000 0.000000
# 4 0.000000 0.000000 0.000000 0.040724 0.000000 0.000000
# 5 0.000000 0.000000 0.000000 0.000000 0.046713 0.000000
# 6 0.000000 0.000000 0.000000 0.000000 0.000000 0.041079
#
#
# Mechanical properties :
#
#
# Convention : Reuss Voigt Hill
#
# Bulk Modulus (GPa) = 14.89969 57.65438 36.27703
# Shear Modulus (GPa) = 10.04149 21.11570 15.57859
#
# Velocity S-wave (km/s) = 2.58787 3.75272 3.22335
# Velocity P-wave (km/s) = 4.34357 7.56500 6.16830
#
# Compressibility (1/GPa) = 0.06711550
#
# Stress axis : x y z
#
# Youngs Moduli (GPa) = 6.05158 49.84627 45.92776
#
# Poissons Ratio (x) = 1.74728 1.57715
# Poissons Ratio (y) = 0.21213 0.02708
# Poissons Ratio (z) = 0.20781 0.02939
#
# Static dielectric constant tensor:
#      x y z
#    x 1.498450 0.000000 0.000000 
#    y 0.000000 1.491780 0.000000 
#    z 0.000000 0.000000 1.481000 
# 
# From -- ./inp_files/35090.got.cif
#   From: 2010.05.17/outbox.cif.g08.bks.cpg/sg51_18_cif.got.tgz:35090.got - 2010.06.03 11:52:47.
