data_PCOD9398679
_publ_section_title
;
Structure prediction by ZEFSAII (Michael W. Deem and Ramdas Pophale) SiO2 
 PCOD9398679
Probable space group: P M M A
;
_chemical_formula_sum "Si O2"
_cell_formula_units_Z 36
_cell_length_a 14.057188
_cell_length_b 14.114890
_cell_length_c 8.691169
_cell_angle_alpha 90.000000
_cell_angle_beta 90.000000
_cell_angle_gamma 90.000000
_cell_volume 1724.464054
_symmetry_space_group_name_H-M "P M M A"
_symmetry_group_IT_number 51
_symmetry_cell_setting 'orthorhombic'
loop_
_space_group_symop_operation_xyz
x,y,z
1/2-x,-y,z
1/2+x,-y,-z
-x,y,-z
-x,-y,-z
1/2+x,y,-z
1/2-x,y,z
x,-y,z
loop_
_atom_site_type_symbol
_atom_site_label
_atom_site_fract_x
_atom_site_fract_y
_atom_site_fract_z
Si Si1 0.144403 0.000000 0.317224
Si Si2 0.637667 0.789981 0.052155
Si Si3 0.136808 0.603325 0.762416
Si Si4 0.132738 0.794449 0.303723
Si Si5 0.608633 0.000000 0.040900
Si Si6 0.000000 0.657768 0.500000
O O1 0.101719 0.100544 0.357859
O O2 0.250000 0.000000 0.384623
O O3 0.154731 0.000000 0.129869
O O4 0.750000 0.777369 0.039417
O O5 0.606196 0.697390 0.144503
O O6 0.626416 0.897438 0.117242
O O7 0.602803 0.788842 0.875940
O O8 0.250000 0.613585 0.723520
O O9 0.127956 0.500000 0.842606
O O10 0.068013 0.602430 0.616352
O O11 0.250000 0.786953 0.313983
O O12 0.075134 0.719938 0.402416
O O13 0.500000 0.000000 0.000000
#
# Coordination Sequence:
#
# PCOD9398679 Si02
#       6
#     4   8   8   8   4   4
#     4   8  16  33  52  74 112 158 193 231 286 344
#     4   9  19  38  61  84 115 153 196 244 292 344
#     4  10  23  43  63  85 116 154 197 247 298 347
#     4   9  19  36  58  84 116 156 196 237 289 350
#     4  10  18  26  56  89 120 142 185 238 296 345
#     4  12  23  35  60  84 120 151 198 240 299 352
#
# _framework density 20.876049999999999
#
# number of rings (size 3 to 8) (size 9 to 14) (size 15 to 20)
#    0.000    2.444    0.000    3.333    6.222    0.444 
#    0.000    4.444    0.000    8.000    0.000    0.000 
#    0.000    0.000    0.000    0.000    0.000    0.000 
#
# Total GULP energy -200414.774521 kJ/mol
# GULP energy per Si atom -5567.077070 kJ/mol
# Density = 2.082854 g / cm^3
# Si number density = 20.876050 Si / 1000 Ang^3
#
#
#
# Elastic Constant Matrix: (Units=GPa)
#
#
# Indices 1 2 3 4 5 6 
#
# 1 73.1853 29.5160 16.2898 0.0000 0.0000 0.0000
# 2 29.5160 189.9412 55.2051 0.0000 0.0000 0.0000
# 3 16.2898 55.2051 42.5219 0.0000 0.0000 0.0000
# 4 0.0000 0.0000 0.0000 27.1360 0.0000 0.0000
# 5 0.0000 0.0000 0.0000 0.0000 25.0655 0.0000
# 6 0.0000 0.0000 0.0000 0.0000 0.0000 -140.2219
#
#
#
# Elastic Compliance Matrix: (Units=1/GPa)
#
#
# Indices 1 2 3 4 5 6 
#
# 1 0.015071 -0.001066 -0.004389 0.000000 0.000000 0.000000
# 2 -0.001066 0.008531 -0.010667 0.000000 0.000000 0.000000
# 3 -0.004389 -0.010667 0.039047 0.000000 0.000000 0.000000
# 4 0.000000 0.000000 0.000000 0.036851 0.000000 0.000000
# 5 0.000000 0.000000 0.000000 0.000000 0.039895 0.000000
# 6 0.000000 0.000000 0.000000 0.000000 0.000000 -0.007132
#
#
# Mechanical properties :
#
#
# Convention : Reuss Voigt Hill
#
# Bulk Modulus (GPa) = 32.89014 56.40780 44.64897
# Shear Modulus (GPa) = 28.62983 -3.96156 12.33413
#
# Velocity S-wave (km/s) = 3.70729 -1.37905 2.43333
# Velocity P-wave (km/s) = 5.84076 4.95412 5.41561
#
# Compressibility (1/GPa) = 0.03040425
#
# Stress axis : x y z
#
# Youngs Moduli (GPa) = 66.35286 117.22412 25.61014
#
# Poissons Ratio (x) = 0.12499 0.11241
# Poissons Ratio (y) = 0.07075 0.27317
# Poissons Ratio (z) = 0.29124 1.25039
#
# Static dielectric constant tensor:
#      x y z
#    x 1.752710 0.000000 0.000000 
#    y 0.000000 1.821920 0.000000 
#    z 0.000000 0.000000 1.747610 
# 
# From -- ./inp_files/7867.got.cif
#   From: 2010.05.17/outbox.cif.g08.bks.cpg/sg51_4_cif.got.tgz:7867.got - 2010.06.03 11:52:47.
