data_PCOD9398385
_publ_section_title
;
Structure prediction by ZEFSAII (Michael W. Deem and Ramdas Pophale) SiO2 
 PCOD9398385
Probable space group: P M M A
;
_chemical_formula_sum "Si O2"
_cell_formula_units_Z 36
_cell_length_a 8.649949
_cell_length_b 18.418173
_cell_length_c 15.808286
_cell_angle_alpha 90.000000
_cell_angle_beta 90.000000
_cell_angle_gamma 90.000000
_cell_volume 2518.516957
_symmetry_space_group_name_H-M "P M M A"
_symmetry_group_IT_number 51
_symmetry_cell_setting 'orthorhombic'
loop_
_space_group_symop_operation_xyz
x,y,z
1/2-x,-y,z
1/2+x,-y,-z
-x,y,-z
-x,-y,-z
1/2+x,y,-z
1/2-x,y,z
x,-y,z
loop_
_atom_site_type_symbol
_atom_site_label
_atom_site_fract_x
_atom_site_fract_y
_atom_site_fract_z
Si Si1 0.934832 0.649365 0.903908
Si Si2 0.434889 0.500000 0.903525
Si Si3 0.436354 0.086209 0.225560
Si Si4 0.935308 0.085393 0.586914
Si Si5 0.933874 0.800668 0.094756
O O1 0.750000 0.646388 0.905576
O O2 0.002271 0.575191 0.864822
O O3 0.993388 0.726019 0.868443
O O4 0.000000 0.650854 0.000000
O O5 0.250000 0.500000 0.906147
O O6 0.500000 0.500000 0.000000
O O7 0.250000 0.094057 0.218277
O O8 0.482996 0.112425 0.320169
O O9 0.518148 0.132887 0.154039
O O10 0.469521 0.000000 0.218489
O O11 0.750000 0.088587 0.583533
O O12 0.000000 0.118069 0.500000
O O13 0.979998 0.000000 0.587409
O O14 0.750000 0.792722 0.089268
O O15 0.000000 0.811414 0.000000
#
# Coordination Sequence:
#
# PCOD9398385 Si02
#       5
#     8   4   8   8   8
#     4  10  17  27  41  57  77 102 132 165 203 244
#     4  10  16  24  38  58  80 100 127 162 199 240
#     4   9  18  32  46  60  80 107 139 174 210 247
#     4   8  14  25  42  62  82 102 125 158 202 249
#     4  11  21  32  44  58  78 107 142 178 213 246
#
# _framework density 14.294127
#
# number of rings (size 3 to 8) (size 9 to 14) (size 15 to 20)
#    0.000    2.444    0.000    9.000    0.000    1.778 
#    0.000    2.222    0.000    0.000    0.000    0.000 
#    0.000    0.000    0.000    1.000    0.000   13.667 
#
# Total GULP energy -200402.026643 kJ/mol
# GULP energy per Si atom -5566.722962 kJ/mol
# Density = 1.426159 g / cm^3
# Si number density = 14.294127 Si / 1000 Ang^3
#
#
#
# Elastic Constant Matrix: (Units=GPa)
#
#
# Indices 1 2 3 4 5 6 
#
# 1 103.8555 39.7981 30.8823 0.0000 0.0000 0.0000
# 2 39.7981 72.5348 35.9028 0.0000 0.0000 0.0000
# 3 30.8823 35.9028 69.6878 0.0000 0.0000 0.0000
# 4 0.0000 0.0000 0.0000 -0.6395 0.0000 0.0000
# 5 0.0000 0.0000 0.0000 0.0000 18.5946 0.0000
# 6 0.0000 0.0000 0.0000 0.0000 0.0000 21.7204
#
#
#
# Elastic Compliance Matrix: (Units=1/GPa)
#
#
# Indices 1 2 3 4 5 6 
#
# 1 0.012561 -0.005553 -0.002706 0.000000 0.000000 0.000000
# 2 -0.005553 0.020960 -0.008338 0.000000 0.000000 0.000000
# 3 -0.002706 -0.008338 0.019844 0.000000 0.000000 0.000000
# 4 0.000000 0.000000 0.000000 -1.563675 0.000000 0.000000
# 5 0.000000 0.000000 0.000000 0.000000 0.053779 0.000000
# 6 0.000000 0.000000 0.000000 0.000000 0.000000 0.046040
#
#
# Mechanical properties :
#
#
# Convention : Reuss Voigt Hill
#
# Bulk Modulus (GPa) = 49.57119 51.02719 50.29919
# Shear Modulus (GPa) = -3.64811 17.23475 6.79332
#
# Velocity S-wave (km/s) = -1.59929 3.47612 2.18239
# Velocity P-wave (km/s) = 5.59861 7.20324 6.45101
#
# Compressibility (1/GPa) = 0.02017301
#
# Stress axis : x y z
#
# Youngs Moduli (GPa) = 79.61027 47.70958 50.39199
#
# Poissons Ratio (x) = 0.26492 0.13635
# Poissons Ratio (y) = 0.44205 0.42016
# Poissons Ratio (z) = 0.21541 0.39780
#
# Static dielectric constant tensor:
#      x y z
#    x 1.478670 0.000000 0.000000 
#    y 0.000000 1.511070 0.000000 
#    z 0.000000 0.000000 1.472810 
# 
# From -- ./inp_files/20769.got.cif
#   From: 2010.05.17/outbox.cif.g08.bks.cpg/sg51_11_cif.got.tgz:20769.got - 2010.06.03 11:52:47.
