data_PCOD9398451
_publ_section_title
;
Structure prediction by ZEFSAII (Michael W. Deem and Ramdas Pophale) SiO2 
 PCOD9398451
Probable space group: P M M A
;
_chemical_formula_sum "Si O2"
_cell_formula_units_Z 64
_cell_length_a 9.219205
_cell_length_b 14.902710
_cell_length_c 21.716042
_cell_angle_alpha 90.000000
_cell_angle_beta 90.000000
_cell_angle_gamma 90.000000
_cell_volume 2983.591735
_symmetry_space_group_name_H-M "P M M A"
_symmetry_group_IT_number 51
_symmetry_cell_setting 'orthorhombic'
loop_
_space_group_symop_operation_xyz
x,y,z
1/2-x,-y,z
1/2+x,-y,-z
-x,y,-z
-x,-y,-z
1/2+x,y,-z
1/2-x,y,z
x,-y,z
loop_
_atom_site_type_symbol
_atom_site_label
_atom_site_fract_x
_atom_site_fract_y
_atom_site_fract_z
Si Si1 0.584782 0.360729 0.059279
Si Si2 0.416614 0.860388 0.686803
Si Si3 0.580136 0.141153 0.062904
Si Si4 0.573542 0.341071 0.190334
Si Si5 0.585595 0.893267 0.559815
Si Si6 0.575409 0.852899 0.811071
Si Si7 0.088374 0.644783 0.677805
Si Si8 0.410222 0.392666 0.442466
O O1 0.750000 0.386332 0.051081
O O2 0.577317 0.250940 0.061771
O O3 0.537784 0.390601 0.127058
O O4 0.500000 0.391316 0.000000
O O5 0.250000 0.892992 0.687568
O O6 0.498055 0.881707 0.623287
O O7 0.504390 0.890226 0.747863
O O8 0.408678 0.752037 0.687363
O O9 0.750000 0.115205 0.064219
O O10 0.496426 0.112289 0.125193
O O11 0.500000 0.111984 0.000000
O O12 0.750000 0.319121 0.188152
O O13 0.475793 0.251471 0.190290
O O14 0.549841 0.390881 0.254582
O O15 0.500000 0.857295 0.500000
O O16 0.750000 0.857814 0.564634
O O17 0.597487 0.000000 0.550565
O O18 0.750000 0.861952 0.811445
O O19 0.250000 0.614211 0.660778
O O20 0.982840 0.624337 0.622711
O O21 0.500000 0.356891 0.500000
O O22 0.250000 0.354997 0.443827
O O23 0.402288 0.500000 0.449696
#
# Coordination Sequence:
#
# PCOD9398451 Si02
#       8
#     8   8   8   8   8   8   8   8
#     4   8  13  20  31  48  74 109 147 184 220 264
#     4  10  20  34  51  72  99 130 163 199 240 285
#     4   9  15  23  34  51  78 114 155 195 235 281
#     4   8  15  27  39  55  84 119 152 188 231 277
#     4  10  21  37  56  77 100 127 160 197 238 285
#     4  10  17  25  39  60  87 120 156 194 238 284
#     4   9  18  32  50  71  95 125 159 195 236 281
#     4  10  21  36  53  72  94 121 153 190 233 282
#
# _framework density 21.450657
#
# number of rings (size 3 to 8) (size 9 to 14) (size 15 to 20)
#    0.000    2.750    0.000    4.125    0.000    7.500 
#    0.000    0.000    0.000    0.000    0.000    0.000 
#    0.000    1.000    0.000    3.000    0.000    9.625 
#
# Total GULP energy -357037.898164 kJ/mol
# GULP energy per Si atom -5578.717159 kJ/mol
# Density = 2.140183 g / cm^3
# Si number density = 21.450657 Si / 1000 Ang^3
#
#
#
# Elastic Constant Matrix: (Units=GPa)
#
#
# Indices 1 2 3 4 5 6 
#
# 1 191.0815 7.5522 147.7895 0.0000 0.0000 0.0000
# 2 7.5522 60.0020 4.2062 0.0000 0.0000 0.0000
# 3 147.7895 4.2062 257.4675 0.0000 0.0000 0.0000
# 4 0.0000 0.0000 0.0000 49.3668 0.0000 0.0000
# 5 0.0000 0.0000 0.0000 0.0000 41.1552 0.0000
# 6 0.0000 0.0000 0.0000 0.0000 0.0000 2.1917
#
#
#
# Elastic Compliance Matrix: (Units=1/GPa)
#
#
# Indices 1 2 3 4 5 6 
#
# 1 0.009451 -0.000810 -0.005412 0.000000 0.000000 0.000000
# 2 -0.000810 0.016755 0.000191 0.000000 0.000000 0.000000
# 3 -0.005412 0.000191 0.006987 0.000000 0.000000 0.000000
# 4 0.000000 0.000000 0.000000 0.020257 0.000000 0.000000
# 5 0.000000 0.000000 0.000000 0.000000 0.024298 0.000000
# 6 0.000000 0.000000 0.000000 0.000000 0.000000 0.456257
#
#
# Mechanical properties :
#
#
# Convention : Reuss Voigt Hill
#
# Bulk Modulus (GPa) = 47.32215 91.96074 69.64145
# Shear Modulus (GPa) = 9.03980 41.80962 25.42471
#
# Velocity S-wave (km/s) = 2.05509 4.41966 3.44650
# Velocity P-wave (km/s) = 5.26688 8.30713 6.95516
#
# Compressibility (1/GPa) = 0.02113175
#
# Stress axis : x y z
#
# Youngs Moduli (GPa) = 105.80813 59.68484 143.11688
#
# Poissons Ratio (x) = 0.04836 0.77452
# Poissons Ratio (y) = 0.08572 -0.02738
# Poissons Ratio (z) = 0.57261 -0.01142
#
# Static dielectric constant tensor:
#      x y z
#    x 1.743930 0.000000 0.000000 
#    y 0.000000 1.833520 0.000000 
#    z 0.000000 0.000000 1.790300 
# 
# From -- ./inp_files/32311.got.cif
#   From: 2010.05.17/outbox.cif.g08.bks.cpg/sg51_17_cif.got.tgz:32311.got - 2010.06.03 11:52:47.
