data_PCOD9398918
_publ_section_title
;
Structure prediction by ZEFSAII (Michael W. Deem and Ramdas Pophale) SiO2 
 PCOD9398918
Probable space group: P M M A
;
_chemical_formula_sum "Si O2"
_cell_formula_units_Z 40
_cell_length_a 9.072894
_cell_length_b 13.208576
_cell_length_c 19.888309
_cell_angle_alpha 90.000000
_cell_angle_beta 90.000000
_cell_angle_gamma 90.000000
_cell_volume 2383.415148
_symmetry_space_group_name_H-M "P M M A"
_symmetry_group_IT_number 51
_symmetry_cell_setting 'orthorhombic'
loop_
_space_group_symop_operation_xyz
x,y,z
1/2-x,-y,z
1/2+x,-y,-z
-x,y,-z
-x,-y,-z
1/2+x,y,-z
1/2-x,y,z
x,-y,z
loop_
_atom_site_type_symbol
_atom_site_label
_atom_site_fract_x
_atom_site_fract_y
_atom_site_fract_z
Si Si1 0.073139 0.793386 0.827198
Si Si2 0.074359 0.616955 0.428008
Si Si3 0.575110 0.000000 0.320369
Si Si4 0.575096 0.000000 0.824283
Si Si5 0.072715 0.384331 0.928179
Si Si6 0.924551 0.223797 0.331451
O O1 0.250000 0.807647 0.831308
O O2 0.030362 0.697624 0.872337
O O3 0.039506 0.774683 0.748276
O O4 0.994314 0.895910 0.851378
O O5 0.250000 0.625594 0.434253
O O6 0.038833 0.500000 0.409986
O O7 0.000000 0.637769 0.500000
O O8 0.014017 0.694822 0.373304
O O9 0.476369 0.000000 0.253715
O O10 0.549000 0.892373 0.355468
O O11 0.750000 0.000000 0.300208
O O12 0.750000 0.000000 0.830507
O O13 0.250000 0.380697 0.935047
O O14 0.032418 0.500000 0.909444
O O15 0.000000 0.361877 0.000000
O O16 0.750000 0.244373 0.338209
#
# Coordination Sequence:
#
# PCOD9398918 Si02
#       6
#     8   8   4   4   8   8
#     4   9  18  33  52  73 100 133 165 198 241 295
#     4  10  21  36  52  71  98 131 165 202 245 291
#     4   8  16  32  51  72 101 134 162 192 240 296
#     4  10  18  28  47  74 101 128 162 204 246 286
#     4   9  18  33  52  73  98 130 166 203 246 295
#     4   9  17  31  53  77  99 126 162 202 241 287
#
# _framework density 16.782640000000001
#
# number of rings (size 3 to 8) (size 9 to 14) (size 15 to 20)
#    0.000    2.800    0.000    2.700    0.000    6.000 
#    0.000    3.000    0.000    2.400    0.000    0.000 
#    0.000    0.000    0.000    0.000    0.000    0.000 
#
# Total GULP energy -222861.846075 kJ/mol
# GULP energy per Si atom -5571.546152 kJ/mol
# Density = 1.674444 g / cm^3
# Si number density = 16.782640 Si / 1000 Ang^3
#
#
#
# Elastic Constant Matrix: (Units=GPa)
#
#
# Indices 1 2 3 4 5 6 
#
# 1 42.5801 64.3729 39.6896 0.0000 0.0000 0.0000
# 2 64.3729 162.8550 90.0272 0.0000 0.0000 0.0000
# 3 39.6896 90.0272 69.9059 0.0000 0.0000 0.0000
# 4 0.0000 0.0000 0.0000 -18.1844 0.0000 0.0000
# 5 0.0000 0.0000 0.0000 0.0000 27.0514 0.0000
# 6 0.0000 0.0000 0.0000 0.0000 0.0000 27.2766
#
#
#
# Elastic Compliance Matrix: (Units=1/GPa)
#
#
# Indices 1 2 3 4 5 6 
#
# 1 0.061355 -0.017340 -0.012503 0.000000 0.000000 0.000000
# 2 -0.017340 0.026216 -0.023917 0.000000 0.000000 0.000000
# 3 -0.012503 -0.023917 0.052204 0.000000 0.000000 0.000000
# 4 0.000000 0.000000 0.000000 -0.054992 0.000000 0.000000
# 5 0.000000 0.000000 0.000000 0.000000 0.036967 0.000000
# 6 0.000000 0.000000 0.000000 0.000000 0.000000 0.036661
#
#
# Mechanical properties :
#
#
# Convention : Reuss Voigt Hill
#
# Bulk Modulus (GPa) = 31.00305 73.72449 52.36377
# Shear Modulus (GPa) = 18.07119 12.64548 15.35833
#
# Velocity S-wave (km/s) = 3.28499 2.74795 3.02840
# Velocity P-wave (km/s) = 5.73599 7.35477 6.59524
#
# Compressibility (1/GPa) = 0.03225489
#
# Stress axis : x y z
#
# Youngs Moduli (GPa) = 16.29858 38.14462 19.15546
#
# Poissons Ratio (x) = 0.66145 0.23950
# Poissons Ratio (y) = 0.28262 0.45814
# Poissons Ratio (z) = 0.20378 0.91229
#
# Static dielectric constant tensor:
#      x y z
#    x 1.557730 0.000000 0.000000 
#    y 0.000000 1.589450 0.000000 
#    z 0.000000 0.000000 1.536100 
# 
# From -- ./inp_files/31451.got.cif
#   From: 2010.05.17/outbox.cif.g08.bks.cpg/sg51_16_cif.got.tgz:31451.got - 2010.06.03 11:52:47.
