data_PCOD9398971
_publ_section_title
;
Structure prediction by ZEFSAII (Michael W. Deem and Ramdas Pophale) SiO2 
 PCOD9398971
Probable space group: P M M A
;
_chemical_formula_sum "Si O2"
_cell_formula_units_Z 64
_cell_length_a 8.820646
_cell_length_b 24.258705
_cell_length_c 19.549803
_cell_angle_alpha 90.000000
_cell_angle_beta 90.000000
_cell_angle_gamma 90.000000
_cell_volume 4183.216979
_symmetry_space_group_name_H-M "P M M A"
_symmetry_group_IT_number 51
_symmetry_cell_setting 'orthorhombic'
loop_
_space_group_symop_operation_xyz
x,y,z
1/2-x,-y,z
1/2+x,-y,-z
-x,y,-z
-x,-y,-z
1/2+x,y,-z
1/2-x,y,z
x,-y,z
loop_
_atom_site_type_symbol
_atom_site_label
_atom_site_fract_x
_atom_site_fract_y
_atom_site_fract_z
Si Si1 0.931616 0.662991 0.346114
Si Si2 0.568932 0.564334 0.574404
Si Si3 0.568869 0.766574 0.573887
Si Si4 0.567718 0.169285 0.707957
Si Si5 0.434801 0.061991 0.213487
Si Si6 0.432205 0.882753 0.071987
Si Si7 0.931174 0.753133 0.927606
Si Si8 0.069067 0.272479 0.787936
O O1 0.750000 0.662775 0.352777
O O2 0.970177 0.681269 0.268636
O O3 0.999153 0.605225 0.370100
O O4 0.999265 0.710471 0.395165
O O5 0.500000 0.578218 0.500000
O O6 0.750000 0.570813 0.571727
O O7 0.534053 0.500000 0.587948
O O8 0.500000 0.777923 0.500000
O O9 0.750000 0.760530 0.569117
O O10 0.534754 0.813858 0.629975
O O11 0.750000 0.173910 0.717876
O O12 0.520104 0.108685 0.732101
O O13 0.490730 0.215316 0.755389
O O14 0.250000 0.061063 0.213329
O O15 0.481828 0.082945 0.138162
O O16 0.487728 0.000000 0.227176
O O17 0.250000 0.885520 0.068217
O O18 0.473396 0.818145 0.081016
O O19 0.500000 0.901953 0.000000
O O20 0.750000 0.749823 0.929491
O O21 0.994973 0.721473 0.862027
O O22 0.000000 0.734991 0.000000
O O23 0.250000 0.270285 0.794446
#
# Coordination Sequence:
#
# PCOD9398971 Si02
#       8
#     8   8   8   8   8   8   8   8
#     4  10  20  32  47  69  97 125 157 193 229 268
#     4  10  20  33  49  69  96 132 169 199 228 264
#     4  10  19  30  47  67  90 115 145 184 229 277
#     4   9  17  31  47  64  84 112 145 180 225 276
#     4   9  16  28  46  64  82 107 144 186 222 264
#     4   9  17  28  42  61  84 111 142 177 215 258
#     4  10  18  29  45  65  91 121 153 187 225 274
#     4  10  19  30  46  68  92 120 151 188 231 272
#
# _framework density 15.29923
#
# number of rings (size 3 to 8) (size 9 to 14) (size 15 to 20)
#    0.000    2.375    1.250    2.250    0.000    3.500 
#    0.000    0.000    0.000    1.500    0.000    0.000 
#    0.000    0.500    0.000    1.625    0.000    2.750 
#
# Total GULP energy -356898.778141 kJ/mol
# GULP energy per Si atom -5576.543408 kJ/mol
# Density = 1.526441 g / cm^3
# Si number density = 15.299230 Si / 1000 Ang^3
#
#
#
# Elastic Constant Matrix: (Units=GPa)
#
#
# Indices 1 2 3 4 5 6 
#
# 1 36.0944 32.7909 49.2290 0.0000 0.0000 0.0000
# 2 32.7909 85.5203 63.6602 0.0000 0.0000 0.0000
# 3 49.2290 63.6602 138.6584 0.0000 0.0000 0.0000
# 4 0.0000 0.0000 0.0000 24.0718 0.0000 0.0000
# 5 0.0000 0.0000 0.0000 0.0000 26.4949 0.0000
# 6 0.0000 0.0000 0.0000 0.0000 0.0000 10.3401
#
#
#
# Elastic Compliance Matrix: (Units=1/GPa)
#
#
# Indices 1 2 3 4 5 6 
#
# 1 0.059623 -0.010792 -0.016214 0.000000 0.000000 0.000000
# 2 -0.010792 0.019718 -0.005221 0.000000 0.000000 0.000000
# 3 -0.016214 -0.005221 0.015366 0.000000 0.000000 0.000000
# 4 0.000000 0.000000 0.000000 0.041542 0.000000 0.000000
# 5 0.000000 0.000000 0.000000 0.000000 0.037743 0.000000
# 6 0.000000 0.000000 0.000000 0.000000 0.000000 0.096711
#
#
# Mechanical properties :
#
#
# Convention : Reuss Voigt Hill
#
# Bulk Modulus (GPa) = 33.05477 61.29258 47.17368
# Shear Modulus (GPa) = 14.48264 19.82088 17.15176
#
# Velocity S-wave (km/s) = 3.08007 3.60328 3.35190
# Velocity P-wave (km/s) = 5.85675 7.58030 6.77357
#
# Compressibility (1/GPa) = 0.03025282
#
# Stress axis : x y z
#
# Youngs Moduli (GPa) = 16.77194 50.71604 65.08057
#
# Poissons Ratio (x) = 0.54733 1.05520
# Poissons Ratio (y) = 0.18100 0.33979
# Poissons Ratio (z) = 0.27194 0.26479
#
# Static dielectric constant tensor:
#      x y z
#    x 1.509710 0.000000 0.000000 
#    y 0.000000 1.498400 0.000000 
#    z 0.000000 0.000000 1.509190 
# 
# From -- ./inp_files/28625.got.cif
#   From: 2010.05.17/outbox.cif.g08.bks.cpg/sg51_15_cif.got.tgz:28625.got - 2010.06.03 11:52:47.
