data_PCOD9398553
_publ_section_title
;
Structure prediction by ZEFSAII (Michael W. Deem and Ramdas Pophale) SiO2 
 PCOD9398553
Probable space group: P M M A
;
_chemical_formula_sum "Si O2"
_cell_formula_units_Z 44
_cell_length_a 13.539420
_cell_length_b 17.313171
_cell_length_c 7.827485
_cell_angle_alpha 90.000000
_cell_angle_beta 90.000000
_cell_angle_gamma 90.000000
_cell_volume 1834.843058
_symmetry_space_group_name_H-M "P M M A"
_symmetry_group_IT_number 51
_symmetry_cell_setting 'orthorhombic'
loop_
_space_group_symop_operation_xyz
x,y,z
1/2-x,-y,z
1/2+x,-y,-z
-x,y,-z
-x,-y,-z
1/2+x,y,-z
1/2-x,y,z
x,-y,z
loop_
_atom_site_type_symbol
_atom_site_label
_atom_site_fract_x
_atom_site_fract_y
_atom_site_fract_z
Si Si1 0.000000 0.374166 0.000000
Si Si2 0.138755 0.247819 0.936424
Si Si3 0.130943 0.416392 0.310469
Si Si4 0.364995 0.916651 0.425230
Si Si5 0.361539 0.750395 0.346126
Si Si6 0.134951 0.082442 0.835258
O O1 0.928213 0.416819 0.868972
O O2 0.068658 0.317572 0.885305
O O3 0.250000 0.254131 0.866117
O O4 0.094950 0.164432 0.892963
O O5 0.144794 0.254251 0.141061
O O6 0.250000 0.410996 0.280143
O O7 0.113215 0.500000 0.396134
O O8 0.103338 0.334953 0.400466
O O9 0.250000 0.916371 0.366026
O O10 0.410231 0.833884 0.378022
O O11 0.364859 0.918428 0.630147
O O12 0.407528 0.000000 0.366387
O O13 0.250000 0.757872 0.418670
O O14 0.250000 0.084275 0.892061
O O15 0.094645 0.000000 0.895614
#
# Coordination Sequence:
#
# PCOD9398553 Si02
#       6
#     4   8   8   8   8   8
#     4  10  17  28  45  66  92 122 147 180 228 276
#     4   9  17  28  43  65  91 118 152 189 223 266
#     4   9  17  29  46  69  93 116 148 189 228 270
#     4   8  13  22  39  64  91 119 152 186 221 266
#     4   8  14  24  39  63  91 115 144 183 223 262
#     4   8  14  25  41  62  89 121 156 191 226 266
#
# _framework density 23.980253000000001
#
# number of rings (size 3 to 8) (size 9 to 14) (size 15 to 20)
#    0.000    3.455    0.000    3.000    0.000    0.727 
#    0.000    4.091    0.000    5.455    0.000   17.818 
#    0.000   39.273    0.000    0.000    0.000    0.000 
#
# Total GULP energy -245133.834485 kJ/mol
# GULP energy per Si atom -5571.223511 kJ/mol
# Density = 2.392567 g / cm^3
# Si number density = 23.980253 Si / 1000 Ang^3
#
#
#
# Elastic Constant Matrix: (Units=GPa)
#
#
# Indices 1 2 3 4 5 6 
#
# 1 107.3365 22.7890 13.6338 0.0000 0.0000 0.0000
# 2 22.7890 268.6251 10.2505 0.0000 0.0000 0.0000
# 3 13.6338 10.2505 18.8644 0.0000 0.0000 0.0000
# 4 0.0000 0.0000 0.0000 39.4620 0.0000 0.0000
# 5 0.0000 0.0000 0.0000 0.0000 19.3291 0.0000
# 6 0.0000 0.0000 0.0000 0.0000 0.0000 400.3462
#
#
#
# Elastic Compliance Matrix: (Units=1/GPa)
#
#
# Indices 1 2 3 4 5 6 
#
# 1 0.010354 -0.000605 -0.007154 0.000000 0.000000 0.000000
# 2 -0.000605 0.003837 -0.001647 0.000000 0.000000 0.000000
# 3 -0.007154 -0.001647 0.059075 0.000000 0.000000 0.000000
# 4 0.000000 0.000000 0.000000 0.025341 0.000000 0.000000
# 5 0.000000 0.000000 0.000000 0.000000 0.051736 0.000000
# 6 0.000000 0.000000 0.000000 0.000000 0.000000 0.002498
#
#
# Mechanical properties :
#
#
# Convention : Reuss Voigt Hill
#
# Bulk Modulus (GPa) = 18.36461 54.24139 36.30300
# Shear Modulus (GPa) = 26.34293 115.03762 70.69028
#
# Velocity S-wave (km/s) = 3.31800 6.93368 5.43530
# Velocity P-wave (km/s) = 4.72797 9.31502 7.38658
#
# Compressibility (1/GPa) = 0.05445256
#
# Stress axis : x y z
#
# Youngs Moduli (GPa) = 96.58374 260.62843 16.92755
#
# Poissons Ratio (x) = 0.15778 0.12110
# Poissons Ratio (y) = 0.05847 0.02789
# Poissons Ratio (z) = 0.69095 0.42935
#
# Static dielectric constant tensor:
#      x y z
#    x 1.992690 0.000000 0.000000 
#    y 0.000000 2.011240 0.000000 
#    z 0.000000 0.000000 1.870790 
# 
# From -- ./inp_files/8143.got.cif
#   From: 2010.05.17/outbox.cif.g08.bks.cpg/sg51_5_cif.got.tgz:8143.got - 2010.06.03 11:52:47.
