data_PCOD9398489
_publ_section_title
;
Structure prediction by ZEFSAII (Michael W. Deem and Ramdas Pophale) SiO2 
 PCOD9398489
Probable space group: P M M A
;
_chemical_formula_sum "Si O2"
_cell_formula_units_Z 64
_cell_length_a 8.651264
_cell_length_b 21.062241
_cell_length_c 20.455102
_cell_angle_alpha 90.000000
_cell_angle_beta 90.000000
_cell_angle_gamma 90.000000
_cell_volume 3727.226561
_symmetry_space_group_name_H-M "P M M A"
_symmetry_group_IT_number 51
_symmetry_cell_setting 'orthorhombic'
loop_
_space_group_symop_operation_xyz
x,y,z
1/2-x,-y,z
1/2+x,-y,-z
-x,y,-z
-x,-y,-z
1/2+x,y,-z
1/2-x,y,z
x,-y,z
loop_
_atom_site_type_symbol
_atom_site_label
_atom_site_fract_x
_atom_site_fract_y
_atom_site_fract_z
Si Si1 0.564946 0.258462 0.209187
Si Si2 0.436871 0.809567 0.426988
Si Si3 0.064560 0.750355 0.934221
Si Si4 0.436826 0.427276 0.428346
Si Si5 0.936159 0.688756 0.659432
Si Si6 0.066186 0.105701 0.067838
Si Si7 0.065078 0.109236 0.795048
Si Si8 0.435962 0.069693 0.342376
O O1 0.750000 0.260089 0.215723
O O2 0.525765 0.280475 0.135538
O O3 0.492724 0.298033 0.267590
O O4 0.518598 0.183873 0.212874
O O5 0.500000 0.807774 0.500000
O O6 0.250000 0.809630 0.429328
O O7 0.486713 0.747939 0.385750
O O8 0.488073 0.872719 0.388362
O O9 0.250000 0.757347 0.938326
O O10 0.990640 0.820760 0.932029
O O11 0.000000 0.719039 0.000000
O O12 0.500000 0.409900 0.500000
O O13 0.250000 0.425744 0.431061
O O14 0.484436 0.500000 0.414478
O O15 0.488544 0.376470 0.374467
O O16 0.750000 0.688650 0.660060
O O17 0.250000 0.102331 0.066051
O O18 0.004582 0.081777 0.137699
O O19 0.000000 0.077888 0.000000
O O20 0.250000 0.106850 0.800232
O O21 0.007434 0.076230 0.729506
O O22 0.250000 0.074421 0.335966
O O23 0.473551 0.000000 0.369516
#
# Coordination Sequence:
#
# PCOD9398489 Si02
#       8
#     8   8   8   8   8   8   8   8
#     4   9  18  29  44  68  97 126 159 200 241 283
#     4  10  21  35  51  73  96 121 156 195 239 290
#     4   9  16  26  39  62  94 128 164 199 240 287
#     4   9  18  32  49  71  99 131 166 202 239 285
#     4  10  19  31  49  72  98 129 164 198 238 286
#     4  10  17  26  43  67  95 126 159 196 239 287
#     4  10  19  32  49  70  95 123 159 200 244 292
#     4  10  21  37  54  71  93 122 157 199 244 293
#
# _framework density 17.170943999999999
#
# number of rings (size 3 to 8) (size 9 to 14) (size 15 to 20)
#    0.000    2.375    1.250    3.750    0.000    4.500 
#    0.000    0.000    0.000    0.375    0.000    0.000 
#    0.000    0.500    0.000    1.125    0.000    1.875 
#
# Total GULP energy -356906.850605 kJ/mol
# GULP energy per Si atom -5576.669541 kJ/mol
# Density = 1.713186 g / cm^3
# Si number density = 17.170944 Si / 1000 Ang^3
#
#
#
# Elastic Constant Matrix: (Units=GPa)
#
#
# Indices 1 2 3 4 5 6 
#
# 1 31.3212 19.7060 29.4344 0.0000 0.0000 0.0000
# 2 19.7060 75.9028 60.2953 0.0000 0.0000 0.0000
# 3 29.4344 60.2953 154.0226 0.0000 0.0000 0.0000
# 4 0.0000 0.0000 0.0000 -25.1856 0.0000 0.0000
# 5 0.0000 0.0000 0.0000 0.0000 34.4134 0.0000
# 6 0.0000 0.0000 0.0000 0.0000 0.0000 -13.8842
#
#
#
# Elastic Compliance Matrix: (Units=1/GPa)
#
#
# Indices 1 2 3 4 5 6 
#
# 1 0.040957 -0.006409 -0.005318 0.000000 0.000000 0.000000
# 2 -0.006409 0.020124 -0.006653 0.000000 0.000000 0.000000
# 3 -0.005318 -0.006653 0.010113 0.000000 0.000000 0.000000
# 4 0.000000 0.000000 0.000000 -0.039705 0.000000 0.000000
# 5 0.000000 0.000000 0.000000 0.000000 0.029058 0.000000
# 6 0.000000 0.000000 0.000000 0.000000 0.000000 -0.072024
#
#
# Mechanical properties :
#
#
# Convention : Reuss Voigt Hill
#
# Bulk Modulus (GPa) = 29.04090 53.34644 41.19367
# Shear Modulus (GPa) = 136.01179 9.18944 72.60062
#
# Velocity S-wave (km/s) = 8.90968 2.31589 6.50944
# Velocity P-wave (km/s) = 11.08119 6.18760 8.97438
#
# Compressibility (1/GPa) = 0.03443420
#
# Stress axis : x y z
#
# Youngs Moduli (GPa) = 24.41566 49.69291 98.87883
#
# Poissons Ratio (x) = 0.31846 0.52587
# Poissons Ratio (y) = 0.15647 0.65785
# Poissons Ratio (z) = 0.12985 0.33061
#
# Static dielectric constant tensor:
#      x y z
#    x 1.577730 0.000000 0.000000 
#    y 0.000000 1.590980 0.000000 
#    z 0.000000 0.000000 1.598150 
# 
# From -- ./inp_files/32572.got.cif
#   From: 2010.05.17/outbox.cif.g08.bks.cpg/sg51_17_cif.got.tgz:32572.got - 2010.06.03 11:52:47.
