data_PCOD9398635
_publ_section_title
;
Structure prediction by ZEFSAII (Michael W. Deem and Ramdas Pophale) SiO2 
 PCOD9398635
Probable space group: P M M A
;
_chemical_formula_sum "Si O2"
_cell_formula_units_Z 44
_cell_length_a 13.943791
_cell_length_b 18.588540
_cell_length_c 8.923030
_cell_angle_alpha 90.000000
_cell_angle_beta 90.000000
_cell_angle_gamma 90.000000
_cell_volume 2312.802233
_symmetry_space_group_name_H-M "P M M A"
_symmetry_group_IT_number 51
_symmetry_cell_setting 'orthorhombic'
loop_
_space_group_symop_operation_xyz
x,y,z
1/2-x,-y,z
1/2+x,-y,-z
-x,y,-z
-x,-y,-z
1/2+x,y,-z
1/2-x,y,z
x,-y,z
loop_
_atom_site_type_symbol
_atom_site_label
_atom_site_fract_x
_atom_site_fract_y
_atom_site_fract_z
Si Si1 0.949598 0.723450 0.151091
Si Si2 0.904126 0.885684 0.060624
Si Si3 0.087360 0.672436 0.406042
Si Si4 0.750000 0.678850 0.056725
Si Si5 0.750000 0.077664 0.302430
Si Si6 0.750000 0.414616 0.765945
Si Si7 0.250000 0.175187 0.145169
Si Si8 0.250000 0.220519 0.490084
O O1 0.930565 0.807557 0.127833
O O2 0.846136 0.684611 0.155834
O O3 0.026774 0.714506 0.280585
O O4 0.000000 0.695388 0.000000
O O5 0.840568 0.920462 0.189709
O O6 0.840106 0.868994 0.914988
O O7 0.000000 0.921077 0.000000
O O8 0.158345 0.618206 0.321606
O O9 0.155477 0.728195 0.497763
O O10 0.000000 0.638068 0.500000
O O11 0.750000 0.614539 0.936936
O O12 0.750000 0.749819 0.948560
O O13 0.750000 0.151469 0.399993
O O14 0.750000 0.000000 0.384291
O O15 0.750000 0.500000 0.762091
O O16 0.250000 0.191901 0.319048
#
# Coordination Sequence:
#
# PCOD9398635 Si02
#       8
#     8   8   8   4   4   4   4   4
#     4  10  17  32  62  92 115 139 194 253 295 332
#     4   9  18  33  58  84 108 144 190 246 289 343
#     4  11  22  36  60  89 114 155 203 248 290 346
#     4  10  17  34  58  89 120 149 190 240 293 345
#     4  11  24  38  53  82 120 158 193 238 304 364
#     4  11  23  40  57  82 126 163 189 239 304 360
#     4   9  16  31  57  83 107 139 191 241 287 331
#     4  11  20  37  58  84 120 153 197 248 298 350
#
# _framework density 19.024542
#
# number of rings (size 3 to 8) (size 9 to 14) (size 15 to 20)
#    0.000    1.818    3.636    3.818    0.000    2.182 
#    0.000    3.636    0.000   13.636    0.000    0.000 
#    0.000    0.000    0.000    0.000    0.000    0.000 
#
# Total GULP energy -245339.859084 kJ/mol
# GULP energy per Si atom -5575.905888 kJ/mol
# Density = 1.898124 g / cm^3
# Si number density = 19.024542 Si / 1000 Ang^3
#
#
#
# Elastic Constant Matrix: (Units=GPa)
#
#
# Indices 1 2 3 4 5 6 
#
# 1 164.0188 57.0819 41.4477 0.0000 0.0000 0.0000
# 2 57.0819 106.3171 27.9335 0.0000 0.0000 0.0000
# 3 41.4477 27.9335 71.9733 0.0000 0.0000 0.0000
# 4 0.0000 0.0000 0.0000 10.4411 0.0000 0.0000
# 5 0.0000 0.0000 0.0000 0.0000 28.8811 0.0000
# 6 0.0000 0.0000 0.0000 0.0000 0.0000 -7.2357
#
#
#
# Elastic Compliance Matrix: (Units=1/GPa)
#
#
# Indices 1 2 3 4 5 6 
#
# 1 0.008160 -0.003504 -0.003339 0.000000 0.000000 0.000000
# 2 -0.003504 0.011978 -0.002631 0.000000 0.000000 0.000000
# 3 -0.003339 -0.002631 0.016838 0.000000 0.000000 0.000000
# 4 0.000000 0.000000 0.000000 0.095776 0.000000 0.000000
# 5 0.000000 0.000000 0.000000 0.000000 0.034625 0.000000
# 6 0.000000 0.000000 0.000000 0.000000 0.000000 -0.138205
#
#
# Mechanical properties :
#
#
# Convention : Reuss Voigt Hill
#
# Bulk Modulus (GPa) = 55.46898 66.13728 60.80313
# Shear Modulus (GPa) = 92.36942 20.80704 56.58823
#
# Velocity S-wave (km/s) = 6.97554 3.31069 5.45980
# Velocity P-wave (km/s) = 9.70038 7.03235 8.47205
#
# Compressibility (1/GPa) = 0.01802810
#
# Stress axis : x y z
#
# Youngs Moduli (GPa) = 122.54714 83.48408 59.38858
#
# Poissons Ratio (x) = 0.29251 0.19832
# Poissons Ratio (y) = 0.42938 0.15626
# Poissons Ratio (z) = 0.40923 0.21966
#
# Static dielectric constant tensor:
#      x y z
#    x 1.715990 0.000000 0.000000 
#    y 0.000000 1.633800 0.000000 
#    z 0.000000 0.000000 1.692950 
# 
# From -- ./inp_files/8193.got.cif
#   From: 2010.05.17/outbox.cif.g08.bks.cpg/sg51_5_cif.got.tgz:8193.got - 2010.06.03 11:52:47.
