data_PCOD9398401
_publ_section_title
;
Structure prediction by ZEFSAII (Michael W. Deem and Ramdas Pophale) SiO2 
 PCOD9398401
Probable space group: P M M A
;
_chemical_formula_sum "Si O2"
_cell_formula_units_Z 64
_cell_length_a 31.120152
_cell_length_b 7.531313
_cell_length_c 15.216763
_cell_angle_alpha 90.000000
_cell_angle_beta 90.000000
_cell_angle_gamma 90.000000
_cell_volume 3566.438039
_symmetry_space_group_name_H-M "P M M A"
_symmetry_group_IT_number 51
_symmetry_cell_setting 'orthorhombic'
loop_
_space_group_symop_operation_xyz
x,y,z
1/2-x,-y,z
1/2+x,-y,-z
-x,y,-z
-x,-y,-z
1/2+x,y,-z
1/2-x,y,z
x,-y,z
loop_
_atom_site_type_symbol
_atom_site_label
_atom_site_fract_x
_atom_site_fract_y
_atom_site_fract_z
Si Si1 0.027364 0.785894 0.868061
Si Si2 0.702430 0.212500 0.495161
Si Si3 0.563606 0.782864 0.952294
Si Si4 0.701970 0.783128 0.696762
Si Si5 0.892097 0.287384 0.459759
Si Si6 0.563213 0.284332 0.638885
Si Si7 0.622002 0.208593 0.803504
Si Si8 0.532981 0.291231 0.334930
O O1 0.036920 0.726052 0.769896
O O2 0.980005 0.730086 0.901107
O O3 0.027345 0.000000 0.866431
O O4 0.059161 0.727856 0.946444
O O5 0.750000 0.276197 0.465154
O O6 0.695954 0.276325 0.595873
O O7 0.658226 0.250737 0.445044
O O8 0.705203 0.000000 0.498753
O O9 0.603325 0.718369 0.894320
O O10 0.563886 0.000000 0.951906
O O11 0.750000 0.734504 0.724393
O O12 0.664937 0.715364 0.760368
O O13 0.699754 0.000000 0.694883
O O14 0.895308 0.500000 0.462007
O O15 0.908964 0.223307 0.555143
O O16 0.925866 0.219187 0.387217
O O17 0.563082 0.500000 0.639353
O O18 0.585518 0.224749 0.728780
O O19 0.513836 0.220502 0.636288
O O20 0.630010 0.000000 0.818347
O O21 0.531138 0.500000 0.355983
#
# Coordination Sequence:
#
# PCOD9398401 Si02
#       8
#     8   8   8   8   8   8   8   8
#     4   9  16  29  45  62  85 111 144 184 222 260
#     4   9  17  30  47  67  90 113 142 184 227 260
#     4   8  15  26  43  65  86 109 140 180 222 261
#     4   8  14  24  40  63  88 111 136 172 214 254
#     4  10  20  32  45  62  88 122 154 181 217 263
#     4  10  19  30  42  60  89 121 150 181 216 253
#     4  10  16  26  46  65  85 115 148 176 210 263
#     4  10  20  32  44  61  88 121 154 187 219 255
#
# _framework density 17.945074000000002
#
# number of rings (size 3 to 8) (size 9 to 14) (size 15 to 20)
#    0.000    2.750    2.500    1.875    0.000    2.250 
#    0.000    1.875    0.000    2.625    0.000    0.875 
#    0.000    3.000    0.000    0.000    0.000    0.000 
#
# Total GULP energy -356724.041878 kJ/mol
# GULP energy per Si atom -5573.813154 kJ/mol
# Density = 1.790423 g / cm^3
# Si number density = 17.945074 Si / 1000 Ang^3
#
#
#
# Elastic Constant Matrix: (Units=GPa)
#
#
# Indices 1 2 3 4 5 6 
#
# 1 138.5922 -2.0847 37.7513 0.0000 0.0000 0.0000
# 2 -2.0847 41.7665 -8.7248 0.0000 0.0000 0.0000
# 3 37.7513 -8.7248 44.8010 0.0000 0.0000 0.0000
# 4 0.0000 0.0000 0.0000 8.7193 0.0000 0.0000
# 5 0.0000 0.0000 0.0000 0.0000 24.6174 0.0000
# 6 0.0000 0.0000 0.0000 0.0000 0.0000 8.5341
#
#
#
# Elastic Compliance Matrix: (Units=1/GPa)
#
#
# Indices 1 2 3 4 5 6 
#
# 1 0.009426 -0.001239 -0.008184 0.000000 0.000000 0.000000
# 2 -0.001239 0.025121 0.005936 0.000000 0.000000 0.000000
# 3 -0.008184 0.005936 0.030373 0.000000 0.000000 0.000000
# 4 0.000000 0.000000 0.000000 0.114688 0.000000 0.000000
# 5 0.000000 0.000000 0.000000 0.000000 0.040622 0.000000
# 6 0.000000 0.000000 0.000000 0.000000 0.000000 0.117177
#
#
# Mechanical properties :
#
#
# Convention : Reuss Voigt Hill
#
# Bulk Modulus (GPa) = 17.25736 31.00480 24.13108
# Shear Modulus (GPa) = 13.74775 21.58870 17.66822
#
# Velocity S-wave (km/s) = 2.77086 3.47225 3.14119
# Velocity P-wave (km/s) = 4.45808 5.77845 5.16067
#
# Compressibility (1/GPa) = 0.05794630
#
# Stress axis : x y z
#
# Youngs Moduli (GPa) = 106.08890 39.80759 32.92363
#
# Poissons Ratio (x) = 0.04933 0.26945
# Poissons Ratio (y) = 0.13146 -0.19544
# Poissons Ratio (z) = 0.86824 -0.23631
#
# Static dielectric constant tensor:
#      x y z
#    x 1.648270 0.000000 0.000000 
#    y 0.000000 1.684630 0.000000 
#    z 0.000000 0.000000 1.600600 
# 
# From -- ./inp_files/26635.got.cif
#   From: 2010.05.17/outbox.cif.g08.bks.cpg/sg51_14_cif.got.tgz:26635.got - 2010.06.03 11:52:47.
