data_PCOD9398463
_publ_section_title
;
Structure prediction by ZEFSAII (Michael W. Deem and Ramdas Pophale) SiO2 
 PCOD9398463
Probable space group: P M M A
;
_chemical_formula_sum "Si O2"
_cell_formula_units_Z 48
_cell_length_a 20.663721
_cell_length_b 8.535036
_cell_length_c 15.926701
_cell_angle_alpha 90.000000
_cell_angle_beta 90.000000
_cell_angle_gamma 90.000000
_cell_volume 2808.922220
_symmetry_space_group_name_H-M "P M M A"
_symmetry_group_IT_number 51
_symmetry_cell_setting 'orthorhombic'
loop_
_space_group_symop_operation_xyz
x,y,z
1/2-x,-y,z
1/2+x,-y,-z
-x,y,-z
-x,-y,-z
1/2+x,y,-z
1/2-x,y,z
x,-y,z
loop_
_atom_site_type_symbol
_atom_site_label
_atom_site_fract_x
_atom_site_fract_y
_atom_site_fract_z
Si Si1 0.433316 0.686077 0.402712
Si Si2 0.604845 0.312496 0.254543
Si Si3 0.544282 0.311229 0.779385
Si Si4 0.431593 0.811054 0.039627
Si Si5 0.921886 0.815082 0.425507
Si Si6 0.676127 0.189432 0.093184
O O1 0.424333 0.500000 0.409453
O O2 0.419918 0.737322 0.306958
O O3 0.398858 0.768229 0.481322
O O4 0.509752 0.725234 0.413040
O O5 0.605227 0.500000 0.262275
O O6 0.531484 0.262599 0.228164
O O7 0.619382 0.237724 0.345340
O O8 0.652097 0.257424 0.181468
O O9 0.544890 0.500000 0.781490
O O10 0.572819 0.246709 0.865211
O O11 0.432223 0.000000 0.040271
O O12 0.500000 0.757277 0.000000
O O13 0.373316 0.758771 0.979573
O O14 0.933706 0.000000 0.422675
O O15 0.750000 0.234260 0.075703
O O16 0.672774 0.000000 0.097959
#
# Coordination Sequence:
#
# PCOD9398463 Si02
#       6
#     8   8   8   8   8   8
#     4   9  16  27  40  62  96 128 159 196 241 286
#     4  10  19  31  47  68  95 128 163 199 243 293
#     4   9  18  29  45  69  96 128 161 200 245 290
#     4  10  19  31  49  72  95 125 165 205 247 297
#     4  10  17  25  41  65  93 127 161 193 237 288
#     4  10  21  36  51  70  98 129 162 205 251 295
#
# _framework density 17.088404000000001
#
# number of rings (size 3 to 8) (size 9 to 14) (size 15 to 20)
#    0.000    2.333    1.667    4.500    0.000    4.667 
#    0.000    0.000    0.000    0.000    0.000    1.167 
#    0.000    4.000    0.000    0.000    0.000    0.000 
#
# Total GULP energy -267495.948199 kJ/mol
# GULP energy per Si atom -5572.832254 kJ/mol
# Density = 1.704951 g / cm^3
# Si number density = 17.088404 Si / 1000 Ang^3
#
#
#
# Elastic Constant Matrix: (Units=GPa)
#
#
# Indices 1 2 3 4 5 6 
#
# 1 65.1691 15.9563 55.1621 0.0000 0.0000 0.0000
# 2 15.9563 11.6040 22.2240 0.0000 0.0000 0.0000
# 3 55.1621 22.2240 183.5716 0.0000 0.0000 0.0000
# 4 0.0000 0.0000 0.0000 50.3480 0.0000 0.0000
# 5 0.0000 0.0000 0.0000 0.0000 14.5307 0.0000
# 6 0.0000 0.0000 0.0000 0.0000 0.0000 7.9475
#
#
#
# Elastic Compliance Matrix: (Units=1/GPa)
#
#
# Indices 1 2 3 4 5 6 
#
# 1 0.025683 -0.026734 -0.004481 0.000000 0.000000 0.000000
# 2 -0.026734 0.140017 -0.008918 0.000000 0.000000 0.000000
# 3 -0.004481 -0.008918 0.007874 0.000000 0.000000 0.000000
# 4 0.000000 0.000000 0.000000 0.019862 0.000000 0.000000
# 5 0.000000 0.000000 0.000000 0.000000 0.068820 0.000000
# 6 0.000000 0.000000 0.000000 0.000000 0.000000 0.125825
#
#
# Mechanical properties :
#
#
# Convention : Reuss Voigt Hill
#
# Bulk Modulus (GPa) = 10.71715 49.66992 30.19354
# Shear Modulus (GPa) = 10.01103 25.69875 17.85489
#
# Velocity S-wave (km/s) = 2.42303 3.88218 3.23593
# Velocity P-wave (km/s) = 3.75677 7.01603 5.62752
#
# Compressibility (1/GPa) = 0.09330835
#
# Stress axis : x y z
#
# Youngs Moduli (GPa) = 38.93554 7.14199 127.00607
#
# Poissons Ratio (x) = 0.19093 0.56914
# Poissons Ratio (y) = 1.04091 1.13260
# Poissons Ratio (z) = 0.17448 0.06369
#
# Static dielectric constant tensor:
#      x y z
#    x 1.559540 0.000000 0.000000 
#    y 0.000000 1.576920 0.000000 
#    z 0.000000 0.000000 1.628410 
# 
# From -- ./inp_files/25479.got.cif
#   From: 2010.05.17/outbox.cif.g08.bks.cpg/sg51_13_cif.got.tgz:25479.got - 2010.06.03 11:52:47.
