data_PCOD9398566
_publ_section_title
;
Structure prediction by ZEFSAII (Michael W. Deem and Ramdas Pophale) SiO2 
 PCOD9398566
Probable space group: P M M A
;
_chemical_formula_sum "Si O2"
_cell_formula_units_Z 40
_cell_length_a 20.661377
_cell_length_b 8.761563
_cell_length_c 13.137844
_cell_angle_alpha 90.000000
_cell_angle_beta 90.000000
_cell_angle_gamma 90.000000
_cell_volume 2378.290773
_symmetry_space_group_name_H-M "P M M A"
_symmetry_group_IT_number 51
_symmetry_cell_setting 'orthorhombic'
loop_
_space_group_symop_operation_xyz
x,y,z
1/2-x,-y,z
1/2+x,-y,-z
-x,y,-z
-x,-y,-z
1/2+x,y,-z
1/2-x,y,z
x,-y,z
loop_
_atom_site_type_symbol
_atom_site_label
_atom_site_fract_x
_atom_site_fract_y
_atom_site_fract_z
Si Si1 0.930180 0.184413 0.547506
Si Si2 0.176738 0.185925 0.616577
Si Si3 0.452046 0.316508 0.235775
Si Si4 0.922010 0.676950 0.982887
Si Si5 0.593767 0.182096 0.191952
O O1 0.873300 0.233431 0.471181
O O2 0.000000 0.227308 0.500000
O O3 0.924033 0.254322 0.659283
O O4 0.929402 0.000000 0.555151
O O5 0.250000 0.239666 0.601934
O O6 0.147377 0.229981 0.726000
O O7 0.177608 0.000000 0.614686
O O8 0.453909 0.500000 0.235359
O O9 0.413900 0.268044 0.133075
O O10 0.525335 0.255088 0.224826
O O11 0.902470 0.500000 0.990468
O O12 0.892069 0.768685 0.076346
O O13 0.000000 0.682304 0.000000
O O14 0.586574 0.000000 0.196927
#
# Coordination Sequence:
#
# PCOD9398566 Si02
#       5
#     8   8   8   8   8
#     4  10  18  31  50  73  97 123 164 207 239 282
#     4   9  18  32  49  70  99 130 156 195 252 296
#     4  10  19  30  46  70 100 130 158 195 246 290
#     4   8  16  29  43  65  97 127 153 187 236 287
#     4  10  17  28  48  72  96 123 161 200 238 287
#
# _framework density 16.818801000000001
#
# number of rings (size 3 to 8) (size 9 to 14) (size 15 to 20)
#    0.000    2.600    2.000    2.400    0.000    4.800 
#    0.000    0.000    0.000    6.600    0.000    8.400 
#    0.000    0.000    0.000    0.000    0.000    0.000 
#
# Total GULP energy -222873.404183 kJ/mol
# GULP energy per Si atom -5571.835105 kJ/mol
# Density = 1.678052 g / cm^3
# Si number density = 16.818801 Si / 1000 Ang^3
#
#
#
# Elastic Constant Matrix: (Units=GPa)
#
#
# Indices 1 2 3 4 5 6 
#
# 1 92.1903 20.0575 72.3392 0.0000 0.0000 0.0000
# 2 20.0575 24.1981 36.6983 0.0000 0.0000 0.0000
# 3 72.3392 36.6983 187.6376 0.0000 0.0000 0.0000
# 4 0.0000 0.0000 0.0000 16.4377 0.0000 0.0000
# 5 0.0000 0.0000 0.0000 0.0000 16.9045 0.0000
# 6 0.0000 0.0000 0.0000 0.0000 0.0000 -4.5574
#
#
#
# Elastic Compliance Matrix: (Units=1/GPa)
#
#
# Indices 1 2 3 4 5 6 
#
# 1 0.016064 -0.005577 -0.005102 0.000000 0.000000 0.000000
# 2 -0.005577 0.060689 -0.009719 0.000000 0.000000 0.000000
# 3 -0.005102 -0.009719 0.009197 0.000000 0.000000 0.000000
# 4 0.000000 0.000000 0.000000 0.060836 0.000000 0.000000
# 5 0.000000 0.000000 0.000000 0.000000 0.059156 0.000000
# 6 0.000000 0.000000 0.000000 0.000000 0.000000 -0.219422
#
#
# Mechanical properties :
#
#
# Convention : Reuss Voigt Hill
#
# Bulk Modulus (GPa) = 22.14726 62.46843 42.30784
# Shear Modulus (GPa) = 118.01105 17.41903 67.71504
#
# Velocity S-wave (km/s) = 8.38561 3.22170 6.35208
# Velocity P-wave (km/s) = 10.34189 7.14575 8.88866
#
# Compressibility (1/GPa) = 0.04515232
#
# Stress axis : x y z
#
# Youngs Moduli (GPa) = 62.25001 16.47755 108.72592
#
# Poissons Ratio (x) = 0.09190 0.55476
# Poissons Ratio (y) = 0.34719 1.05674
# Poissons Ratio (z) = 0.31762 0.16015
#
# Static dielectric constant tensor:
#      x y z
#    x 1.545810 0.000000 0.000000 
#    y 0.000000 1.565740 0.000000 
#    z 0.000000 0.000000 1.598520 
# 
# From -- ./inp_files/17887.got.cif
#   From: 2010.05.17/outbox.cif.g08.bks.cpg/sg51_9_cif.got.tgz:17887.got - 2010.06.03 11:52:47.
