data_PCOD9398235
_publ_section_title
;
Structure prediction by ZEFSAII (Michael W. Deem and Ramdas Pophale) SiO2 
 PCOD9398235
Probable space group: P B A N
;
_chemical_formula_sum "Si O2"
_cell_formula_units_Z 32
_cell_length_a 13.590985
_cell_length_b 8.588934
_cell_length_c 10.589827
_cell_angle_alpha 90.000000
_cell_angle_beta 90.000000
_cell_angle_gamma 90.000000
_cell_volume 1236.172460
_symmetry_space_group_name_H-M "P B A N"
_symmetry_group_IT_number 50
_space_group.IT_coordinate_system_code '2'
_symmetry_cell_setting 'orthorhombic'
loop_
_space_group_symop_operation_xyz
x,y,z
1/2-x,1/2-y,z
x,1/2-y,-z
1/2-x,y,-z
-x,-y,-z
1/2+x,1/2+y,-z
-x,1/2+y,z
1/2+x,-y,z
loop_
_atom_site_type_symbol
_atom_site_label
_atom_site_fract_x
_atom_site_fract_y
_atom_site_fract_z
Si Si1 0.091960 0.250000 0.000000
Si Si2 0.881675 0.010834 0.340525
Si Si3 0.716178 0.511308 0.830801
Si Si4 0.530097 0.314400 0.755602
Si Si5 0.750000 0.250000 0.500000
Si Si6 0.750000 0.250000 0.000000
O O1 0.160680 0.370439 0.923005
O O2 0.024138 0.171488 0.892166
O O3 0.948753 0.133514 0.263251
O O4 0.823413 0.129085 0.430453
O O5 0.793433 0.922569 0.267321
O O6 0.962269 0.876458 0.359109
O O7 0.631141 0.410406 0.764459
O O8 0.784629 0.380915 0.901583
#
# Coordination Sequence:
#
# PCOD9398235 Si02
#       6
#     4   8   8   8   2   2
#     4  12  27  41  74 114 164 192 240 274 382 438
#     4  12  27  47  79 100 151 185 265 298 382 419
#     4  12  24  44  65 109 150 204 230 298 350 459
#     4  12  24  47  69 116 149 200 236 302 348 477
#     4  12  26  56  80 104 126 212 242 342 380 410
#     4  12  20  34  66  90 148 204 228 256 362 428
#
# _framework density 25.886357
#
# number of rings (size 3 to 8) (size 9 to 14) (size 15 to 20)
#    0.000    0.000    7.500    3.000    0.000    5.500 
#    0.000    0.000    0.000    6.000    0.000    0.000 
#    0.000    0.000    0.000    0.000    0.000    0.000 
#
# Total GULP energy -178439.904783 kJ/mol
# GULP energy per Si atom -5576.247024 kJ/mol
# Density = 2.582744 g / cm^3
# Si number density = 25.886357 Si / 1000 Ang^3
#
#
#
# Elastic Constant Matrix: (Units=GPa)
#
#
# Indices 1 2 3 4 5 6 
#
# 1 117.1856 44.7250 27.5248 0.0000 0.0000 0.0000
# 2 44.7250 92.1766 21.6801 0.0000 0.0000 0.0000
# 3 27.5248 21.6801 45.7841 0.0000 0.0000 0.0000
# 4 0.0000 0.0000 0.0000 36.1970 0.0000 0.0000
# 5 0.0000 0.0000 0.0000 0.0000 25.6765 0.0000
# 6 0.0000 0.0000 0.0000 0.0000 0.0000 45.7303
#
#
#
# Elastic Compliance Matrix: (Units=1/GPa)
#
#
# Indices 1 2 3 4 5 6 
#
# 1 0.011315 -0.004378 -0.004730 0.000000 0.000000 0.000000
# 2 -0.004378 0.013902 -0.003951 0.000000 0.000000 0.000000
# 3 -0.004730 -0.003951 0.026556 0.000000 0.000000 0.000000
# 4 0.000000 0.000000 0.000000 0.027627 0.000000 0.000000
# 5 0.000000 0.000000 0.000000 0.000000 0.038946 0.000000
# 6 0.000000 0.000000 0.000000 0.000000 0.000000 0.021867
#
#
# Mechanical properties :
#
#
# Convention : Reuss Voigt Hill
#
# Bulk Modulus (GPa) = 38.97679 49.22289 44.09984
# Shear Modulus (GPa) = 28.59060 32.26852 30.42956
#
# Velocity S-wave (km/s) = 3.32696 3.53448 3.43228
# Velocity P-wave (km/s) = 5.46331 5.97603 5.72541
#
# Compressibility (1/GPa) = 0.02565629
#
# Stress axis : x y z
#
# Youngs Moduli (GPa) = 88.37667 71.93074 37.65631
#
# Poissons Ratio (x) = 0.31490 0.17810
# Poissons Ratio (y) = 0.38690 0.14879
# Poissons Ratio (z) = 0.41798 0.28421
#
# Static dielectric constant tensor:
#      x y z
#    x 2.109070 0.000000 0.000000 
#    y 0.000000 2.009500 0.000000 
#    z 0.000000 0.000000 2.232680 
# 
# From -- ./inp_files/18438.got.cif
#   From: 2010.05.17/outbox.cif.g08.bks.cpg/sg50_10_cif.got.tgz:18438.got - 2010.06.03 11:33:33.
