data_PCOD9398376
_publ_section_title
;
Structure prediction by ZEFSAII (Michael W. Deem and Ramdas Pophale) SiO2 
 PCOD9398376
Probable space group: P M M A
;
_chemical_formula_sum "Si O2"
_cell_formula_units_Z 24
_cell_length_a 8.709627
_cell_length_b 16.334120
_cell_length_c 9.216854
_cell_angle_alpha 90.000000
_cell_angle_beta 90.000000
_cell_angle_gamma 90.000000
_cell_volume 1311.227371
_symmetry_space_group_name_H-M "P M M A"
_symmetry_group_IT_number 51
_symmetry_cell_setting 'orthorhombic'
loop_
_space_group_symop_operation_xyz
x,y,z
1/2-x,-y,z
1/2+x,-y,-z
-x,y,-z
-x,-y,-z
1/2+x,y,-z
1/2-x,y,z
x,-y,z
loop_
_atom_site_type_symbol
_atom_site_label
_atom_site_fract_x
_atom_site_fract_y
_atom_site_fract_z
Si Si1 0.933523 0.666049 0.163652
Si Si2 0.566794 0.000000 0.660914
Si Si3 0.565804 0.152250 0.163168
Si Si4 0.432902 0.500000 0.165062
O O1 0.750000 0.656006 0.157174
O O2 0.968392 0.756404 0.224462
O O3 0.006720 0.584858 0.232986
O O4 0.000000 0.669411 0.000000
O O5 0.500000 0.000000 0.500000
O O6 0.506618 0.080261 0.743744
O O7 0.750000 0.000000 0.658317
O O8 0.750000 0.143486 0.157303
O O9 0.500000 0.147293 0.000000
O O10 0.250000 0.500000 0.158218
O O11 0.500000 0.500000 0.000000
#
# Coordination Sequence:
#
# PCOD9398376 Si02
#       4
#     8   4   8   4
#     4   9  16  26  42  65  96 131 166 204 246 294
#     4  12  25  40  57  76 102 134 170 214 261 312
#     4  10  20  35  55  79 106 137 174 214 257 305
#     4  10  16  22  36  60  95 132 165 202 245 294
#
# _framework density 18.303462
#
# number of rings (size 3 to 8) (size 9 to 14) (size 15 to 20)
#    0.000    2.000    0.000    7.500    0.000    4.000 
#    0.000    0.000    0.000    0.000    0.000    1.167 
#    0.000    0.000    0.000    0.000    0.000    0.000 
#
# Total GULP energy -133834.419263 kJ/mol
# GULP energy per Si atom -5576.434136 kJ/mol
# Density = 1.826180 g / cm^3
# Si number density = 18.303462 Si / 1000 Ang^3
#
#
#
# Elastic Constant Matrix: (Units=GPa)
#
#
# Indices 1 2 3 4 5 6 
#
# 1 139.1832 103.2523 28.2513 0.0000 0.0000 0.0000
# 2 103.2523 235.6479 58.3160 0.0000 0.0000 0.0000
# 3 28.2513 58.3160 43.5981 0.0000 0.0000 0.0000
# 4 0.0000 0.0000 0.0000 -6.1087 0.0000 0.0000
# 5 0.0000 0.0000 0.0000 0.0000 18.8143 0.0000
# 6 0.0000 0.0000 0.0000 0.0000 0.0000 28.7266
#
#
#
# Elastic Compliance Matrix: (Units=1/GPa)
#
#
# Indices 1 2 3 4 5 6 
#
# 1 0.010673 -0.004432 -0.000988 0.000000 0.000000 0.000000
# 2 -0.004432 0.008184 -0.008075 0.000000 0.000000 0.000000
# 3 -0.000988 -0.008075 0.034377 0.000000 0.000000 0.000000
# 4 0.000000 0.000000 0.000000 -0.163700 0.000000 0.000000
# 5 0.000000 0.000000 0.000000 0.000000 0.053151 0.000000
# 6 0.000000 0.000000 0.000000 0.000000 0.000000 0.034811
#
#
# Mechanical properties :
#
#
# Convention : Reuss Voigt Hill
#
# Bulk Modulus (GPa) = 38.10213 88.67429 63.38821
# Shear Modulus (GPa) = 377.81276 23.52706 200.66991
#
# Velocity S-wave (km/s) = 14.38277 3.58912 10.48203
# Velocity P-wave (km/s) = 17.22443 8.10726 13.46121
#
# Compressibility (1/GPa) = 0.02624525
#
# Stress axis : x y z
#
# Youngs Moduli (GPa) = 93.69198 122.19181 29.08906
#
# Poissons Ratio (x) = 0.54158 0.02873
# Poissons Ratio (y) = 0.41526 0.23488
# Poissons Ratio (z) = 0.09255 0.98664
#
# Static dielectric constant tensor:
#      x y z
#    x 1.605290 0.000000 0.000000 
#    y 0.000000 1.712670 0.000000 
#    z 0.000000 0.000000 1.567320 
# 
# From -- ./inp_files/4584.got.cif
#   From: 2010.05.17/outbox.cif.g08.bks.cpg/sg51_3_cif.got.tgz:4584.got - 2010.06.03 11:52:47.
