data_PCOD9398549
_publ_section_title
;
Structure prediction by ZEFSAII (Michael W. Deem and Ramdas Pophale) SiO2 
 PCOD9398549
Probable space group: P M M A
;
_chemical_formula_sum "Si O2"
_cell_formula_units_Z 56
_cell_length_a 17.170741
_cell_length_b 13.121289
_cell_length_c 16.655446
_cell_angle_alpha 90.000000
_cell_angle_beta 90.000000
_cell_angle_gamma 90.000000
_cell_volume 3752.509542
_symmetry_space_group_name_H-M "P M M A"
_symmetry_group_IT_number 51
_symmetry_cell_setting 'orthorhombic'
loop_
_space_group_symop_operation_xyz
x,y,z
1/2-x,-y,z
1/2+x,-y,-z
-x,y,-z
-x,-y,-z
1/2+x,y,-z
1/2-x,y,z
x,-y,z
loop_
_atom_site_type_symbol
_atom_site_label
_atom_site_fract_x
_atom_site_fract_y
_atom_site_fract_z
Si Si1 0.660382 0.386124 0.494991
Si Si2 0.986377 0.376662 0.089903
Si Si3 0.161025 0.771266 0.358911
Si Si4 0.919033 0.618477 0.753323
Si Si5 0.991997 0.882987 0.596448
Si Si6 0.161818 0.622926 0.809218
Si Si7 0.928851 0.684368 0.341499
O O1 0.750000 0.379947 0.464993
O O2 0.648757 0.500000 0.527799
O O3 0.652010 0.304053 0.564734
O O4 0.601373 0.365922 0.423024
O O5 0.986041 0.500000 0.086421
O O6 0.902637 0.346209 0.125588
O O7 0.050862 0.352278 0.157566
O O8 0.000000 0.338048 0.000000
O O9 0.250000 0.807938 0.355886
O O10 0.141110 0.699444 0.282846
O O11 0.095162 0.856010 0.373248
O O12 0.893485 0.500000 0.752895
O O13 0.995505 0.629374 0.696311
O O14 0.000000 0.869161 0.500000
O O15 0.046800 0.799725 0.638602
O O16 0.011325 0.000000 0.614548
O O17 0.250000 0.646568 0.832146
O O18 0.155750 0.500000 0.798227
O O19 0.137394 0.673545 0.725514
#
# Coordination Sequence:
#
# PCOD9398549 Si02
#       7
#     8   8   8   8   8   8   8
#     4  10  18  26  39  61  89 119 147 176 210 251
#     4   8  14  26  42  61  89 125 161 185 204 246
#     4  10  20  32  44  62  87 115 148 185 221 258
#     4   9  17  27  42  63  88 119 148 177 218 259
#     4  10  20  35  49  61  79 109 152 195 229 264
#     4   9  16  26  43  67  95 123 149 182 223 262
#     4  10  17  28  44  63  84 114 148 186 221 262
#
# _framework density 14.923344999999999
#
# number of rings (size 3 to 8) (size 9 to 14) (size 15 to 20)
#    0.000    2.571    1.429    3.000    0.000    2.286 
#    0.000    2.857    0.000    4.286    0.000    0.000 
#    0.000   46.286    0.000    5.143    0.000    0.000 
#
# Total GULP energy -311965.465268 kJ/mol
# GULP energy per Si atom -5570.811880 kJ/mol
# Density = 1.488938 g / cm^3
# Si number density = 14.923345 Si / 1000 Ang^3
#
#
#
# Elastic Constant Matrix: (Units=GPa)
#
#
# Indices 1 2 3 4 5 6 
#
# 1 41.9763 5.0804 20.0768 0.0000 0.0000 0.0000
# 2 5.0804 47.6697 8.5680 0.0000 0.0000 0.0000
# 3 20.0768 8.5680 72.9268 0.0000 0.0000 0.0000
# 4 0.0000 0.0000 0.0000 2.7650 0.0000 0.0000
# 5 0.0000 0.0000 0.0000 0.0000 10.8929 0.0000
# 6 0.0000 0.0000 0.0000 0.0000 0.0000 12.8920
#
#
#
# Elastic Compliance Matrix: (Units=1/GPa)
#
#
# Indices 1 2 3 4 5 6 
#
# 1 0.027555 -0.001607 -0.007397 0.000000 0.000000 0.000000
# 2 -0.001607 0.021524 -0.002086 0.000000 0.000000 0.000000
# 3 -0.007397 -0.002086 0.015994 0.000000 0.000000 0.000000
# 4 0.000000 0.000000 0.000000 0.361657 0.000000 0.000000
# 5 0.000000 0.000000 0.000000 0.000000 0.091803 0.000000
# 6 0.000000 0.000000 0.000000 0.000000 0.000000 0.077567
#
#
# Mechanical properties :
#
#
# Convention : Reuss Voigt Hill
#
# Bulk Modulus (GPa) = 23.31441 25.55812 24.43627
# Shear Modulus (GPa) = 7.90414 13.89985 10.90200
#
# Velocity S-wave (km/s) = 2.30391 3.05522 2.70577
# Velocity P-wave (km/s) = 4.76802 5.44144 5.11582
#
# Compressibility (1/GPa) = 0.04289194
#
# Stress axis : x y z
#
# Youngs Moduli (GPa) = 36.29046 46.45988 62.52369
#
# Poissons Ratio (x) = 0.07467 0.46250
# Poissons Ratio (y) = 0.05833 0.13044
# Poissons Ratio (z) = 0.26845 0.09693
#
# Static dielectric constant tensor:
#      x y z
#    x 1.524010 0.000000 0.000000 
#    y 0.000000 1.467300 0.000000 
#    z 0.000000 0.000000 1.495310 
# 
# From -- ./inp_files/30231.got.cif
#   From: 2010.05.17/outbox.cif.g08.bks.cpg/sg51_16_cif.got.tgz:30231.got - 2010.06.03 11:52:47.
