data_PCOD9398075
_publ_section_title
;
Structure prediction by ZEFSAII (Michael W. Deem and Ramdas Pophale) SiO2 
 PCOD9398075
Probable space group: P B A N
;
_chemical_formula_sum "Si O2"
_cell_formula_units_Z 28
_cell_length_a 11.470365
_cell_length_b 19.521735
_cell_length_c 5.628468
_cell_angle_alpha 90.000000
_cell_angle_beta 90.000000
_cell_angle_gamma 90.000000
_cell_volume 1260.334580
_symmetry_space_group_name_H-M "P B A N"
_symmetry_group_IT_number 50
_space_group.IT_coordinate_system_code '2'
_symmetry_cell_setting 'orthorhombic'
loop_
_space_group_symop_operation_xyz
x,y,z
1/2-x,1/2-y,z
x,1/2-y,-z
1/2-x,y,-z
-x,-y,-z
1/2+x,1/2+y,-z
-x,1/2+y,z
1/2+x,-y,z
loop_
_atom_site_type_symbol
_atom_site_label
_atom_site_fract_x
_atom_site_fract_y
_atom_site_fract_z
Si Si1 0.119675 0.405306 0.445760
Si Si2 0.062356 0.543857 0.202070
Si Si3 0.963869 0.289395 0.244505
Si Si4 0.250000 0.853661 0.000000
O O1 0.250000 0.381555 0.500000
O O2 0.121041 0.483998 0.357986
O O3 0.037661 0.412020 0.673634
O O4 0.049599 0.354459 0.273277
O O5 0.160045 0.596866 0.129881
O O6 0.000000 0.500000 0.000000
O O7 0.969222 0.250000 0.500000
O O8 0.831278 0.312741 0.185159
O O9 0.997827 0.250000 0.000000
#
# Coordination Sequence:
#
# PCOD9398075 Si02
#       4
#     8   8   8   4
#     4  11  26  46  73 108 152 197 249 310 383 458
#     4  11  23  45  73 114 146 187 243 319 389 441
#     4  12  29  52  75 110 154 208 257 307 373 457
#     4  12  25  48  80 108 147 186 252 320 372 442
#
# _framework density 22.216324
#
# number of rings (size 3 to 8) (size 9 to 14) (size 15 to 20)
#    0.000    0.571    2.857    3.857    4.000    7.429 
#    0.000    4.286    0.000    0.000    0.000    0.000 
#    0.000    0.000    0.000    0.000    0.000    0.000 
#
# Total GULP energy -156509.583119 kJ/mol
# GULP energy per Si atom -5589.627969 kJ/mol
# Density = 2.216576 g / cm^3
# Si number density = 22.216324 Si / 1000 Ang^3
#
#
#
# Elastic Constant Matrix: (Units=GPa)
#
#
# Indices 1 2 3 4 5 6 
#
# 1 150.4177 66.6270 63.0865 0.0000 0.0000 0.0000
# 2 66.6270 103.2329 53.9276 0.0000 0.0000 0.0000
# 3 63.0865 53.9276 121.3828 0.0000 0.0000 0.0000
# 4 0.0000 0.0000 0.0000 59.4380 0.0000 0.0000
# 5 0.0000 0.0000 0.0000 0.0000 26.3924 0.0000
# 6 0.0000 0.0000 0.0000 0.0000 0.0000 55.9123
#
#
#
# Elastic Compliance Matrix: (Units=1/GPa)
#
#
# Indices 1 2 3 4 5 6 
#
# 1 0.010118 -0.004926 -0.003070 0.000000 0.000000 0.000000
# 2 -0.004926 0.015013 -0.004110 0.000000 0.000000 0.000000
# 3 -0.003070 -0.004110 0.011660 0.000000 0.000000 0.000000
# 4 0.000000 0.000000 0.000000 0.016824 0.000000 0.000000
# 5 0.000000 0.000000 0.000000 0.000000 0.037890 0.000000
# 6 0.000000 0.000000 0.000000 0.000000 0.000000 0.017885
#
#
# Mechanical properties :
#
#
# Convention : Reuss Voigt Hill
#
# Bulk Modulus (GPa) = 79.49792 82.47952 80.98872
# Shear Modulus (GPa) = 36.28590 41.10801 38.69695
#
# Velocity S-wave (km/s) = 4.04579 4.30624 4.17805
# Velocity P-wave (km/s) = 7.59512 7.86963 7.73360
#
# Compressibility (1/GPa) = 0.01257895
#
# Stress axis : x y z
#
# Youngs Moduli (GPa) = 98.83536 66.60810 85.76547
#
# Poissons Ratio (x) = 0.32814 0.26329
# Poissons Ratio (y) = 0.48691 0.35246
# Poissons Ratio (z) = 0.30341 0.27373
#
# Static dielectric constant tensor:
#      x y z
#    x 1.731260 0.000000 0.000000 
#    y 0.000000 2.049870 0.000000 
#    z 0.000000 0.000000 1.883910 
# 
# From -- ./inp_files/1865.got.cif
#   From: 2010.05.17/outbox.cif.g08.bks.cpg/sg50_1_cif.got.tgz:1865.got - 2010.06.03 11:33:33.
