data_PCOD9398939
_publ_section_title
;
Structure prediction by ZEFSAII (Michael W. Deem and Ramdas Pophale) SiO2 
 PCOD9398939
Probable space group: P M M A
;
_chemical_formula_sum "Si O2"
_cell_formula_units_Z 64
_cell_length_a 30.865635
_cell_length_b 7.573675
_cell_length_c 15.560467
_cell_angle_alpha 90.000000
_cell_angle_beta 90.000000
_cell_angle_gamma 90.000000
_cell_volume 3637.512613
_symmetry_space_group_name_H-M "P M M A"
_symmetry_group_IT_number 51
_symmetry_cell_setting 'orthorhombic'
loop_
_space_group_symop_operation_xyz
x,y,z
1/2-x,-y,z
1/2+x,-y,-z
-x,y,-z
-x,-y,-z
1/2+x,y,-z
1/2-x,y,z
x,-y,z
loop_
_atom_site_type_symbol
_atom_site_label
_atom_site_fract_x
_atom_site_fract_y
_atom_site_fract_z
Si Si1 0.887887 0.205624 0.214918
Si Si2 0.701856 0.715171 0.493149
Si Si3 0.202156 0.286930 0.707043
Si Si4 0.555210 0.704413 0.376853
Si Si5 0.031685 0.212270 0.123894
Si Si6 0.608271 0.716742 0.542602
Si Si7 0.937147 0.214972 0.053968
Si Si8 0.961551 0.709969 0.677770
O O1 0.837727 0.223387 0.237140
O O2 0.916079 0.290785 0.290745
O O3 0.900625 0.273784 0.120651
O O4 0.900074 0.000000 0.217927
O O5 0.750000 0.773541 0.521765
O O6 0.702422 0.500000 0.495344
O O7 0.696668 0.765681 0.392770
O O8 0.658393 0.774452 0.541136
O O9 0.250000 0.229267 0.735300
O O10 0.201178 0.500000 0.707999
O O11 0.547860 0.500000 0.400137
O O12 0.583251 0.777110 0.456019
O O13 0.507836 0.782400 0.356350
O O14 0.042405 0.264662 0.220377
O O15 0.982885 0.266280 0.097740
O O16 0.031878 0.000000 0.122684
O O17 0.061753 0.275441 0.044908
O O18 0.609641 0.500000 0.541342
O O19 0.579145 0.775443 0.622755
O O20 0.936128 0.000000 0.050125
O O21 0.963025 0.500000 0.663694
#
# Coordination Sequence:
#
# PCOD9398939 Si02
#       8
#     8   8   8   8   8   8   8   8
#     4  11  19  28  45  68  91 114 148 188 222 255
#     4   8  13  23  42  64  82 107 146 182 208 249
#     4   9  17  30  47  66  89 118 150 179 215 268
#     4  10  18  29  42  59  88 125 155 175 209 263
#     4   9  16  31  48  60  82 116 149 179 216 264
#     4   9  16  27  42  60  87 120 150 179 215 264
#     4   8  16  29  46  63  82 115 150 176 213 266
#     4  10  19  28  42  65  89 115 150 191 224 252
#
# _framework density 17.594439999999999
#
# number of rings (size 3 to 8) (size 9 to 14) (size 15 to 20)
#    0.000    2.750    2.500    2.250    0.000    1.750 
#    0.000    3.125    0.000    1.500    0.000    0.875 
#    0.000    3.000    0.000    0.000    0.000    0.000 
#
# Total GULP energy -356690.589019 kJ/mol
# GULP energy per Si atom -5573.290453 kJ/mol
# Density = 1.755439 g / cm^3
# Si number density = 17.594440 Si / 1000 Ang^3
#
#
#
# Elastic Constant Matrix: (Units=GPa)
#
#
# Indices 1 2 3 4 5 6 
#
# 1 154.6037 0.6920 84.6864 0.0000 0.0000 0.0000
# 2 0.6920 35.8676 -0.3548 0.0000 0.0000 0.0000
# 3 84.6864 -0.3548 104.0795 0.0000 0.0000 0.0000
# 4 0.0000 0.0000 0.0000 16.5634 0.0000 0.0000
# 5 0.0000 0.0000 0.0000 0.0000 24.7659 0.0000
# 6 0.0000 0.0000 0.0000 0.0000 0.0000 7.4063
#
#
#
# Elastic Compliance Matrix: (Units=1/GPa)
#
#
# Indices 1 2 3 4 5 6 
#
# 1 0.011673 -0.000319 -0.009499 0.000000 0.000000 0.000000
# 2 -0.000319 0.027890 0.000355 0.000000 0.000000 0.000000
# 3 -0.009499 0.000355 0.017338 0.000000 0.000000 0.000000
# 4 0.000000 0.000000 0.000000 0.060374 0.000000 0.000000
# 5 0.000000 0.000000 0.000000 0.000000 0.040378 0.000000
# 6 0.000000 0.000000 0.000000 0.000000 0.000000 0.135021
#
#
# Mechanical properties :
#
#
# Convention : Reuss Voigt Hill
#
# Bulk Modulus (GPa) = 26.33352 51.62199 38.97776
# Shear Modulus (GPa) = 15.41981 23.71561 19.56771
#
# Velocity S-wave (km/s) = 2.96362 3.67536 3.33851
# Velocity P-wave (km/s) = 5.16819 6.88583 6.08789
#
# Compressibility (1/GPa) = 0.03797442
#
# Stress axis : x y z
#
# Youngs Moduli (GPa) = 85.67015 35.85514 57.67637
#
# Poissons Ratio (x) = 0.01144 0.54786
# Poissons Ratio (y) = 0.02734 -0.02046
# Poissons Ratio (z) = 0.81376 -0.01272
#
# Static dielectric constant tensor:
#      x y z
#    x 1.609640 0.000000 0.000000 
#    y 0.000000 1.679010 0.000000 
#    z 0.000000 0.000000 1.592690 
# 
# From -- ./inp_files/26639.got.cif
#   From: 2010.05.17/outbox.cif.g08.bks.cpg/sg51_14_cif.got.tgz:26639.got - 2010.06.03 11:52:47.
