data_PCOD9398438
_publ_section_title
;
Structure prediction by ZEFSAII (Michael W. Deem and Ramdas Pophale) SiO2 
 PCOD9398438
Probable space group: P M M A
;
_chemical_formula_sum "Si O2"
_cell_formula_units_Z 64
_cell_length_a 14.869763
_cell_length_b 9.285268
_cell_length_c 21.532766
_cell_angle_alpha 90.000000
_cell_angle_beta 90.000000
_cell_angle_gamma 90.000000
_cell_volume 2973.023286
_symmetry_space_group_name_H-M "P M M A"
_symmetry_group_IT_number 51
_symmetry_cell_setting 'orthorhombic'
loop_
_space_group_symop_operation_xyz
x,y,z
1/2-x,-y,z
1/2+x,-y,-z
-x,y,-z
-x,-y,-z
1/2+x,y,-z
1/2-x,y,z
x,-y,z
loop_
_atom_site_type_symbol
_atom_site_label
_atom_site_fract_x
_atom_site_fract_y
_atom_site_fract_z
Si Si1 0.609634 0.835337 0.492626
Si Si2 0.139787 0.834955 0.995384
Si Si3 0.109942 0.164341 0.750591
Si Si4 0.906851 0.173005 0.627506
Si Si5 0.393985 0.161387 0.238292
Si Si6 0.857640 0.662107 0.884141
Si Si7 0.856379 0.661348 0.124305
Si Si8 0.900921 0.328468 0.371835
O O1 0.500000 0.830625 0.500000
O O2 0.642490 0.802100 0.562222
O O3 0.636837 0.731185 0.436976
O O4 0.632975 0.000000 0.476384
O O5 0.250000 0.835354 0.994937
O O6 0.107993 0.745021 0.935775
O O7 0.111066 0.000000 0.991240
O O8 0.110117 0.761631 0.059465
O O9 0.133684 0.247532 0.813220
O O10 0.138562 0.250995 0.689160
O O11 0.001352 0.157712 0.751491
O O12 0.142845 0.000000 0.750108
O O13 0.857812 0.197678 0.692968
O O14 0.995139 0.273549 0.627218
O O15 0.931774 0.000000 0.627116
O O16 0.375490 0.269513 0.182874
O O17 0.363799 0.000000 0.220757
O O18 0.750000 0.655084 0.890843
O O19 0.892981 0.500000 0.888932
O O20 0.750000 0.648005 0.113463
O O21 0.893500 0.500000 0.131293
O O22 0.894630 0.500000 0.367359
#
# Coordination Sequence:
#
# PCOD9398438 Si02
#       8
#     8   8   8   8   8   8   8   8
#     4   8  13  23  38  56  83 119 155 192 234 279
#     4   9  17  31  52  74  95 123 159 196 233 275
#     4  10  20  34  50  69  97 131 164 196 234 283
#     4   8  15  27  41  59  87 122 157 193 236 283
#     4   9  18  32  49  70  96 127 162 199 238 280
#     4  10  20  33  50  73  99 126 157 195 239 285
#     4  10  20  34  53  77 102 125 153 193 238 282
#     4  10  17  24  38  62  91 121 155 195 238 281
#
# _framework density 21.526909
#
# number of rings (size 3 to 8) (size 9 to 14) (size 15 to 20)
#    0.000    2.750    0.000    4.125    0.000    7.750 
#    0.000    0.625    0.000    3.750    0.000    0.875 
#    0.000    5.000    0.000    0.000    0.000    0.000 
#
# Total GULP energy -357202.052003 kJ/mol
# GULP energy per Si atom -5581.282063 kJ/mol
# Density = 2.147791 g / cm^3
# Si number density = 21.526909 Si / 1000 Ang^3
#
#
#
# Elastic Constant Matrix: (Units=GPa)
#
#
# Indices 1 2 3 4 5 6 
#
# 1 59.1769 6.2766 0.3648 0.0000 0.0000 0.0000
# 2 6.2766 197.3166 129.0847 0.0000 0.0000 0.0000
# 3 0.3648 129.0847 217.7944 0.0000 0.0000 0.0000
# 4 0.0000 0.0000 0.0000 -12.8383 0.0000 0.0000
# 5 0.0000 0.0000 0.0000 0.0000 19.4535 0.0000
# 6 0.0000 0.0000 0.0000 0.0000 0.0000 5.9654
#
#
#
# Elastic Compliance Matrix: (Units=1/GPa)
#
#
# Indices 1 2 3 4 5 6 
#
# 1 0.016986 -0.000852 0.000477 0.000000 0.000000 0.000000
# 2 -0.000852 0.008320 -0.004930 0.000000 0.000000 0.000000
# 3 0.000477 -0.004930 0.007513 0.000000 0.000000 0.000000
# 4 0.000000 0.000000 0.000000 -0.077892 0.000000 0.000000
# 5 0.000000 0.000000 0.000000 0.000000 0.051405 0.000000
# 6 0.000000 0.000000 0.000000 0.000000 0.000000 0.167634
#
#
# Mechanical properties :
#
#
# Convention : Reuss Voigt Hill
#
# Bulk Modulus (GPa) = 45.02900 82.86001 63.94451
# Shear Modulus (GPa) = 26.04458 25.08691 25.56574
#
# Velocity S-wave (km/s) = 3.48208 3.41746 3.44992
# Velocity P-wave (km/s) = 6.09339 7.35846 6.75561
#
# Compressibility (1/GPa) = 0.02220791
#
# Stress axis : x y z
#
# Youngs Moduli (GPa) = 58.87231 120.18863 133.10976
#
# Poissons Ratio (x) = 0.10241 -0.06344
# Poissons Ratio (y) = 0.05017 0.65622
# Poissons Ratio (z) = -0.02806 0.59252
#
# Static dielectric constant tensor:
#      x y z
#    x 1.862070 0.000000 0.000000 
#    y 0.000000 1.738420 0.000000 
#    z 0.000000 0.000000 1.790030 
# 
# From -- ./inp_files/34072.got.cif
#   From: 2010.05.17/outbox.cif.g08.bks.cpg/sg51_18_cif.got.tgz:34072.got - 2010.06.03 11:52:47.
