data_PCOD9398827
_publ_section_title
;
Structure prediction by ZEFSAII (Michael W. Deem and Ramdas Pophale) SiO2 
 PCOD9398827
Probable space group: P M M A
;
_chemical_formula_sum "Si O2"
_cell_formula_units_Z 48
_cell_length_a 21.635757
_cell_length_b 7.586111
_cell_length_c 15.457013
_cell_angle_alpha 90.000000
_cell_angle_beta 90.000000
_cell_angle_gamma 90.000000
_cell_volume 2536.978929
_symmetry_space_group_name_H-M "P M M A"
_symmetry_group_IT_number 51
_symmetry_cell_setting 'orthorhombic'
loop_
_space_group_symop_operation_xyz
x,y,z
1/2-x,-y,z
1/2+x,-y,-z
-x,y,-z
-x,-y,-z
1/2+x,y,-z
1/2-x,y,z
x,-y,z
loop_
_atom_site_type_symbol
_atom_site_label
_atom_site_fract_x
_atom_site_fract_y
_atom_site_fract_z
Si Si1 0.981417 0.713581 0.770093
Si Si2 0.543108 0.289325 0.577391
Si Si3 0.684305 0.295697 0.002337
Si Si4 0.682268 0.212507 0.617635
Si Si5 0.946371 0.715916 0.066813
Si Si6 0.343402 0.205079 0.188387
O O1 0.980238 0.500000 0.768411
O O2 0.980087 0.777499 0.671143
O O3 0.917153 0.775287 0.811314
O O4 0.035009 0.767180 0.835871
O O5 0.500000 0.220258 0.500000
O O6 0.535307 0.500000 0.578812
O O7 0.617319 0.259516 0.571971
O O8 0.750000 0.215065 0.028672
O O9 0.684923 0.500000 0.029599
O O10 0.680769 0.292210 0.898205
O O11 0.620707 0.218272 0.038146
O O12 0.750000 0.269771 0.583320
O O13 0.677125 0.275096 0.717718
O O14 0.682675 0.000000 0.620053
O O15 0.945787 0.500000 0.062954
O O16 0.000000 0.771601 0.000000
O O17 0.326025 0.000000 0.184510
#
# Coordination Sequence:
#
# PCOD9398827 Si02
#       6
#     8   8   8   8   8   8
#     4   9  16  29  48  65  87 120 152 182 220 263
#     4   9  18  31  48  71  95 118 149 188 232 277
#     4  10  19  29  42  61  85 115 152 188 219 260
#     4   9  18  31  46  66  93 123 152 182 221 274
#     4   9  15  26  45  64  84 113 151 185 214 252
#     4  10  18  28  43  65  94 120 145 179 223 267
#
# _framework density 18.92014
#
# number of rings (size 3 to 8) (size 9 to 14) (size 15 to 20)
#    0.000    2.667    1.667    1.000    0.000    2.333 
#    0.000    1.667    0.000    1.000    0.000    4.667 
#    0.000    0.000    0.000    0.000    0.000    0.000 
#
# Total GULP energy -267506.327509 kJ/mol
# GULP energy per Si atom -5573.048490 kJ/mol
# Density = 1.887708 g / cm^3
# Si number density = 18.920140 Si / 1000 Ang^3
#
#
#
# Elastic Constant Matrix: (Units=GPa)
#
#
# Indices 1 2 3 4 5 6 
#
# 1 191.3146 3.4197 84.2088 0.0000 0.0000 0.0000
# 2 3.4197 42.5657 4.0555 0.0000 0.0000 0.0000
# 3 84.2088 4.0555 86.4374 0.0000 0.0000 0.0000
# 4 0.0000 0.0000 0.0000 1.8338 0.0000 0.0000
# 5 0.0000 0.0000 0.0000 0.0000 15.5033 0.0000
# 6 0.0000 0.0000 0.0000 0.0000 0.0000 6.5285
#
#
#
# Elastic Compliance Matrix: (Units=1/GPa)
#
#
# Indices 1 2 3 4 5 6 
#
# 1 0.009152 0.000115 -0.008921 0.000000 0.000000 0.000000
# 2 0.000115 0.023600 -0.001219 0.000000 0.000000 0.000000
# 3 -0.008921 -0.001219 0.020317 0.000000 0.000000 0.000000
# 4 0.000000 0.000000 0.000000 0.545311 0.000000 0.000000
# 5 0.000000 0.000000 0.000000 0.000000 0.064502 0.000000
# 6 0.000000 0.000000 0.000000 0.000000 0.000000 0.153175
#
#
# Mechanical properties :
#
#
# Convention : Reuss Voigt Hill
#
# Bulk Modulus (GPa) = 30.28630 55.96508 43.12569
# Shear Modulus (GPa) = 5.90239 20.01537 12.95888
#
# Velocity S-wave (km/s) = 1.76817 3.25605 2.61995
# Velocity P-wave (km/s) = 4.49564 6.61662 5.65643
#
# Compressibility (1/GPa) = 0.03301823
#
# Stress axis : x y z
#
# Youngs Moduli (GPa) = 109.27021 42.37281 49.21909
#
# Poissons Ratio (x) = -0.00486 0.43909
# Poissons Ratio (y) = -0.01254 0.06000
# Poissons Ratio (z) = 0.97481 0.05165
#
# Static dielectric constant tensor:
#      x y z
#    x 1.698630 0.000000 0.000000 
#    y 0.000000 1.691670 0.000000 
#    z 0.000000 0.000000 1.651620 
# 
# From -- ./inp_files/25469.got.cif
#   From: 2010.05.17/outbox.cif.g08.bks.cpg/sg51_13_cif.got.tgz:25469.got - 2010.06.03 11:52:47.
