data_PCOD9398077
_publ_section_title
;
Structure prediction by ZEFSAII (Michael W. Deem and Ramdas Pophale) SiO2 
 PCOD9398077
Probable space group: P B A N
;
_chemical_formula_sum "Si O2"
_cell_formula_units_Z 40
_cell_length_a 16.880316
_cell_length_b 8.173078
_cell_length_c 12.154056
_cell_angle_alpha 90.000000
_cell_angle_beta 90.000000
_cell_angle_gamma 90.000000
_cell_volume 1676.823875
_symmetry_space_group_name_H-M "P B A N"
_symmetry_group_IT_number 50
_space_group.IT_coordinate_system_code '2'
_symmetry_cell_setting 'orthorhombic'
loop_
_space_group_symop_operation_xyz
x,y,z
1/2-x,1/2-y,z
x,1/2-y,-z
1/2-x,y,-z
-x,-y,-z
1/2+x,1/2+y,-z
-x,1/2+y,z
1/2+x,-y,z
loop_
_atom_site_type_symbol
_atom_site_label
_atom_site_fract_x
_atom_site_fract_y
_atom_site_fract_z
Si Si1 0.638217 0.066785 0.544813
Si Si2 0.403041 0.573522 0.167940
Si Si3 0.788535 0.928518 0.657482
Si Si4 0.841420 0.929388 0.035871
Si Si5 0.927948 0.055490 0.234717
O O1 0.627275 0.250000 0.500000
O O2 0.574429 0.018377 0.635864
O O3 0.719549 0.051481 0.616348
O O4 0.648242 0.946052 0.441931
O O5 0.332444 0.480976 0.232145
O O6 0.485925 0.486084 0.190041
O O7 0.408217 0.755144 0.215176
O O8 0.385836 0.561989 0.038796
O O9 0.750000 0.750000 0.662289
O O10 0.863378 0.956777 0.162428
O O11 0.870016 0.750000 0.000000
O O12 0.750000 0.940068 0.000000
#
# Coordination Sequence:
#
# PCOD9398077 Si02
#       5
#     8   8   8   8   8
#     4  11  23  46  70 104 142 190 245 302 358 430
#     4  12  27  46  74 106 149 195 239 300 372 439
#     4  11  25  44  74 105 141 192 247 305 361 430
#     4  11  26  48  78 110 143 188 247 303 365 441
#     4  12  27  47  73 106 154 193 241 303 371 445
#
# _framework density 23.854623
#
# number of rings (size 3 to 8) (size 9 to 14) (size 15 to 20)
#    0.000    0.600    2.000    6.000    8.400    4.000 
#    3.600    0.000    0.000    0.000    0.000    0.000 
#    0.000    0.000    0.000    0.000    0.000    0.000 
#
# Total GULP energy -224125.403157 kJ/mol
# GULP energy per Si atom -5603.135079 kJ/mol
# Density = 2.380033 g / cm^3
# Si number density = 23.854623 Si / 1000 Ang^3
#
#
#
# Elastic Constant Matrix: (Units=GPa)
#
#
# Indices 1 2 3 4 5 6 
#
# 1 52.4384 12.9243 4.5862 0.0000 0.0000 0.0000
# 2 12.9243 124.3430 27.0851 0.0000 0.0000 0.0000
# 3 4.5862 27.0851 115.7432 0.0000 0.0000 0.0000
# 4 0.0000 0.0000 0.0000 34.7655 0.0000 0.0000
# 5 0.0000 0.0000 0.0000 0.0000 34.6071 0.0000
# 6 0.0000 0.0000 0.0000 0.0000 0.0000 56.1898
#
#
#
# Elastic Compliance Matrix: (Units=1/GPa)
#
#
# Indices 1 2 3 4 5 6 
#
# 1 0.019582 -0.001967 -0.000316 0.000000 0.000000 0.000000
# 2 -0.001967 0.008672 -0.001951 0.000000 0.000000 0.000000
# 3 -0.000316 -0.001951 0.009109 0.000000 0.000000 0.000000
# 4 0.000000 0.000000 0.000000 0.028764 0.000000 0.000000
# 5 0.000000 0.000000 0.000000 0.000000 0.028896 0.000000
# 6 0.000000 0.000000 0.000000 0.000000 0.000000 0.017797
#
#
# Mechanical properties :
#
#
# Convention : Reuss Voigt Hill
#
# Bulk Modulus (GPa) = 34.60733 42.41286 38.51009
# Shear Modulus (GPa) = 38.19156 41.64109 39.91633
#
# Velocity S-wave (km/s) = 4.00561 4.18259 4.09506
# Velocity P-wave (km/s) = 5.99435 6.41434 6.20790
#
# Compressibility (1/GPa) = 0.02889562
#
# Stress axis : x y z
#
# Youngs Moduli (GPa) = 51.06654 115.31718 109.78205
#
# Poissons Ratio (x) = 0.22679 0.03466
# Poissons Ratio (y) = 0.10043 0.21422
# Poissons Ratio (z) = 0.01612 0.22502
#
# Static dielectric constant tensor:
#      x y z
#    x 1.917850 0.000000 0.000000 
#    y 0.000000 1.877410 0.000000 
#    z 0.000000 0.000000 1.932290 
# 
# From -- ./inp_files/21632.got.cif
#   From: 2010.05.17/outbox.cif.g08.bks.cpg/sg50_11_cif.got.tgz:21632.got - 2010.06.03 11:33:33.
