data_PCOD9398562
_publ_section_title
;
Structure prediction by ZEFSAII (Michael W. Deem and Ramdas Pophale) SiO2 
 PCOD9398562
Probable space group: P M M A
;
_chemical_formula_sum "Si O2"
_cell_formula_units_Z 48
_cell_length_a 19.648580
_cell_length_b 12.155522
_cell_length_c 12.642690
_cell_angle_alpha 90.000000
_cell_angle_beta 90.000000
_cell_angle_gamma 90.000000
_cell_volume 3019.564231
_symmetry_space_group_name_H-M "P M M A"
_symmetry_group_IT_number 51
_symmetry_cell_setting 'orthorhombic'
loop_
_space_group_symop_operation_xyz
x,y,z
1/2-x,-y,z
1/2+x,-y,-z
-x,y,-z
-x,-y,-z
1/2+x,y,-z
1/2-x,y,z
x,-y,z
loop_
_atom_site_type_symbol
_atom_site_label
_atom_site_fract_x
_atom_site_fract_y
_atom_site_fract_z
Si Si1 0.931846 0.500000 0.356292
Si Si2 0.669358 0.126426 0.867352
Si Si3 0.896426 0.263372 0.681997
Si Si4 0.418461 0.874391 0.521734
Si Si5 0.929062 0.871348 0.062199
Si Si6 0.905047 0.500000 0.599156
Si Si7 0.440857 0.262829 0.725913
O O1 0.896768 0.500000 0.471963
O O2 0.917985 0.611593 0.292445
O O3 0.013068 0.500000 0.381391
O O4 0.750000 0.133603 0.880703
O O5 0.643779 0.209901 0.778393
O O6 0.651896 0.000000 0.835077
O O7 0.630412 0.146215 0.977176
O O8 0.887042 0.190355 0.576797
O O9 0.878383 0.388455 0.652036
O O10 0.976937 0.260149 0.711111
O O11 0.500000 0.875594 0.500000
O O12 0.409843 0.809491 0.630828
O O13 0.395054 0.000000 0.527897
O O14 0.924403 0.791703 0.162198
O O15 0.928277 0.000000 0.096597
O O16 0.000000 0.853720 0.000000
#
# Coordination Sequence:
#
# PCOD9398562 Si02
#       7
#     4   8   8   8   8   4   8
#     4   9  16  28  44  72 108 139 160 200 256 302
#     4  10  21  36  53  73 101 137 171 210 263 314
#     4  10  17  29  48  72 102 134 168 203 253 309
#     4   9  16  23  40  71 102 127 156 199 251 302
#     4  10  19  32  51  74 102 134 173 217 258 305
#     4   9  16  28  46  71 105 140 164 195 246 307
#     4  10  17  28  47  74 104 133 167 209 257 302
#
# _framework density 15.896334
#
# number of rings (size 3 to 8) (size 9 to 14) (size 15 to 20)
#    0.000    2.333    3.333    1.000    0.000    1.333 
#    0.000    1.667    0.000    1.000    0.000    2.333 
#    0.000    0.000    0.000    0.000    0.000    0.000 
#
# Total GULP energy -267557.548704 kJ/mol
# GULP energy per Si atom -5574.115598 kJ/mol
# Density = 1.586015 g / cm^3
# Si number density = 15.896334 Si / 1000 Ang^3
#
#
#
# Elastic Constant Matrix: (Units=GPa)
#
#
# Indices 1 2 3 4 5 6 
#
# 1 29.0745 31.2222 29.5936 0.0000 0.0000 0.0000
# 2 31.2222 174.8154 105.9140 0.0000 0.0000 0.0000
# 3 29.5936 105.9140 136.7365 0.0000 0.0000 0.0000
# 4 0.0000 0.0000 0.0000 28.1147 0.0000 0.0000
# 5 0.0000 0.0000 0.0000 0.0000 12.1198 0.0000
# 6 0.0000 0.0000 0.0000 0.0000 0.0000 11.4006
#
#
#
# Elastic Compliance Matrix: (Units=1/GPa)
#
#
# Indices 1 2 3 4 5 6 
#
# 1 0.045606 -0.004080 -0.006710 0.000000 0.000000 0.000000
# 2 -0.004080 0.011144 -0.007749 0.000000 0.000000 0.000000
# 3 -0.006710 -0.007749 0.014768 0.000000 0.000000 0.000000
# 4 0.000000 0.000000 0.000000 0.035569 0.000000 0.000000
# 5 0.000000 0.000000 0.000000 0.000000 0.082510 0.000000
# 6 0.000000 0.000000 0.000000 0.000000 0.000000 0.087715
#
#
# Mechanical properties :
#
#
# Convention : Reuss Voigt Hill
#
# Bulk Modulus (GPa) = 29.03642 74.89842 51.96742
# Shear Modulus (GPa) = 15.34367 21.92012 18.63190
#
# Velocity S-wave (km/s) = 3.11019 3.71744 3.42729
# Velocity P-wave (km/s) = 5.58601 8.10215 6.95875
#
# Compressibility (1/GPa) = 0.03443950
#
# Stress axis : x y z
#
# Youngs Moduli (GPa) = 21.92717 89.73756 67.71566
#
# Poissons Ratio (x) = 0.36610 0.45439
# Poissons Ratio (y) = 0.08946 0.52471
# Poissons Ratio (z) = 0.14714 0.69535
#
# Static dielectric constant tensor:
#      x y z
#    x 1.511350 0.000000 0.000000 
#    y 0.000000 1.539400 0.000000 
#    z 0.000000 0.000000 1.506240 
# 
# From -- ./inp_files/18158.got.cif
#   From: 2010.05.17/outbox.cif.g08.bks.cpg/sg51_10_cif.got.tgz:18158.got - 2010.06.03 11:52:47.
