data_PCOD9398571
_publ_section_title
;
Structure prediction by ZEFSAII (Michael W. Deem and Ramdas Pophale) SiO2 
 PCOD9398571
Probable space group: P M M A
;
_chemical_formula_sum "Si O2"
_cell_formula_units_Z 56
_cell_length_a 18.837575
_cell_length_b 7.501871
_cell_length_c 19.728102
_cell_angle_alpha 90.000000
_cell_angle_beta 90.000000
_cell_angle_gamma 90.000000
_cell_volume 2787.917327
_symmetry_space_group_name_H-M "P M M A"
_symmetry_group_IT_number 51
_symmetry_cell_setting 'orthorhombic'
loop_
_space_group_symop_operation_xyz
x,y,z
1/2-x,-y,z
1/2+x,-y,-z
-x,y,-z
-x,-y,-z
1/2+x,y,-z
1/2-x,y,z
x,-y,z
loop_
_atom_site_type_symbol
_atom_site_label
_atom_site_fract_x
_atom_site_fract_y
_atom_site_fract_z
Si Si1 0.575686 0.781999 0.582919
Si Si2 0.587957 0.785061 0.431823
Si Si3 0.671024 0.709957 0.298068
Si Si4 0.524817 0.282107 0.926314
Si Si5 0.462584 0.283306 0.785728
Si Si6 0.384924 0.205385 0.274540
Si Si7 0.327167 0.706618 0.131716
O O1 0.603379 0.727732 0.508947
O O2 0.492657 0.727291 0.585900
O O3 0.617624 0.720089 0.649322
O O4 0.576002 0.000000 0.585061
O O5 0.642365 0.726820 0.374603
O O6 0.587146 0.000000 0.431775
O O7 0.750000 0.785880 0.290786
O O8 0.675394 0.500000 0.282706
O O9 0.609247 0.782131 0.249252
O O10 0.526492 0.500000 0.926971
O O11 0.473239 0.232722 0.864179
O O12 0.603485 0.217624 0.905369
O O13 0.500000 0.222634 0.000000
O O14 0.465155 0.500000 0.781660
O O15 0.531961 0.215778 0.746144
O O16 0.343259 0.290499 0.212191
O O17 0.362304 0.000000 0.276151
O O18 0.250000 0.787450 0.118264
O O19 0.324117 0.500000 0.111140
#
# Coordination Sequence:
#
# PCOD9398571 Si02
#       7
#     8   8   8   8   8   8   8
#     4   8  15  27  46  69  90 112 147 200 245 276
#     4   9  16  30  48  65  87 117 155 197 240 283
#     4  10  20  32  44  63  95 129 159 195 237 280
#     4   8  14  27  49  73  93 117 154 195 226 263
#     4   9  17  30  47  67  94 126 156 189 233 282
#     4  10  17  28  49  73  93 117 154 199 236 274
#     4   9  18  32  48  69  99 131 157 186 232 286
#
# _framework density 20.086677000000002
#
# number of rings (size 3 to 8) (size 9 to 14) (size 15 to 20)
#    0.000    3.000    1.429    2.143    0.000    0.571 
#    0.000    4.286    0.000   15.429    0.000    0.000 
#    0.000    4.571    0.000    0.000    0.000    0.000 
#
# Total GULP energy -312207.896204 kJ/mol
# GULP energy per Si atom -5575.141004 kJ/mol
# Density = 2.004096 g / cm^3
# Si number density = 20.086677 Si / 1000 Ang^3
#
#
#
# Elastic Constant Matrix: (Units=GPa)
#
#
# Indices 1 2 3 4 5 6 
#
# 1 115.9086 -1.5713 54.0889 0.0000 0.0000 0.0000
# 2 -1.5713 53.3420 -5.8666 0.0000 0.0000 0.0000
# 3 54.0889 -5.8666 140.2858 0.0000 0.0000 0.0000
# 4 0.0000 0.0000 0.0000 19.8637 0.0000 0.0000
# 5 0.0000 0.0000 0.0000 0.0000 14.1840 0.0000
# 6 0.0000 0.0000 0.0000 0.0000 0.0000 8.7204
#
#
#
# Elastic Compliance Matrix: (Units=1/GPa)
#
#
# Indices 1 2 3 4 5 6 
#
# 1 0.010521 -0.000137 -0.004062 0.000000 0.000000 0.000000
# 2 -0.000137 0.018835 0.000840 0.000000 0.000000 0.000000
# 3 -0.004062 0.000840 0.008730 0.000000 0.000000 0.000000
# 4 0.000000 0.000000 0.000000 0.050343 0.000000 0.000000
# 5 0.000000 0.000000 0.000000 0.000000 0.070502 0.000000
# 6 0.000000 0.000000 0.000000 0.000000 0.000000 0.114674
#
#
# Mechanical properties :
#
#
# Convention : Reuss Voigt Hill
#
# Bulk Modulus (GPa) = 31.87872 44.75984 38.31928
# Shear Modulus (GPa) = 17.19520 26.07932 21.63726
#
# Velocity S-wave (km/s) = 2.92901 3.60716 3.28562
# Velocity P-wave (km/s) = 5.22913 6.29925 5.78897
#
# Compressibility (1/GPa) = 0.03136889
#
# Stress axis : x y z
#
# Youngs Moduli (GPa) = 95.04501 53.09163 114.55096
#
# Poissons Ratio (x) = 0.00727 0.46535
# Poissons Ratio (y) = 0.01301 -0.09627
# Poissons Ratio (z) = 0.38611 -0.04462
#
# Static dielectric constant tensor:
#      x y z
#    x 1.704470 0.000000 0.000000 
#    y 0.000000 1.770960 0.000000 
#    z 0.000000 0.000000 1.707170 
# 
# From -- ./inp_files/33662.got.cif
#   From: 2010.05.17/outbox.cif.g08.bks.cpg/sg51_17_cif.got.tgz:33662.got - 2010.06.03 11:52:47.
