data_PCOD9398289
_publ_section_title
;
Structure prediction by ZEFSAII (Michael W. Deem and Ramdas Pophale) SiO2 
 PCOD9398289
Probable space group: P B A N
;
_chemical_formula_sum "Si O2"
_cell_formula_units_Z 32
_cell_length_a 17.642843
_cell_length_b 5.071191
_cell_length_c 14.895886
_cell_angle_alpha 90.000000
_cell_angle_beta 90.000000
_cell_angle_gamma 90.000000
_cell_volume 1332.738296
_symmetry_space_group_name_H-M "P B A N"
_symmetry_group_IT_number 50
_space_group.IT_coordinate_system_code '2'
_symmetry_cell_setting 'orthorhombic'
loop_
_space_group_symop_operation_xyz
x,y,z
1/2-x,1/2-y,z
x,1/2-y,-z
1/2-x,y,-z
-x,-y,-z
1/2+x,1/2+y,-z
-x,1/2+y,z
1/2+x,-y,z
loop_
_atom_site_type_symbol
_atom_site_label
_atom_site_fract_x
_atom_site_fract_y
_atom_site_fract_z
Si Si1 0.047271 0.468747 0.225232
Si Si2 0.832672 0.846280 0.664509
Si Si3 0.443173 0.250000 0.500000
Si Si4 0.355556 0.496183 0.937381
Si Si5 0.250000 0.750000 0.792897
O O1 0.120352 0.365153 0.277353
O O2 0.068611 0.452572 0.120705
O O3 0.981134 0.260139 0.247522
O O4 0.750000 0.750000 0.635294
O O5 0.886253 0.852066 0.578254
O O6 0.690484 0.409896 0.730185
O O7 0.500000 0.500000 0.500000
O O8 0.291759 0.555240 0.862718
O O9 0.362099 0.750000 0.000000
O O10 0.339550 0.250000 0.000000
#
# Coordination Sequence:
#
# PCOD9398289 Si02
#       5
#     8   8   4   8   4
#     4  12  26  47  74 110 159 212 264 329 405 479
#     4  12  27  51  85 119 158 213 270 335 404 497
#     4  12  31  56  85 126 168 208 262 336 421 506
#     4  12  27  46  74 112 160 218 277 348 412 483
#     4  12  27  48  83 118 170 212 284 345 421 488
#
# _framework density 24.010712999999999
#
# number of rings (size 3 to 8) (size 9 to 14) (size 15 to 20)
#    0.000    0.000    2.500    6.750    3.500    6.000 
#    0.000    0.000    0.000    0.000    0.000    0.000 
#    0.000    0.000    0.000    0.000    0.000    0.000 
#
# Total GULP energy -178937.600032 kJ/mol
# GULP energy per Si atom -5591.800001 kJ/mol
# Density = 2.395606 g / cm^3
# Si number density = 24.010713 Si / 1000 Ang^3
#
#
#
# Elastic Constant Matrix: (Units=GPa)
#
#
# Indices 1 2 3 4 5 6 
#
# 1 179.4840 61.2353 71.4992 0.0000 0.0000 0.0000
# 2 61.2353 143.2156 46.4595 0.0000 0.0000 0.0000
# 3 71.4992 46.4595 130.4311 0.0000 0.0000 0.0000
# 4 0.0000 0.0000 0.0000 11.2150 0.0000 0.0000
# 5 0.0000 0.0000 0.0000 0.0000 372.0723 0.0000
# 6 0.0000 0.0000 0.0000 0.0000 0.0000 48.9404
#
#
#
# Elastic Compliance Matrix: (Units=1/GPa)
#
#
# Indices 1 2 3 4 5 6 
#
# 1 0.007681 -0.002169 -0.003438 0.000000 0.000000 0.000000
# 2 -0.002169 0.008507 -0.001841 0.000000 0.000000 0.000000
# 3 -0.003438 -0.001841 0.010207 0.000000 0.000000 0.000000
# 4 0.000000 0.000000 0.000000 0.089167 0.000000 0.000000
# 5 0.000000 0.000000 0.000000 0.000000 0.002688 0.000000
# 6 0.000000 0.000000 0.000000 0.000000 0.000000 0.020433
#
#
# Mechanical properties :
#
#
# Convention : Reuss Voigt Hill
#
# Bulk Modulus (GPa) = 86.96283 90.16875 88.56579
# Shear Modulus (GPa) = 31.76371 104.70798 68.23585
#
# Velocity S-wave (km/s) = 3.64111 6.61086 5.33672
# Velocity P-wave (km/s) = 7.34669 9.79318 8.65680
#
# Compressibility (1/GPa) = 0.01149917
#
# Stress axis : x y z
#
# Youngs Moduli (GPa) = 130.19016 117.54777 97.96834
#
# Poissons Ratio (x) = 0.25495 0.33682
# Poissons Ratio (y) = 0.28237 0.18039
# Poissons Ratio (z) = 0.44759 0.21644
#
# Static dielectric constant tensor:
#      x y z
#    x 1.991100 0.000000 0.000000 
#    y 0.000000 2.003280 0.000000 
#    z 0.000000 0.000000 1.892160 
# 
# From -- ./inp_files/26707.got.cif
#   From: 2010.05.17/outbox.cif.g08.bks.cpg/sg50_14_cif.got.tgz:26707.got - 2010.06.03 11:33:33.
