data_PCOD9398657
_publ_section_title
;
Structure prediction by ZEFSAII (Michael W. Deem and Ramdas Pophale) SiO2 
 PCOD9398657
Probable space group: P M M A
;
_chemical_formula_sum "Si O2"
_cell_formula_units_Z 36
_cell_length_a 7.451511
_cell_length_b 13.339156
_cell_length_c 20.712775
_cell_angle_alpha 90.000000
_cell_angle_beta 90.000000
_cell_angle_gamma 90.000000
_cell_volume 2058.784956
_symmetry_space_group_name_H-M "P M M A"
_symmetry_group_IT_number 51
_symmetry_cell_setting 'orthorhombic'
loop_
_space_group_symop_operation_xyz
x,y,z
1/2-x,-y,z
1/2+x,-y,-z
-x,y,-z
-x,-y,-z
1/2+x,y,-z
1/2-x,y,z
x,-y,z
loop_
_atom_site_type_symbol
_atom_site_label
_atom_site_fract_x
_atom_site_fract_y
_atom_site_fract_z
Si Si1 0.964210 0.000000 0.424009
Si Si2 0.970123 0.196302 0.346450
Si Si3 0.964807 0.387288 0.425120
Si Si4 0.968377 0.117633 0.210071
Si Si5 0.964289 0.114916 0.069611
O O1 0.029355 0.899137 0.389027
O O2 0.000000 0.000000 0.500000
O O3 0.750000 0.000000 0.415309
O O4 0.750000 0.197030 0.347193
O O5 0.031723 0.299502 0.378773
O O6 0.027965 0.177988 0.272805
O O7 0.750000 0.391184 0.417375
O O8 0.034759 0.500000 0.413300
O O9 0.000000 0.361903 0.500000
O O10 0.750000 0.119296 0.211219
O O11 0.027035 0.155218 0.139077
O O12 0.018666 0.000000 0.216363
O O13 0.750000 0.109389 0.074146
O O14 0.034173 0.000000 0.066291
O O15 0.000000 0.163743 0.000000
#
# Coordination Sequence:
#
# PCOD9398657 Si02
#       5
#     4   8   8   8   8
#     4  10  18  26  38  54  71  94 122 150 179 212
#     4   9  15  24  38  55  73  94 122 153 180 211
#     4   9  17  28  41  56  73  94 120 152 189 222
#     4   8  12  20  34  52  71  92 121 150 174 205
#     4   8  13  20  32  49  68  91 117 143 169 202
#
# _framework density 17.486041
#
# number of rings (size 3 to 8) (size 9 to 14) (size 15 to 20)
#    0.000    3.333    1.111    2.000    0.000    0.000 
#    0.000    0.000    0.000    2.667    0.000    0.000 
#    0.000    0.889    0.000    0.667    0.000    1.333 
#
# Total GULP energy -200469.241086 kJ/mol
# GULP energy per Si atom -5568.590030 kJ/mol
# Density = 1.744624 g / cm^3
# Si number density = 17.486041 Si / 1000 Ang^3
#
#
#
# Elastic Constant Matrix: (Units=GPa)
#
#
# Indices 1 2 3 4 5 6 
#
# 1 51.0369 6.1751 2.4896 0.0000 0.0000 0.0000
# 2 6.1751 88.6268 92.1361 0.0000 0.0000 0.0000
# 3 2.4896 92.1361 213.0549 0.0000 0.0000 0.0000
# 4 0.0000 0.0000 0.0000 6.5313 0.0000 0.0000
# 5 0.0000 0.0000 0.0000 0.0000 15.8562 0.0000
# 6 0.0000 0.0000 0.0000 0.0000 0.0000 -3.6830
#
#
#
# Elastic Compliance Matrix: (Units=1/GPa)
#
#
# Indices 1 2 3 4 5 6 
#
# 1 0.019812 -0.002071 0.000664 0.000000 0.000000 0.000000
# 2 -0.002071 0.020716 -0.008934 0.000000 0.000000 0.000000
# 3 0.000664 -0.008934 0.008550 0.000000 0.000000 0.000000
# 4 0.000000 0.000000 0.000000 0.153108 0.000000 0.000000
# 5 0.000000 0.000000 0.000000 0.000000 0.063067 0.000000
# 6 0.000000 0.000000 0.000000 0.000000 0.000000 -0.271516
#
#
# Mechanical properties :
#
#
# Convention : Reuss Voigt Hill
#
# Bulk Modulus (GPa) = 35.21753 61.59116 48.40434
# Shear Modulus (GPa) = 209.34832 20.53542 114.94187
#
# Velocity S-wave (km/s) = 10.95368 3.43065 8.11642
# Velocity P-wave (km/s) = 13.42242 7.14087 10.75066
#
# Compressibility (1/GPa) = 0.02839495
#
# Stress axis : x y z
#
# Youngs Moduli (GPa) = 50.47500 48.27273 116.96536
#
# Poissons Ratio (x) = 0.09995 -0.07766
# Poissons Ratio (y) = 0.10451 1.04501
# Poissons Ratio (z) = -0.03351 0.43128
#
# Static dielectric constant tensor:
#      x y z
#    x 1.674710 0.000000 0.000000 
#    y 0.000000 1.567900 0.000000 
#    z 0.000000 0.000000 1.638330 
# 
# From -- ./inp_files/28891.got.cif
#   From: 2010.05.17/outbox.cif.g08.bks.cpg/sg51_15_cif.got.tgz:28891.got - 2010.06.03 11:52:47.
