data_PCOD9398292
_publ_section_title
;
Structure prediction by ZEFSAII (Michael W. Deem and Ramdas Pophale) SiO2 
 PCOD9398292
Probable space group: P B A N
;
_chemical_formula_sum "Si O2"
_cell_formula_units_Z 22
_cell_length_a 4.945543
_cell_length_b 30.955898
_cell_length_c 6.191082
_cell_angle_alpha 90.000000
_cell_angle_beta 90.000000
_cell_angle_gamma 90.000000
_cell_volume 947.815803
_symmetry_space_group_name_H-M "P B A N"
_symmetry_group_IT_number 50
_space_group.IT_coordinate_system_code '2'
_symmetry_cell_setting 'orthorhombic'
loop_
_space_group_symop_operation_xyz
x,y,z
1/2-x,1/2-y,z
x,1/2-y,-z
1/2-x,y,-z
-x,-y,-z
1/2+x,1/2+y,-z
-x,1/2+y,z
1/2+x,-y,z
loop_
_atom_site_type_symbol
_atom_site_label
_atom_site_fract_x
_atom_site_fract_y
_atom_site_fract_z
Si Si1 0.012557 0.310297 0.348780
Si Si2 0.750000 0.750000 0.000000
Si Si3 0.992565 0.098479 0.851697
Si Si4 0.250000 0.532730 0.500000
O O1 0.250000 0.295491 0.500000
O O2 0.052060 0.280962 0.138558
O O3 0.750000 0.307708 0.500000
O O4 0.073560 0.360048 0.286010
O O5 0.842535 0.063346 0.699484
O O6 0.750000 0.115104 0.000000
O O7 0.250000 0.083723 0.000000
O O8 0.500000 0.500000 0.500000
#
# Coordination Sequence:
#
# PCOD9398292 Si02
#       4
#     8   2   8   4
#     4  12  28  50  78 111 151 205 255 312 391 460
#     4  12  30  50  76 116 152 194 266 326 376 464
#     4  12  26  48  79 108 150 204 250 310 389 462
#     4  12  28  46  76 114 155 195 258 320 378 466
#
# _framework density 23.211262999999999
#
# number of rings (size 3 to 8) (size 9 to 14) (size 15 to 20)
#    0.000    0.000    3.636    4.909    2.545    8.727 
#    0.000    0.000    0.000    0.000    0.000    0.000 
#    0.000    0.000    0.000    0.000    0.000    0.000 
#
# Total GULP energy -122895.834379 kJ/mol
# GULP energy per Si atom -5586.174290 kJ/mol
# Density = 2.315843 g / cm^3
# Si number density = 23.211263 Si / 1000 Ang^3
#
#
#
# Elastic Constant Matrix: (Units=GPa)
#
#
# Indices 1 2 3 4 5 6 
#
# 1 168.5232 36.9141 64.7790 0.0000 0.0000 0.0000
# 2 36.9141 147.8122 62.6443 0.0000 0.0000 0.0000
# 3 64.7790 62.6443 126.1654 0.0000 0.0000 0.0000
# 4 0.0000 0.0000 0.0000 23.6960 0.0000 0.0000
# 5 0.0000 0.0000 0.0000 0.0000 58.2750 0.0000
# 6 0.0000 0.0000 0.0000 0.0000 0.0000 35.9754
#
#
#
# Elastic Compliance Matrix: (Units=1/GPa)
#
#
# Indices 1 2 3 4 5 6 
#
# 1 0.007404 -0.000301 -0.003652 0.000000 0.000000 0.000000
# 2 -0.000301 0.008581 -0.004106 0.000000 0.000000 0.000000
# 3 -0.003652 -0.004106 0.011840 0.000000 0.000000 0.000000
# 4 0.000000 0.000000 0.000000 0.042201 0.000000 0.000000
# 5 0.000000 0.000000 0.000000 0.000000 0.017160 0.000000
# 6 0.000000 0.000000 0.000000 0.000000 0.000000 0.027797
#
#
# Mechanical properties :
#
#
# Convention : Reuss Voigt Hill
#
# Bulk Modulus (GPa) = 85.42432 85.68617 85.55524
# Shear Modulus (GPa) = 37.03657 42.13352 39.58504
#
# Velocity S-wave (km/s) = 3.99887 4.26516 4.13416
# Velocity P-wave (km/s) = 7.62916 7.82633 7.72837
#
# Compressibility (1/GPa) = 0.01170627
#
# Stress axis : x y z
#
# Youngs Moduli (GPa) = 135.06943 116.54099 84.46161
#
# Poissons Ratio (x) = 0.03512 0.30843
# Poissons Ratio (y) = 0.04070 0.34678
# Poissons Ratio (z) = 0.49324 0.47850
#
# Static dielectric constant tensor:
#      x y z
#    x 1.845650 0.000000 0.000000 
#    y 0.000000 1.905150 0.000000 
#    z 0.000000 0.000000 1.935840 
# 
# From -- ./inp_files/457.got.cif
#   From: 2010.05.17/outbox.cif.g08.bks.cpg/sg50_1_cif.got.tgz:457.got - 2010.06.03 11:33:33.
