data_PCOD9398268
_publ_section_title
;
Structure prediction by ZEFSAII (Michael W. Deem and Ramdas Pophale) SiO2 
 PCOD9398268
Probable space group: P B A N
;
_chemical_formula_sum "Si O2"
_cell_formula_units_Z 32
_cell_length_a 5.537233
_cell_length_b 15.862269
_cell_length_c 16.688192
_cell_angle_alpha 90.000000
_cell_angle_beta 90.000000
_cell_angle_gamma 90.000000
_cell_volume 1465.775292
_symmetry_space_group_name_H-M "P B A N"
_symmetry_group_IT_number 50
_space_group.IT_coordinate_system_code '2'
_symmetry_cell_setting 'orthorhombic'
loop_
_space_group_symop_operation_xyz
x,y,z
1/2-x,1/2-y,z
x,1/2-y,-z
1/2-x,y,-z
-x,-y,-z
1/2+x,1/2+y,-z
-x,1/2+y,z
1/2+x,-y,z
loop_
_atom_site_type_symbol
_atom_site_label
_atom_site_fract_x
_atom_site_fract_y
_atom_site_fract_z
Si Si1 0.362434 0.658253 0.586138
Si Si2 0.250000 0.750000 0.000000
Si Si3 0.355250 0.550844 0.743498
Si Si4 0.250000 0.051012 0.000000
Si Si5 0.250000 0.250000 0.500000
Si Si6 0.407535 0.330078 0.130089
O O1 0.250000 0.750000 0.609417
O O2 0.250000 0.633165 0.500000
O O3 0.351484 0.589721 0.654338
O O4 0.627119 0.685625 0.561180
O O5 0.419278 0.802308 0.058099
O O6 0.587114 0.488292 0.755034
O O7 0.427907 0.626665 0.803123
O O8 0.260694 0.103964 0.082792
O O9 0.500000 0.000000 0.000000
O O10 0.250000 0.250000 0.158353
#
# Coordination Sequence:
#
# PCOD9398268 Si02
#       6
#     8   2   8   4   2   8
#     4   9  22  44  76 106 143 199 251 299 358 448
#     4  12  24  48  80 104 130 190 270 298 362 422
#     4  12  31  48  71 113 156 193 239 313 387 433
#     4  12  24  44  71 101 144 184 232 304 378 430
#     4   8  18  40  72 106 136 186 260 292 342 420
#     4  12  27  47  74 106 142 197 258 303 361 454
#
# _framework density 21.831448999999999
#
# number of rings (size 3 to 8) (size 9 to 14) (size 15 to 20)
#    0.000    1.250    2.500    2.250   14.000    1.000 
#    0.000    0.000    0.000    0.000    0.000    0.000 
#    0.000    0.000    0.000    0.000    0.000    0.000 
#
# Total GULP energy -178598.816712 kJ/mol
# GULP energy per Si atom -5581.213022 kJ/mol
# Density = 2.178176 g / cm^3
# Si number density = 21.831449 Si / 1000 Ang^3
#
#
#
# Elastic Constant Matrix: (Units=GPa)
#
#
# Indices 1 2 3 4 5 6 
#
# 1 92.5737 37.5663 19.6974 0.0000 0.0000 0.0000
# 2 37.5663 77.0737 41.0725 0.0000 0.0000 0.0000
# 3 19.6974 41.0725 108.0285 0.0000 0.0000 0.0000
# 4 0.0000 0.0000 0.0000 29.9662 0.0000 0.0000
# 5 0.0000 0.0000 0.0000 0.0000 46.8095 0.0000
# 6 0.0000 0.0000 0.0000 0.0000 0.0000 26.3575
#
#
#
# Elastic Compliance Matrix: (Units=1/GPa)
#
#
# Indices 1 2 3 4 5 6 
#
# 1 0.013466 -0.006590 0.000050 0.000000 0.000000 0.000000
# 2 -0.006590 0.019496 -0.006211 0.000000 0.000000 0.000000
# 3 0.000050 -0.006211 0.011609 0.000000 0.000000 0.000000
# 4 0.000000 0.000000 0.000000 0.033371 0.000000 0.000000
# 5 0.000000 0.000000 0.000000 0.000000 0.021363 0.000000
# 6 0.000000 0.000000 0.000000 0.000000 0.000000 0.037940
#
#
# Mechanical properties :
#
#
# Convention : Reuss Voigt Hill
#
# Bulk Modulus (GPa) = 52.43914 52.70535 52.57225
# Shear Modulus (GPa) = 29.56770 32.58261 31.07515
#
# Velocity S-wave (km/s) = 3.68416 3.86743 3.77691
# Velocity P-wave (km/s) = 6.49381 6.64357 6.56912
#
# Compressibility (1/GPa) = 0.01906973
#
# Stress axis : x y z
#
# Youngs Moduli (GPa) = 74.26243 51.29133 86.13964
#
# Poissons Ratio (x) = 0.33801 -0.00433
# Poissons Ratio (y) = 0.48940 0.53501
# Poissons Ratio (z) = -0.00373 0.31857
#
# Static dielectric constant tensor:
#      x y z
#    x 1.832520 0.000000 0.000000 
#    y 0.000000 2.165830 0.000000 
#    z 0.000000 0.000000 1.759590 
# 
# From -- ./inp_files/23752.got.cif
#   From: 2010.05.17/outbox.cif.g08.bks.cpg/sg50_12_cif.got.tgz:23752.got - 2010.06.03 11:33:33.
