data_PCOD9398708
_publ_section_title
;
Structure prediction by ZEFSAII (Michael W. Deem and Ramdas Pophale) SiO2 
 PCOD9398708
Probable space group: P M M A
;
_chemical_formula_sum "Si O2"
_cell_formula_units_Z 64
_cell_length_a 7.462499
_cell_length_b 19.512989
_cell_length_c 22.260070
_cell_angle_alpha 90.000000
_cell_angle_beta 90.000000
_cell_angle_gamma 90.000000
_cell_volume 3241.414805
_symmetry_space_group_name_H-M "P M M A"
_symmetry_group_IT_number 51
_symmetry_cell_setting 'orthorhombic'
loop_
_space_group_symop_operation_xyz
x,y,z
1/2-x,-y,z
1/2+x,-y,-z
-x,y,-z
-x,-y,-z
1/2+x,y,-z
1/2-x,y,z
x,-y,z
loop_
_atom_site_type_symbol
_atom_site_label
_atom_site_fract_x
_atom_site_fract_y
_atom_site_fract_z
Si Si1 0.535578 0.671843 0.675769
Si Si2 0.963473 0.778751 0.233327
Si Si3 0.969101 0.925391 0.191721
Si Si4 0.046864 0.424613 0.917424
Si Si5 0.530466 0.278517 0.104498
Si Si6 0.036960 0.870020 0.934372
Si Si7 0.962139 0.576022 0.780231
Si Si8 0.464668 0.577410 0.430100
O O1 0.750000 0.664011 0.674927
O O2 0.502422 0.747385 0.701424
O O3 0.464211 0.626951 0.731203
O O4 0.468892 0.637136 0.614512
O O5 0.750000 0.780166 0.226410
O O6 0.028646 0.856578 0.225471
O O7 0.025913 0.734038 0.174731
O O8 0.750000 0.925791 0.193485
O O9 0.025690 0.913438 0.122480
O O10 0.028920 0.000000 0.213151
O O11 0.250000 0.424984 0.941397
O O12 0.966226 0.500000 0.932547
O O13 0.965142 0.348941 0.926787
O O14 0.052582 0.423291 0.844759
O O15 0.750000 0.282612 0.103812
O O16 0.471718 0.208641 0.071998
O O17 0.250000 0.865679 0.927623
O O18 0.000000 0.898169 0.000000
O O19 0.750000 0.588265 0.790868
O O20 0.977809 0.500000 0.754328
O O21 0.500000 0.591696 0.500000
O O22 0.250000 0.574287 0.423228
O O23 0.532740 0.500000 0.416520
#
# Coordination Sequence:
#
# PCOD9398708 Si02
#       8
#     8   8   8   8   8   8   8   8
#     4  10  18  27  41  61  87 116 144 179 221 260
#     4   9  16  27  44  64  85 110 142 176 208 255
#     4   8  15  29  48  67  89 118 144 168 207 258
#     4   9  15  23  37  55  74  98 130 168 207 247
#     4   8  14  26  40  55  80 108 133 168 215 257
#     4   9  17  29  45  63  83 109 141 177 212 250
#     4   9  16  24  34  52  79 108 134 162 203 251
#     4   9  18  32  46  60  84 122 164 198 226 256
#
# _framework density 19.744465000000002
#
# number of rings (size 3 to 8) (size 9 to 14) (size 15 to 20)
#    0.000    3.125    1.250    1.875    0.000    2.250 
#    0.000    3.125    0.000    5.250    0.000    0.000 
#    0.000    0.500    0.000    1.125    0.000    1.750 
#
# Total GULP energy -356554.726633 kJ/mol
# GULP energy per Si atom -5571.167604 kJ/mol
# Density = 1.969953 g / cm^3
# Si number density = 19.744465 Si / 1000 Ang^3
#
#
#
# Elastic Constant Matrix: (Units=GPa)
#
#
# Indices 1 2 3 4 5 6 
#
# 1 56.6752 9.0501 -2.2629 0.0000 0.0000 0.0000
# 2 9.0501 132.6275 51.8612 0.0000 0.0000 0.0000
# 3 -2.2629 51.8612 99.3958 0.0000 0.0000 0.0000
# 4 0.0000 0.0000 0.0000 6.5751 0.0000 0.0000
# 5 0.0000 0.0000 0.0000 0.0000 5.4812 0.0000
# 6 0.0000 0.0000 0.0000 0.0000 0.0000 2.5802
#
#
#
# Elastic Compliance Matrix: (Units=1/GPa)
#
#
# Indices 1 2 3 4 5 6 
#
# 1 0.017975 -0.001742 0.001318 0.000000 0.000000 0.000000
# 2 -0.001742 0.009641 -0.005070 0.000000 0.000000 0.000000
# 3 0.001318 -0.005070 0.012736 0.000000 0.000000 0.000000
# 4 0.000000 0.000000 0.000000 0.152089 0.000000 0.000000
# 5 0.000000 0.000000 0.000000 0.000000 0.182440 0.000000
# 6 0.000000 0.000000 0.000000 0.000000 0.000000 0.387560
#
#
# Mechanical properties :
#
#
# Convention : Reuss Voigt Hill
#
# Bulk Modulus (GPa) = 34.05446 45.11059 39.58253
# Shear Modulus (GPa) = 6.38392 18.26399 12.32395
#
# Velocity S-wave (km/s) = 1.80008 3.04471 2.50106
# Velocity P-wave (km/s) = 4.64816 5.93777 5.33210
#
# Compressibility (1/GPa) = 0.02936473
#
# Stress axis : x y z
#
# Youngs Moduli (GPa) = 55.63219 103.71966 78.51612
#
# Poissons Ratio (x) = 0.18068 -0.10350
# Poissons Ratio (y) = 0.09691 0.39809
# Poissons Ratio (z) = -0.07333 0.52588
#
# Static dielectric constant tensor:
#      x y z
#    x 1.765730 0.000000 0.000000 
#    y 0.000000 1.769710 0.000000 
#    z 0.000000 0.000000 1.691350 
# 
# From -- ./inp_files/32665.got.cif
#   From: 2010.05.17/outbox.cif.g08.bks.cpg/sg51_17_cif.got.tgz:32665.got - 2010.06.03 11:52:47.
