data_PCOD9398328
_publ_section_title
;
Structure prediction by ZEFSAII (Michael W. Deem and Ramdas Pophale) SiO2 
 PCOD9398328
Probable space group: P B A N
;
_chemical_formula_sum "Si O2"
_cell_formula_units_Z 64
_cell_length_a 9.000000
_cell_length_b 18.000000
_cell_length_c 21.000000
_cell_angle_alpha 90.000000
_cell_angle_beta 90.000000
_cell_angle_gamma 90.000000
_cell_volume 3402.000000
_symmetry_space_group_name_H-M "P B A N"
_symmetry_group_IT_number 50
_space_group.IT_coordinate_system_code '2'
_symmetry_cell_setting 'orthorhombic'
loop_
_space_group_symop_operation_xyz
x,y,z
1/2-x,1/2-y,z
x,1/2-y,-z
1/2-x,y,-z
-x,-y,-z
1/2+x,1/2+y,-z
-x,1/2+y,z
1/2+x,-y,z
loop_
_atom_site_type_symbol
_atom_site_label
_atom_site_fract_x
_atom_site_fract_y
_atom_site_fract_z
Si Si1 0.914549 0.109551 0.250810
Si Si2 0.593416 0.715116 0.835067
Si Si3 0.318026 0.411457 0.072893
Si Si4 0.564298 0.660219 0.625131
Si Si5 0.080293 0.163510 0.641179
Si Si6 0.928331 0.918785 0.492238
Si Si7 0.415244 0.849115 0.777183
Si Si8 0.042659 0.015919 0.852046
O O1 0.757943 0.151904 0.241981
O O2 0.045016 0.153397 0.214910
O O3 0.965402 0.113213 0.324354
O O4 0.906599 0.034689 0.208385
O O5 0.750000 0.750000 0.817381
O O6 0.876552 0.830420 0.901319
O O7 0.473744 0.780675 0.821385
O O8 0.453643 0.467419 0.094058
O O9 0.181132 0.441465 0.115829
O O10 0.250000 0.410253 0.000000
O O11 0.740408 0.651795 0.641872
O O12 0.541225 0.749165 0.631041
O O13 0.531165 0.632678 0.553319
O O14 0.033694 0.117546 0.577091
O O15 0.008076 0.144905 0.710406
O O16 0.750000 0.925971 0.500000
O O17 0.000000 0.000000 0.500000
O O18 0.439504 0.921596 0.820593
#
# Coordination Sequence:
#
# PCOD9398328 Si02
#       8
#     8   8   8   8   8   8   8   8
#     4  11  24  39  64  97 130 171 212 274 326 388
#     4  11  22  40  66  95 129 165 214 268 326 388
#     4  11  24  45  70  95 129 175 220 261 327 401
#     4  10  21  40  64  88 124 169 225 264 328 392
#     4  10  22  38  66  90 122 174 215 270 327 391
#     4  10  23  42  59  89 126 169 219 273 325 391
#     4  12  23  40  63  98 138 163 221 274 333 377
#     4  11  24  42  66  95 130 173 214 267 324 395
#
# _framework density 18.812463000000001
#
# number of rings (size 3 to 8) (size 9 to 14) (size 15 to 20)
#    0.000    1.250    3.750    1.875    3.500    2.750 
#    0.000    0.000    0.000    2.250    3.250    0.000 
#    0.000    0.000    0.000    0.000    0.000    0.000 
#
# Total GULP energy -356796.185706 kJ/mol
# GULP energy per Si atom -5574.940402 kJ/mol
# Density = 1.876965 g / cm^3
# Si number density = 18.812463 Si / 1000 Ang^3
#
#
#
# Elastic Constant Matrix: (Units=GPa)
#
#
# Indices 1 2 3 4 5 6 
#
# 1 62.0911 23.1255 32.6268 0.0000 0.0000 0.0000
# 2 23.1255 86.5447 55.1318 0.0000 0.0000 0.0000
# 3 32.6268 55.1318 135.6210 0.0000 0.0000 0.0000
# 4 0.0000 0.0000 0.0000 31.8187 0.0000 0.0000
# 5 0.0000 0.0000 0.0000 0.0000 34.0890 0.0000
# 6 0.0000 0.0000 0.0000 0.0000 0.0000 28.8100
#
#
#
# Elastic Compliance Matrix: (Units=1/GPa)
#
#
# Indices 1 2 3 4 5 6 
#
# 1 0.018966 -0.002917 -0.003377 0.000000 0.000000 0.000000
# 2 -0.002917 0.016041 -0.005819 0.000000 0.000000 0.000000
# 3 -0.003377 -0.005819 0.010552 0.000000 0.000000 0.000000
# 4 0.000000 0.000000 0.000000 0.031428 0.000000 0.000000
# 5 0.000000 0.000000 0.000000 0.000000 0.029335 0.000000
# 6 0.000000 0.000000 0.000000 0.000000 0.000000 0.034710
#
#
# Mechanical properties :
#
#
# Convention : Reuss Voigt Hill
#
# Bulk Modulus (GPa) = 46.87601 56.22501 51.55051
# Shear Modulus (GPa) = 29.00752 30.50172 29.75462
#
# Velocity S-wave (km/s) = 3.93100 4.03098 3.98130
# Velocity P-wave (km/s) = 6.75095 7.18450 6.97110
#
# Compressibility (1/GPa) = 0.02133287
#
# Stress axis : x y z
#
# Youngs Moduli (GPa) = 52.72536 62.33977 94.77274
#
# Poissons Ratio (x) = 0.18182 0.32006
# Poissons Ratio (y) = 0.15378 0.55151
# Poissons Ratio (z) = 0.17806 0.36277
#
# Static dielectric constant tensor:
#      x y z
#    x 1.660780 0.000000 0.000000 
#    y 0.000000 1.690170 0.000000 
#    z 0.000000 0.000000 1.652350 
# 
# From -- ./inp_files/30746.got.cif
#   From: 2010.05.17/outbox.ucp.g08.bks.cvg/sg50_16_cif.got.tgz:30746.got - 2010.06.11 16:26:39.
