data_PCOD9398687
_publ_section_title
;
Structure prediction by ZEFSAII (Michael W. Deem and Ramdas Pophale) SiO2 
 PCOD9398687
Probable space group: P M M A
;
_chemical_formula_sum "Si O2"
_cell_formula_units_Z 64
_cell_length_a 18.830475
_cell_length_b 9.232731
_cell_length_c 26.974671
_cell_angle_alpha 90.000000
_cell_angle_beta 90.000000
_cell_angle_gamma 90.000000
_cell_volume 4689.727561
_symmetry_space_group_name_H-M "P M M A"
_symmetry_group_IT_number 51
_symmetry_cell_setting 'orthorhombic'
loop_
_space_group_symop_operation_xyz
x,y,z
1/2-x,-y,z
1/2+x,-y,-z
-x,y,-z
-x,-y,-z
1/2+x,y,-z
1/2-x,y,z
x,-y,z
loop_
_atom_site_type_symbol
_atom_site_label
_atom_site_fract_x
_atom_site_fract_y
_atom_site_fract_z
Si Si1 0.832858 0.174012 0.698631
Si Si2 0.666994 0.673334 0.801058
Si Si3 0.955972 0.666871 0.448190
Si Si4 0.911633 0.326558 0.901949
Si Si5 0.581762 0.173765 0.600836
Si Si6 0.667370 0.173644 0.500345
Si Si7 0.832645 0.825976 0.992780
Si Si8 0.461636 0.833701 0.945976
O O1 0.750000 0.210722 0.688743
O O2 0.853504 0.248000 0.750254
O O3 0.881163 0.217116 0.652135
O O4 0.836883 0.000000 0.703542
O O5 0.750000 0.708355 0.811274
O O6 0.662253 0.500000 0.794418
O O7 0.619884 0.713550 0.848428
O O8 0.944682 0.500000 0.434497
O O9 0.882626 0.747339 0.460583
O O10 0.000000 0.670105 0.500000
O O11 0.007341 0.748413 0.409913
O O12 0.910167 0.500000 0.906840
O O13 0.862803 0.255710 0.944704
O O14 0.990695 0.266129 0.911267
O O15 0.634772 0.206225 0.554807
O O16 0.571444 0.000000 0.600964
O O17 0.750000 0.214800 0.497761
O O18 0.662117 0.000000 0.493752
O O19 0.750000 0.795045 0.999974
O O20 0.841396 0.000000 0.985354
O O21 0.881905 0.787713 0.039968
O O22 0.462433 0.000000 0.928318
O O23 0.500000 0.832039 0.000000
#
# Coordination Sequence:
#
# PCOD9398687 Si02
#       8
#     8   8   8   8   8   8   8   8
#     4   9  17  28  42  60  79 100 131 169 201 229
#     4   9  18  30  40  53  77 106 133 162 195 229
#     4   9  17  27  38  55  79 105 133 163 193 229
#     4  10  18  27  40  57  78 105 135 164 194 229
#     4   9  16  27  42  58  78 104 133 164 197 233
#     4   9  16  26  41  59  79 105 134 162 195 233
#     4   9  17  28  41  57  78 104 132 161 194 232
#     4   8  15  27  40  55  76 101 129 160 193 231
#
# _framework density 13.646846999999999
#
# number of rings (size 3 to 8) (size 9 to 14) (size 15 to 20)
#    0.000    3.000    0.000    2.250    0.000    7.750 
#    0.000    1.250    0.000    2.250    0.000    0.000 
#    0.000    1.000    0.000    5.500    0.000    3.750 
#
# Total GULP energy -356356.707100 kJ/mol
# GULP energy per Si atom -5568.073548 kJ/mol
# Density = 1.361579 g / cm^3
# Si number density = 13.646847 Si / 1000 Ang^3
#
#
#
# Elastic Constant Matrix: (Units=GPa)
#
#
# Indices 1 2 3 4 5 6 
#
# 1 118.4282 47.4676 63.5706 0.0000 0.0000 0.0000
# 2 47.4676 37.1275 42.0135 0.0000 0.0000 0.0000
# 3 63.5706 42.0135 90.7560 0.0000 0.0000 0.0000
# 4 0.0000 0.0000 0.0000 18.8463 0.0000 0.0000
# 5 0.0000 0.0000 0.0000 0.0000 25.6442 0.0000
# 6 0.0000 0.0000 0.0000 0.0000 0.0000 16.9557
#
#
#
# Elastic Compliance Matrix: (Units=1/GPa)
#
#
# Indices 1 2 3 4 5 6 
#
# 1 0.018020 -0.018388 -0.004110 0.000000 0.000000 0.000000
# 2 -0.018388 0.075330 -0.021992 0.000000 0.000000 0.000000
# 3 -0.004110 -0.021992 0.024078 0.000000 0.000000 0.000000
# 4 0.000000 0.000000 0.000000 0.053061 0.000000 0.000000
# 5 0.000000 0.000000 0.000000 0.000000 0.038995 0.000000
# 6 0.000000 0.000000 0.000000 0.000000 0.000000 0.058977
#
#
# Mechanical properties :
#
#
# Convention : Reuss Voigt Hill
#
# Bulk Modulus (GPa) = 35.15228 61.37947 48.26587
# Shear Modulus (GPa) = 13.62676 18.50657 16.06666
#
# Velocity S-wave (km/s) = 3.16338 3.68653 3.43493
# Velocity P-wave (km/s) = 6.25756 7.94955 7.15375
#
# Compressibility (1/GPa) = 0.02844766
#
# Stress axis : x y z
#
# Youngs Moduli (GPa) = 55.49262 13.27495 41.53115
#
# Poissons Ratio (x) = 0.24410 0.17070
# Poissons Ratio (y) = 1.02041 0.91336
# Poissons Ratio (z) = 0.22808 0.29195
#
# Static dielectric constant tensor:
#      x y z
#    x 1.455340 0.000000 0.000000 
#    y 0.000000 1.455900 0.000000 
#    z 0.000000 0.000000 1.421760 
# 
# From -- ./inp_files/35931.got.cif
#   From: 2010.05.17/outbox.cif.g08.bks.cpg/sg51_18_cif.got.tgz:35931.got - 2010.06.03 11:52:47.
