data_PCOD9398386
_publ_section_title
;
Structure prediction by ZEFSAII (Michael W. Deem and Ramdas Pophale) SiO2 
 PCOD9398386
Probable space group: P M M A
;
_chemical_formula_sum "Si O2"
_cell_formula_units_Z 48
_cell_length_a 8.641793
_cell_length_b 21.470257
_cell_length_c 20.279731
_cell_angle_alpha 90.000000
_cell_angle_beta 90.000000
_cell_angle_gamma 90.000000
_cell_volume 3762.732047
_symmetry_space_group_name_H-M "P M M A"
_symmetry_group_IT_number 51
_symmetry_cell_setting 'orthorhombic'
loop_
_space_group_symop_operation_xyz
x,y,z
1/2-x,-y,z
1/2+x,-y,-z
-x,y,-z
-x,-y,-z
1/2+x,y,-z
1/2-x,y,z
x,-y,z
loop_
_atom_site_type_symbol
_atom_site_label
_atom_site_fract_x
_atom_site_fract_y
_atom_site_fract_z
Si Si1 0.437573 0.124166 0.847157
Si Si2 0.064855 0.500000 0.075246
Si Si3 0.434747 0.758729 0.074444
Si Si4 0.436187 0.000000 0.926545
Si Si5 0.436351 0.072728 0.706826
Si Si6 0.934194 0.073547 0.568411
Si Si7 0.435165 0.371698 0.925067
O O1 0.250000 0.129939 0.850434
O O2 0.513563 0.183823 0.880627
O O3 0.482828 0.062226 0.887726
O O4 0.481642 0.111623 0.771251
O O5 0.250000 0.500000 0.073327
O O6 0.001819 0.564504 0.105399
O O7 0.000000 0.500000 0.000000
O O8 0.250000 0.753829 0.070363
O O9 0.504524 0.693960 0.102175
O O10 0.500000 0.768090 0.000000
O O11 0.250000 0.000000 0.928686
O O12 0.500000 0.000000 0.000000
O O13 0.250000 0.072309 0.703552
O O14 0.501121 0.097821 0.637710
O O15 0.485418 0.000000 0.715529
O O16 0.750000 0.077676 0.567575
O O17 0.000000 0.100137 0.500000
O O18 0.979020 0.000000 0.569062
O O19 0.250000 0.373703 0.926193
O O20 0.500000 0.370742 0.000000
#
# Coordination Sequence:
#
# PCOD9398386 Si02
#       7
#     8   4   8   4   8   8   8
#     4  10  19  32  45  57  73  95 123 157 198 241
#     4  10  16  24  38  58  80  98 116 142 177 220
#     4  11  21  32  43  56  73  96 125 160 199 237
#     4  10  20  32  44  56  69  88 119 158 201 242
#     4   9  16  28  44  58  74  96 119 149 189 231
#     4   9  16  25  38  57  78  97 117 142 174 218
#     4  10  17  27  41  57  75  96 120 148 183 225
#
# _framework density 12.756689
#
# number of rings (size 3 to 8) (size 9 to 14) (size 15 to 20)
#    0.000    2.167    0.833    6.750    0.000    4.667 
#    0.000    0.000    0.000    0.000    0.000    0.000 
#    0.000    0.000    0.000    0.000    0.000    0.000 
#
# Total GULP energy -267478.120658 kJ/mol
# GULP energy per Si atom -5572.460847 kJ/mol
# Density = 1.272765 g / cm^3
# Si number density = 12.756689 Si / 1000 Ang^3
#
#
#
# Elastic Constant Matrix: (Units=GPa)
#
#
# Indices 1 2 3 4 5 6 
#
# 1 65.8727 37.8311 28.5495 0.0000 0.0000 0.0000
# 2 37.8311 100.6978 39.8047 0.0000 0.0000 0.0000
# 3 28.5495 39.8047 90.2293 0.0000 0.0000 0.0000
# 4 0.0000 0.0000 0.0000 1.1734 0.0000 0.0000
# 5 0.0000 0.0000 0.0000 0.0000 17.8845 0.0000
# 6 0.0000 0.0000 0.0000 0.0000 0.0000 18.1959
#
#
#
# Elastic Compliance Matrix: (Units=1/GPa)
#
#
# Indices 1 2 3 4 5 6 
#
# 1 0.020334 -0.006172 -0.003711 0.000000 0.000000 0.000000
# 2 -0.006172 0.013902 -0.004180 0.000000 0.000000 0.000000
# 3 -0.003711 -0.004180 0.014101 0.000000 0.000000 0.000000
# 4 0.000000 0.000000 0.000000 0.852238 0.000000 0.000000
# 5 0.000000 0.000000 0.000000 0.000000 0.055914 0.000000
# 6 0.000000 0.000000 0.000000 0.000000 0.000000 0.054957
#
#
# Mechanical properties :
#
#
# Convention : Reuss Voigt Hill
#
# Bulk Modulus (GPa) = 49.47906 52.13002 50.80454
# Shear Modulus (GPa) = 4.77870 17.49172 11.13521
#
# Velocity S-wave (km/s) = 1.93757 3.70696 2.95768
# Velocity P-wave (km/s) = 6.62393 7.69907 7.18165
#
# Compressibility (1/GPa) = 0.02021057
#
# Stress axis : x y z
#
# Youngs Moduli (GPa) = 49.17884 71.93299 70.91706
#
# Poissons Ratio (x) = 0.44400 0.26317
# Poissons Ratio (y) = 0.30355 0.29642
# Poissons Ratio (z) = 0.18250 0.30067
#
# Static dielectric constant tensor:
#      x y z
#    x 1.428600 0.000000 0.000000 
#    y 0.000000 1.437490 0.000000 
#    z 0.000000 0.000000 1.407990 
# 
# From -- ./inp_files/32484.got.cif
#   From: 2010.05.17/outbox.cif.g08.bks.cpg/sg51_17_cif.got.tgz:32484.got - 2010.06.03 11:52:47.
