data_PCOD9398970
_publ_section_title
;
Structure prediction by ZEFSAII (Michael W. Deem and Ramdas Pophale) SiO2 
 PCOD9398970
Probable space group: P M M A
;
_chemical_formula_sum "Si O2"
_cell_formula_units_Z 48
_cell_length_a 20.051154
_cell_length_b 16.235004
_cell_length_c 5.656874
_cell_angle_alpha 90.000000
_cell_angle_beta 90.000000
_cell_angle_gamma 90.000000
_cell_volume 1841.485392
_symmetry_space_group_name_H-M "P M M A"
_symmetry_group_IT_number 51
_symmetry_cell_setting 'orthorhombic'
loop_
_space_group_symop_operation_xyz
x,y,z
1/2-x,-y,z
1/2+x,-y,-z
-x,y,-z
-x,-y,-z
1/2+x,y,-z
1/2-x,y,z
x,-y,z
loop_
_atom_site_type_symbol
_atom_site_label
_atom_site_fract_x
_atom_site_fract_y
_atom_site_fract_z
Si Si1 0.750000 0.321733 0.416670
Si Si2 0.858355 0.156074 0.765935
Si Si3 0.148373 0.904322 0.735384
Si Si4 0.750000 0.331895 0.916879
Si Si5 0.105896 0.654095 0.113651
Si Si6 0.001349 0.168550 0.749422
Si Si7 0.603629 0.403377 0.388902
O O1 0.750000 0.280799 0.673906
O O2 0.681069 0.373120 0.412603
O O3 0.750000 0.280431 0.159536
O O4 0.829129 0.142387 0.504324
O O5 0.877340 0.250871 0.823768
O O6 0.933266 0.116092 0.747083
O O7 0.826111 0.120691 0.003514
O O8 0.069515 0.882049 0.750509
O O9 0.160242 0.000000 0.697884
O O10 0.681709 0.383106 0.912339
O O11 0.074177 0.616792 0.350472
O O12 0.077559 0.640515 0.850823
O O13 0.000000 0.215888 0.500000
O O14 0.000000 0.214363 0.000000
O O15 0.599455 0.500000 0.349697
#
# Coordination Sequence:
#
# PCOD9398970 Si02
#       7
#     4   8   8   4   8   8   8
#     4   8  15  26  42  64  88 114 145 182 225 280
#     4  10  19  30  45  67  95 124 149 178 219 269
#     4  10  19  31  48  71  97 118 141 177 226 283
#     4   8  16  28  43  62  87 122 152 182 224 256
#     4  10  19  31  45  66  94 121 156 190 219 266
#     4   8  16  27  42  64  92 116 141 166 211 269
#     4  10  18  29  45  65  91 121 152 188 231 268
#
# _framework density 26.065913999999999
#
# number of rings (size 3 to 8) (size 9 to 14) (size 15 to 20)
#    0.000    2.667    0.000    2.250    0.000    6.000 
#    0.000    5.000    0.000    0.000    0.000    3.500 
#    0.000  120.000    0.000    0.000    0.000    0.000 
#
# Total GULP energy -267425.099620 kJ/mol
# GULP energy per Si atom -5571.356242 kJ/mol
# Density = 2.600659 g / cm^3
# Si number density = 26.065914 Si / 1000 Ang^3
#
#
#
# Elastic Constant Matrix: (Units=GPa)
#
#
# Indices 1 2 3 4 5 6 
#
# 1 71.6835 3.1151 23.3227 0.0000 0.0000 0.0000
# 2 3.1151 79.8316 47.1578 0.0000 0.0000 0.0000
# 3 23.3227 47.1578 376.0783 0.0000 0.0000 0.0000
# 4 0.0000 0.0000 0.0000 37.1011 0.0000 0.0000
# 5 0.0000 0.0000 0.0000 0.0000 12.0769 0.0000
# 6 0.0000 0.0000 0.0000 0.0000 0.0000 -102.5346
#
#
#
# Elastic Compliance Matrix: (Units=1/GPa)
#
#
# Indices 1 2 3 4 5 6 
#
# 1 0.014238 -0.000037 -0.000878 0.000000 0.000000 0.000000
# 2 -0.000037 0.013529 -0.001694 0.000000 0.000000 0.000000
# 3 -0.000878 -0.001694 0.002926 0.000000 0.000000 0.000000
# 4 0.000000 0.000000 0.000000 0.026953 0.000000 0.000000
# 5 0.000000 0.000000 0.000000 0.000000 0.082803 0.000000
# 6 0.000000 0.000000 0.000000 0.000000 0.000000 -0.009753
#
#
# Mechanical properties :
#
#
# Convention : Reuss Voigt Hill
#
# Bulk Modulus (GPa) = 39.25616 74.97607 57.11612
# Shear Modulus (GPa) = 34.62489 19.59520 27.11004
#
# Velocity S-wave (km/s) = 3.64862 2.74479 3.22849
# Velocity P-wave (km/s) = 5.73088 6.23471 5.98810
#
# Compressibility (1/GPa) = 0.02547371
#
# Stress axis : x y z
#
# Youngs Moduli (GPa) = 70.23661 73.91780 341.77243
#
# Poissons Ratio (x) = 0.00271 0.30020
# Poissons Ratio (y) = 0.00258 0.57900
# Poissons Ratio (z) = 0.06169 0.12523
#
# Static dielectric constant tensor:
#      x y z
#    x 2.288790 0.000000 0.000000 
#    y 0.000000 1.918610 0.000000 
#    z 0.000000 0.000000 2.122170 
# 
# From -- ./inp_files/3548.got.cif
#   From: 2010.05.17/outbox.cif.g08.bks.cpg/sg51_2_cif.got.tgz:3548.got - 2010.06.03 11:52:47.
