data_PCOD9398303
_publ_section_title
;
Structure prediction by ZEFSAII (Michael W. Deem and Ramdas Pophale) SiO2 
 PCOD9398303
Probable space group: P B A N
;
_chemical_formula_sum "Si O2"
_cell_formula_units_Z 64
_cell_length_a 14.583721
_cell_length_b 7.133031
_cell_length_c 25.725420
_cell_angle_alpha 90.000000
_cell_angle_beta 90.000000
_cell_angle_gamma 90.000000
_cell_volume 2676.115988
_symmetry_space_group_name_H-M "P B A N"
_symmetry_group_IT_number 50
_space_group.IT_coordinate_system_code '2'
_symmetry_cell_setting 'orthorhombic'
loop_
_space_group_symop_operation_xyz
x,y,z
1/2-x,1/2-y,z
x,1/2-y,-z
1/2-x,y,-z
-x,-y,-z
1/2+x,1/2+y,-z
-x,1/2+y,z
1/2+x,-y,z
loop_
_atom_site_type_symbol
_atom_site_label
_atom_site_fract_x
_atom_site_fract_y
_atom_site_fract_z
Si Si1 0.634755 0.543888 0.161106
Si Si2 0.240550 0.522223 0.362961
Si Si3 0.880163 0.502239 0.450229
Si Si4 0.276678 0.972015 0.753254
Si Si5 0.592466 0.061845 0.563359
Si Si6 0.902840 0.070843 0.939893
Si Si7 0.878814 0.987144 0.047847
Si Si8 0.425105 0.612306 0.172167
O O1 0.708347 0.569928 0.206064
O O2 0.664126 0.586243 0.101535
O O3 0.534523 0.627675 0.172962
O O4 0.613582 0.320709 0.164226
O O5 0.250000 0.750000 0.361746
O O6 0.307013 0.439652 0.407360
O O7 0.265338 0.458938 0.305335
O O8 0.138325 0.488228 0.384274
O O9 0.870655 0.543318 0.511685
O O10 0.878804 0.276346 0.445221
O O11 0.983225 0.560193 0.436074
O O12 0.250000 0.750000 0.752295
O O13 0.378241 0.977147 0.777642
O O14 0.872609 0.286395 0.946137
O O15 0.892387 0.008165 0.880588
O O16 0.856885 0.955382 0.986816
O O17 0.013243 0.067553 0.947782
#
# Coordination Sequence:
#
# PCOD9398303 Si02
#       8
#     8   8   8   8   8   8   8   8
#     4   9  17  30  47  65  87 116 148 183 223 265
#     4   9  17  30  48  67  90 123 156 182 214 263
#     4   9  17  30  49  72  95 119 149 184 221 262
#     4   9  18  31  46  66  91 119 152 186 220 261
#     4   9  17  30  49  72  95 119 149 184 221 262
#     4   8  13  22  38  60  83 107 137 174 217 263
#     4   8  13  22  38  60  83 107 137 174 217 263
#     4   9  17  30  47  65  87 116 148 183 223 265
#
# _framework density 23.915258000000001
#
# number of rings (size 3 to 8) (size 9 to 14) (size 15 to 20)
#    0.000    3.250    0.000    0.375    0.000    2.500 
#    0.000    1.875    0.000    8.250    0.000    0.000 
#    0.000   20.000    0.000    0.000    0.000    0.000 
#
# Total GULP energy -357298.558251 kJ/mol
# GULP energy per Si atom -5582.789973 kJ/mol
# Density = 2.386083 g / cm^3
# Si number density = 23.915258 Si / 1000 Ang^3
#
#
#
# Elastic Constant Matrix: (Units=GPa)
#
#
# Indices 1 2 3 4 5 6 
#
# 1 67.4514 4.4433 59.9404 0.0000 0.0000 0.0000
# 2 4.4433 80.6173 4.9807 0.0000 0.0000 0.0000
# 3 59.9404 4.9807 175.6914 0.0000 0.0000 0.0000
# 4 0.0000 0.0000 0.0000 3.9448 0.0000 0.0000
# 5 0.0000 0.0000 0.0000 0.0000 -13.1221 0.0000
# 6 0.0000 0.0000 0.0000 0.0000 0.0000 23.1558
#
#
#
# Elastic Compliance Matrix: (Units=1/GPa)
#
#
# Indices 1 2 3 4 5 6 
#
# 1 0.021318 -0.000727 -0.007253 0.000000 0.000000 0.000000
# 2 -0.000727 0.012451 -0.000105 0.000000 0.000000 0.000000
# 3 -0.007253 -0.000105 0.008169 0.000000 0.000000 0.000000
# 4 0.000000 0.000000 0.000000 0.253498 0.000000 0.000000
# 5 0.000000 0.000000 0.000000 0.000000 -0.076207 0.000000
# 6 0.000000 0.000000 0.000000 0.000000 0.000000 0.043186
#
#
# Mechanical properties :
#
#
# Convention : Reuss Voigt Hill
#
# Bulk Modulus (GPa) = 38.80566 51.38766 45.09666
# Shear Modulus (GPa) = 17.41109 19.75543 18.58326
#
# Velocity S-wave (km/s) = 2.70113 2.87724 2.79058
# Velocity P-wave (km/s) = 5.09801 5.70720 5.41118
#
# Compressibility (1/GPa) = 0.02576944
#
# Stress axis : x y z
#
# Youngs Moduli (GPa) = 46.90808 80.31589 122.41242
#
# Poissons Ratio (x) = 0.05838 0.88780
# Poissons Ratio (y) = 0.03410 0.01285
# Poissons Ratio (z) = 0.34020 0.00843
#
# Static dielectric constant tensor:
#      x y z
#    x 1.933790 0.000000 0.000000 
#    y 0.000000 1.979140 0.000000 
#    z 0.000000 0.000000 1.914470 
# 
# From -- ./inp_files/31784.got.cif
#   From: 2010.05.17/outbox.cif.g08.bks.cpg/sg50_16_cif.got.tgz:31784.got - 2010.06.03 11:33:33.
