data_PCOD9398976
_publ_section_title
;
Structure prediction by ZEFSAII (Michael W. Deem and Ramdas Pophale) SiO2 
 PCOD9398976
Probable space group: P M M A
;
_chemical_formula_sum "Si O2"
_cell_formula_units_Z 64
_cell_length_a 29.455198
_cell_length_b 8.640537
_cell_length_c 16.115657
_cell_angle_alpha 90.000000
_cell_angle_beta 90.000000
_cell_angle_gamma 90.000000
_cell_volume 4101.575367
_symmetry_space_group_name_H-M "P M M A"
_symmetry_group_IT_number 51
_symmetry_cell_setting 'orthorhombic'
loop_
_space_group_symop_operation_xyz
x,y,z
1/2-x,-y,z
1/2+x,-y,-z
-x,y,-z
-x,-y,-z
1/2+x,y,-z
1/2-x,y,z
x,-y,z
loop_
_atom_site_type_symbol
_atom_site_label
_atom_site_fract_x
_atom_site_fract_y
_atom_site_fract_z
Si Si1 0.641678 0.812956 0.335739
Si Si2 0.449248 0.313631 0.597427
Si Si3 0.697675 0.188656 0.498346
Si Si4 0.302735 0.312551 0.181066
Si Si5 0.694898 0.678827 0.001753
Si Si6 0.802276 0.185968 0.176505
Si Si7 0.643351 0.814698 0.662945
Si Si8 0.552081 0.313253 0.596002
O O1 0.590563 0.755554 0.347516
O O2 0.670723 0.761461 0.416156
O O3 0.666209 0.759016 0.251698
O O4 0.641724 0.000000 0.335695
O O5 0.447269 0.500000 0.600458
O O6 0.500730 0.267524 0.619867
O O7 0.441528 0.268205 0.500899
O O8 0.750000 0.239519 0.497444
O O9 0.671901 0.238249 0.581794
O O10 0.697824 0.000000 0.497961
O O11 0.250000 0.264834 0.193447
O O12 0.303300 0.500000 0.180153
O O13 0.333459 0.251203 0.254877
O O14 0.318652 0.260398 0.089137
O O15 0.750000 0.682031 0.999642
O O16 0.680885 0.500000 0.008749
O O17 0.681203 0.765585 0.085254
O O18 0.750000 0.240976 0.187267
O O19 0.801073 0.000000 0.180075
O O20 0.591988 0.759052 0.649617
O O21 0.644833 0.000000 0.665282
O O22 0.554768 0.500000 0.599940
#
# Coordination Sequence:
#
# PCOD9398976 Si02
#       8
#     8   8   8   8   8   8   8   8
#     4  10  18  29  45  66  92 123 155 187 225 269
#     4   9  18  32  49  66  86 116 154 196 236 271
#     4   9  17  28  40  58  90 127 156 180 211 256
#     4   9  18  32  48  66  92 126 158 189 229 274
#     4   8  15  29  47  65  87 118 155 193 230 265
#     4   9  17  28  44  67  94 124 155 186 224 269
#     4  11  20  29  45  70  94 121 156 193 229 267
#     4   9  18  33  49  64  87 119 153 193 238 277
#
# _framework density 15.603759999999999
#
# number of rings (size 3 to 8) (size 9 to 14) (size 15 to 20)
#    0.000    2.750    1.250    2.625    0.000    3.750 
#    0.000    2.500    0.000    1.875    0.000    0.875 
#    0.000    7.000    0.000    0.000    0.000    0.000 
#
# Total GULP energy -356619.344660 kJ/mol
# GULP energy per Si atom -5572.177260 kJ/mol
# Density = 1.556824 g / cm^3
# Si number density = 15.603760 Si / 1000 Ang^3
#
#
#
# Elastic Constant Matrix: (Units=GPa)
#
#
# Indices 1 2 3 4 5 6 
#
# 1 114.4205 20.8061 78.7727 0.0000 0.0000 0.0000
# 2 20.8061 9.4161 25.6986 0.0000 0.0000 0.0000
# 3 78.7727 25.6986 146.5142 0.0000 0.0000 0.0000
# 4 0.0000 0.0000 0.0000 21.6382 0.0000 0.0000
# 5 0.0000 0.0000 0.0000 0.0000 9.8454 0.0000
# 6 0.0000 0.0000 0.0000 0.0000 0.0000 19.7126
#
#
#
# Elastic Compliance Matrix: (Units=1/GPa)
#
#
# Indices 1 2 3 4 5 6 
#
# 1 0.016099 -0.022923 -0.004635 0.000000 0.000000 0.000000
# 2 -0.022923 0.236365 -0.029134 0.000000 0.000000 0.000000
# 3 -0.004635 -0.029134 0.014427 0.000000 0.000000 0.000000
# 4 0.000000 0.000000 0.000000 0.046215 0.000000 0.000000
# 5 0.000000 0.000000 0.000000 0.000000 0.101570 0.000000
# 6 0.000000 0.000000 0.000000 0.000000 0.000000 0.050729
#
#
# Mechanical properties :
#
#
# Convention : Reuss Voigt Hill
#
# Bulk Modulus (GPa) = 6.51435 57.87841 32.19638
# Shear Modulus (GPa) = 7.93705 19.91079 13.92392
#
# Velocity S-wave (km/s) = 2.25780 3.57602 2.99045
# Velocity P-wave (km/s) = 3.31373 7.36368 5.70984
#
# Compressibility (1/GPa) = 0.15350723
#
# Stress axis : x y z
#
# Youngs Moduli (GPa) = 62.11653 4.23075 69.31340
#
# Poissons Ratio (x) = 0.09698 0.32125
# Poissons Ratio (y) = 1.42390 2.01937
# Poissons Ratio (z) = 0.28789 0.12326
#
# Static dielectric constant tensor:
#      x y z
#    x 1.506160 0.000000 0.000000 
#    y 0.000000 1.534440 0.000000 
#    z 0.000000 0.000000 1.519610 
# 
# From -- ./inp_files/26712.got.cif
#   From: 2010.05.17/outbox.cif.g08.bks.cpg/sg51_14_cif.got.tgz:26712.got - 2010.06.03 11:52:47.
