data_PCOD9398703
_publ_section_title
;
Structure prediction by ZEFSAII (Michael W. Deem and Ramdas Pophale) SiO2 
 PCOD9398703
Probable space group: P M M A
;
_chemical_formula_sum "Si O2"
_cell_formula_units_Z 56
_cell_length_a 9.157258
_cell_length_b 22.136127
_cell_length_c 18.482423
_cell_angle_alpha 90.000000
_cell_angle_beta 90.000000
_cell_angle_gamma 90.000000
_cell_volume 3746.502215
_symmetry_space_group_name_H-M "P M M A"
_symmetry_group_IT_number 51
_symmetry_cell_setting 'orthorhombic'
loop_
_space_group_symop_operation_xyz
x,y,z
1/2-x,-y,z
1/2+x,-y,-z
-x,y,-z
-x,-y,-z
1/2+x,y,-z
1/2-x,y,z
x,-y,z
loop_
_atom_site_type_symbol
_atom_site_label
_atom_site_fract_x
_atom_site_fract_y
_atom_site_fract_z
Si Si1 0.424992 0.316403 0.922305
Si Si2 0.574619 0.930223 0.423665
Si Si3 0.582392 0.633281 0.699315
Si Si4 0.575808 0.568149 0.175433
Si Si5 0.582328 0.753797 0.799559
Si Si6 0.923720 0.179061 0.322976
Si Si7 0.923435 0.297093 0.422517
O O1 0.250000 0.311701 0.927789
O O2 0.460799 0.380710 0.883696
O O3 0.488764 0.265078 0.869185
O O4 0.500000 0.313371 0.000000
O O5 0.500000 0.914938 0.500000
O O6 0.750000 0.925781 0.432242
O O7 0.531636 0.882891 0.361938
O O8 0.538579 0.000000 0.406448
O O9 0.750000 0.618081 0.682682
O O10 0.506269 0.584084 0.750281
O O11 0.582162 0.694017 0.748625
O O12 0.492776 0.651113 0.628107
O O13 0.750000 0.572592 0.187981
O O14 0.541566 0.500000 0.151714
O O15 0.750000 0.767319 0.818307
O O16 0.509822 0.804901 0.749784
O O17 0.750000 0.177575 0.307883
O O18 0.947641 0.233710 0.380157
O O19 0.750000 0.305418 0.429895
O O20 0.000000 0.295358 0.500000
#
# Coordination Sequence:
#
# PCOD9398703 Si02
#       7
#     8   8   8   8   8   8   8
#     4  10  19  31  47  67  93 120 143 171 209 252
#     4   9  17  28  41  59  87 123 159 192 225 260
#     4   9  17  29  44  62  83 107 138 176 216 257
#     4   9  18  32  48  65  86 114 145 173 204 246
#     4   9  17  29  45  64  85 111 144 180 217 257
#     4   9  17  28  42  61  86 116 149 184 221 259
#     4  10  18  27  41  61  84 109 139 178 222 264
#
# _framework density 14.947276
#
# number of rings (size 3 to 8) (size 9 to 14) (size 15 to 20)
#    0.000    2.714    0.000    2.143    0.000    5.714 
#    0.000    0.000    0.000    0.429    0.000    0.000 
#    0.000    0.571    0.000    1.571    0.000    2.286 
#
# Total GULP energy -312057.693951 kJ/mol
# GULP energy per Si atom -5572.458821 kJ/mol
# Density = 1.491325 g / cm^3
# Si number density = 14.947276 Si / 1000 Ang^3
#
#
#
# Elastic Constant Matrix: (Units=GPa)
#
#
# Indices 1 2 3 4 5 6 
#
# 1 71.5439 36.4965 69.1370 0.0000 0.0000 0.0000
# 2 36.4965 70.4328 54.1436 0.0000 0.0000 0.0000
# 3 69.1370 54.1436 110.1732 0.0000 0.0000 0.0000
# 4 0.0000 0.0000 0.0000 17.4623 0.0000 0.0000
# 5 0.0000 0.0000 0.0000 0.0000 30.5900 0.0000
# 6 0.0000 0.0000 0.0000 0.0000 0.0000 14.8842
#
#
#
# Elastic Compliance Matrix: (Units=1/GPa)
#
#
# Indices 1 2 3 4 5 6 
#
# 1 0.035697 -0.002052 -0.021392 0.000000 0.000000 0.000000
# 2 -0.002052 0.022936 -0.009984 0.000000 0.000000 0.000000
# 3 -0.021392 -0.009984 0.027407 0.000000 0.000000 0.000000
# 4 0.000000 0.000000 0.000000 0.057266 0.000000 0.000000
# 5 0.000000 0.000000 0.000000 0.000000 0.032690 0.000000
# 6 0.000000 0.000000 0.000000 0.000000 0.000000 0.067185
#
#
# Mechanical properties :
#
#
# Convention : Reuss Voigt Hill
#
# Bulk Modulus (GPa) = 52.12806 63.52267 57.82537
# Shear Modulus (GPa) = 15.80105 18.74548 17.27326
#
# Velocity S-wave (km/s) = 3.25486 3.54518 3.40312
# Velocity P-wave (km/s) = 7.00542 7.70375 7.36287
#
# Compressibility (1/GPa) = 0.01918353
#
# Stress axis : x y z
#
# Youngs Moduli (GPa) = 28.01351 43.59892 36.48646
#
# Poissons Ratio (x) = 0.08948 0.78053
# Poissons Ratio (y) = 0.05750 0.36428
# Poissons Ratio (z) = 0.59927 0.43529
#
# Static dielectric constant tensor:
#      x y z
#    x 1.500240 0.000000 0.000000 
#    y 0.000000 1.491020 0.000000 
#    z 0.000000 0.000000 1.469440 
# 
# From -- ./inp_files/28192.got.cif
#   From: 2010.05.17/outbox.cif.g08.bks.cpg/sg51_15_cif.got.tgz:28192.got - 2010.06.03 11:52:47.
