data_PCOD9398100
_publ_section_title
;
Structure prediction by ZEFSAII (Michael W. Deem and Ramdas Pophale) SiO2 
 PCOD9398100
Probable space group: P B A N
;
_chemical_formula_sum "Si O2"
_cell_formula_units_Z 58
_cell_length_a 8.259869
_cell_length_b 16.925274
_cell_length_c 17.993829
_cell_angle_alpha 90.000000
_cell_angle_beta 90.000000
_cell_angle_gamma 90.000000
_cell_volume 2515.547119
_symmetry_space_group_name_H-M "P B A N"
_symmetry_group_IT_number 50
_space_group.IT_coordinate_system_code '2'
_symmetry_cell_setting 'orthorhombic'
loop_
_space_group_symop_operation_xyz
x,y,z
1/2-x,1/2-y,z
x,1/2-y,-z
1/2-x,y,-z
-x,-y,-z
1/2+x,1/2+y,-z
-x,1/2+y,z
1/2+x,-y,z
loop_
_atom_site_type_symbol
_atom_site_label
_atom_site_fract_x
_atom_site_fract_y
_atom_site_fract_z
Si Si1 0.881439 0.547170 0.944531
Si Si2 0.120337 0.621057 0.115651
Si Si3 0.053695 0.840717 0.492326
Si Si4 0.973346 0.403727 0.650227
Si Si5 0.592760 0.694813 0.786344
Si Si6 0.555603 0.352102 0.816608
Si Si7 0.083653 0.918803 0.337734
Si Si8 0.250000 0.750000 0.000000
O O1 0.823911 0.468181 0.903408
O O2 0.965023 0.606025 0.885843
O O3 0.750000 0.585349 0.000000
O O4 0.000000 0.500000 0.000000
O O5 0.254281 0.636186 0.177794
O O6 0.941187 0.625955 0.152473
O O7 0.148812 0.686233 0.050177
O O8 0.002115 0.750000 0.500000
O O9 0.250000 0.841920 0.500000
O O10 0.989012 0.885454 0.564354
O O11 0.014794 0.879823 0.413228
O O12 0.777911 0.404717 0.659863
O O13 0.050597 0.340410 0.706513
O O14 0.046348 0.489038 0.666335
O O15 0.750000 0.750000 0.786623
O O16 0.468364 0.759412 0.816493
O O17 0.503207 0.382726 0.736055
#
# Coordination Sequence:
#
# PCOD9398100 Si02
#       8
#     8   8   8   8   8   8   8   2
#     4  12  26  44  70 104 140 188 246 304 376 452
#     4  12  24  47  71 102 138 192 240 299 377 444
#     4   9  19  40  70 106 145 195 246 300 361 445
#     4  11  24  44  71 105 149 193 247 302 370 443
#     4  12  28  45  70 105 146 185 249 310 370 441
#     4  12  25  45  70 100 142 190 244 304 371 454
#     4  11  24  41  74 106 145 193 245 302 374 447
#     4  12  20  44  74  96 136 190 236 296 356 452
#
# _framework density 23.056614
#
# number of rings (size 3 to 8) (size 9 to 14) (size 15 to 20)
#    0.000    0.690    4.828    2.069    3.862    1.103 
#    0.000    0.345    0.000    0.000    0.000    0.000 
#    0.000    0.000    0.000    0.000    0.000    0.000 
#
# Total GULP energy -323754.241461 kJ/mol
# GULP energy per Si atom -5581.969680 kJ/mol
# Density = 2.300414 g / cm^3
# Si number density = 23.056614 Si / 1000 Ang^3
#
#
#
# Elastic Constant Matrix: (Units=GPa)
#
#
# Indices 1 2 3 4 5 6 
#
# 1 49.7001 6.2122 38.5644 0.0000 0.0000 0.0000
# 2 6.2122 99.2599 53.8810 0.0000 0.0000 0.0000
# 3 38.5644 53.8810 187.2393 0.0000 0.0000 0.0000
# 4 0.0000 0.0000 0.0000 50.8457 0.0000 0.0000
# 5 0.0000 0.0000 0.0000 0.0000 43.4022 0.0000
# 6 0.0000 0.0000 0.0000 0.0000 0.0000 -5.5957
#
#
#
# Elastic Compliance Matrix: (Units=1/GPa)
#
#
# Indices 1 2 3 4 5 6 
#
# 1 0.024112 0.001406 -0.005371 0.000000 0.000000 0.000000
# 2 0.001406 0.012022 -0.003749 0.000000 0.000000 0.000000
# 3 -0.005371 -0.003749 0.007526 0.000000 0.000000 0.000000
# 4 0.000000 0.000000 0.000000 0.019667 0.000000 0.000000
# 5 0.000000 0.000000 0.000000 0.000000 0.023040 0.000000
# 6 0.000000 0.000000 0.000000 0.000000 0.000000 -0.178709
#
#
# Mechanical properties :
#
#
# Convention : Reuss Voigt Hill
#
# Bulk Modulus (GPa) = 35.41997 59.27940 47.34968
# Shear Modulus (GPa) = -74.07096 33.56655 -20.25221
#
# Velocity S-wave (km/s) = -5.67410 3.81968 -2.96694
# Velocity P-wave (km/s) = 5.24707 6.72454 2.97386
#
# Compressibility (1/GPa) = 0.02823266
#
# Stress axis : x y z
#
# Youngs Moduli (GPa) = 41.47228 83.18330 132.87534
#
# Poissons Ratio (x) = -0.11699 0.71368
# Poissons Ratio (y) = -0.05833 0.49816
# Poissons Ratio (z) = 0.22275 0.31186
#
# Static dielectric constant tensor:
#      x y z
#    x 1.972950 0.000000 0.000000 
#    y 0.000000 1.818890 0.000000 
#    z 0.000000 0.000000 1.799180 
# 
# From -- ./inp_files/28885.got.cif
#   From: 2010.05.17/outbox.cif.g08.bks.cpg/sg50_15_cif.got.tgz:28885.got - 2010.06.03 11:33:33.
