data_PCOD9398152
_publ_section_title
;
Structure prediction by ZEFSAII (Michael W. Deem and Ramdas Pophale) SiO2 
 PCOD9398152
Probable space group: P B A N
;
_chemical_formula_sum "Si O2"
_cell_formula_units_Z 24
_cell_length_a 11.913751
_cell_length_b 9.088601
_cell_length_c 8.679574
_cell_angle_alpha 90.000000
_cell_angle_beta 90.000000
_cell_angle_gamma 90.000000
_cell_volume 939.818451
_symmetry_space_group_name_H-M "P B A N"
_symmetry_group_IT_number 50
_space_group.IT_coordinate_system_code '2'
_symmetry_cell_setting 'orthorhombic'
loop_
_space_group_symop_operation_xyz
x,y,z
1/2-x,1/2-y,z
x,1/2-y,-z
1/2-x,y,-z
-x,-y,-z
1/2+x,1/2+y,-z
-x,1/2+y,z
1/2+x,-y,z
loop_
_atom_site_type_symbol
_atom_site_label
_atom_site_fract_x
_atom_site_fract_y
_atom_site_fract_z
Si Si1 0.255593 0.424466 0.678682
Si Si2 0.622138 0.193929 0.674356
Si Si3 0.438356 0.378183 0.102958
O O1 0.250000 0.250000 0.680931
O O2 0.250000 0.469054 0.500000
O O3 0.364959 0.518673 0.713202
O O4 0.151142 0.461196 0.787947
O O5 0.750000 0.250000 0.703588
O O6 0.594056 0.250000 0.500000
O O7 0.521554 0.221053 0.790926
O O8 0.381036 0.250000 0.000000
O O9 0.500000 0.500000 0.000000
#
# Coordination Sequence:
#
# PCOD9398152 Si02
#       3
#     8   8   8
#     4  11  25  45  72 108 144 196 246 300 366 450
#     4  11  24  47  74 106 146 195 247 298 367 449
#     4  12  28  46  74 112 149 191 242 313 379 438
#
# _framework density 25.536846000000001
#
# number of rings (size 3 to 8) (size 9 to 14) (size 15 to 20)
#    0.000    0.667    3.333    4.000    4.667    9.333 
#    0.000    0.000    0.000    0.000    0.000    0.000 
#    0.000    0.000    0.000    0.000    0.000    0.000 
#
# Total GULP energy -133838.718441 kJ/mol
# GULP energy per Si atom -5576.613268 kJ/mol
# Density = 2.547872 g / cm^3
# Si number density = 25.536846 Si / 1000 Ang^3
#
#
#
# Elastic Constant Matrix: (Units=GPa)
#
#
# Indices 1 2 3 4 5 6 
#
# 1 67.4952 27.4999 93.3722 0.0000 0.0000 0.0000
# 2 27.4999 134.8615 42.8606 0.0000 0.0000 0.0000
# 3 93.3722 42.8606 173.9631 0.0000 0.0000 0.0000
# 4 0.0000 0.0000 0.0000 22.2873 0.0000 0.0000
# 5 0.0000 0.0000 0.0000 0.0000 58.9577 0.0000
# 6 0.0000 0.0000 0.0000 0.0000 0.0000 49.9349
#
#
#
# Elastic Compliance Matrix: (Units=1/GPa)
#
#
# Indices 1 2 3 4 5 6 
#
# 1 0.058084 -0.002100 -0.030658 0.000000 0.000000 0.000000
# 2 -0.002100 0.008121 -0.000873 0.000000 0.000000 0.000000
# 3 -0.030658 -0.000873 0.022419 0.000000 0.000000 0.000000
# 4 0.000000 0.000000 0.000000 0.044869 0.000000 0.000000
# 5 0.000000 0.000000 0.000000 0.000000 0.016961 0.000000
# 6 0.000000 0.000000 0.000000 0.000000 0.000000 0.020026
#
#
# Mechanical properties :
#
#
# Convention : Reuss Voigt Hill
#
# Bulk Modulus (GPa) = 46.81745 78.19835 62.50790
# Shear Modulus (GPa) = 20.41951 40.40845 30.41398
#
# Velocity S-wave (km/s) = 2.83080 3.98220 3.45481
# Velocity P-wave (km/s) = 5.39052 7.19946 6.35963
#
# Compressibility (1/GPa) = 0.02135956
#
# Stress axis : x y z
#
# Youngs Moduli (GPa) = 17.21645 123.13900 44.60523
#
# Poissons Ratio (x) = 0.25865 1.36752
# Poissons Ratio (y) = 0.03616 0.03896
# Poissons Ratio (z) = 0.52783 0.10755
#
# Static dielectric constant tensor:
#      x y z
#    x 2.104360 0.000000 0.000000 
#    y 0.000000 2.134920 0.000000 
#    z 0.000000 0.000000 2.561010 
# 
# From -- ./inp_files/8505.got.cif
#   From: 2010.05.17/outbox.cif.g08.bks.cpg/sg50_5_cif.got.tgz:8505.got - 2010.06.03 11:33:33.
