data_PCOD9398597
_publ_section_title
;
Structure prediction by ZEFSAII (Michael W. Deem and Ramdas Pophale) SiO2 
 PCOD9398597
Probable space group: P M M A
;
_chemical_formula_sum "Si O2"
_cell_formula_units_Z 32
_cell_length_a 11.060673
_cell_length_b 9.673069
_cell_length_c 11.794529
_cell_angle_alpha 90.000000
_cell_angle_beta 90.000000
_cell_angle_gamma 90.000000
_cell_volume 1261.904361
_symmetry_space_group_name_H-M "P M M A"
_symmetry_group_IT_number 51
_symmetry_cell_setting 'orthorhombic'
loop_
_space_group_symop_operation_xyz
x,y,z
1/2-x,-y,z
1/2+x,-y,-z
-x,y,-z
-x,-y,-z
1/2+x,y,-z
1/2-x,y,z
x,-y,z
loop_
_atom_site_type_symbol
_atom_site_label
_atom_site_fract_x
_atom_site_fract_y
_atom_site_fract_z
Si Si1 0.997055 0.500000 0.292739
Si Si2 0.016140 0.798069 0.194530
Si Si3 0.250000 0.500000 0.263737
Si Si4 0.616201 0.840641 0.558158
Si Si5 0.750000 0.251184 0.918630
Si Si6 0.250000 0.500000 0.659433
Si Si7 0.250000 0.763373 0.826800
O O1 0.995337 0.633383 0.211196
O O2 0.131764 0.500000 0.340007
O O3 0.887829 0.500000 0.380877
O O4 0.080668 0.844588 0.310386
O O5 0.120569 0.823998 0.101790
O O6 0.877243 0.845582 0.183852
O O7 0.250000 0.630550 0.178364
O O8 0.500000 0.773263 0.500000
O O9 0.750000 0.779989 0.540777
O O10 0.623210 0.000000 0.516527
O O11 0.750000 0.301034 0.047134
O O12 0.250000 0.641554 0.734071
#
# Coordination Sequence:
#
# PCOD9398597 Si02
#       7
#     4   8   2   8   4   2   4
#     4   8  16  28  48  74 109 144 176 209 261 314
#     4  10  19  34  53  80 112 146 177 221 264 309
#     4   8  15  24  44  70 101 146 189 224 246 286
#     4  10  22  41  64  84 101 128 173 226 275 321
#     4  10  17  30  48  76 112 149 187 215 255 307
#     4   8  15  28  40  70 109 148 187 220 246 284
#     4  10  19  28  50  78 114 151 185 215 251 307
#
# _framework density 25.358499999999999
#
# number of rings (size 3 to 8) (size 9 to 14) (size 15 to 20)
#    0.000    2.500    1.250    1.125    1.750    0.000 
#    0.000    8.125    0.000    4.500    0.000    0.000 
#    0.000    0.000    0.000    0.000    0.000    0.000 
#
# Total GULP energy -178342.780999 kJ/mol
# GULP energy per Si atom -5573.211906 kJ/mol
# Density = 2.530078 g / cm^3
# Si number density = 25.358500 Si / 1000 Ang^3
#
#
#
# Elastic Constant Matrix: (Units=GPa)
#
#
# Indices 1 2 3 4 5 6 
#
# 1 328.2992 15.7726 20.8726 0.0000 0.0000 0.0000
# 2 15.7726 97.0803 -2.8826 0.0000 0.0000 0.0000
# 3 20.8726 -2.8826 55.5486 0.0000 0.0000 0.0000
# 4 0.0000 0.0000 0.0000 15.6976 0.0000 0.0000
# 5 0.0000 0.0000 0.0000 0.0000 36.2461 0.0000
# 6 0.0000 0.0000 0.0000 0.0000 0.0000 23.6752
#
#
#
# Elastic Compliance Matrix: (Units=1/GPa)
#
#
# Indices 1 2 3 4 5 6 
#
# 1 0.003149 -0.000548 -0.001212 0.000000 0.000000 0.000000
# 2 -0.000548 0.010412 0.000746 0.000000 0.000000 0.000000
# 3 -0.001212 0.000746 0.018496 0.000000 0.000000 0.000000
# 4 0.000000 0.000000 0.000000 0.063704 0.000000 0.000000
# 5 0.000000 0.000000 0.000000 0.000000 0.027589 0.000000
# 6 0.000000 0.000000 0.000000 0.000000 0.000000 0.042238
#
#
# Mechanical properties :
#
#
# Convention : Reuss Voigt Hill
#
# Bulk Modulus (GPa) = 33.29914 60.93924 47.11919
# Shear Modulus (GPa) = 28.14902 44.93480 36.54191
#
# Velocity S-wave (km/s) = 3.33534 4.21406 3.80019
# Velocity P-wave (km/s) = 5.29080 6.91093 6.15441
#
# Compressibility (1/GPa) = 0.03003081
#
# Stress axis : x y z
#
# Youngs Moduli (GPa) = 317.52511 96.04409 54.06486
#
# Poissons Ratio (x) = 0.05260 0.06552
# Poissons Ratio (y) = 0.17389 -0.04034
# Poissons Ratio (z) = 0.38478 -0.07166
#
# Static dielectric constant tensor:
#      x y z
#    x 2.143680 0.000000 0.000000 
#    y 0.000000 2.066680 0.000000 
#    z 0.000000 0.000000 1.929140 
# 
# From -- ./inp_files/13874.got.cif
#   From: 2010.05.17/outbox.cif.g08.bks.cpg/sg51_7_cif.got.tgz:13874.got - 2010.06.03 11:52:47.
