data_PCOD9398867
_publ_section_title
;
Structure prediction by ZEFSAII (Michael W. Deem and Ramdas Pophale) SiO2 
 PCOD9398867
Probable space group: P M M A
;
_chemical_formula_sum "Si O2"
_cell_formula_units_Z 48
_cell_length_a 17.604894
_cell_length_b 8.036781
_cell_length_c 18.697954
_cell_angle_alpha 90.000000
_cell_angle_beta 90.000000
_cell_angle_gamma 90.000000
_cell_volume 2645.511389
_symmetry_space_group_name_H-M "P M M A"
_symmetry_group_IT_number 51
_symmetry_cell_setting 'orthorhombic'
loop_
_space_group_symop_operation_xyz
x,y,z
1/2-x,-y,z
1/2+x,-y,-z
-x,y,-z
-x,-y,-z
1/2+x,y,-z
1/2-x,y,z
x,-y,z
loop_
_atom_site_type_symbol
_atom_site_label
_atom_site_fract_x
_atom_site_fract_y
_atom_site_fract_z
Si Si1 0.457805 0.685228 0.326569
Si Si2 0.992678 0.000000 0.415262
Si Si3 0.838462 0.197608 0.785061
Si Si4 0.333420 0.000000 0.665837
Si Si5 0.661628 0.301089 0.939302
Si Si6 0.616310 0.685688 0.244632
Si Si7 0.339431 0.802147 0.906446
O O1 0.456330 0.500000 0.359011
O O2 0.468571 0.835219 0.382004
O O3 0.385304 0.713675 0.276590
O O4 0.530829 0.693992 0.274336
O O5 0.000000 0.000000 0.500000
O O6 0.904902 0.000000 0.387978
O O7 0.750000 0.249745 0.784045
O O8 0.870434 0.235969 0.864417
O O9 0.842354 0.000000 0.773663
O O10 0.341048 0.163509 0.715799
O O11 0.250000 0.000000 0.631616
O O12 0.750000 0.242350 0.940108
O O13 0.660701 0.500000 0.937743
O O14 0.629223 0.242026 0.015046
O O15 0.646131 0.500000 0.260817
O O16 0.620274 0.715597 0.159999
O O17 0.250000 0.751744 0.904082
O O18 0.343069 0.000000 0.896798
#
# Coordination Sequence:
#
# PCOD9398867 Si02
#       7
#     8   4   8   4   8   8   8
#     4  10  21  38  60  84 111 145 183 222 270 332
#     4  10  22  42  64  87 119 149 177 215 270 330
#     4  10  19  33  55  81 108 143 188 236 282 325
#     4  10  20  36  58  85 113 145 183 223 267 320
#     4   9  17  28  43  67 102 143 186 233 281 325
#     4  10  20  33  52  78 110 147 186 229 275 323
#     4  10  18  28  44  69 102 142 188 234 278 323
#
# _framework density 18.143941000000002
#
# number of rings (size 3 to 8) (size 9 to 14) (size 15 to 20)
#    0.000    2.167    1.667    2.000    0.000    5.333 
#    0.000    1.667    0.000    5.000    0.000    0.000 
#    0.000    0.000    0.000    0.000    0.000    0.000 
#
# Total GULP energy -267754.974109 kJ/mol
# GULP energy per Si atom -5578.228627 kJ/mol
# Density = 1.810264 g / cm^3
# Si number density = 18.143941 Si / 1000 Ang^3
#
#
#
# Elastic Constant Matrix: (Units=GPa)
#
#
# Indices 1 2 3 4 5 6 
#
# 1 36.3615 31.9990 33.0282 0.0000 0.0000 0.0000
# 2 31.9990 117.7962 59.7376 0.0000 0.0000 0.0000
# 3 33.0282 59.7376 126.6686 0.0000 0.0000 0.0000
# 4 0.0000 0.0000 0.0000 7.0918 0.0000 0.0000
# 5 0.0000 0.0000 0.0000 0.0000 -3.6785 0.0000
# 6 0.0000 0.0000 0.0000 0.0000 0.0000 11.0496
#
#
#
# Elastic Compliance Matrix: (Units=1/GPa)
#
#
# Indices 1 2 3 4 5 6 
#
# 1 0.040420 -0.007407 -0.007046 0.000000 0.000000 0.000000
# 2 -0.007407 0.012515 -0.003971 0.000000 0.000000 0.000000
# 3 -0.007046 -0.003971 0.011605 0.000000 0.000000 0.000000
# 4 0.000000 0.000000 0.000000 0.141007 0.000000 0.000000
# 5 0.000000 0.000000 0.000000 0.000000 -0.271853 0.000000
# 6 0.000000 0.000000 0.000000 0.000000 0.000000 0.090501
#
#
# Mechanical properties :
#
#
# Convention : Reuss Voigt Hill
#
# Bulk Modulus (GPa) = 36.11158 58.92844 47.52001
# Shear Modulus (GPa) = 71.15089 13.29668 42.22378
#
# Velocity S-wave (km/s) = 6.26896 2.71005 4.82929
# Velocity P-wave (km/s) = 8.50563 6.50702 7.57255
#
# Compressibility (1/GPa) = 0.02769195
#
# Stress axis : x y z
#
# Youngs Moduli (GPa) = 24.74022 79.90423 86.17274
#
# Poissons Ratio (x) = 0.59182 0.60720
# Poissons Ratio (y) = 0.18324 0.34218
# Poissons Ratio (z) = 0.17433 0.31729
#
# Static dielectric constant tensor:
#      x y z
#    x 1.637530 0.000000 0.000000 
#    y 0.000000 1.639750 0.000000 
#    z 0.000000 0.000000 1.595850 
# 
# From -- ./inp_files/29593.got.cif
#   From: 2010.05.17/outbox.cif.g08.bks.cpg/sg51_15_cif.got.tgz:29593.got - 2010.06.03 11:52:47.
