data_PCOD9398930
_publ_section_title
;
Structure prediction by ZEFSAII (Michael W. Deem and Ramdas Pophale) SiO2 
 PCOD9398930
Probable space group: P M M A
;
_chemical_formula_sum "Si O2"
_cell_formula_units_Z 48
_cell_length_a 17.734571
_cell_length_b 16.024249
_cell_length_c 9.200747
_cell_angle_alpha 90.000000
_cell_angle_beta 90.000000
_cell_angle_gamma 90.000000
_cell_volume 2614.697556
_symmetry_space_group_name_H-M "P M M A"
_symmetry_group_IT_number 51
_symmetry_cell_setting 'orthorhombic'
loop_
_space_group_symop_operation_xyz
x,y,z
1/2-x,-y,z
1/2+x,-y,-z
-x,y,-z
-x,-y,-z
1/2+x,y,-z
1/2-x,y,z
x,-y,z
loop_
_atom_site_type_symbol
_atom_site_label
_atom_site_fract_x
_atom_site_fract_y
_atom_site_fract_z
Si Si1 0.159974 0.328814 0.996389
Si Si2 0.339949 0.683954 0.652094
Si Si3 0.841333 0.837310 0.826315
Si Si4 0.589006 0.500000 0.009703
Si Si5 0.159054 0.000000 0.655749
Si Si6 0.840102 0.500000 0.329541
Si Si7 0.341440 0.000000 0.991254
Si Si8 0.589662 0.159117 0.506475
O O1 0.250000 0.340577 0.004484
O O2 0.139587 0.247668 0.088818
O O3 0.121334 0.413417 0.051622
O O4 0.142787 0.314451 0.825187
O O5 0.250000 0.699099 0.635974
O O6 0.356093 0.589268 0.598015
O O7 0.384705 0.754927 0.569117
O O8 0.750000 0.839713 0.808005
O O9 0.880536 0.840834 0.671019
O O10 0.864189 0.916942 0.922951
O O11 0.500000 0.500000 0.000000
O O12 0.616958 0.500000 0.176710
O O13 0.128107 0.082112 0.577174
O O14 0.250000 0.000000 0.649918
O O15 0.134242 0.000000 0.824154
O O16 0.750000 0.500000 0.296895
O O17 0.250000 0.000000 0.988634
O O18 0.500000 0.150327 0.500000
#
# Coordination Sequence:
#
# PCOD9398930 Si02
#       8
#     8   8   8   4   4   4   4   8
#     4   9  18  34  57  82 108 142 191 238 272 317
#     4   9  17  35  60  81 103 142 191 232 270 322
#     4  10  20  36  57  82 111 143 178 224 278 324
#     4  10  18  28  49  80 113 146 180 224 286 338
#     4  11  22  41  65  82 101 141 192 229 262 322
#     4   8  16  32  56  80 102 136 192 244 270 308
#     4   9  19  37  64  90 104 125 176 233 270 308
#     4  12  25  38  53  82 120 151 179 219 274 334
#
# _framework density 18.357764
#
# number of rings (size 3 to 8) (size 9 to 14) (size 15 to 20)
#    0.000    2.167    0.000    5.000    0.000    6.000 
#    0.000    4.583    0.000    2.000    0.000    0.000 
#    0.000    0.000    0.000    0.000    0.000    0.000 
#
# Total GULP energy -267912.673413 kJ/mol
# GULP energy per Si atom -5581.514029 kJ/mol
# Density = 1.831598 g / cm^3
# Si number density = 18.357764 Si / 1000 Ang^3
#
#
#
# Elastic Constant Matrix: (Units=GPa)
#
#
# Indices 1 2 3 4 5 6 
#
# 1 61.5891 75.3534 49.6029 0.0000 0.0000 0.0000
# 2 75.3534 208.7321 95.3444 0.0000 0.0000 0.0000
# 3 49.6029 95.3444 118.0875 0.0000 0.0000 0.0000
# 4 0.0000 0.0000 0.0000 -149.7309 0.0000 0.0000
# 5 0.0000 0.0000 0.0000 0.0000 1.6055 0.0000
# 6 0.0000 0.0000 0.0000 0.0000 0.0000 9.8379
#
#
#
# Elastic Compliance Matrix: (Units=1/GPa)
#
#
# Indices 1 2 3 4 5 6 
#
# 1 0.031956 -0.008563 -0.006509 0.000000 0.000000 0.000000
# 2 -0.008563 0.009885 -0.004384 0.000000 0.000000 0.000000
# 3 -0.006509 -0.004384 0.014742 0.000000 0.000000 0.000000
# 4 0.000000 0.000000 0.000000 -0.006679 0.000000 0.000000
# 5 0.000000 0.000000 0.000000 0.000000 0.622870 0.000000
# 6 0.000000 0.000000 0.000000 0.000000 0.000000 0.101648
#
#
# Mechanical properties :
#
#
# Convention : Reuss Voigt Hill
#
# Bulk Modulus (GPa) = 56.59291 92.11223 74.35257
# Shear Modulus (GPa) = 6.10334 -16.45031 -5.17349
#
# Velocity S-wave (km/s) = 1.82534 -2.99673 -1.68055
# Velocity P-wave (km/s) = 5.94451 6.18961 6.06830
#
# Compressibility (1/GPa) = 0.01767006
#
# Stress axis : x y z
#
# Youngs Moduli (GPa) = 31.29334 101.16763 67.83219
#
# Poissons Ratio (x) = 0.86628 0.44155
# Poissons Ratio (y) = 0.26796 0.29738
# Poissons Ratio (z) = 0.20370 0.44352
#
# Static dielectric constant tensor:
#      x y z
#    x 1.601810 0.000000 0.000000 
#    y 0.000000 1.644880 0.000000 
#    z 0.000000 0.000000 1.606070 
# 
# From -- ./inp_files/9773.got.cif
#   From: 2010.05.17/outbox.cif.g08.bks.cpg/sg51_5_cif.got.tgz:9773.got - 2010.06.03 11:52:47.
