data_PCOD9398770
_publ_section_title
;
Structure prediction by ZEFSAII (Michael W. Deem and Ramdas Pophale) SiO2 
 PCOD9398770
Probable space group: P M M A
;
_chemical_formula_sum "Si O2"
_cell_formula_units_Z 52
_cell_length_a 9.250808
_cell_length_b 13.072248
_cell_length_c 31.012860
_cell_angle_alpha 90.000000
_cell_angle_beta 90.000000
_cell_angle_gamma 90.000000
_cell_volume 3750.349693
_symmetry_space_group_name_H-M "P M M A"
_symmetry_group_IT_number 51
_symmetry_cell_setting 'orthorhombic'
loop_
_space_group_symop_operation_xyz
x,y,z
1/2-x,-y,z
1/2+x,-y,-z
-x,y,-z
-x,-y,-z
1/2+x,y,-z
1/2-x,y,z
x,-y,z
loop_
_atom_site_type_symbol
_atom_site_label
_atom_site_fract_x
_atom_site_fract_y
_atom_site_fract_z
Si Si1 0.583081 0.624671 0.043221
Si Si2 0.423816 0.118097 0.454623
Si Si3 0.416891 0.624710 0.129681
Si Si4 0.074542 0.304461 0.395874
Si Si5 0.083448 0.375466 0.784166
Si Si6 0.575058 0.500000 0.546296
Si Si7 0.921892 0.622677 0.696890
O O1 0.750000 0.656939 0.043029
O O2 0.582506 0.500000 0.043198
O O3 0.501228 0.657127 0.086658
O O4 0.500000 0.657226 0.000000
O O5 0.500000 0.141918 0.500000
O O6 0.250000 0.126490 0.459949
O O7 0.469876 0.199065 0.418431
O O8 0.456875 0.000000 0.443574
O O9 0.250000 0.656799 0.128923
O O10 0.417802 0.500000 0.129756
O O11 0.496914 0.657920 0.173326
O O12 0.250000 0.305629 0.394171
O O13 0.033471 0.399741 0.426246
O O14 0.026469 0.323146 0.346893
O O15 0.250000 0.342943 0.785702
O O16 0.081902 0.500000 0.784609
O O17 0.006049 0.345120 0.739776
O O18 0.750000 0.500000 0.541417
O O19 0.500000 0.500000 0.500000
O O20 0.750000 0.640200 0.702683
O O21 0.939916 0.500000 0.690911
#
# Coordination Sequence:
#
# PCOD9398770 Si02
#       7
#     8   8   8   8   8   4   8
#     4   9  15  21  28  38  53  73  98 133 177 220
#     4   9  17  29  44  60  77  97 121 148 177 210
#     4   9  15  22  31  42  55  75 105 136 167 209
#     4   9  16  27  42  57  74  96 121 146 175 212
#     4   9  16  24  33  46  64  83 103 133 170 207
#     4  10  18  28  40  56  76  98 120 144 173 210
#     4   9  15  25  39  51  64  87 115 139 166 206
#
# _framework density 13.865373999999999
#
# number of rings (size 3 to 8) (size 9 to 14) (size 15 to 20)
#    0.000    2.923    0.769    1.846    0.000    5.538 
#    0.000    1.538    0.000    0.000    0.000    0.000 
#    0.000    0.000    0.000    0.000    0.000    0.000 
#
# Total GULP energy -289523.868740 kJ/mol
# GULP energy per Si atom -5567.766707 kJ/mol
# Density = 1.383382 g / cm^3
# Si number density = 13.865374 Si / 1000 Ang^3
#
#
#
# Elastic Constant Matrix: (Units=GPa)
#
#
# Indices 1 2 3 4 5 6 
#
# 1 81.9733 21.3723 77.2463 0.0000 0.0000 0.0000
# 2 21.3723 31.7850 40.0814 0.0000 0.0000 0.0000
# 3 77.2463 40.0814 172.2447 0.0000 0.0000 0.0000
# 4 0.0000 0.0000 0.0000 7.3100 0.0000 0.0000
# 5 0.0000 0.0000 0.0000 0.0000 27.2413 0.0000
# 6 0.0000 0.0000 0.0000 0.0000 0.0000 4.5251
#
#
#
# Elastic Compliance Matrix: (Units=1/GPa)
#
#
# Indices 1 2 3 4 5 6 
#
# 1 0.021360 -0.003231 -0.008827 0.000000 0.000000 0.000000
# 2 -0.003231 0.045016 -0.009026 0.000000 0.000000 0.000000
# 3 -0.008827 -0.009026 0.011865 0.000000 0.000000 0.000000
# 4 0.000000 0.000000 0.000000 0.136799 0.000000 0.000000
# 5 0.000000 0.000000 0.000000 0.000000 0.036709 0.000000
# 6 0.000000 0.000000 0.000000 0.000000 0.000000 0.220987
#
#
# Mechanical properties :
#
#
# Convention : Reuss Voigt Hill
#
# Bulk Modulus (GPa) = 27.72256 62.60032 45.16144
# Shear Modulus (GPa) = 9.48894 17.63550 13.56222
#
# Velocity S-wave (km/s) = 2.61887 3.57025 3.13091
# Velocity P-wave (km/s) = 5.40205 7.88938 6.76108
#
# Compressibility (1/GPa) = 0.03607171
#
# Stress axis : x y z
#
# Youngs Moduli (GPa) = 46.81698 22.21425 84.28218
#
# Poissons Ratio (x) = 0.07177 0.74399
# Poissons Ratio (y) = 0.15126 0.76076
# Poissons Ratio (z) = 0.41327 0.20051
#
# Static dielectric constant tensor:
#      x y z
#    x 1.463720 0.000000 0.000000 
#    y 0.000000 1.426670 0.000000 
#    z 0.000000 0.000000 1.455570 
# 
# From -- ./inp_files/36354.got.cif
#   From: 2010.05.17/outbox.cif.g08.bks.cpg/sg51_19_cif.got.tgz:36354.got - 2010.06.03 11:52:47.
