data_PCOD9398407
_publ_section_title
;
Structure prediction by ZEFSAII (Michael W. Deem and Ramdas Pophale) SiO2 
 PCOD9398407
Probable space group: P M M A
;
_chemical_formula_sum "Si O2"
_cell_formula_units_Z 64
_cell_length_a 17.948886
_cell_length_b 13.358990
_cell_length_c 15.866151
_cell_angle_alpha 90.000000
_cell_angle_beta 90.000000
_cell_angle_gamma 90.000000
_cell_volume 3804.369640
_symmetry_space_group_name_H-M "P M M A"
_symmetry_group_IT_number 51
_symmetry_cell_setting 'orthorhombic'
loop_
_space_group_symop_operation_xyz
x,y,z
1/2-x,-y,z
1/2+x,-y,-z
-x,y,-z
-x,-y,-z
1/2+x,y,-z
1/2-x,y,z
x,-y,z
loop_
_atom_site_type_symbol
_atom_site_label
_atom_site_fract_x
_atom_site_fract_y
_atom_site_fract_z
Si Si1 0.440955 0.273192 0.072678
Si Si2 0.337241 0.886443 0.845159
Si Si3 0.433144 0.200899 0.692701
Si Si4 0.400488 0.879949 0.334622
Si Si5 0.336577 0.320988 0.936927
Si Si6 0.589434 0.115755 0.482573
Si Si7 0.833634 0.119181 0.841609
Si Si8 0.949692 0.614290 0.199301
O O1 0.397331 0.179713 0.110909
O O2 0.485059 0.332803 0.144707
O O3 0.500000 0.244532 0.000000
O O4 0.380178 0.339506 0.023311
O O5 0.250000 0.882948 0.819560
O O6 0.389670 0.858429 0.766457
O O7 0.345963 0.797841 0.913466
O O8 0.352924 0.000000 0.874778
O O9 0.518653 0.164240 0.687889
O O10 0.397625 0.178068 0.601865
O O11 0.433979 0.316074 0.720582
O O12 0.376740 0.847860 0.428703
O O13 0.344995 0.859791 0.257951
O O14 0.409999 0.000000 0.340237
O O15 0.250000 0.343601 0.941609
O O16 0.377896 0.378032 0.861704
O O17 0.500000 0.116581 0.500000
O O18 0.610741 0.000000 0.466724
O O19 0.750000 0.148105 0.868827
O O20 0.841627 0.000000 0.853800
O O21 0.966939 0.500000 0.218662
#
# Coordination Sequence:
#
# PCOD9398407 Si02
#       8
#     8   8   8   8   8   8   8   8
#     4  10  20  35  51  73  96 128 168 211 254 298
#     4   9  17  28  43  67 100 131 155 186 232 288
#     4  10  16  29  49  69  93 129 163 196 240 292
#     4   9  16  28  48  74  99 130 166 192 227 284
#     4   9  19  33  50  71  96 127 164 202 250 306
#     4   8  14  24  44  74 101 125 158 196 228 273
#     4  10  20  33  50  75 107 138 165 197 241 296
#     4  10  21  35  51  71  96 124 163 218 264 295
#
# _framework density 16.822761
#
# number of rings (size 3 to 8) (size 9 to 14) (size 15 to 20)
#    0.000    2.625    1.250    2.250    0.000    3.250 
#    0.000    1.875    0.000    6.750    0.000    0.000 
#    0.000    0.000    0.000    0.000    0.000    0.000 
#
# Total GULP energy -356651.457120 kJ/mol
# GULP energy per Si atom -5572.679018 kJ/mol
# Density = 1.678447 g / cm^3
# Si number density = 16.822761 Si / 1000 Ang^3
#
#
#
# Elastic Constant Matrix: (Units=GPa)
#
#
# Indices 1 2 3 4 5 6 
#
# 1 67.2580 20.6998 17.5618 0.0000 0.0000 0.0000
# 2 20.6998 70.9916 29.0101 0.0000 0.0000 0.0000
# 3 17.5618 29.0101 76.4083 0.0000 0.0000 0.0000
# 4 0.0000 0.0000 0.0000 5.7834 0.0000 0.0000
# 5 0.0000 0.0000 0.0000 0.0000 11.4935 0.0000
# 6 0.0000 0.0000 0.0000 0.0000 0.0000 5.9232
#
#
#
# Elastic Compliance Matrix: (Units=1/GPa)
#
#
# Indices 1 2 3 4 5 6 
#
# 1 0.016684 -0.003903 -0.002353 0.000000 0.000000 0.000000
# 2 -0.003903 0.017586 -0.005780 0.000000 0.000000 0.000000
# 3 -0.002353 -0.005780 0.015823 0.000000 0.000000 0.000000
# 4 0.000000 0.000000 0.000000 0.172908 0.000000 0.000000
# 5 0.000000 0.000000 0.000000 0.000000 0.087006 0.000000
# 6 0.000000 0.000000 0.000000 0.000000 0.000000 0.168829
#
#
# Mechanical properties :
#
#
# Convention : Reuss Voigt Hill
#
# Bulk Modulus (GPa) = 38.43030 38.80015 38.61523
# Shear Modulus (GPa) = 9.77363 14.46575 12.11969
#
# Velocity S-wave (km/s) = 2.41296 2.93557 2.68700
# Velocity P-wave (km/s) = 5.53688 5.88254 5.71232
#
# Compressibility (1/GPa) = 0.02602113
#
# Stress axis : x y z
#
# Youngs Moduli (GPa) = 59.93862 56.86280 63.20000
#
# Poissons Ratio (x) = 0.22195 0.14869
# Poissons Ratio (y) = 0.23396 0.36529
# Poissons Ratio (z) = 0.14102 0.32866
#
# Static dielectric constant tensor:
#      x y z
#    x 1.579350 0.000000 0.000000 
#    y 0.000000 1.553840 0.000000 
#    z 0.000000 0.000000 1.602050 
# 
# From -- ./inp_files/30322.got.cif
#   From: 2010.05.17/outbox.cif.g08.bks.cpg/sg51_16_cif.got.tgz:30322.got - 2010.06.03 11:52:47.
