data_PCOD9398997
_publ_section_title
;
Structure prediction by ZEFSAII (Michael W. Deem and Ramdas Pophale) SiO2 
 PCOD9398997
Probable space group: P M M A
;
_chemical_formula_sum "Si O2"
_cell_formula_units_Z 64
_cell_length_a 8.906997
_cell_length_b 14.728613
_cell_length_c 31.836668
_cell_angle_alpha 90.000000
_cell_angle_beta 90.000000
_cell_angle_gamma 90.000000
_cell_volume 4176.579626
_symmetry_space_group_name_H-M "P M M A"
_symmetry_group_IT_number 51
_symmetry_cell_setting 'orthorhombic'
loop_
_space_group_symop_operation_xyz
x,y,z
1/2-x,-y,z
1/2+x,-y,-z
-x,y,-z
-x,-y,-z
1/2+x,y,-z
1/2-x,y,z
x,-y,z
loop_
_atom_site_type_symbol
_atom_site_label
_atom_site_fract_x
_atom_site_fract_y
_atom_site_fract_z
Si Si1 0.423308 0.610436 0.956909
Si Si2 0.070576 0.393666 0.454702
Si Si3 0.430749 0.605851 0.130565
Si Si4 0.068034 0.708285 0.214663
Si Si5 0.569569 0.103877 0.653803
Si Si6 0.930710 0.394031 0.294186
Si Si7 0.929811 0.283634 0.378324
Si Si8 0.932250 0.100568 0.752234
O O1 0.250000 0.636874 0.956317
O O2 0.430587 0.500000 0.957442
O O3 0.503593 0.638114 0.913828
O O4 0.500000 0.642075 0.000000
O O5 0.250000 0.383661 0.456388
O O6 0.036105 0.500000 0.445888
O O7 0.000000 0.371855 0.500000
O O8 0.002052 0.332005 0.418351
O O9 0.250000 0.608546 0.128081
O O10 0.474308 0.500000 0.136972
O O11 0.479480 0.664639 0.170532
O O12 0.250000 0.705766 0.216131
O O13 0.018221 0.812491 0.221342
O O14 0.006242 0.650329 0.253555
O O15 0.750000 0.114982 0.650823
O O16 0.488079 0.181428 0.627762
O O17 0.528336 0.114345 0.703163
O O18 0.533668 0.000000 0.641717
O O19 0.750000 0.388107 0.289930
O O20 0.971318 0.500000 0.297968
O O21 0.973563 0.339364 0.336198
O O22 0.750000 0.285591 0.381696
O O23 0.750000 0.098901 0.753684
O O24 0.984992 0.000000 0.765243
#
# Coordination Sequence:
#
# PCOD9398997 Si02
#       8
#     8   8   8   8   8   8   8   8
#     4   9  16  26  41  59  79 108 146 187 227 267
#     4  10  21  37  57  79 102 129 161 197 237 282
#     4   9  17  27  38  57  86 118 151 187 226 268
#     4  10  18  29  46  65  88 120 159 196 228 270
#     4   9  17  31  51  73  97 125 160 202 243 283
#     4  10  21  33  43  61  93 129 159 190 229 270
#     4  11  21  33  51  74 101 130 161 198 238 283
#     4   8  14  26  45  67  90 117 152 196 239 274
#
# _framework density 15.323543000000001
#
# number of rings (size 3 to 8) (size 9 to 14) (size 15 to 20)
#    0.000    2.500    1.250    2.625    0.000    4.750 
#    0.000    1.250    0.000    0.750    0.000    0.000 
#    0.000    0.500    0.000    0.875    0.000    1.250 
#
# Total GULP energy -356796.891682 kJ/mol
# GULP energy per Si atom -5574.951433 kJ/mol
# Density = 1.528867 g / cm^3
# Si number density = 15.323543 Si / 1000 Ang^3
#
#
#
# Elastic Constant Matrix: (Units=GPa)
#
#
# Indices 1 2 3 4 5 6 
#
# 1 29.9826 36.2467 45.9161 0.0000 0.0000 0.0000
# 2 36.2467 109.7251 79.5945 0.0000 0.0000 0.0000
# 3 45.9161 79.5945 140.3494 0.0000 0.0000 0.0000
# 4 0.0000 0.0000 0.0000 8.3621 0.0000 0.0000
# 5 0.0000 0.0000 0.0000 0.0000 25.4047 0.0000
# 6 0.0000 0.0000 0.0000 0.0000 0.0000 16.4946
#
#
#
# Elastic Compliance Matrix: (Units=1/GPa)
#
#
# Indices 1 2 3 4 5 6 
#
# 1 0.074918 -0.011840 -0.017795 0.000000 0.000000 0.000000
# 2 -0.011840 0.017354 -0.005969 0.000000 0.000000 0.000000
# 3 -0.017795 -0.005969 0.016332 0.000000 0.000000 0.000000
# 4 0.000000 0.000000 0.000000 0.119588 0.000000 0.000000
# 5 0.000000 0.000000 0.000000 0.000000 0.039363 0.000000
# 6 0.000000 0.000000 0.000000 0.000000 0.000000 0.060626
#
#
# Mechanical properties :
#
#
# Convention : Reuss Voigt Hill
#
# Bulk Modulus (GPa) = 26.74005 67.06352 46.90179
# Shear Modulus (GPa) = 12.14021 17.93893 15.03957
#
# Velocity S-wave (km/s) = 2.81776 3.42523 3.13624
# Velocity P-wave (km/s) = 5.29854 7.71382 6.61731
#
# Compressibility (1/GPa) = 0.03739708
#
# Stress axis : x y z
#
# Youngs Moduli (GPa) = 13.34785 57.62207 61.23037
#
# Poissons Ratio (x) = 0.68224 1.08962
# Poissons Ratio (y) = 0.15804 0.36545
# Poissons Ratio (z) = 0.23753 0.34392
#
# Static dielectric constant tensor:
#      x y z
#    x 1.510980 0.000000 0.000000 
#    y 0.000000 1.508200 0.000000 
#    z 0.000000 0.000000 1.487140 
# 
# From -- ./inp_files/37679.got.cif
#   From: 2010.05.17/outbox.cif.g08.bks.cpg/sg51_19_cif.got.tgz:37679.got - 2010.06.03 11:52:47.
