data_PCOD9398563
_publ_section_title
;
Structure prediction by ZEFSAII (Michael W. Deem and Ramdas Pophale) SiO2 
 PCOD9398563
Probable space group: P M M A
;
_chemical_formula_sum "Si O2"
_cell_formula_units_Z 64
_cell_length_a 20.219518
_cell_length_b 7.341668
_cell_length_c 21.023044
_cell_angle_alpha 90.000000
_cell_angle_beta 90.000000
_cell_angle_gamma 90.000000
_cell_volume 3120.765520
_symmetry_space_group_name_H-M "P M M A"
_symmetry_group_IT_number 51
_symmetry_cell_setting 'orthorhombic'
loop_
_space_group_symop_operation_xyz
x,y,z
1/2-x,-y,z
1/2+x,-y,-z
-x,y,-z
-x,-y,-z
1/2+x,y,-z
1/2-x,y,z
x,-y,z
loop_
_atom_site_type_symbol
_atom_site_label
_atom_site_fract_x
_atom_site_fract_y
_atom_site_fract_z
Si Si1 0.822810 0.215442 0.766702
Si Si2 0.457862 0.289374 0.442353
Si Si3 0.324113 0.221597 0.885184
Si Si4 0.539718 0.779590 0.316494
Si Si5 0.824029 0.280491 0.616708
Si Si6 0.323943 0.778467 0.737396
Si Si7 0.038222 0.222381 0.937036
Si Si8 0.538466 0.222394 0.810388
O O1 0.750000 0.291815 0.780565
O O2 0.834892 0.236126 0.691089
O O3 0.886110 0.286265 0.804131
O O4 0.820011 0.000000 0.779396
O O5 0.500000 0.207219 0.500000
O O6 0.445149 0.500000 0.459848
O O7 0.502521 0.284874 0.379127
O O8 0.385990 0.211247 0.424039
O O9 0.250000 0.280414 0.903453
O O10 0.335562 0.274008 0.811238
O O11 0.385610 0.280434 0.928109
O O12 0.323858 0.000000 0.885718
O O13 0.615514 0.720023 0.306650
O O14 0.500414 0.722996 0.253150
O O15 0.538721 0.000000 0.318630
O O16 0.750000 0.216784 0.599308
O O17 0.823821 0.500000 0.612689
O O18 0.250000 0.719666 0.719161
O O19 0.324133 0.000000 0.737101
O O20 0.998644 0.278904 0.873988
O O21 0.038686 0.000000 0.937998
O O22 0.000000 0.282381 0.000000
O O23 0.538455 0.000000 0.810393
#
# Coordination Sequence:
#
# PCOD9398563 Si02
#       8
#     8   8   8   8   8   8   8   8
#     4   9  16  26  42  64  89 115 142 178 225 267
#     4  10  21  35  48  66  94 121 145 178 221 267
#     4   8  12  19  31  48  72 104 142 179 215 256
#     4  10  17  28  48  69  88 113 149 188 222 260
#     4   9  17  30  48  67  86 112 148 183 213 255
#     4   8  13  22  39  63  87 110 141 185 228 259
#     4   9  15  22  32  50  80 117 150 178 212 260
#     4   9  15  24  38  59  84 110 145 182 217 256
#
# _framework density 20.507788999999999
#
# number of rings (size 3 to 8) (size 9 to 14) (size 15 to 20)
#    0.000    3.000    2.500    0.750    0.000    0.250 
#    0.000    1.250    0.000    4.875    0.000    0.000 
#    0.000    2.000    0.000    0.000    0.750    0.250 
#
# Total GULP energy -357024.300799 kJ/mol
# GULP energy per Si atom -5578.504700 kJ/mol
# Density = 2.046111 g / cm^3
# Si number density = 20.507789 Si / 1000 Ang^3
#
#
#
# Elastic Constant Matrix: (Units=GPa)
#
#
# Indices 1 2 3 4 5 6 
#
# 1 210.8855 1.2568 79.7904 0.0000 0.0000 0.0000
# 2 1.2568 77.4690 -5.5497 0.0000 0.0000 0.0000
# 3 79.7904 -5.5497 103.7066 0.0000 0.0000 0.0000
# 4 0.0000 0.0000 0.0000 -39.8496 0.0000 0.0000
# 5 0.0000 0.0000 0.0000 0.0000 27.6165 0.0000
# 6 0.0000 0.0000 0.0000 0.0000 0.0000 -2.2385
#
#
#
# Elastic Compliance Matrix: (Units=1/GPa)
#
#
# Indices 1 2 3 4 5 6 
#
# 1 0.006707 -0.000480 -0.005186 0.000000 0.000000 0.000000
# 2 -0.000480 0.012992 0.001065 0.000000 0.000000 0.000000
# 3 -0.005186 0.001065 0.013690 0.000000 0.000000 0.000000
# 4 0.000000 0.000000 0.000000 -0.025094 0.000000 0.000000
# 5 0.000000 0.000000 0.000000 0.000000 0.036210 0.000000
# 6 0.000000 0.000000 0.000000 0.000000 0.000000 -0.446719
#
#
# Mechanical properties :
#
#
# Convention : Reuss Voigt Hill
#
# Bulk Modulus (GPa) = 41.34604 60.33957 50.84280
# Shear Modulus (GPa) = -12.98873 18.20991 2.61059
#
# Velocity S-wave (km/s) = -2.51939 2.98308 1.12949
# Velocity P-wave (km/s) = 3.42663 6.43053 5.15235
#
# Compressibility (1/GPa) = 0.02418612
#
# Stress axis : x y z
#
# Youngs Moduli (GPa) = 149.10005 76.96766 73.04848
#
# Poissons Ratio (x) = 0.03697 0.37882
# Poissons Ratio (y) = 0.07161 -0.07778
# Poissons Ratio (z) = 0.77322 -0.08196
#
# Static dielectric constant tensor:
#      x y z
#    x 1.761800 0.000000 0.000000 
#    y 0.000000 1.475100 0.000000 
#    z 0.000000 0.000000 1.664200 
# 
# From -- ./inp_files/30702.got.cif
#   From: 2010.05.17/outbox.cif.g08.bks.cpg/sg51_16_cif.got.tgz:30702.got - 2010.06.03 11:52:47.
