data_PCOD9398792
_publ_section_title
;
Structure prediction by ZEFSAII (Michael W. Deem and Ramdas Pophale) SiO2 
 PCOD9398792
Probable space group: P M M A
;
_chemical_formula_sum "Si O2"
_cell_formula_units_Z 64
_cell_length_a 29.714286
_cell_length_b 7.585044
_cell_length_c 16.114874
_cell_angle_alpha 90.000000
_cell_angle_beta 90.000000
_cell_angle_gamma 90.000000
_cell_volume 3632.037449
_symmetry_space_group_name_H-M "P M M A"
_symmetry_group_IT_number 51
_symmetry_cell_setting 'orthorhombic'
loop_
_space_group_symop_operation_xyz
x,y,z
1/2-x,-y,z
1/2+x,-y,-z
-x,y,-z
-x,-y,-z
1/2+x,y,-z
1/2-x,y,z
x,-y,z
loop_
_atom_site_type_symbol
_atom_site_label
_atom_site_fract_x
_atom_site_fract_y
_atom_site_fract_z
Si Si1 0.700355 0.284877 0.910542
Si Si2 0.055956 0.211185 0.329533
Si Si3 0.546669 0.783422 0.309675
Si Si4 0.945481 0.796244 0.491439
Si Si5 0.101329 0.207070 0.850673
Si Si6 0.450673 0.706035 0.016559
Si Si7 0.890798 0.712089 0.833407
Si Si8 0.800203 0.712561 0.103084
O O1 0.750000 0.227505 0.883801
O O2 0.700358 0.500000 0.910583
O O3 0.659065 0.223169 0.855153
O O4 0.693891 0.232178 0.006755
O O5 0.069537 0.282435 0.420525
O O6 0.090636 0.247460 0.256901
O O7 0.005710 0.272084 0.303863
O O8 0.052081 0.000000 0.339224
O O9 0.564148 0.721924 0.400147
O O10 0.575931 0.724656 0.231299
O O11 0.547304 0.000000 0.310937
O O12 0.000000 0.797223 0.500000
O O13 0.930191 0.000000 0.488750
O O14 0.155122 0.231400 0.848684
O O15 0.091836 0.000000 0.855689
O O16 0.080351 0.285037 0.934903
O O17 0.457897 0.500000 0.036350
O O18 0.424622 0.782063 0.095682
O O19 0.500000 0.784260 0.000000
O O20 0.889435 0.500000 0.841540
O O21 0.750000 0.771702 0.130194
O O22 0.799736 0.500000 0.104008
#
# Coordination Sequence:
#
# PCOD9398792 Si02
#       8
#     8   8   8   8   8   8   8   8
#     4   8  14  27  46  61  74 102 145 183 210 245
#     4   9  16  27  45  65  85 112 147 180 209 250
#     4   8  15  27  42  63  89 116 144 173 211 257
#     4   7  11  23  43  62  80 108 146 180 206 245
#     4  11  20  28  43  67  93 116 141 183 227 262
#     4  10  20  32  43  57  85 125 160 180 202 252
#     4  10  18  28  42  61  85 112 142 177 215 255
#     4   9  17  32  51  64  80 112 152 187 217 259
#
# _framework density 17.620965000000002
#
# number of rings (size 3 to 8) (size 9 to 14) (size 15 to 20)
#    0.000    3.000    1.250    3.375    0.000    1.000 
#    0.000    0.625    0.000    5.250    0.000    0.875 
#    0.000    5.000    0.000    0.000    0.000    0.000 
#
# Total GULP energy -356566.774138 kJ/mol
# GULP energy per Si atom -5571.355846 kJ/mol
# Density = 1.758086 g / cm^3
# Si number density = 17.620965 Si / 1000 Ang^3
#
#
#
# Elastic Constant Matrix: (Units=GPa)
#
#
# Indices 1 2 3 4 5 6 
#
# 1 81.5320 -2.2434 23.4282 0.0000 0.0000 0.0000
# 2 -2.2434 34.6722 -6.4814 0.0000 0.0000 0.0000
# 3 23.4282 -6.4814 78.5572 0.0000 0.0000 0.0000
# 4 0.0000 0.0000 0.0000 11.8699 0.0000 0.0000
# 5 0.0000 0.0000 0.0000 0.0000 10.8043 0.0000
# 6 0.0000 0.0000 0.0000 0.0000 0.0000 11.7355
#
#
#
# Elastic Compliance Matrix: (Units=1/GPa)
#
#
# Indices 1 2 3 4 5 6 
#
# 1 0.013415 0.000122 -0.003991 0.000000 0.000000 0.000000
# 2 0.000122 0.029294 0.002381 0.000000 0.000000 0.000000
# 3 -0.003991 0.002381 0.014116 0.000000 0.000000 0.000000
# 4 0.000000 0.000000 0.000000 0.084247 0.000000 0.000000
# 5 0.000000 0.000000 0.000000 0.000000 0.092556 0.000000
# 6 0.000000 0.000000 0.000000 0.000000 0.000000 0.085211
#
#
# Mechanical properties :
#
#
# Convention : Reuss Voigt Hill
#
# Bulk Modulus (GPa) = 18.57030 24.90758 21.73894
# Shear Modulus (GPa) = 14.71600 18.88580 16.80090
#
# Velocity S-wave (km/s) = 2.89302 3.27736 3.09117
# Velocity P-wave (km/s) = 4.66058 5.33735 5.01041
#
# Compressibility (1/GPa) = 0.05384943
#
# Stress axis : x y z
#
# Youngs Moduli (GPa) = 74.54218 34.13616 70.84078
#
# Poissons Ratio (x) = -0.00416 0.28271
# Poissons Ratio (y) = -0.00909 -0.16864
# Poissons Ratio (z) = 0.29748 -0.08126
#
# Static dielectric constant tensor:
#      x y z
#    x 1.602360 0.000000 0.000000 
#    y 0.000000 1.671890 0.000000 
#    z 0.000000 0.000000 1.617170 
# 
# From -- ./inp_files/26563.got.cif
#   From: 2010.05.17/outbox.cif.g08.bks.cpg/sg51_14_cif.got.tgz:26563.got - 2010.06.03 11:52:47.
