data_PCOD9398306
_publ_section_title
;
Structure prediction by ZEFSAII (Michael W. Deem and Ramdas Pophale) SiO2 
 PCOD9398306
Probable space group: P B A N
;
_chemical_formula_sum "Si O2"
_cell_formula_units_Z 64
_cell_length_a 23.169054
_cell_length_b 16.921541
_cell_length_c 9.060893
_cell_angle_alpha 90.000000
_cell_angle_beta 90.000000
_cell_angle_gamma 90.000000
_cell_volume 3552.378347
_symmetry_space_group_name_H-M "P B A N"
_symmetry_group_IT_number 50
_space_group.IT_coordinate_system_code '2'
_symmetry_cell_setting 'orthorhombic'
loop_
_space_group_symop_operation_xyz
x,y,z
1/2-x,1/2-y,z
x,1/2-y,-z
1/2-x,y,-z
-x,-y,-z
1/2+x,1/2+y,-z
-x,1/2+y,z
1/2+x,-y,z
loop_
_atom_site_type_symbol
_atom_site_label
_atom_site_fract_x
_atom_site_fract_y
_atom_site_fract_z
Si Si1 0.012291 0.594895 0.830189
Si Si2 0.987709 0.405105 0.830189
Si Si3 0.185065 0.250000 0.319952
Si Si4 0.605175 0.892786 0.322796
Si Si5 0.250000 0.658165 0.679725
Si Si6 0.869546 0.074552 0.322078
Si Si7 0.394825 0.107214 0.322796
Si Si8 0.869546 0.425448 0.322078
O O1 0.073092 0.610912 0.751116
O O2 1.000000 0.500000 0.826143
O O3 0.956582 0.627569 0.746660
O O4 0.014347 0.619684 1.000000
O O5 0.926908 0.389088 0.751116
O O6 0.043418 0.372431 0.746660
O O7 0.250000 0.250000 0.266022
O O8 0.186217 0.250000 0.500000
O O9 0.151180 0.171913 0.274845
O O10 0.151180 0.328087 0.274845
O O11 0.599221 0.890834 0.500000
O O12 0.626693 0.981138 0.284877
O O13 0.250000 0.750000 0.725794
O O14 0.250000 0.656911 0.500000
O O15 0.309132 0.613992 0.725175
O O16 0.190868 0.613992 0.725175
O O17 0.873834 0.081752 0.500000
O O18 0.873307 0.981138 0.284877
#
# Coordination Sequence:
#
# PCOD9398306 Si02
#       8
#     8   8   8   8   8   8   8   8
#     4   9  17  31  51  73  98 128 164 203 242 286
#     4   9  17  31  51  73  98 128 164 203 242 286
#     4   9  18  30  47  75 107 130 157 202 245 283
#     4   9  17  30  50  75 100 128 162 199 241 288
#     4   9  18  32  49  74 102 126 157 201 247 291
#     4   9  17  30  52  75  97 127 163 200 242 293
#     4   9  17  30  50  75 100 128 162 199 241 288
#     4   9  17  30  52  75  97 127 163 200 242 293
#
# _framework density 18.016099000000001
#
# number of rings (size 3 to 8) (size 9 to 14) (size 15 to 20)
#    0.000    3.000    0.000    0.750    1.750    3.000 
#    2.250    1.250    0.000    2.250    0.000    0.000 
#    0.000    0.000    0.000    0.000    0.000    0.000 
#
# Total GULP energy -356617.265018 kJ/mol
# GULP energy per Si atom -5572.144766 kJ/mol
# Density = 1.797509 g / cm^3
# Si number density = 18.016099 Si / 1000 Ang^3
#
#
#
# Elastic Constant Matrix: (Units=GPa)
#
#
# Indices 1 2 3 4 5 6 
#
# 1 231.5792 90.7938 48.1423 0.0000 0.0000 0.0000
# 2 90.7938 75.4365 27.7906 0.0000 0.0000 0.0000
# 3 48.1423 27.7906 19.8518 0.0000 0.0000 0.0000
# 4 0.0000 0.0000 0.0000 6.6483 0.0000 0.0000
# 5 0.0000 0.0000 0.0000 0.0000 -5.5104 0.0000
# 6 0.0000 0.0000 0.0000 0.0000 0.0000 27.8499
#
#
#
# Elastic Compliance Matrix: (Units=1/GPa)
#
#
# Indices 1 2 3 4 5 6 
#
# 1 0.010016 -0.006415 -0.015309 0.000000 0.000000 0.000000
# 2 -0.006415 0.031482 -0.028515 0.000000 0.000000 0.000000
# 3 -0.015309 -0.028515 0.127415 0.000000 0.000000 0.000000
# 4 0.000000 0.000000 0.000000 0.150414 0.000000 0.000000
# 5 0.000000 0.000000 0.000000 0.000000 -0.181475 0.000000
# 6 0.000000 0.000000 0.000000 0.000000 0.000000 0.035907
#
#
# Mechanical properties :
#
#
# Convention : Reuss Voigt Hill
#
# Bulk Modulus (GPa) = 14.61201 73.36899 43.99050
# Shear Modulus (GPa) = 16.83231 16.47362 16.65297
#
# Velocity S-wave (km/s) = 3.05994 3.02716 3.04359
# Velocity P-wave (km/s) = 4.54009 7.28222 6.06808
#
# Compressibility (1/GPa) = 0.06843685
#
# Stress axis : x y z
#
# Youngs Moduli (GPa) = 99.84260 31.76416 7.84834
#
# Poissons Ratio (x) = 0.20377 0.12015
# Poissons Ratio (y) = 0.64051 0.22379
# Poissons Ratio (z) = 1.52844 0.90574
#
# Static dielectric constant tensor:
#      x y z
#    x 1.597280 0.000000 0.000000 
#    y 0.000000 1.628630 0.000000 
#    z 0.000000 0.000000 1.595200 
# 
# From -- ./inp_files/15504.got.cif
#   From: 2010.05.17/outbox.cif.g08.bks.cpg/sg50_8_cif.got.tgz:15504.got - 2010.06.03 11:33:33.
