data_PCOD9398620
_publ_section_title
;
Structure prediction by ZEFSAII (Michael W. Deem and Ramdas Pophale) SiO2 
 PCOD9398620
Probable space group: P M M A
;
_chemical_formula_sum "Si O2"
_cell_formula_units_Z 40
_cell_length_a 15.073624
_cell_length_b 14.416506
_cell_length_c 9.152110
_cell_angle_alpha 90.000000
_cell_angle_beta 90.000000
_cell_angle_gamma 90.000000
_cell_volume 1988.835788
_symmetry_space_group_name_H-M "P M M A"
_symmetry_group_IT_number 51
_symmetry_cell_setting 'orthorhombic'
loop_
_space_group_symop_operation_xyz
x,y,z
1/2-x,-y,z
1/2+x,-y,-z
-x,y,-z
-x,-y,-z
1/2+x,y,-z
1/2-x,y,z
x,-y,z
loop_
_atom_site_type_symbol
_atom_site_label
_atom_site_fract_x
_atom_site_fract_y
_atom_site_fract_z
Si Si1 0.096889 0.105223 0.423606
Si Si2 0.353327 0.393050 0.160134
Si Si3 0.601069 0.605753 0.499740
Si Si4 0.027661 0.785512 0.151086
Si Si5 0.657137 0.232376 0.318900
O O1 0.085783 0.157635 0.269038
O O2 0.151077 0.163577 0.542194
O O3 0.000000 0.101110 0.500000
O O4 0.128668 0.000000 0.404254
O O5 0.250000 0.376591 0.119978
O O6 0.376603 0.500000 0.115759
O O7 0.361604 0.391246 0.336922
O O8 0.419746 0.310361 0.114000
O O9 0.500000 0.643659 0.500000
O O10 0.596389 0.500000 0.450597
O O11 0.655804 0.666492 0.389857
O O12 0.932497 0.771801 0.227510
O O13 0.000000 0.834130 0.000000
O O14 0.750000 0.215211 0.238513
#
# Coordination Sequence:
#
# PCOD9398620 Si02
#       5
#     8   8   8   8   8
#     4   9  19  38  61  83 108 142 186 235 287 340
#     4  10  20  35  56  81 112 154 200 243 289 340
#     4  10  17  30  55  84 113 144 188 245 294 334
#     4  11  23  38  57  85 121 157 192 234 286 348
#     4  11  21  36  58  86 115 147 191 241 290 342
#
# _framework density 20.112269000000001
#
# number of rings (size 3 to 8) (size 9 to 14) (size 15 to 20)
#    0.000    1.800    4.000    1.200    0.000    3.200 
#    0.000    0.000    0.000    0.000    0.000    2.800 
#    0.000    0.000    0.000    0.000    0.000    0.000 
#
# Total GULP energy -223014.785891 kJ/mol
# GULP energy per Si atom -5575.369647 kJ/mol
# Density = 2.006649 g / cm^3
# Si number density = 20.112269 Si / 1000 Ang^3
#
#
#
# Elastic Constant Matrix: (Units=GPa)
#
#
# Indices 1 2 3 4 5 6 
#
# 1 116.6988 30.0730 8.5032 0.0000 0.0000 0.0000
# 2 30.0730 85.0862 22.2684 0.0000 0.0000 0.0000
# 3 8.5032 22.2684 54.6880 0.0000 0.0000 0.0000
# 4 0.0000 0.0000 0.0000 6.5287 0.0000 0.0000
# 5 0.0000 0.0000 0.0000 0.0000 2.4284 0.0000
# 6 0.0000 0.0000 0.0000 0.0000 0.0000 -41.6960
#
#
#
# Elastic Compliance Matrix: (Units=1/GPa)
#
#
# Indices 1 2 3 4 5 6 
#
# 1 0.009428 -0.003300 -0.000122 0.000000 0.000000 0.000000
# 2 -0.003300 0.014310 -0.005314 0.000000 0.000000 0.000000
# 3 -0.000122 -0.005314 0.020468 0.000000 0.000000 0.000000
# 4 0.000000 0.000000 0.000000 0.153169 0.000000 0.000000
# 5 0.000000 0.000000 0.000000 0.000000 0.411793 0.000000
# 6 0.000000 0.000000 0.000000 0.000000 0.000000 -0.023983
#
#
# Mechanical properties :
#
#
# Convention : Reuss Voigt Hill
#
# Bulk Modulus (GPa) = 37.40529 42.01803 39.71166
# Shear Modulus (GPa) = 8.17569 6.49412 7.33491
#
# Velocity S-wave (km/s) = 2.01838 1.79887 1.91178
# Velocity P-wave (km/s) = 4.90616 5.02511 4.96599
#
# Compressibility (1/GPa) = 0.02673419
#
# Stress axis : x y z
#
# Youngs Moduli (GPa) = 106.06157 69.88126 48.85620
#
# Poissons Ratio (x) = 0.23064 0.00596
# Poissons Ratio (y) = 0.35005 0.25961
# Poissons Ratio (z) = 0.01295 0.37133
#
# Static dielectric constant tensor:
#      x y z
#    x 1.965440 0.000000 0.000000 
#    y 0.000000 1.726090 0.000000 
#    z 0.000000 0.000000 1.699760 
# 
# From -- ./inp_files/7962.got.cif
#   From: 2010.05.17/outbox.cif.g08.bks.cpg/sg51_4_cif.got.tgz:7962.got - 2010.06.03 11:52:47.
