data_PCOD9398503
_publ_section_title
;
Structure prediction by ZEFSAII (Michael W. Deem and Ramdas Pophale) SiO2 
 PCOD9398503
Probable space group: P M M A
;
_chemical_formula_sum "Si O2"
_cell_formula_units_Z 56
_cell_length_a 27.218843
_cell_length_b 7.423184
_cell_length_c 15.234943
_cell_angle_alpha 90.000000
_cell_angle_beta 90.000000
_cell_angle_gamma 90.000000
_cell_volume 3078.227544
_symmetry_space_group_name_H-M "P M M A"
_symmetry_group_IT_number 51
_symmetry_cell_setting 'orthorhombic'
loop_
_space_group_symop_operation_xyz
x,y,z
1/2-x,-y,z
1/2+x,-y,-z
-x,y,-z
-x,-y,-z
1/2+x,y,-z
1/2-x,y,z
x,-y,z
loop_
_atom_site_type_symbol
_atom_site_label
_atom_site_fract_x
_atom_site_fract_y
_atom_site_fract_z
Si Si1 0.039584 0.789404 0.143735
Si Si2 0.543422 0.720041 0.381269
Si Si3 0.607804 0.282173 0.014522
Si Si4 0.806027 0.720607 0.885754
Si Si5 0.629003 0.293882 0.730178
Si Si6 0.430144 0.706539 0.806607
Si Si7 0.932444 0.720137 0.574203
O O1 0.080416 0.706561 0.208242
O O2 0.986455 0.706967 0.159458
O O3 0.035999 0.000000 0.163976
O O4 0.061434 0.767955 0.046356
O O5 0.543106 0.500000 0.378728
O O6 0.567451 0.785683 0.291125
O O7 0.486119 0.773902 0.388930
O O8 0.569009 0.773576 0.472382
O O9 0.608602 0.500000 0.017587
O O10 0.600929 0.213365 0.113286
O O11 0.656448 0.222729 0.962392
O O12 0.750000 0.775966 0.898156
O O13 0.807268 0.500000 0.884439
O O14 0.829048 0.784240 0.793082
O O15 0.643545 0.500000 0.712346
O O16 0.610414 0.214225 0.638482
O O17 0.413629 0.500000 0.796342
O O18 0.931850 0.500000 0.576594
#
# Coordination Sequence:
#
# PCOD9398503 Si02
#       7
#     8   8   8   8   8   8   8
#     4  11  20  27  37  56  83 110 132 160 196 231
#     4   8  13  20  35  57  78  98 127 164 189 211
#     4   9  18  29  42  57  74 102 136 165 193 230
#     4   8  14  25  41  61  79  94 123 168 206 234
#     4   9  15  26  44  60  77 104 136 163 191 233
#     4  10  17  27  41  56  76 105 139 167 187 223
#     4   8  12  20  36  58  77  97 127 161 191 216
#
# _framework density 18.192287
#
# number of rings (size 3 to 8) (size 9 to 14) (size 15 to 20)
#    0.000    3.000    1.429    3.429    0.000    2.286 
#    0.000    0.000    0.000    8.571    0.000    1.000 
#    0.000    8.000    0.000    0.000    0.000   12.286 
#
# Total GULP energy -312120.811848 kJ/mol
# GULP energy per Si atom -5573.585926 kJ/mol
# Density = 1.815088 g / cm^3
# Si number density = 18.192287 Si / 1000 Ang^3
#
#
#
# Elastic Constant Matrix: (Units=GPa)
#
#
# Indices 1 2 3 4 5 6 
#
# 1 73.5861 -3.0828 54.4566 0.0000 0.0000 0.0000
# 2 -3.0828 65.7749 0.4241 0.0000 0.0000 0.0000
# 3 54.4566 0.4241 178.1140 0.0000 0.0000 0.0000
# 4 0.0000 0.0000 0.0000 -18.3749 0.0000 0.0000
# 5 0.0000 0.0000 0.0000 0.0000 15.0824 0.0000
# 6 0.0000 0.0000 0.0000 0.0000 0.0000 -28.3777
#
#
#
# Elastic Compliance Matrix: (Units=1/GPa)
#
#
# Indices 1 2 3 4 5 6 
#
# 1 0.017612 0.000860 -0.005387 0.000000 0.000000 0.000000
# 2 0.000860 0.015246 -0.000299 0.000000 0.000000 0.000000
# 3 -0.005387 -0.000299 0.007262 0.000000 0.000000 0.000000
# 4 0.000000 0.000000 0.000000 -0.054422 0.000000 0.000000
# 5 0.000000 0.000000 0.000000 0.000000 0.066302 0.000000
# 6 0.000000 0.000000 0.000000 0.000000 0.000000 -0.035239
#
#
# Mechanical properties :
#
#
# Convention : Reuss Voigt Hill
#
# Bulk Modulus (GPa) = 32.82140 46.78563 39.80352
# Shear Modulus (GPa) = 136.73010 11.37779 74.05395
#
# Velocity S-wave (km/s) = 8.67879 2.50355 6.38707
# Velocity P-wave (km/s) = 10.88619 5.84210 8.73611
#
# Compressibility (1/GPa) = 0.03046793
#
# Stress axis : x y z
#
# Youngs Moduli (GPa) = 56.77964 65.59267 137.70256
#
# Poissons Ratio (x) = -0.05642 0.74177
# Poissons Ratio (y) = -0.04884 0.04121
# Poissons Ratio (z) = 0.30586 0.01963
#
# Static dielectric constant tensor:
#      x y z
#    x 1.583110 0.000000 0.000000 
#    y 0.000000 1.684170 0.000000 
#    z 0.000000 0.000000 1.673320 
# 
# From -- ./inp_files/26518.got.cif
#   From: 2010.05.17/outbox.cif.g08.bks.cpg/sg51_14_cif.got.tgz:26518.got - 2010.06.03 11:52:47.
