data_PCOD9398164
_publ_section_title
;
Structure prediction by ZEFSAII (Michael W. Deem and Ramdas Pophale) SiO2 
 PCOD9398164
Probable space group: P B A N
;
_chemical_formula_sum "Si O2"
_cell_formula_units_Z 34
_cell_length_a 10.794181
_cell_length_b 9.281032
_cell_length_c 14.922109
_cell_angle_alpha 90.000000
_cell_angle_beta 90.000000
_cell_angle_gamma 90.000000
_cell_volume 1494.913880
_symmetry_space_group_name_H-M "P B A N"
_symmetry_group_IT_number 50
_space_group.IT_coordinate_system_code '2'
_symmetry_cell_setting 'orthorhombic'
loop_
_space_group_symop_operation_xyz
x,y,z
1/2-x,1/2-y,z
x,1/2-y,-z
1/2-x,y,-z
-x,-y,-z
1/2+x,1/2+y,-z
-x,1/2+y,z
1/2+x,-y,z
loop_
_atom_site_type_symbol
_atom_site_label
_atom_site_fract_x
_atom_site_fract_y
_atom_site_fract_z
Si Si1 0.250000 0.250000 0.500000
Si Si2 0.118714 0.689151 0.898777
Si Si3 0.137176 0.350554 0.853965
Si Si4 0.896419 0.912782 0.656247
Si Si5 0.894044 0.232008 0.603933
O O1 0.174054 0.150465 0.430585
O O2 0.250000 0.750000 0.858595
O O3 0.120756 0.512977 0.895145
O O4 0.991143 0.758499 0.859896
O O5 0.117705 0.750000 0.000000
O O6 0.250000 0.250000 0.889894
O O7 0.169147 0.383948 0.749777
O O8 0.030314 0.842659 0.660956
O O9 0.923868 0.076620 0.638704
O O10 0.750000 0.250000 0.611110
O O11 0.927724 0.250000 0.500000
#
# Coordination Sequence:
#
# PCOD9398164 Si02
#       5
#     2   8   8   8   8
#     4  12  24  44  68  96 150 196 246 290 352 416
#     4  11  26  50  77 110 149 191 239 302 384 456
#     4  12  26  46  75 114 148 195 243 306 366 443
#     4  12  26  43  69  99 145 191 244 299 358 416
#     4  11  25  42  64  93 130 186 248 300 359 414
#
# _framework density 22.743784999999999
#
# number of rings (size 3 to 8) (size 9 to 14) (size 15 to 20)
#    0.000    0.471    2.353    5.647    3.294    8.000 
#    0.000    0.000    0.000    0.000    0.000    0.000 
#    0.000    0.000    0.000    0.000    0.000    0.000 
#
# Total GULP energy -190023.592466 kJ/mol
# GULP energy per Si atom -5588.929190 kJ/mol
# Density = 2.269202 g / cm^3
# Si number density = 22.743785 Si / 1000 Ang^3
#
#
#
# Elastic Constant Matrix: (Units=GPa)
#
#
# Indices 1 2 3 4 5 6 
#
# 1 123.4015 76.1216 17.7776 0.0000 0.0000 0.0000
# 2 76.1216 224.3252 36.1164 0.0000 0.0000 0.0000
# 3 17.7776 36.1164 111.4476 0.0000 0.0000 0.0000
# 4 0.0000 0.0000 0.0000 41.0872 0.0000 0.0000
# 5 0.0000 0.0000 0.0000 0.0000 25.2902 0.0000
# 6 0.0000 0.0000 0.0000 0.0000 0.0000 40.5542
#
#
#
# Elastic Compliance Matrix: (Units=1/GPa)
#
#
# Indices 1 2 3 4 5 6 
#
# 1 0.010279 -0.003402 -0.000537 0.000000 0.000000 0.000000
# 2 -0.003402 0.005829 -0.001346 0.000000 0.000000 0.000000
# 3 -0.000537 -0.001346 0.009495 0.000000 0.000000 0.000000
# 4 0.000000 0.000000 0.000000 0.024338 0.000000 0.000000
# 5 0.000000 0.000000 0.000000 0.000000 0.039541 0.000000
# 6 0.000000 0.000000 0.000000 0.000000 0.000000 0.024658
#
#
# Mechanical properties :
#
#
# Convention : Reuss Voigt Hill
#
# Bulk Modulus (GPa) = 66.52283 79.91172 73.21727
# Shear Modulus (GPa) = 38.54385 43.33024 40.93704
#
# Velocity S-wave (km/s) = 4.12114 4.36953 4.24715
# Velocity P-wave (km/s) = 7.20814 7.78903 7.50421
#
# Compressibility (1/GPa) = 0.01503243
#
# Stress axis : x y z
#
# Youngs Moduli (GPa) = 97.28205 171.55967 105.32028
#
# Poissons Ratio (x) = 0.58359 0.05660
# Poissons Ratio (y) = 0.33092 0.14180
# Poissons Ratio (z) = 0.05228 0.23098
#
# Static dielectric constant tensor:
#      x y z
#    x 1.840770 0.000000 0.000000 
#    y 0.000000 1.783550 0.000000 
#    z 0.000000 0.000000 1.920530 
# 
# From -- ./inp_files/25676.got.cif
#   From: 2010.05.17/outbox.cif.g08.bks.cpg/sg50_13_cif.got.tgz:25676.got - 2010.06.03 11:33:33.
