data_PCOD9398325
_publ_section_title
;
Structure prediction by ZEFSAII (Michael W. Deem and Ramdas Pophale) SiO2 
 PCOD9398325
Probable space group: P B A N
;
_chemical_formula_sum "Si O2"
_cell_formula_units_Z 56
_cell_length_a 15.000000
_cell_length_b 15.000000
_cell_length_c 12.000000
_cell_angle_alpha 90.000000
_cell_angle_beta 90.000000
_cell_angle_gamma 90.000000
_cell_volume 2700.000000
_symmetry_space_group_name_H-M "P B A N"
_symmetry_group_IT_number 50
_space_group.IT_coordinate_system_code '2'
_symmetry_cell_setting 'orthorhombic'
loop_
_space_group_symop_operation_xyz
x,y,z
1/2-x,1/2-y,z
x,1/2-y,-z
1/2-x,y,-z
-x,-y,-z
1/2+x,1/2+y,-z
-x,1/2+y,z
1/2+x,-y,z
loop_
_atom_site_type_symbol
_atom_site_label
_atom_site_fract_x
_atom_site_fract_y
_atom_site_fract_z
Si Si1 0.877786 0.986702 0.771209
Si Si2 0.962909 0.366534 0.856774
Si Si3 0.502429 0.647559 0.466911
Si Si4 0.463527 0.670055 0.214655
Si Si5 0.359037 0.994375 0.508382
Si Si6 0.401680 0.158587 0.046428
Si Si7 0.798193 0.012172 0.099698
O O1 0.914059 0.079781 0.822783
O O2 0.874174 0.995151 0.639703
O O3 0.776808 0.978414 0.815247
O O4 0.950159 0.909488 0.796627
O O5 0.932492 0.268426 0.819758
O O6 0.879742 0.432674 0.849781
O O7 0.005664 0.355093 0.979518
O O8 0.523576 0.750000 0.500000
O O9 0.462757 0.662678 0.345556
O O10 0.422249 0.590575 0.529012
O O11 0.589284 0.582398 0.461097
O O12 0.565672 0.667807 0.172243
O O13 0.250000 0.986789 0.500000
O O14 0.342306 0.072451 0.038326
O O15 0.361751 0.250000 0.000000
O O16 0.750000 0.065716 0.000000
#
# Coordination Sequence:
#
# PCOD9398325 Si02
#       7
#     8   8   8   8   8   8   8
#     4  11  23  40  62  95 123 164 215 255 324 378
#     4  11  22  42  63  88 132 165 208 259 311 370
#     4  10  22  43  67  91 127 169 218 261 333 388
#     4  10  22  40  65  91 121 168 208 259 312 378
#     4  10  24  41  65  96 128 165 214 276 329 387
#     4  10  21  39  61  90 125 164 206 253 303 369
#     4  12  23  37  65  90 128 170 205 258 312 376
#
# _framework density 20.740741
#
# number of rings (size 3 to 8) (size 9 to 14) (size 15 to 20)
#    0.000    1.429    2.857    2.143    2.000    3.714 
#    0.000    3.571    0.000    0.000    0.000    0.000 
#    0.000    0.000    0.000    0.000    0.000    0.000 
#
# Total GULP energy -311854.004374 kJ/mol
# GULP energy per Si atom -5568.821507 kJ/mol
# Density = 2.069353 g / cm^3
# Si number density = 20.740741 Si / 1000 Ang^3
#
#
#
# Elastic Constant Matrix: (Units=GPa)
#
#
# Indices 1 2 3 4 5 6 
#
# 1 73.9701 25.6249 -30.2312 0.0000 0.0000 0.0000
# 2 25.6249 133.4805 -1.8809 0.0000 0.0000 0.0000
# 3 -30.2312 -1.8809 12.1281 0.0000 0.0000 0.0000
# 4 0.0000 0.0000 0.0000 22.3388 0.0000 0.0000
# 5 0.0000 0.0000 0.0000 0.0000 25.2868 0.0000
# 6 0.0000 0.0000 0.0000 0.0000 0.0000 4.5798
#
#
#
# Elastic Compliance Matrix: (Units=1/GPa)
#
#
# Indices 1 2 3 4 5 6 
#
# 1 -0.213808 0.033609 -0.527737 0.000000 0.000000 0.000000
# 2 0.033609 0.002225 0.084122 0.000000 0.000000 0.000000
# 3 -0.527737 0.084122 -1.219968 0.000000 0.000000 0.000000
# 4 0.000000 0.000000 0.000000 0.044765 0.000000 0.000000
# 5 0.000000 0.000000 0.000000 0.000000 0.039546 0.000000
# 6 0.000000 0.000000 0.000000 0.000000 0.000000 0.218350
#
#
# Mechanical properties :
#
#
# Convention : Reuss Voigt Hill
#
# Bulk Modulus (GPa) = -0.44414 22.95603 11.25595
# Shear Modulus (GPa) = -4.71966 25.51214 10.39624
#
# Velocity S-wave (km/s) = -1.51013 3.51101 2.24128
# Velocity P-wave (km/s) = 1.80423 5.24675 3.48376
#
# Compressibility (1/GPa) = -2.25156372
#
# Stress axis : x y z
#
# Youngs Moduli (GPa) = -4.67710 449.44736 -0.81969
#
# Poissons Ratio (x) = -15.10562 -0.43258
# Poissons Ratio (y) = 0.15719 0.06895
# Poissons Ratio (z) = -2.46828 -37.80820
#
# Static dielectric constant tensor:
#      x y z
#    x 1.755560 0.000000 0.000000 
#    y 0.000000 1.823120 0.000000 
#    z 0.000000 0.000000 1.839020 
# 
# From -- ./inp_files/21168.got.cif
#   From: 2010.05.17/outbox.ucp.g08.bks.cvg/sg50_11_cif.got.tgz:21168.got - 2010.06.11 16:26:39.
