data_PCOD9398070
_publ_section_title
;
Structure prediction by ZEFSAII (Michael W. Deem and Ramdas Pophale) SiO2 
 PCOD9398070
Probable space group: P B A N
;
_chemical_formula_sum "Si O2"
_cell_formula_units_Z 32
_cell_length_a 14.324472
_cell_length_b 8.971653
_cell_length_c 10.506730
_cell_angle_alpha 90.000000
_cell_angle_beta 90.000000
_cell_angle_gamma 90.000000
_cell_volume 1350.263919
_symmetry_space_group_name_H-M "P B A N"
_symmetry_group_IT_number 50
_space_group.IT_coordinate_system_code '2'
_symmetry_cell_setting 'orthorhombic'
loop_
_space_group_symop_operation_xyz
x,y,z
1/2-x,1/2-y,z
x,1/2-y,-z
1/2-x,y,-z
-x,-y,-z
1/2+x,1/2+y,-z
-x,1/2+y,z
1/2+x,-y,z
loop_
_atom_site_type_symbol
_atom_site_label
_atom_site_fract_x
_atom_site_fract_y
_atom_site_fract_z
Si Si1 0.243258 0.577613 0.290767
Si Si2 0.926782 0.941028 0.608289
Si Si3 0.250000 0.993123 0.000000
Si Si4 0.940095 0.632810 0.734757
Si Si5 0.401875 0.250000 0.000000
O O1 0.250000 0.750000 0.334506
O O2 0.319221 0.490726 0.378258
O O3 0.148166 0.477290 0.291775
O O4 0.257265 0.584822 0.136754
O O5 0.934232 0.766337 0.633527
O O6 0.000000 0.000000 0.500000
O O7 0.970158 0.030933 0.726374
O O8 0.337471 0.104515 0.995144
O O9 0.950399 0.721013 0.867225
#
# Coordination Sequence:
#
# PCOD9398070 Si02
#       5
#     8   8   4   8   4
#     4  11  23  44  72 107 144 192 245 308 386 454
#     4  12  26  46  69 103 147 198 255 307 373 463
#     4   9  17  38  70 104 146 178 236 302 378 456
#     4  11  24  45  72 106 147 196 249 314 386 448
#     4   9  18  38  70 104 145 182 238 313 378 460
#
# _framework density 23.699072000000001
#
# number of rings (size 3 to 8) (size 9 to 14) (size 15 to 20)
#    0.000    1.250    2.500    3.375    0.000    2.000 
#    4.500    3.750    0.000    0.000    0.000    0.000 
#    0.000    0.000    0.000    0.000    0.000    0.000 
#
# Total GULP energy -178269.148298 kJ/mol
# GULP energy per Si atom -5570.910884 kJ/mol
# Density = 2.364513 g / cm^3
# Si number density = 23.699072 Si / 1000 Ang^3
#
#
#
# Elastic Constant Matrix: (Units=GPa)
#
#
# Indices 1 2 3 4 5 6 
#
# 1 70.7141 10.1155 22.3866 0.0000 0.0000 0.0000
# 2 10.1155 160.3730 23.1930 0.0000 0.0000 0.0000
# 3 22.3866 23.1930 121.6902 0.0000 0.0000 0.0000
# 4 0.0000 0.0000 0.0000 30.3926 0.0000 0.0000
# 5 0.0000 0.0000 0.0000 0.0000 25.1156 0.0000
# 6 0.0000 0.0000 0.0000 0.0000 0.0000 18.2101
#
#
#
# Elastic Compliance Matrix: (Units=1/GPa)
#
#
# Indices 1 2 3 4 5 6 
#
# 1 0.015066 -0.000565 -0.002664 0.000000 0.000000 0.000000
# 2 -0.000565 0.006433 -0.001122 0.000000 0.000000 0.000000
# 3 -0.002664 -0.001122 0.008922 0.000000 0.000000 0.000000
# 4 0.000000 0.000000 0.000000 0.032903 0.000000 0.000000
# 5 0.000000 0.000000 0.000000 0.000000 0.039816 0.000000
# 6 0.000000 0.000000 0.000000 0.000000 0.000000 0.054915
#
#
# Mechanical properties :
#
#
# Convention : Reuss Voigt Hill
#
# Bulk Modulus (GPa) = 46.04393 51.57417 48.80905
# Shear Modulus (GPa) = 28.73643 34.54915 31.64279
#
# Velocity S-wave (km/s) = 3.48595 3.82229 3.65799
# Velocity P-wave (km/s) = 5.97271 6.42567 6.20333
#
# Compressibility (1/GPa) = 0.02171839
#
# Stress axis : x y z
#
# Youngs Moduli (GPa) = 66.37647 155.43892 112.08856
#
# Poissons Ratio (x) = 0.08783 0.29859
# Poissons Ratio (y) = 0.03750 0.12579
# Poissons Ratio (z) = 0.17682 0.17443
#
# Static dielectric constant tensor:
#      x y z
#    x 1.861640 0.000000 0.000000 
#    y 0.000000 1.855070 0.000000 
#    z 0.000000 0.000000 2.132270 
# 
# From -- ./inp_files/18390.got.cif
#   From: 2010.05.17/outbox.cif.g08.bks.cpg/sg50_10_cif.got.tgz:18390.got - 2010.06.03 11:33:33.
