data_PCOD9398865
_publ_section_title
;
Structure prediction by ZEFSAII (Michael W. Deem and Ramdas Pophale) SiO2 
 PCOD9398865
Probable space group: P M M A
;
_chemical_formula_sum "Si O2"
_cell_formula_units_Z 52
_cell_length_a 7.406602
_cell_length_b 14.126151
_cell_length_c 24.357716
_cell_angle_alpha 90.000000
_cell_angle_beta 90.000000
_cell_angle_gamma 90.000000
_cell_volume 2548.469351
_symmetry_space_group_name_H-M "P M M A"
_symmetry_group_IT_number 51
_symmetry_cell_setting 'orthorhombic'
loop_
_space_group_symop_operation_xyz
x,y,z
1/2-x,-y,z
1/2+x,-y,-z
-x,y,-z
-x,-y,-z
1/2+x,y,-z
1/2-x,y,z
x,-y,z
loop_
_atom_site_type_symbol
_atom_site_label
_atom_site_fract_x
_atom_site_fract_y
_atom_site_fract_z
Si Si1 0.040423 0.395401 0.631980
Si Si2 0.966303 0.893057 0.936149
Si Si3 0.544521 0.230727 0.839613
Si Si4 0.534881 0.000000 0.435625
Si Si5 0.967954 0.393467 0.760767
Si Si6 0.532191 0.892005 0.260805
Si Si7 0.470994 0.809075 0.624420
O O1 0.250000 0.399361 0.615530
O O2 0.961157 0.500000 0.619935
O O3 0.965784 0.296393 0.608449
O O4 0.035140 0.383625 0.698311
O O5 0.750000 0.895975 0.928091
O O6 0.037797 0.813679 0.894547
O O7 0.034664 0.000000 0.924825
O O8 0.000000 0.872525 0.000000
O O9 0.750000 0.260057 0.852774
O O10 0.463056 0.316628 0.804236
O O11 0.545638 0.145768 0.795633
O O12 0.500000 0.000000 0.500000
O O13 0.468089 0.098957 0.409666
O O14 0.750000 0.000000 0.425079
O O15 0.750000 0.384178 0.757326
O O16 0.011273 0.500000 0.778737
O O17 0.750000 0.887427 0.256917
O O18 0.476134 0.829558 0.312653
O O19 0.482092 0.000000 0.271685
O O20 0.250000 0.807517 0.622617
#
# Coordination Sequence:
#
# PCOD9398865 Si02
#       7
#     8   8   8   4   8   8   8
#     4   9  16  27  46  70  93 121 157 192 228 275
#     4   9  18  32  47  62  83 113 151 191 231 274
#     4  10  19  30  45  66  93 123 151 187 234 279
#     4  10  20  36  54  70  94 130 165 198 231 270
#     4   9  17  28  42  64  95 126 152 181 226 281
#     4  10  18  28  44  68  95 123 151 181 227 282
#     4   9  16  29  48  68  94 124 152 188 231 271
#
# _framework density 20.404404
#
# number of rings (size 3 to 8) (size 9 to 14) (size 15 to 20)
#    0.000    2.615    2.308    0.462    0.000    1.538 
#    0.000    3.077    0.000    0.923    0.000    0.000 
#    0.000    0.000    0.000    0.000    0.000    0.000 
#
# Total GULP energy -289955.034107 kJ/mol
# GULP energy per Si atom -5576.058348 kJ/mol
# Density = 2.035796 g / cm^3
# Si number density = 20.404404 Si / 1000 Ang^3
#
#
#
# Elastic Constant Matrix: (Units=GPa)
#
#
# Indices 1 2 3 4 5 6 
#
# 1 67.8286 5.8437 -6.4626 0.0000 0.0000 0.0000
# 2 5.8437 166.5686 29.0670 0.0000 0.0000 0.0000
# 3 -6.4626 29.0670 51.4560 0.0000 0.0000 0.0000
# 4 0.0000 0.0000 0.0000 13.7349 0.0000 0.0000
# 5 0.0000 0.0000 0.0000 0.0000 14.3969 0.0000
# 6 0.0000 0.0000 0.0000 0.0000 0.0000 1.3251
#
#
#
# Elastic Compliance Matrix: (Units=1/GPa)
#
#
# Indices 1 2 3 4 5 6 
#
# 1 0.015056 -0.000952 0.002429 0.000000 0.000000 0.000000
# 2 -0.000952 0.006720 -0.003916 0.000000 0.000000 0.000000
# 3 0.002429 -0.003916 0.021951 0.000000 0.000000 0.000000
# 4 0.000000 0.000000 0.000000 0.072807 0.000000 0.000000
# 5 0.000000 0.000000 0.000000 0.000000 0.069460 0.000000
# 6 0.000000 0.000000 0.000000 0.000000 0.000000 0.754637
#
#
# Mechanical properties :
#
#
# Convention : Reuss Voigt Hill
#
# Bulk Modulus (GPa) = 25.74015 38.08327 31.91171
# Shear Modulus (GPa) = 5.21670 23.05171 14.13421
#
# Velocity S-wave (km/s) = 1.60069 3.36481 2.63478
# Velocity P-wave (km/s) = 4.00733 5.81384 4.99296
#
# Compressibility (1/GPa) = 0.03884981
#
# Stress axis : x y z
#
# Youngs Moduli (GPa) = 66.41658 148.80388 45.55574
#
# Poissons Ratio (x) = 0.14167 -0.11065
# Poissons Ratio (y) = 0.06323 0.17839
# Poissons Ratio (z) = -0.16131 0.58268
#
# Static dielectric constant tensor:
#      x y z
#    x 1.778660 0.000000 0.000000 
#    y 0.000000 1.777570 0.000000 
#    z 0.000000 0.000000 1.678160 
# 
# From -- ./inp_files/31721.got.cif
#   From: 2010.05.17/outbox.cif.g08.bks.cpg/sg51_16_cif.got.tgz:31721.got - 2010.06.03 11:52:47.
