data_PCOD9398986
_publ_section_title
;
Structure prediction by ZEFSAII (Michael W. Deem and Ramdas Pophale) SiO2 
 PCOD9398986
Probable space group: P M M A
;
_chemical_formula_sum "Si O2"
_cell_formula_units_Z 52
_cell_length_a 8.690157
_cell_length_b 27.314209
_cell_length_c 14.028559
_cell_angle_alpha 90.000000
_cell_angle_beta 90.000000
_cell_angle_gamma 90.000000
_cell_volume 3329.885604
_symmetry_space_group_name_H-M "P M M A"
_symmetry_group_IT_number 51
_symmetry_cell_setting 'orthorhombic'
loop_
_space_group_symop_operation_xyz
x,y,z
1/2-x,-y,z
1/2+x,-y,-z
-x,y,-z
-x,-y,-z
1/2+x,y,-z
1/2-x,y,z
x,-y,z
loop_
_atom_site_type_symbol
_atom_site_label
_atom_site_fract_x
_atom_site_fract_y
_atom_site_fract_z
Si Si1 0.564866 0.798977 0.285665
Si Si2 0.935467 0.892295 0.608052
Si Si3 0.934200 0.444003 0.893746
Si Si4 0.934775 0.000000 0.606697
Si Si5 0.934228 0.701437 0.396743
Si Si6 0.434046 0.745321 0.104328
Si Si7 0.934917 0.649718 0.204741
O O1 0.750000 0.799635 0.279245
O O2 0.502606 0.849656 0.326571
O O3 0.519938 0.755390 0.359071
O O4 0.496111 0.782926 0.184100
O O5 0.750000 0.888748 0.604330
O O6 0.979697 0.946728 0.646360
O O7 0.000000 0.887458 0.500000
O O8 0.750000 0.438898 0.896222
O O9 0.971498 0.500000 0.865458
O O10 0.006059 0.403014 0.826537
O O11 0.000000 0.436562 0.000000
O O12 0.000000 0.000000 0.500000
O O13 0.750000 0.000000 0.602640
O O14 0.750000 0.700905 0.402579
O O15 0.979771 0.664224 0.312636
O O16 0.000000 0.690802 0.500000
O O17 0.250000 0.745515 0.102954
O O18 0.494028 0.691836 0.137516
O O19 0.500000 0.756194 0.000000
O O20 0.750000 0.652446 0.197054
#
# Coordination Sequence:
#
# PCOD9398986 Si02
#       7
#     8   8   8   4   8   8   8
#     4  10  20  33  47  69  97 125 159 197 236 283
#     4  10  18  29  45  67  95 129 163 199 240 282
#     4  10  20  33  50  73  98 124 155 192 235 282
#     4   8  16  28  42  62  91 124 161 198 236 282
#     4   9  19  32  47  67  93 123 155 191 230 272
#     4  11  21  34  51  71  96 126 157 192 234 280
#     4  10  20  34  50  71  98 127 158 192 232 278
#
# _framework density 15.616151
#
# number of rings (size 3 to 8) (size 9 to 14) (size 15 to 20)
#    0.000    2.154    0.000    5.077    0.000    6.462 
#    0.000    0.000    0.000    0.462    0.000    0.538 
#    0.000    0.000    0.000    0.000    0.000    0.000 
#
# Total GULP energy -290047.726373 kJ/mol
# GULP energy per Si atom -5577.840892 kJ/mol
# Density = 1.558061 g / cm^3
# Si number density = 15.616151 Si / 1000 Ang^3
#
#
#
# Elastic Constant Matrix: (Units=GPa)
#
#
# Indices 1 2 3 4 5 6 
#
# 1 74.0573 53.4610 43.0485 0.0000 0.0000 0.0000
# 2 53.4610 151.2075 77.4504 0.0000 0.0000 0.0000
# 3 43.0485 77.4504 108.7892 0.0000 0.0000 0.0000
# 4 0.0000 0.0000 0.0000 21.4297 0.0000 0.0000
# 5 0.0000 0.0000 0.0000 0.0000 28.3607 0.0000
# 6 0.0000 0.0000 0.0000 0.0000 0.0000 -147.4222
#
#
#
# Elastic Compliance Matrix: (Units=1/GPa)
#
#
# Indices 1 2 3 4 5 6 
#
# 1 0.019378 -0.004602 -0.004392 0.000000 0.000000 0.000000
# 2 -0.004602 0.011502 -0.006368 0.000000 0.000000 0.000000
# 3 -0.004392 -0.006368 0.015463 0.000000 0.000000 0.000000
# 4 0.000000 0.000000 0.000000 0.046664 0.000000 0.000000
# 5 0.000000 0.000000 0.000000 0.000000 0.035260 0.000000
# 6 0.000000 0.000000 0.000000 0.000000 0.000000 -0.006783
#
#
# Mechanical properties :
#
#
# Convention : Reuss Voigt Hill
#
# Bulk Modulus (GPa) = 64.01759 75.77489 69.89624
# Shear Modulus (GPa) = 31.76341 -8.85343 11.45499
#
# Velocity S-wave (km/s) = 4.51489 -2.38363 2.71132
# Velocity P-wave (km/s) = 8.26211 6.40727 7.39309
#
# Compressibility (1/GPa) = 0.01562071
#
# Stress axis : x y z
#
# Youngs Moduli (GPa) = 51.60525 86.94105 64.66895
#
# Poissons Ratio (x) = 0.40008 0.28402
# Poissons Ratio (y) = 0.23747 0.41180
# Poissons Ratio (z) = 0.22664 0.55362
#
# Static dielectric constant tensor:
#      x y z
#    x 1.523090 0.000000 0.000000 
#    y 0.000000 1.529840 0.000000 
#    z 0.000000 0.000000 1.494500 
# 
# From -- ./inp_files/14637.got.cif
#   From: 2010.05.17/outbox.cif.g08.bks.cpg/sg51_8_cif.got.tgz:14637.got - 2010.06.03 11:52:47.
