data_PCOD9398136
_publ_section_title
;
Structure prediction by ZEFSAII (Michael W. Deem and Ramdas Pophale) SiO2 
 PCOD9398136
Probable space group: P B A N
;
_chemical_formula_sum "Si O2"
_cell_formula_units_Z 40
_cell_length_a 9.199542
_cell_length_b 9.086608
_cell_length_c 20.907961
_cell_angle_alpha 90.000000
_cell_angle_beta 90.000000
_cell_angle_gamma 90.000000
_cell_volume 1747.751488
_symmetry_space_group_name_H-M "P B A N"
_symmetry_group_IT_number 50
_space_group.IT_coordinate_system_code '2'
_symmetry_cell_setting 'orthorhombic'
loop_
_space_group_symop_operation_xyz
x,y,z
1/2-x,1/2-y,z
x,1/2-y,-z
1/2-x,y,-z
-x,-y,-z
1/2+x,1/2+y,-z
-x,1/2+y,z
1/2+x,-y,z
loop_
_atom_site_type_symbol
_atom_site_label
_atom_site_fract_x
_atom_site_fract_y
_atom_site_fract_z
Si Si1 0.532081 0.806562 0.572208
Si Si2 0.921501 0.079447 0.150444
Si Si3 0.917533 0.697180 0.928377
Si Si4 0.696506 0.578636 0.767109
Si Si5 0.306863 0.029514 0.621044
O O1 0.523510 0.750000 0.500000
O O2 0.581206 0.666718 0.613823
O O3 0.664735 0.922626 0.581255
O O4 0.386539 0.886011 0.594802
O O5 0.933185 0.973085 0.088423
O O6 0.773901 0.027245 0.181997
O O7 0.967044 0.232914 0.120409
O O8 0.031071 0.066282 0.210512
O O9 0.750000 0.750000 0.915083
O O10 0.947459 0.750000 0.000000
O O11 0.750000 0.750000 0.770476
O O12 0.726201 0.521759 0.695929
#
# Coordination Sequence:
#
# PCOD9398136 Si02
#       5
#     8   8   8   8   8
#     4  11  24  45  73 102 144 180 229 284 341 410
#     4  12  22  45  67  99 136 186 227 288 351 407
#     4  11  24  45  68  98 140 182 230 292 348 409
#     4  12  24  44  69  98 147 179 228 288 347 408
#     4  11  24  45  69 104 139 186 228 283 344 406
#
# _framework density 22.886548000000001
#
# number of rings (size 3 to 8) (size 9 to 14) (size 15 to 20)
#    0.000    0.600    6.000    3.600    0.000    1.600 
#    0.000    5.000    0.000    0.000    0.000    0.000 
#    0.000    0.000    0.000    0.000    0.000    0.000 
#
# Total GULP energy -223571.903164 kJ/mol
# GULP energy per Si atom -5589.297579 kJ/mol
# Density = 2.283446 g / cm^3
# Si number density = 22.886548 Si / 1000 Ang^3
#
#
#
# Elastic Constant Matrix: (Units=GPa)
#
#
# Indices 1 2 3 4 5 6 
#
# 1 45.6779 38.7056 21.3394 0.0000 0.0000 0.0000
# 2 38.7056 44.7786 19.0230 0.0000 0.0000 0.0000
# 3 21.3394 19.0230 155.7377 0.0000 0.0000 0.0000
# 4 0.0000 0.0000 0.0000 -21.1244 0.0000 0.0000
# 5 0.0000 0.0000 0.0000 0.0000 25.4357 0.0000
# 6 0.0000 0.0000 0.0000 0.0000 0.0000 40.2813
#
#
#
# Elastic Compliance Matrix: (Units=1/GPa)
#
#
# Indices 1 2 3 4 5 6 
#
# 1 0.082923 -0.070509 -0.002750 0.000000 0.000000 0.000000
# 2 -0.070509 0.083507 -0.000539 0.000000 0.000000 0.000000
# 3 -0.002750 -0.000539 0.006864 0.000000 0.000000 0.000000
# 4 0.000000 0.000000 0.000000 -0.047339 0.000000 0.000000
# 5 0.000000 0.000000 0.000000 0.000000 0.039315 0.000000
# 6 0.000000 0.000000 0.000000 0.000000 0.000000 0.024825
#
#
# Mechanical properties :
#
#
# Convention : Reuss Voigt Hill
#
# Bulk Modulus (GPa) = 38.91195 44.92557 41.91876
# Shear Modulus (GPa) = 14.44011 20.06028 17.25020
#
# Velocity S-wave (km/s) = 2.51458 2.96380 2.74839
# Velocity P-wave (km/s) = 5.04677 5.60218 5.33171
#
# Compressibility (1/GPa) = 0.02569905
#
# Stress axis : x y z
#
# Youngs Moduli (GPa) = 12.05932 11.97500 145.69474
#
# Poissons Ratio (x) = 0.84434 0.40063
# Poissons Ratio (y) = 0.85029 0.07853
# Poissons Ratio (z) = 0.03316 0.00645
#
# Static dielectric constant tensor:
#      x y z
#    x 1.847050 0.000000 0.000000 
#    y 0.000000 1.860940 0.000000 
#    z 0.000000 0.000000 1.826390 
# 
# From -- ./inp_files/31562.got.cif
#   From: 2010.05.17/outbox.cif.g08.bks.cpg/sg50_16_cif.got.tgz:31562.got - 2010.06.03 11:33:33.
