data_PCOD9398802
_publ_section_title
;
Structure prediction by ZEFSAII (Michael W. Deem and Ramdas Pophale) SiO2 
 PCOD9398802
Probable space group: P M M A
;
_chemical_formula_sum "Si O2"
_cell_formula_units_Z 52
_cell_length_a 14.835044
_cell_length_b 15.192683
_cell_length_c 13.048019
_cell_angle_alpha 90.000000
_cell_angle_beta 90.000000
_cell_angle_gamma 90.000000
_cell_volume 2940.816290
_symmetry_space_group_name_H-M "P M M A"
_symmetry_group_IT_number 51
_symmetry_cell_setting 'orthorhombic'
loop_
_space_group_symop_operation_xyz
x,y,z
1/2-x,-y,z
1/2+x,-y,-z
-x,y,-z
-x,-y,-z
1/2+x,y,-z
1/2-x,y,z
x,-y,z
loop_
_atom_site_type_symbol
_atom_site_label
_atom_site_fract_x
_atom_site_fract_y
_atom_site_fract_z
Si Si1 0.620881 0.099506 0.594045
Si Si2 0.648913 0.767526 0.775863
Si Si3 0.000000 0.669095 0.500000
Si Si4 0.642716 0.600768 0.655265
Si Si5 0.577141 0.166529 0.385600
Si Si6 0.358411 0.100515 0.823068
Si Si7 0.360729 0.100667 0.055660
O O1 0.654607 0.170358 0.675640
O O2 0.639473 0.128729 0.477016
O O3 0.513190 0.107849 0.608396
O O4 0.649558 0.000000 0.613778
O O5 0.750000 0.748123 0.812914
O O6 0.612255 0.674130 0.737979
O O7 0.604759 0.828098 0.862898
O O8 0.077752 0.615764 0.441997
O O9 0.047779 0.736217 0.579624
O O10 0.750000 0.616958 0.632773
O O11 0.634904 0.500000 0.690187
O O12 0.612168 0.160368 0.271079
O O13 0.250000 0.100354 0.825444
O O14 0.387796 0.000000 0.801067
O O15 0.387598 0.121874 0.938975
O O16 0.250000 0.099872 0.060450
O O17 0.388703 0.000000 0.079714
#
# Coordination Sequence:
#
# PCOD9398802 Si02
#       7
#     8   8   4   8   8   8   8
#     4  10  18  28  42  62  96 133 159 192 241 286
#     4  10  18  30  47  70  96 121 163 208 249 307
#     4  10  19  36  53  74 108 140 163 206 267 302
#     4  10  20  35  56  80 102 128 167 213 261 315
#     4  10  18  30  44  64  96 136 167 200 242 290
#     4   9  17  29  45  66  95 135 181 216 243 288
#     4   8  15  28  45  66  96 133 168 208 253 291
#
# _framework density 17.682165999999999
#
# number of rings (size 3 to 8) (size 9 to 14) (size 15 to 20)
#    0.000    2.615    3.077    3.462    0.000    2.154 
#    0.000    0.769    0.000    2.769    0.000    3.231 
#    0.000    4.923    0.000    0.000    0.000    0.000 
#
# Total GULP energy -289699.507724 kJ/mol
# GULP energy per Si atom -5571.144379 kJ/mol
# Density = 1.764192 g / cm^3
# Si number density = 17.682166 Si / 1000 Ang^3
#
#
#
# Elastic Constant Matrix: (Units=GPa)
#
#
# Indices 1 2 3 4 5 6 
#
# 1 36.8931 16.5242 23.7197 0.0000 0.0000 0.0000
# 2 16.5242 121.3044 63.3847 0.0000 0.0000 0.0000
# 3 23.7197 63.3847 120.9679 0.0000 0.0000 0.0000
# 4 0.0000 0.0000 0.0000 10.0778 0.0000 0.0000
# 5 0.0000 0.0000 0.0000 0.0000 29.3443 0.0000
# 6 0.0000 0.0000 0.0000 0.0000 0.0000 29.7627
#
#
#
# Elastic Compliance Matrix: (Units=1/GPa)
#
#
# Indices 1 2 3 4 5 6 
#
# 1 0.031200 -0.001451 -0.005358 0.000000 0.000000 0.000000
# 2 -0.001451 0.011419 -0.005699 0.000000 0.000000 0.000000
# 3 -0.005358 -0.005699 0.012303 0.000000 0.000000 0.000000
# 4 0.000000 0.000000 0.000000 0.099228 0.000000 0.000000
# 5 0.000000 0.000000 0.000000 0.000000 0.034078 0.000000
# 6 0.000000 0.000000 0.000000 0.000000 0.000000 0.033599
#
#
# Mechanical properties :
#
#
# Convention : Reuss Voigt Hill
#
# Bulk Modulus (GPa) = 33.43605 54.04693 43.74149
# Shear Modulus (GPa) = 19.46954 25.53941 22.50448
#
# Velocity S-wave (km/s) = 3.32186 3.80460 3.57139
# Velocity P-wave (km/s) = 5.80203 7.06626 6.46512
#
# Compressibility (1/GPa) = 0.02990784
#
# Stress axis : x y z
#
# Youngs Moduli (GPa) = 32.05163 87.57191 81.27865
#
# Poissons Ratio (x) = 0.12703 0.43546
# Poissons Ratio (y) = 0.04649 0.46321
# Poissons Ratio (z) = 0.17172 0.49907
#
# Static dielectric constant tensor:
#      x y z
#    x 1.682880 0.000000 0.000000 
#    y 0.000000 1.590280 0.000000 
#    z 0.000000 0.000000 1.627580 
# 
# From -- ./inp_files/18333.got.cif
#   From: 2010.05.17/outbox.cif.g08.bks.cpg/sg51_10_cif.got.tgz:18333.got - 2010.06.03 11:52:47.
