data_PCOD9398821
_publ_section_title
;
Structure prediction by ZEFSAII (Michael W. Deem and Ramdas Pophale) SiO2 
 PCOD9398821
Probable space group: P M M A
;
_chemical_formula_sum "Si O2"
_cell_formula_units_Z 64
_cell_length_a 29.470141
_cell_length_b 7.518332
_cell_length_c 16.287068
_cell_angle_alpha 90.000000
_cell_angle_beta 90.000000
_cell_angle_gamma 90.000000
_cell_volume 3608.665462
_symmetry_space_group_name_H-M "P M M A"
_symmetry_group_IT_number 51
_symmetry_cell_setting 'orthorhombic'
loop_
_space_group_symop_operation_xyz
x,y,z
1/2-x,-y,z
1/2+x,-y,-z
-x,y,-z
-x,-y,-z
1/2+x,y,-z
1/2-x,y,z
x,-y,z
loop_
_atom_site_type_symbol
_atom_site_label
_atom_site_fract_x
_atom_site_fract_y
_atom_site_fract_z
Si Si1 0.639043 0.209227 0.322063
Si Si2 0.451508 0.217488 0.599042
Si Si3 0.697479 0.284359 0.483157
Si Si4 0.303213 0.282948 0.185657
Si Si5 0.697354 0.713832 0.993089
Si Si6 0.801785 0.210791 0.173210
Si Si7 0.650173 0.709094 0.649891
Si Si8 0.552668 0.214308 0.590696
O O1 0.589369 0.282457 0.344263
O O2 0.669750 0.225173 0.403463
O O3 0.666313 0.285487 0.244674
O O4 0.632242 0.000000 0.305342
O O5 0.502807 0.272724 0.620133
O O6 0.442390 0.271472 0.504514
O O7 0.450926 0.000000 0.599299
O O8 0.750000 0.228727 0.479656
O O9 0.696519 0.500000 0.483172
O O10 0.673691 0.219118 0.567028
O O11 0.250000 0.235506 0.193006
O O12 0.304854 0.500000 0.185254
O O13 0.330323 0.217633 0.264917
O O14 0.320769 0.225219 0.095536
O O15 0.750000 0.773470 0.994617
O O16 0.697101 0.500000 0.992058
O O17 0.678495 0.767341 0.081495
O O18 0.750000 0.283755 0.175938
O O19 0.797816 0.000000 0.187818
O O20 0.661495 0.500000 0.650407
O O21 0.596286 0.727016 0.640988
O O22 0.552632 0.000000 0.590467
#
# Coordination Sequence:
#
# PCOD9398821 Si02
#       8
#     8   8   8   8   8   8   8   8
#     4  10  18  30  46  62  81 112 149 176 203 249
#     4   8  15  28  46  62  79 108 144 179 213 249
#     4  10  20  30  39  57  88 120 144 168 202 241
#     4   8  14  26  44  63  84 113 146 173 201 248
#     4   8  14  26  44  62  79 106 143 175 203 242
#     4   9  17  27  40  61  87 110 133 168 212 248
#     4  10  18  28  43  64  87 112 141 174 210 246
#     4   9  16  29  46  62  81 108 142 179 216 252
#
# _framework density 17.735088999999999
#
# number of rings (size 3 to 8) (size 9 to 14) (size 15 to 20)
#    0.000    3.000    1.250    2.250    0.000    2.750 
#    0.000    3.750    0.000    1.875    0.000    0.875 
#    0.000    7.000    0.000    0.000    0.000    0.000 
#
# Total GULP energy -356625.558626 kJ/mol
# GULP energy per Si atom -5572.274354 kJ/mol
# Density = 1.769472 g / cm^3
# Si number density = 17.735089 Si / 1000 Ang^3
#
#
#
# Elastic Constant Matrix: (Units=GPa)
#
#
# Indices 1 2 3 4 5 6 
#
# 1 93.8701 -9.2431 65.4257 0.0000 0.0000 0.0000
# 2 -9.2431 40.1846 -4.8946 0.0000 0.0000 0.0000
# 3 65.4257 -4.8946 150.2420 0.0000 0.0000 0.0000
# 4 0.0000 0.0000 0.0000 15.3606 0.0000 0.0000
# 5 0.0000 0.0000 0.0000 0.0000 9.7930 0.0000
# 6 0.0000 0.0000 0.0000 0.0000 0.0000 12.5094
#
#
#
# Elastic Compliance Matrix: (Units=1/GPa)
#
#
# Indices 1 2 3 4 5 6 
#
# 1 0.015597 0.002771 -0.006702 0.000000 0.000000 0.000000
# 2 0.002771 0.025477 -0.000377 0.000000 0.000000 0.000000
# 3 -0.006702 -0.000377 0.009562 0.000000 0.000000 0.000000
# 4 0.000000 0.000000 0.000000 0.065102 0.000000 0.000000
# 5 0.000000 0.000000 0.000000 0.000000 0.102114 0.000000
# 6 0.000000 0.000000 0.000000 0.000000 0.000000 0.079940
#
#
# Mechanical properties :
#
#
# Convention : Reuss Voigt Hill
#
# Bulk Modulus (GPa) = 23.79755 42.98585 33.39170
# Shear Modulus (GPa) = 15.60487 23.06650 19.33569
#
# Velocity S-wave (km/s) = 2.96951 3.61031 3.30548
# Velocity P-wave (km/s) = 5.02044 6.45519 5.78249
#
# Compressibility (1/GPa) = 0.04202113
#
# Stress axis : x y z
#
# Youngs Moduli (GPa) = 64.11566 39.25152 104.58053
#
# Poissons Ratio (x) = -0.10878 0.70086
# Poissons Ratio (y) = -0.17768 0.03941
# Poissons Ratio (z) = 0.42968 0.01479
#
# Static dielectric constant tensor:
#      x y z
#    x 1.598450 0.000000 0.000000 
#    y 0.000000 1.661770 0.000000 
#    z 0.000000 0.000000 1.622240 
# 
# From -- ./inp_files/26710.got.cif
#   From: 2010.05.17/outbox.cif.g08.bks.cpg/sg51_14_cif.got.tgz:26710.got - 2010.06.03 11:52:47.
