data_PCOD9398727
_publ_section_title
;
Structure prediction by ZEFSAII (Michael W. Deem and Ramdas Pophale) SiO2 
 PCOD9398727
Probable space group: P M M A
;
_chemical_formula_sum "Si O2"
_cell_formula_units_Z 56
_cell_length_a 29.278882
_cell_length_b 7.515059
_cell_length_c 14.241047
_cell_angle_alpha 90.000000
_cell_angle_beta 90.000000
_cell_angle_gamma 90.000000
_cell_volume 3133.493540
_symmetry_space_group_name_H-M "P M M A"
_symmetry_group_IT_number 51
_symmetry_cell_setting 'orthorhombic'
loop_
_space_group_symop_operation_xyz
x,y,z
1/2-x,-y,z
1/2+x,-y,-z
-x,y,-z
-x,-y,-z
1/2+x,y,-z
1/2-x,y,z
x,-y,z
loop_
_atom_site_type_symbol
_atom_site_label
_atom_site_fract_x
_atom_site_fract_y
_atom_site_fract_z
Si Si1 0.519652 0.791969 0.903834
Si Si2 0.800875 0.714221 0.730013
Si Si3 0.550833 0.296184 0.597994
Si Si4 0.533541 0.284074 0.281379
Si Si5 0.301123 0.283001 0.487039
Si Si6 0.393293 0.717932 0.579451
Si Si7 0.898005 0.209124 0.780876
O O1 0.482446 0.777735 0.820624
O O2 0.567131 0.719758 0.859933
O O3 0.528760 0.000000 0.922833
O O4 0.500000 0.712938 0.000000
O O5 0.750000 0.774334 0.758636
O O6 0.800309 0.500000 0.728701
O O7 0.808335 0.773113 0.621563
O O8 0.844019 0.768466 0.792308
O O9 0.539728 0.500000 0.574184
O O10 0.505258 0.219779 0.644827
O O11 0.574044 0.219404 0.505761
O O12 0.587537 0.295060 0.682100
O O13 0.531380 0.500000 0.279270
O O14 0.582377 0.230894 0.323502
O O15 0.250000 0.228053 0.515046
O O16 0.301701 0.500000 0.486127
O O17 0.342280 0.223685 0.553623
O O18 0.392852 0.500000 0.577076
O O19 0.907664 0.000000 0.770356
#
# Coordination Sequence:
#
# PCOD9398727 Si02
#       7
#     8   8   8   8   8   8   8
#     4   9  19  35  49  60  81 113 144 175 219 273
#     4   9  16  27  43  62  86 118 150 173 201 249
#     4   9  15  25  39  56  84 118 144 166 200 249
#     4   9  17  26  41  65  85 104 138 180 215 245
#     4   8  13  21  36  58  82 112 148 174 192 230
#     4   9  14  22  38  59  85 114 143 173 203 241
#     4  10  18  27  42  64  86 110 143 182 218 248
#
# _framework density 17.871426
#
# number of rings (size 3 to 8) (size 9 to 14) (size 15 to 20)
#    0.000    3.000    1.429    1.714    0.000    2.857 
#    0.000    0.714    0.000    3.429    0.000    1.000 
#    0.000    3.429    0.000    0.000    0.000    0.000 
#
# Total GULP energy -311975.146075 kJ/mol
# GULP energy per Si atom -5570.984751 kJ/mol
# Density = 1.783075 g / cm^3
# Si number density = 17.871426 Si / 1000 Ang^3
#
#
#
# Elastic Constant Matrix: (Units=GPa)
#
#
# Indices 1 2 3 4 5 6 
#
# 1 133.7121 0.9331 79.6138 0.0000 0.0000 0.0000
# 2 0.9331 46.5953 -4.3631 0.0000 0.0000 0.0000
# 3 79.6138 -4.3631 79.6462 0.0000 0.0000 0.0000
# 4 0.0000 0.0000 0.0000 8.6181 0.0000 0.0000
# 5 0.0000 0.0000 0.0000 0.0000 19.1275 0.0000
# 6 0.0000 0.0000 0.0000 0.0000 0.0000 14.2122
#
#
#
# Elastic Compliance Matrix: (Units=1/GPa)
#
#
# Indices 1 2 3 4 5 6 
#
# 1 0.018683 -0.002134 -0.018792 0.000000 0.000000 0.000000
# 2 -0.002134 0.021816 0.003328 0.000000 0.000000 0.000000
# 3 -0.018792 0.003328 0.031522 0.000000 0.000000 0.000000
# 4 0.000000 0.000000 0.000000 0.116035 0.000000 0.000000
# 5 0.000000 0.000000 0.000000 0.000000 0.052281 0.000000
# 6 0.000000 0.000000 0.000000 0.000000 0.000000 0.070362
#
#
# Mechanical properties :
#
#
# Convention : Reuss Voigt Hill
#
# Bulk Modulus (GPa) = 27.15536 45.81347 36.48441
# Shear Modulus (GPa) = 13.95992 20.64288 17.30140
#
# Velocity S-wave (km/s) = 2.79790 3.40233 3.11481
# Velocity P-wave (km/s) = 5.06611 6.41289 5.77887
#
# Compressibility (1/GPa) = 0.03682514
#
# Stress axis : x y z
#
# Youngs Moduli (GPa) = 53.52592 45.83841 31.72382
#
# Poissons Ratio (x) = 0.09781 0.59615
# Poissons Ratio (y) = 0.11421 -0.10558
# Poissons Ratio (z) = 1.00585 -0.15255
#
# Static dielectric constant tensor:
#      x y z
#    x 1.661580 0.000000 0.000000 
#    y 0.000000 1.686340 0.000000 
#    z 0.000000 0.000000 1.587900 
# 
# From -- ./inp_files/26537.got.cif
#   From: 2010.05.17/outbox.cif.g08.bks.cpg/sg51_14_cif.got.tgz:26537.got - 2010.06.03 11:52:47.
