data_PCOD9398808
_publ_section_title
;
Structure prediction by ZEFSAII (Michael W. Deem and Ramdas Pophale) SiO2 
 PCOD9398808
Probable space group: P M M A
;
_chemical_formula_sum "Si O2"
_cell_formula_units_Z 64
_cell_length_a 20.034581
_cell_length_b 9.367499
_cell_length_c 19.724982
_cell_angle_alpha 90.000000
_cell_angle_beta 90.000000
_cell_angle_gamma 90.000000
_cell_volume 3701.864644
_symmetry_space_group_name_H-M "P M M A"
_symmetry_group_IT_number 51
_symmetry_cell_setting 'orthorhombic'
loop_
_space_group_symop_operation_xyz
x,y,z
1/2-x,-y,z
1/2+x,-y,-z
-x,y,-z
-x,-y,-z
1/2+x,y,-z
1/2-x,y,z
x,-y,z
loop_
_atom_site_type_symbol
_atom_site_label
_atom_site_fract_x
_atom_site_fract_y
_atom_site_fract_z
Si Si1 0.547264 0.164592 0.348397
Si Si2 0.038734 0.671988 0.932459
Si Si3 0.362100 0.337692 0.262084
Si Si4 0.017174 0.663733 0.780229
Si Si5 0.172536 0.669572 0.000315
Si Si6 0.889598 0.164835 0.609445
Si Si7 0.078676 0.335168 0.520976
Si Si8 0.671524 0.841460 0.868394
O O1 0.553431 0.237796 0.274973
O O2 0.468266 0.164103 0.368884
O O3 0.582408 0.257445 0.406714
O O4 0.569019 0.000000 0.348362
O O5 0.028054 0.500000 0.931780
O O6 0.017510 0.720725 0.857460
O O7 0.117514 0.699345 0.943350
O O8 0.000000 0.724937 0.000000
O O9 0.336855 0.500000 0.263888
O O10 0.441118 0.344376 0.245703
O O11 0.352983 0.255108 0.332451
O O12 0.334578 0.245992 0.200342
O O13 0.043372 0.500000 0.779999
O O14 0.250000 0.705593 0.984501
O O15 0.170624 0.500000 0.014429
O O16 0.147641 0.750787 0.067488
O O17 0.885706 0.244361 0.537643
O O18 0.868102 0.000000 0.606433
O O19 0.100456 0.500000 0.523322
O O20 0.000000 0.336598 0.500000
O O21 0.750000 0.856739 0.881161
O O22 0.641408 0.000000 0.863271
#
# Coordination Sequence:
#
# PCOD9398808 Si02
#       8
#     8   8   8   8   8   8   8   8
#     4   9  16  25  37  54  79 110 141 174 212 252
#     4   9  16  27  44  65  88 114 144 179 221 267
#     4  10  18  28  43  61  82 110 144 178 210 249
#     4   9  17  28  42  60  83 112 143 174 213 262
#     4   9  17  30  48  67  85 109 145 185 220 258
#     4   9  16  25  37  55  81 111 140 171 209 251
#     4   9  15  23  36  54  77 107 144 178 206 245
#     4  10  20  32  45  61  82 109 140 175 217 261
#
# _framework density 17.288584
#
# number of rings (size 3 to 8) (size 9 to 14) (size 15 to 20)
#    0.000    2.750    0.000    2.625    0.000    7.750 
#    0.000    0.625    0.000    1.500    0.000    0.000 
#    0.000    1.000    0.000    5.000    0.000    4.125 
#
# Total GULP energy -356397.734916 kJ/mol
# GULP energy per Si atom -5568.714608 kJ/mol
# Density = 1.724923 g / cm^3
# Si number density = 17.288584 Si / 1000 Ang^3
#
#
#
# Elastic Constant Matrix: (Units=GPa)
#
#
# Indices 1 2 3 4 5 6 
#
# 1 16.9022 13.9326 12.5330 0.0000 0.0000 0.0000
# 2 13.9326 99.8215 55.0751 0.0000 0.0000 0.0000
# 3 12.5330 55.0751 133.7257 0.0000 0.0000 0.0000
# 4 0.0000 0.0000 0.0000 -336.3124 0.0000 0.0000
# 5 0.0000 0.0000 0.0000 0.0000 15.5737 0.0000
# 6 0.0000 0.0000 0.0000 0.0000 0.0000 7.2760
#
#
#
# Elastic Compliance Matrix: (Units=1/GPa)
#
#
# Indices 1 2 3 4 5 6 
#
# 1 0.067887 -0.007719 -0.003183 0.000000 0.000000 0.000000
# 2 -0.007719 0.013841 -0.004977 0.000000 0.000000 0.000000
# 3 -0.003183 -0.004977 0.009826 0.000000 0.000000 0.000000
# 4 0.000000 0.000000 0.000000 -0.002973 0.000000 0.000000
# 5 0.000000 0.000000 0.000000 0.000000 0.064211 0.000000
# 6 0.000000 0.000000 0.000000 0.000000 0.000000 0.137438
#
#
# Mechanical properties :
#
#
# Convention : Reuss Voigt Hill
#
# Bulk Modulus (GPa) = 16.72364 45.94789 31.33577
# Shear Modulus (GPa) = 14.62323 -51.43197 -18.40437
#
# Velocity S-wave (km/s) = 2.91147 -5.46019 -3.26627
# Velocity P-wave (km/s) = 4.58219 3.62172 1.98489
#
# Compressibility (1/GPa) = 0.05979559
#
# Stress axis : x y z
#
# Youngs Moduli (GPa) = 14.73032 72.24747 101.76879
#
# Poissons Ratio (x) = 0.55767 0.32398
# Poissons Ratio (y) = 0.11370 0.50652
# Poissons Ratio (z) = 0.04689 0.35959
#
# Static dielectric constant tensor:
#      x y z
#    x 1.609970 0.000000 0.000000 
#    y 0.000000 1.612710 0.000000 
#    z 0.000000 0.000000 1.588160 
# 
# From -- ./inp_files/30858.got.cif
#   From: 2010.05.17/outbox.cif.g08.bks.cpg/sg51_16_cif.got.tgz:30858.got - 2010.06.03 11:52:47.
