data_PCOD9398462
_publ_section_title
;
Structure prediction by ZEFSAII (Michael W. Deem and Ramdas Pophale) SiO2 
 PCOD9398462
Probable space group: P M M A
;
_chemical_formula_sum "Si O2"
_cell_formula_units_Z 56
_cell_length_a 15.093001
_cell_length_b 7.760712
_cell_length_c 21.106797
_cell_angle_alpha 90.000000
_cell_angle_beta 90.000000
_cell_angle_gamma 90.000000
_cell_volume 2472.290506
_symmetry_space_group_name_H-M "P M M A"
_symmetry_group_IT_number 51
_symmetry_cell_setting 'orthorhombic'
loop_
_space_group_symop_operation_xyz
x,y,z
1/2-x,-y,z
1/2+x,-y,-z
-x,y,-z
-x,-y,-z
1/2+x,y,-z
1/2-x,y,z
x,-y,z
loop_
_atom_site_type_symbol
_atom_site_label
_atom_site_fract_x
_atom_site_fract_y
_atom_site_fract_z
Si Si1 0.898465 0.201733 0.943044
Si Si2 0.649339 0.203570 0.468621
Si Si3 0.155912 0.702666 0.190150
Si Si4 0.533486 0.708148 0.347696
Si Si5 0.954249 0.288580 0.210788
Si Si6 0.348598 0.700660 0.389782
Si Si7 0.401246 0.696035 0.921446
O O1 0.841705 0.273669 0.885719
O O2 0.992706 0.296702 0.934561
O O3 0.914835 0.000000 0.932719
O O4 0.863408 0.221811 0.014545
O O5 0.750000 0.254749 0.452090
O O6 0.586347 0.241442 0.410121
O O7 0.627734 0.290863 0.535529
O O8 0.647142 0.000000 0.481165
O O9 0.250000 0.773469 0.215922
O O10 0.154502 0.500000 0.206197
O O11 0.057658 0.769143 0.206929
O O12 0.529264 0.500000 0.346979
O O13 0.576350 0.761332 0.280940
O O14 0.432494 0.775083 0.353171
O O15 0.954690 0.500000 0.206118
O O16 0.898166 0.228399 0.149724
O O17 0.250000 0.777019 0.382172
O O18 0.342319 0.500000 0.371681
O O19 0.369758 0.500000 0.919676
#
# Coordination Sequence:
#
# PCOD9398462 Si02
#       7
#     8   8   8   8   8   8   8
#     4  10  17  25  41  65  89 113 147 193 241 279
#     4  10  21  36  53  73  98 130 170 215 259 301
#     4   9  17  30  47  66  92 128 165 197 234 287
#     4  10  19  32  52  78 106 134 167 207 251 301
#     4   8  16  29  46  70  96 124 159 197 236 283
#     4   9  18  32  51  77 107 136 165 201 248 299
#     4   9  15  27  45  63  86 115 151 191 230 280
#
# _framework density 22.651062
#
# number of rings (size 3 to 8) (size 9 to 14) (size 15 to 20)
#    0.000    2.714    0.000    4.286    0.000    4.000 
#    0.000    6.429    0.000    0.857    0.000    6.000 
#    0.000    0.000    0.000    0.000    0.000    0.000 
#
# Total GULP energy -312146.243568 kJ/mol
# GULP energy per Si atom -5574.040064 kJ/mol
# Density = 2.259951 g / cm^3
# Si number density = 22.651062 Si / 1000 Ang^3
#
#
#
# Elastic Constant Matrix: (Units=GPa)
#
#
# Indices 1 2 3 4 5 6 
#
# 1 23.2174 -2.9560 17.8061 0.0000 0.0000 0.0000
# 2 -2.9560 45.1310 2.2649 0.0000 0.0000 0.0000
# 3 17.8061 2.2649 125.0786 0.0000 0.0000 0.0000
# 4 0.0000 0.0000 0.0000 -69.9441 0.0000 0.0000
# 5 0.0000 0.0000 0.0000 0.0000 10.5998 0.0000
# 6 0.0000 0.0000 0.0000 0.0000 0.0000 13.4472
#
#
#
# Elastic Compliance Matrix: (Units=1/GPa)
#
#
# Indices 1 2 3 4 5 6 
#
# 1 0.048914 0.003556 -0.007028 0.000000 0.000000 0.000000
# 2 0.003556 0.022436 -0.000913 0.000000 0.000000 0.000000
# 3 -0.007028 -0.000913 0.009012 0.000000 0.000000 0.000000
# 4 0.000000 0.000000 0.000000 -0.014297 0.000000 0.000000
# 5 0.000000 0.000000 0.000000 0.000000 0.094341 0.000000
# 6 0.000000 0.000000 0.000000 0.000000 0.000000 0.074365
#
#
# Mechanical properties :
#
#
# Convention : Reuss Voigt Hill
#
# Bulk Modulus (GPa) = 13.96754 25.29522 19.63138
# Shear Modulus (GPa) = 18.69829 2.57471 10.63650
#
# Velocity S-wave (km/s) = 2.87626 1.06731 2.16933
# Velocity P-wave (km/s) = 4.14852 3.56517 3.86786
#
# Compressibility (1/GPa) = 0.07159456
#
# Stress axis : x y z
#
# Youngs Moduli (GPa) = 20.44413 44.57027 110.96360
#
# Poissons Ratio (x) = -0.15851 0.77982
# Poissons Ratio (y) = -0.07271 0.10126
# Poissons Ratio (z) = 0.14368 0.04067
#
# Static dielectric constant tensor:
#      x y z
#    x 1.858840 0.000000 0.000000 
#    y 0.000000 1.837310 0.000000 
#    z 0.000000 0.000000 1.885270 
# 
# From -- ./inp_files/33734.got.cif
#   From: 2010.05.17/outbox.cif.g08.bks.cpg/sg51_17_cif.got.tgz:33734.got - 2010.06.03 11:52:47.
