data_PCOD9398748
_publ_section_title
;
Structure prediction by ZEFSAII (Michael W. Deem and Ramdas Pophale) SiO2 
 PCOD9398748
Probable space group: P M M A
;
_chemical_formula_sum "Si O2"
_cell_formula_units_Z 64
_cell_length_a 14.404992
_cell_length_b 14.861183
_cell_length_c 18.252600
_cell_angle_alpha 90.000000
_cell_angle_beta 90.000000
_cell_angle_gamma 90.000000
_cell_volume 3907.429401
_symmetry_space_group_name_H-M "P M M A"
_symmetry_group_IT_number 51
_symmetry_cell_setting 'orthorhombic'
loop_
_space_group_symop_operation_xyz
x,y,z
1/2-x,-y,z
1/2+x,-y,-z
-x,y,-z
-x,-y,-z
1/2+x,y,-z
1/2-x,y,z
x,-y,z
loop_
_atom_site_type_symbol
_atom_site_label
_atom_site_fract_x
_atom_site_fract_y
_atom_site_fract_z
Si Si1 0.140428 0.602398 0.675894
Si Si2 0.860039 0.895622 0.536344
Si Si3 0.359493 0.212857 0.609795
Si Si4 0.531933 0.607193 0.174124
Si Si5 0.892179 0.601695 0.023222
Si Si6 0.483830 0.105715 0.321159
Si Si7 0.641678 0.102099 0.820928
Si Si8 0.647034 0.290407 0.882575
O O1 0.250000 0.605929 0.695832
O O2 0.120906 0.500000 0.651501
O O3 0.124643 0.680453 0.616717
O O4 0.078840 0.621877 0.747573
O O5 0.750000 0.888446 0.551743
O O6 0.882511 0.830809 0.468706
O O7 0.918057 0.875613 0.608915
O O8 0.878473 0.000000 0.514929
O O9 0.250000 0.195730 0.622640
O O10 0.424494 0.164508 0.669081
O O11 0.513300 0.500000 0.166369
O O12 0.603677 0.629568 0.108095
O O13 0.436437 0.660195 0.160088
O O14 0.854467 0.500000 0.016177
O O15 0.851985 0.670592 0.964761
O O16 0.000000 0.596453 0.000000
O O17 0.425079 0.121131 0.247711
O O18 0.507908 0.000000 0.323515
O O19 0.750000 0.103504 0.796818
O O20 0.630623 0.183367 0.877948
O O21 0.623205 0.000000 0.847413
O O22 0.750000 0.308021 0.850592
#
# Coordination Sequence:
#
# PCOD9398748 Si02
#       8
#     8   8   8   8   8   8   8   8
#     4   9  18  32  48  64  83 114 154 186 213 248
#     4   9  17  29  46  69  93 114 139 174 218 265
#     4  10  19  29  43  66  93 116 141 178 220 260
#     4   9  17  30  47  67  92 116 140 178 221 262
#     4   8  15  27  42  62  88 114 137 167 212 261
#     4  10  18  29  47  67  89 117 144 175 218 265
#     4   9  18  31  45  63  87 117 154 187 212 246
#     4  10  18  27  43  67  93 119 144 175 219 265
#
# _framework density 16.379054
#
# number of rings (size 3 to 8) (size 9 to 14) (size 15 to 20)
#    0.000    2.750    0.000    3.000    0.000    4.750 
#    0.000    1.250    0.000    4.875    0.000    0.000 
#    0.000   14.000    0.000    0.000    0.000    0.000 
#
# Total GULP energy -356399.455475 kJ/mol
# GULP energy per Si atom -5568.741492 kJ/mol
# Density = 1.634177 g / cm^3
# Si number density = 16.379054 Si / 1000 Ang^3
#
#
#
# Elastic Constant Matrix: (Units=GPa)
#
#
# Indices 1 2 3 4 5 6 
#
# 1 55.3302 43.6440 18.7046 0.0000 0.0000 0.0000
# 2 43.6440 104.8351 54.5416 0.0000 0.0000 0.0000
# 3 18.7046 54.5416 51.1528 0.0000 0.0000 0.0000
# 4 0.0000 0.0000 0.0000 18.8358 0.0000 0.0000
# 5 0.0000 0.0000 0.0000 0.0000 17.0162 0.0000
# 6 0.0000 0.0000 0.0000 0.0000 0.0000 30.9029
#
#
#
# Elastic Compliance Matrix: (Units=1/GPa)
#
#
# Indices 1 2 3 4 5 6 
#
# 1 0.027429 -0.013926 0.004819 0.000000 0.000000 0.000000
# 2 -0.013926 0.028493 -0.025288 0.000000 0.000000 0.000000
# 3 0.004819 -0.025288 0.044751 0.000000 0.000000 0.000000
# 4 0.000000 0.000000 0.000000 0.053090 0.000000 0.000000
# 5 0.000000 0.000000 0.000000 0.000000 0.058767 0.000000
# 6 0.000000 0.000000 0.000000 0.000000 0.000000 0.032359
#
#
# Mechanical properties :
#
#
# Convention : Reuss Voigt Hill
#
# Bulk Modulus (GPa) = 31.36575 49.45538 40.41056
# Shear Modulus (GPa) = 15.41742 19.64618 17.53180
#
# Velocity S-wave (km/s) = 3.07137 3.46709 3.27521
# Velocity P-wave (km/s) = 5.63642 6.80349 6.24727
#
# Compressibility (1/GPa) = 0.03188191
#
# Stress axis : x y z
#
# Youngs Moduli (GPa) = 36.45770 35.09635 22.34594
#
# Poissons Ratio (x) = 0.48876 -0.10769
# Poissons Ratio (y) = 0.50772 0.56509
# Poissons Ratio (z) = -0.17569 0.88753
#
# Static dielectric constant tensor:
#      x y z
#    x 1.573710 0.000000 0.000000 
#    y 0.000000 1.559490 0.000000 
#    z 0.000000 0.000000 1.542170 
# 
# From -- ./inp_files/29994.got.cif
#   From: 2010.05.17/outbox.cif.g08.bks.cpg/sg51_15_cif.got.tgz:29994.got - 2010.06.03 11:52:47.
