data_PCOD9398124
_publ_section_title
;
Structure prediction by ZEFSAII (Michael W. Deem and Ramdas Pophale) SiO2 
 PCOD9398124
Probable space group: P B A N
;
_chemical_formula_sum "Si O2"
_cell_formula_units_Z 24
_cell_length_a 10.678126
_cell_length_b 8.695861
_cell_length_c 12.296483
_cell_angle_alpha 90.000000
_cell_angle_beta 90.000000
_cell_angle_gamma 90.000000
_cell_volume 1141.796070
_symmetry_space_group_name_H-M "P B A N"
_symmetry_group_IT_number 50
_space_group.IT_coordinate_system_code '2'
_symmetry_cell_setting 'orthorhombic'
loop_
_space_group_symop_operation_xyz
x,y,z
1/2-x,1/2-y,z
x,1/2-y,-z
1/2-x,y,-z
-x,-y,-z
1/2+x,1/2+y,-z
-x,1/2+y,z
1/2+x,-y,z
loop_
_atom_site_type_symbol
_atom_site_label
_atom_site_fract_x
_atom_site_fract_y
_atom_site_fract_z
Si Si1 0.126065 0.850873 0.201301
Si Si2 0.381926 0.185066 0.878011
Si Si3 0.123269 0.577217 0.545914
O O1 0.250000 0.750000 0.181573
O O2 0.128560 0.913908 0.324317
O O3 0.002525 0.748169 0.185267
O O4 0.121270 0.000698 0.124982
O O5 0.250000 0.250000 0.832829
O O6 0.392218 0.250000 0.000000
O O7 0.121367 0.750000 0.500000
O O8 0.250000 0.501744 0.500000
O O9 0.000000 0.500000 0.500000
#
# Coordination Sequence:
#
# PCOD9398124 Si02
#       3
#     8   8   8
#     4  12  24  45  73 101 144 187 234 295 354 422
#     4  11  26  45  69 103 139 184 242 290 356 420
#     4  11  24  44  66 103 144 178 234 282 347 423
#
# _framework density 21.019515999999999
#
# number of rings (size 3 to 8) (size 9 to 14) (size 15 to 20)
#    0.000    0.667    3.333    5.000    4.667    4.000 
#    0.000    0.000    0.000    0.000    0.000    0.000 
#    0.000    0.000    0.000    0.000    0.000    0.000 
#
# Total GULP energy -134321.660212 kJ/mol
# GULP energy per Si atom -5596.735842 kJ/mol
# Density = 2.097167 g / cm^3
# Si number density = 21.019516 Si / 1000 Ang^3
#
#
#
# Elastic Constant Matrix: (Units=GPa)
#
#
# Indices 1 2 3 4 5 6 
#
# 1 247.9003 72.3710 38.5469 0.0000 0.0000 0.0000
# 2 72.3710 125.7000 31.5596 0.0000 0.0000 0.0000
# 3 38.5469 31.5596 108.3964 0.0000 0.0000 0.0000
# 4 0.0000 0.0000 0.0000 5.9521 0.0000 0.0000
# 5 0.0000 0.0000 0.0000 0.0000 23.5669 0.0000
# 6 0.0000 0.0000 0.0000 0.0000 0.0000 32.4107
#
#
#
# Elastic Compliance Matrix: (Units=1/GPa)
#
#
# Indices 1 2 3 4 5 6 
#
# 1 0.004948 -0.002597 -0.001003 0.000000 0.000000 0.000000
# 2 -0.002597 0.009946 -0.001972 0.000000 0.000000 0.000000
# 3 -0.001003 -0.001972 0.010156 0.000000 0.000000 0.000000
# 4 0.000000 0.000000 0.000000 0.168008 0.000000 0.000000
# 5 0.000000 0.000000 0.000000 0.000000 0.042432 0.000000
# 6 0.000000 0.000000 0.000000 0.000000 0.000000 0.030854
#
#
# Mechanical properties :
#
#
# Convention : Reuss Voigt Hill
#
# Bulk Modulus (GPa) = 71.91622 85.21687 78.56654
# Shear Modulus (GPa) = 17.72264 35.02057 26.37160
#
# Velocity S-wave (km/s) = 2.90686 4.08621 3.54591
# Velocity P-wave (km/s) = 6.74942 7.93049 7.36367
#
# Compressibility (1/GPa) = 0.01390507
#
# Stress axis : x y z
#
# Youngs Moduli (GPa) = 202.10063 100.54557 98.45946
#
# Poissons Ratio (x) = 0.26110 0.09880
# Poissons Ratio (y) = 0.52482 0.19419
# Poissons Ratio (z) = 0.20281 0.19830
#
# Static dielectric constant tensor:
#      x y z
#    x 1.742220 0.000000 0.000000 
#    y 0.000000 1.734110 0.000000 
#    z 0.000000 0.000000 1.774010 
# 
# From -- ./inp_files/19607.got.cif
#   From: 2010.05.17/outbox.cif.g08.bks.cpg/sg50_10_cif.got.tgz:19607.got - 2010.06.03 11:33:33.
