data_PCOD9398684
_publ_section_title
;
Structure prediction by ZEFSAII (Michael W. Deem and Ramdas Pophale) SiO2 
 PCOD9398684
Probable space group: P M M A
;
_chemical_formula_sum "Si O2"
_cell_formula_units_Z 56
_cell_length_a 29.587045
_cell_length_b 7.608308
_cell_length_c 13.911400
_cell_angle_alpha 90.000000
_cell_angle_beta 90.000000
_cell_angle_gamma 90.000000
_cell_volume 3131.558405
_symmetry_space_group_name_H-M "P M M A"
_symmetry_group_IT_number 51
_symmetry_cell_setting 'orthorhombic'
loop_
_space_group_symop_operation_xyz
x,y,z
1/2-x,-y,z
1/2+x,-y,-z
-x,y,-z
-x,-y,-z
1/2+x,y,-z
1/2-x,y,z
x,-y,z
loop_
_atom_site_type_symbol
_atom_site_label
_atom_site_fract_x
_atom_site_fract_y
_atom_site_fract_z
Si Si1 0.530491 0.786654 0.201504
Si Si2 0.104969 0.287619 0.297460
Si Si3 0.199925 0.709062 0.242427
Si Si4 0.887830 0.201007 0.088209
Si Si5 0.559074 0.292506 0.902031
Si Si6 0.300997 0.787001 0.017852
Si Si7 0.515515 0.791581 0.602497
O O1 0.579928 0.721100 0.170428
O O2 0.493472 0.735347 0.121403
O O3 0.511474 0.721931 0.304030
O O4 0.531620 0.000000 0.203122
O O5 0.105442 0.500000 0.296530
O O6 0.156548 0.223252 0.300521
O O7 0.084362 0.230139 0.194780
O O8 0.068677 0.232901 0.376765
O O9 0.250000 0.782865 0.262379
O O10 0.202020 0.500000 0.259208
O O11 0.190794 0.733595 0.128529
O O12 0.878001 0.000000 0.116686
O O13 0.919743 0.200760 0.993856
O O14 0.840554 0.280043 0.051847
O O15 0.567283 0.500000 0.914252
O O16 0.250000 0.731070 0.992528
O O17 0.302314 0.000000 0.016535
O O18 0.500000 0.718538 0.500000
O O19 0.506539 0.000000 0.601276
#
# Coordination Sequence:
#
# PCOD9398684 Si02
#       7
#     8   8   8   8   8   8   8
#     4   9  18  30  42  58  80 107 138 170 207 252
#     4   9  17  28  42  63  87 112 139 168 207 249
#     4   9  16  27  42  60  85 115 144 171 200 240
#     4  10  18  27  40  57  81 112 140 166 200 241
#     4  10  18  27  39  59  86 113 140 168 197 235
#     4   9  17  27  39  57  81 110 144 175 200 231
#     4   9  18  32  48  63  79 104 140 179 218 259
#
# _framework density 17.882470999999999
#
# number of rings (size 3 to 8) (size 9 to 14) (size 15 to 20)
#    0.000    2.714    1.429    0.857    0.000    3.714 
#    0.000    0.000    0.000    0.000    0.000    1.000 
#    0.000    3.429    0.000    0.000    0.000    0.000 
#
# Total GULP energy -312090.524116 kJ/mol
# GULP energy per Si atom -5573.045073 kJ/mol
# Density = 1.784177 g / cm^3
# Si number density = 17.882471 Si / 1000 Ang^3
#
#
#
# Elastic Constant Matrix: (Units=GPa)
#
#
# Indices 1 2 3 4 5 6 
#
# 1 156.0802 -3.7991 59.2954 0.0000 0.0000 0.0000
# 2 -3.7991 39.8896 0.2857 0.0000 0.0000 0.0000
# 3 59.2954 0.2857 65.7389 0.0000 0.0000 0.0000
# 4 0.0000 0.0000 0.0000 -77.4046 0.0000 0.0000
# 5 0.0000 0.0000 0.0000 0.0000 20.8615 0.0000
# 6 0.0000 0.0000 0.0000 0.0000 0.0000 9.0340
#
#
#
# Elastic Compliance Matrix: (Units=1/GPa)
#
#
# Indices 1 2 3 4 5 6 
#
# 1 0.009786 0.000995 -0.008831 0.000000 0.000000 0.000000
# 2 0.000995 0.025171 -0.001007 0.000000 0.000000 0.000000
# 3 -0.008831 -0.001007 0.023182 0.000000 0.000000 0.000000
# 4 0.000000 0.000000 0.000000 -0.012919 0.000000 0.000000
# 5 0.000000 0.000000 0.000000 0.000000 0.047935 0.000000
# 6 0.000000 0.000000 0.000000 0.000000 0.000000 0.110693
#
#
# Mechanical properties :
#
#
# Convention : Reuss Voigt Hill
#
# Bulk Modulus (GPa) = 24.72012 41.47473 33.09742
# Shear Modulus (GPa) = 21.27489 4.22662 12.75075
#
# Velocity S-wave (km/s) = 3.45295 1.53905 2.67316
# Velocity P-wave (km/s) = 5.45443 5.13824 5.29870
#
# Compressibility (1/GPa) = 0.04045289
#
# Stress axis : x y z
#
# Youngs Moduli (GPa) = 102.18416 39.72792 43.13731
#
# Poissons Ratio (x) = -0.03954 0.38096
# Poissons Ratio (y) = -0.10170 0.04344
# Poissons Ratio (z) = 0.90242 0.04001
#
# Static dielectric constant tensor:
#      x y z
#    x 1.669050 0.000000 0.000000 
#    y 0.000000 1.651230 0.000000 
#    z 0.000000 0.000000 1.591830 
# 
# From -- ./inp_files/26470.got.cif
#   From: 2010.05.17/outbox.cif.g08.bks.cpg/sg51_14_cif.got.tgz:26470.got - 2010.06.03 11:52:47.
