data_PCOD9398284
_publ_section_title
;
Structure prediction by ZEFSAII (Michael W. Deem and Ramdas Pophale) SiO2 
 PCOD9398284
Probable space group: P B A N
;
_chemical_formula_sum "Si O2"
_cell_formula_units_Z 18
_cell_length_a 7.563767
_cell_length_b 9.630247
_cell_length_c 9.338395
_cell_angle_alpha 90.000000
_cell_angle_beta 90.000000
_cell_angle_gamma 90.000000
_cell_volume 680.217512
_symmetry_space_group_name_H-M "P B A N"
_symmetry_group_IT_number 50
_space_group.IT_coordinate_system_code '2'
_symmetry_cell_setting 'orthorhombic'
loop_
_space_group_symop_operation_xyz
x,y,z
1/2-x,1/2-y,z
x,1/2-y,-z
1/2-x,y,-z
-x,-y,-z
1/2+x,1/2+y,-z
-x,1/2+y,z
1/2+x,-y,z
loop_
_atom_site_type_symbol
_atom_site_label
_atom_site_fract_x
_atom_site_fract_y
_atom_site_fract_z
Si Si1 0.071176 0.827895 0.698881
Si Si2 0.250000 0.250000 0.500000
Si Si3 0.900171 0.908468 0.112556
O O1 0.250000 0.750000 0.647096
O O2 0.895951 0.833350 0.596536
O O3 0.001400 0.722542 0.822261
O O4 0.125830 0.979935 0.757436
O O5 0.750000 0.874240 0.000000
O O6 0.000000 0.000000 0.000000
#
# Coordination Sequence:
#
# PCOD9398284 Si02
#       3
#     8   2   8
#     4  12  28  53  77 115 158 211 254 324 385 461
#     4  12  30  52  78 112 160 212 274 304 380 470
#     4  12  25  49  81 116 155 195 257 324 398 461
#
# _framework density 26.462126999999999
#
# number of rings (size 3 to 8) (size 9 to 14) (size 15 to 20)
#    0.000    0.000    4.444    4.667    0.000    3.556 
#    0.000    0.000    0.000    0.000    0.000    0.000 
#    0.000    0.000    0.000    0.000    0.000    0.000 
#
# Total GULP energy -100265.166460 kJ/mol
# GULP energy per Si atom -5570.287026 kJ/mol
# Density = 2.640190 g / cm^3
# Si number density = 26.462127 Si / 1000 Ang^3
#
#
#
# Elastic Constant Matrix: (Units=GPa)
#
#
# Indices 1 2 3 4 5 6 
#
# 1 224.9311 68.2654 85.7011 0.0000 0.0000 0.0000
# 2 68.2654 181.6058 56.1261 0.0000 0.0000 0.0000
# 3 85.7011 56.1261 142.4911 0.0000 0.0000 0.0000
# 4 0.0000 0.0000 0.0000 -27.7285 0.0000 0.0000
# 5 0.0000 0.0000 0.0000 0.0000 63.6183 0.0000
# 6 0.0000 0.0000 0.0000 0.0000 0.0000-2233.2102
#
#
#
# Elastic Compliance Matrix: (Units=1/GPa)
#
#
# Indices 1 2 3 4 5 6 
#
# 1 0.006027 -0.001304 -0.003111 0.000000 0.000000 0.000000
# 2 -0.001304 0.006552 -0.001796 0.000000 0.000000 0.000000
# 3 -0.003111 -0.001796 0.009597 0.000000 0.000000 0.000000
# 4 0.000000 0.000000 0.000000 -0.036064 0.000000 0.000000
# 5 0.000000 0.000000 0.000000 0.000000 0.015719 0.000000
# 6 0.000000 0.000000 0.000000 0.000000 0.000000 -0.000448
#
#
# Mechanical properties :
#
#
# Convention : Reuss Voigt Hill
#
# Bulk Modulus (GPa) = 102.54047 107.69036 105.11541
# Shear Modulus (GPa) = 293.13805 -416.86839 -61.86517
#
# Velocity S-wave (km/s) = 10.53646 -12.56487 -4.84040
# Velocity P-wave (km/s) = 13.66955 13.02754 2.92743
#
# Compressibility (1/GPa) = 0.00975225
#
# Stress axis : x y z
#
# Youngs Moduli (GPa) = 165.92010 152.63006 104.20063
#
# Poissons Ratio (x) = 0.19903 0.32420
# Poissons Ratio (y) = 0.21636 0.18719
# Poissons Ratio (z) = 0.51623 0.27419
#
# Static dielectric constant tensor:
#      x y z
#    x 1.790020 0.000000 0.000000 
#    y 0.000000 2.037770 0.000000 
#    z 0.000000 0.000000 2.594100 
# 
# From -- ./inp_files/8158.got.cif
#   From: 2010.05.17/outbox.cif.g08.bks.cpg/sg50_5_cif.got.tgz:8158.got - 2010.06.03 11:33:33.
