data_PCOD9398501
_publ_section_title
;
Structure prediction by ZEFSAII (Michael W. Deem and Ramdas Pophale) SiO2 
 PCOD9398501
Probable space group: P M M A
;
_chemical_formula_sum "Si O2"
_cell_formula_units_Z 64
_cell_length_a 28.483364
_cell_length_b 7.615183
_cell_length_c 15.352711
_cell_angle_alpha 90.000000
_cell_angle_beta 90.000000
_cell_angle_gamma 90.000000
_cell_volume 3330.095582
_symmetry_space_group_name_H-M "P M M A"
_symmetry_group_IT_number 51
_symmetry_cell_setting 'orthorhombic'
loop_
_space_group_symop_operation_xyz
x,y,z
1/2-x,-y,z
1/2+x,-y,-z
-x,y,-z
-x,-y,-z
1/2+x,y,-z
1/2-x,y,z
x,-y,z
loop_
_atom_site_type_symbol
_atom_site_label
_atom_site_fract_x
_atom_site_fract_y
_atom_site_fract_z
Si Si1 0.880771 0.202673 0.522211
Si Si2 0.888665 0.709444 0.974166
Si Si3 0.967180 0.713465 0.841285
Si Si4 0.573272 0.292985 0.347727
Si Si5 0.532504 0.712931 0.642520
Si Si6 0.803313 0.788693 0.852066
Si Si7 0.075562 0.714259 0.845397
Si Si8 0.304410 0.785410 0.343276
O O1 0.890667 0.272636 0.426035
O O2 0.929088 0.218830 0.576042
O O3 0.839853 0.280795 0.582990
O O4 0.869043 0.000000 0.510460
O O5 0.895789 0.500000 0.978644
O O6 0.929889 0.779352 0.911188
O O7 0.839677 0.738752 0.926211
O O8 0.894232 0.776886 0.072574
O O9 0.966221 0.500000 0.842256
O O10 0.955642 0.764691 0.741996
O O11 0.020946 0.762298 0.860650
O O12 0.565863 0.500000 0.335364
O O13 0.521121 0.225971 0.373120
O O14 0.587648 0.223858 0.252391
O O15 0.533898 0.500000 0.635962
O O16 0.750000 0.727188 0.867582
O O17 0.818049 0.728361 0.754829
O O18 0.802080 0.000000 0.848899
O O19 0.078091 0.500000 0.844652
O O20 0.250000 0.736930 0.357722
O O21 0.306261 0.000000 0.343256
#
# Coordination Sequence:
#
# PCOD9398501 Si02
#       8
#     8   8   8   8   8   8   8   8
#     4  11  20  28  45  70  89 110 147 194 232 257
#     4  10  17  26  47  74  93 112 145 190 227 251
#     4   8  14  25  43  68  94 118 148 182 214 257
#     4   9  18  32  46  60  87 127 159 178 207 261
#     4   9  17  29  44  63  91 126 153 173 210 267
#     4   9  18  33  50  66  89 121 148 171 212 274
#     4   8  15  28  45  65  90 122 154 179 211 259
#     4   8  16  32  50  66  87 116 146 175 217 275
#
# _framework density 19.218665999999999
#
# number of rings (size 3 to 8) (size 9 to 14) (size 15 to 20)
#    0.000    3.000    0.000    4.125    0.000    3.750 
#    0.000    1.250    0.000    6.750    0.000    3.500 
#    0.000    0.000    0.000    0.000    0.000    0.000 
#
# Total GULP energy -356881.216469 kJ/mol
# GULP energy per Si atom -5576.269007 kJ/mol
# Density = 1.917492 g / cm^3
# Si number density = 19.218666 Si / 1000 Ang^3
#
#
#
# Elastic Constant Matrix: (Units=GPa)
#
#
# Indices 1 2 3 4 5 6 
#
# 1 80.8562 -4.8079 94.5639 0.0000 0.0000 0.0000
# 2 -4.8079 30.7152 -1.7117 0.0000 0.0000 0.0000
# 3 94.5639 -1.7117 161.0204 0.0000 0.0000 0.0000
# 4 0.0000 0.0000 0.0000 19.5733 0.0000 0.0000
# 5 0.0000 0.0000 0.0000 0.0000 32.7918 0.0000
# 6 0.0000 0.0000 0.0000 0.0000 0.0000 16.0815
#
#
#
# Elastic Compliance Matrix: (Units=1/GPa)
#
#
# Indices 1 2 3 4 5 6 
#
# 1 0.040242 0.004985 -0.023580 0.000000 0.000000 0.000000
# 2 0.004985 0.033194 -0.002575 0.000000 0.000000 0.000000
# 3 -0.023580 -0.002575 0.020031 0.000000 0.000000 0.000000
# 4 0.000000 0.000000 0.000000 0.051090 0.000000 0.000000
# 5 0.000000 0.000000 0.000000 0.000000 0.030495 0.000000
# 6 0.000000 0.000000 0.000000 0.000000 0.000000 0.062183
#
#
# Mechanical properties :
#
#
# Convention : Reuss Voigt Hill
#
# Bulk Modulus (GPa) = 19.55903 49.85335 34.70619
# Shear Modulus (GPa) = 16.85671 25.99248 21.42459
#
# Velocity S-wave (km/s) = 2.96480 3.68157 3.34246
# Velocity P-wave (km/s) = 4.68180 6.63840 5.74402
#
# Compressibility (1/GPa) = 0.05112728
#
# Stress axis : x y z
#
# Youngs Moduli (GPa) = 24.84983 30.12589 49.92232
#
# Poissons Ratio (x) = -0.15018 1.17717
# Poissons Ratio (y) = -0.12388 0.12854
# Poissons Ratio (z) = 0.58596 0.07757
#
# Static dielectric constant tensor:
#      x y z
#    x 1.652810 0.000000 0.000000 
#    y 0.000000 1.735280 0.000000 
#    z 0.000000 0.000000 1.692190 
# 
# From -- ./inp_files/26617.got.cif
#   From: 2010.05.17/outbox.cif.g08.bks.cpg/sg51_14_cif.got.tgz:26617.got - 2010.06.03 11:52:47.
