data_PCOD9398020
_publ_section_title
;
Structure prediction by ZEFSAII (Michael W. Deem and Ramdas Pophale) SiO2 
 PCOD9398020
Probable space group: P B A N
;
_chemical_formula_sum "Si O2"
_cell_formula_units_Z 48
_cell_length_a 8.635474
_cell_length_b 19.093342
_cell_length_c 14.053884
_cell_angle_alpha 90.000000
_cell_angle_beta 90.000000
_cell_angle_gamma 90.000000
_cell_volume 2317.205215
_symmetry_space_group_name_H-M "P B A N"
_symmetry_group_IT_number 50
_space_group.IT_coordinate_system_code '2'
_symmetry_cell_setting 'orthorhombic'
loop_
_space_group_symop_operation_xyz
x,y,z
1/2-x,1/2-y,z
x,1/2-y,-z
1/2-x,y,-z
-x,-y,-z
1/2+x,1/2+y,-z
-x,1/2+y,z
1/2+x,-y,z
loop_
_atom_site_type_symbol
_atom_site_label
_atom_site_fract_x
_atom_site_fract_y
_atom_site_fract_z
Si Si1 0.897659 0.101501 0.682964
Si Si2 0.452394 0.585236 0.903830
Si Si3 0.449271 0.652620 0.706138
Si Si4 0.918995 0.428981 0.108990
Si Si5 0.113648 0.460278 0.571469
Si Si6 0.571584 0.775936 0.602384
O O1 0.732070 0.139378 0.688378
O O2 0.968742 0.098919 0.788640
O O3 0.854532 0.023242 0.646760
O O4 0.018981 0.144203 0.618199
O O5 0.495490 0.631898 0.813437
O O6 0.531984 0.509868 0.894475
O O7 0.267155 0.575111 0.894465
O O8 0.481145 0.608054 0.013098
O O9 0.541757 0.603387 0.631070
O O10 0.487817 0.732119 0.684077
O O11 0.250000 0.438246 0.500000
O O12 0.000000 0.500000 0.500000
O O13 0.750000 0.750000 0.606739
O O14 0.512666 0.750000 0.500000
#
# Coordination Sequence:
#
# PCOD9398020 Si02
#       6
#     8   8   8   8   8   8
#     4  11  23  41  61  89 121 163 204 247 308 367
#     4   9  18  34  58  91 120 153 195 246 311 358
#     4  11  23  40  62  88 122 163 202 250 304 370
#     4   9  18  34  59  89 122 152 193 252 303 365
#     4  12  24  36  59  92 122 155 203 258 297 356
#     4  11  27  43  61  84 120 163 206 254 305 367
#
# _framework density 20.714608999999999
#
# number of rings (size 3 to 8) (size 9 to 14) (size 15 to 20)
#    0.000    1.500    3.333    1.500    4.667    2.000 
#    0.000    0.833    0.000    5.000    0.000    0.000 
#    0.000    0.000    0.000    0.000    0.000    0.000 
#
# Total GULP energy -267862.036907 kJ/mol
# GULP energy per Si atom -5580.459102 kJ/mol
# Density = 2.066746 g / cm^3
# Si number density = 20.714609 Si / 1000 Ang^3
#
#
#
# Elastic Constant Matrix: (Units=GPa)
#
#
# Indices 1 2 3 4 5 6 
#
# 1 36.4845 13.7133 29.5683 0.0000 0.0000 0.0000
# 2 13.7133 70.1453 32.2019 0.0000 0.0000 0.0000
# 3 29.5683 32.2019 161.8623 0.0000 0.0000 0.0000
# 4 0.0000 0.0000 0.0000 29.0497 0.0000 0.0000
# 5 0.0000 0.0000 0.0000 0.0000 24.1457 0.0000
# 6 0.0000 0.0000 0.0000 0.0000 0.0000 28.7275
#
#
#
# Elastic Compliance Matrix: (Units=1/GPa)
#
#
# Indices 1 2 3 4 5 6 
#
# 1 0.033199 -0.004079 -0.005253 0.000000 0.000000 0.000000
# 2 -0.004079 0.016190 -0.002476 0.000000 0.000000 0.000000
# 3 -0.005253 -0.002476 0.007630 0.000000 0.000000 0.000000
# 4 0.000000 0.000000 0.000000 0.034424 0.000000 0.000000
# 5 0.000000 0.000000 0.000000 0.000000 0.041415 0.000000
# 6 0.000000 0.000000 0.000000 0.000000 0.000000 0.034810
#
#
# Mechanical properties :
#
#
# Convention : Reuss Voigt Hill
#
# Bulk Modulus (GPa) = 29.93656 46.60657 38.27157
# Shear Modulus (GPa) = 24.70120 29.25180 26.97650
#
# Velocity S-wave (km/s) = 3.45694 3.76191 3.61265
# Velocity P-wave (km/s) = 5.51518 6.43565 5.99311
#
# Compressibility (1/GPa) = 0.03340397
#
# Stress axis : x y z
#
# Youngs Moduli (GPa) = 30.12103 61.76599 131.05640
#
# Poissons Ratio (x) = 0.25193 0.68847
# Poissons Ratio (y) = 0.12286 0.32448
# Poissons Ratio (z) = 0.15823 0.15292
#
# Static dielectric constant tensor:
#      x y z
#    x 1.755560 0.000000 0.000000 
#    y 0.000000 1.765070 0.000000 
#    z 0.000000 0.000000 1.809180 
# 
# From -- ./inp_files/24969.got.cif
#   From: 2010.05.17/outbox.cif.g08.bks.cpg/sg50_13_cif.got.tgz:24969.got - 2010.06.03 11:33:33.
