data_PCOD9398978
_publ_section_title
;
Structure prediction by ZEFSAII (Michael W. Deem and Ramdas Pophale) SiO2 
 PCOD9398978
Probable space group: P M M A
;
_chemical_formula_sum "Si O2"
_cell_formula_units_Z 52
_cell_length_a 8.769331
_cell_length_b 27.360253
_cell_length_c 14.052853
_cell_angle_alpha 90.000000
_cell_angle_beta 90.000000
_cell_angle_gamma 90.000000
_cell_volume 3371.716686
_symmetry_space_group_name_H-M "P M M A"
_symmetry_group_IT_number 51
_symmetry_cell_setting 'orthorhombic'
loop_
_space_group_symop_operation_xyz
x,y,z
1/2-x,-y,z
1/2+x,-y,-z
-x,y,-z
-x,-y,-z
1/2+x,y,-z
1/2-x,y,z
x,-y,z
loop_
_atom_site_type_symbol
_atom_site_label
_atom_site_fract_x
_atom_site_fract_y
_atom_site_fract_z
Si Si1 0.433508 0.649813 0.280969
Si Si2 0.432734 0.747873 0.395188
Si Si3 0.931882 0.702234 0.104063
Si Si4 0.065951 0.444771 0.394964
Si Si5 0.567085 0.199265 0.216615
Si Si6 0.933688 0.892461 0.892708
Si Si7 0.067017 0.000000 0.105896
O O1 0.250000 0.649523 0.271135
O O2 0.472583 0.694017 0.353497
O O3 0.506056 0.663481 0.180310
O O4 0.483609 0.598182 0.324426
O O5 0.500000 0.753967 0.500000
O O6 0.250000 0.751813 0.397555
O O7 0.500070 0.786098 0.319130
O O8 0.750000 0.699652 0.099940
O O9 0.974226 0.755602 0.146443
O O10 0.000000 0.695702 0.000000
O O11 0.250000 0.442981 0.400660
O O12 0.022147 0.500000 0.365842
O O13 0.000000 0.436052 0.500000
O O14 0.750000 0.196458 0.221739
O O15 0.499485 0.150018 0.172979
O O16 0.750000 0.888841 0.897626
O O17 0.976497 0.946822 0.854035
O O18 0.000000 0.887688 0.000000
O O19 0.250000 0.000000 0.100407
O O20 0.000000 0.000000 0.000000
#
# Coordination Sequence:
#
# PCOD9398978 Si02
#       7
#     8   8   8   8   8   8   4
#     4   9  18  31  47  67  92 121 151 183 221 265
#     4  10  19  31  47  67  92 121 151 185 224 267
#     4  10  20  32  47  66  90 119 151 187 225 266
#     4   9  17  29  46  69  95 121 148 181 222 266
#     4  10  20  32  46  67  92 120 153 187 225 269
#     4  10  18  29  45  66  93 124 155 188 225 265
#     4   8  16  28  42  62  89 120 153 186 222 264
#
# _framework density 15.422411
#
# number of rings (size 3 to 8) (size 9 to 14) (size 15 to 20)
#    0.000    2.462    0.000    2.769    0.000    4.923 
#    0.000    0.000    0.000    0.462    0.000    0.538 
#    0.000    0.000    0.000    0.000    0.000    0.000 
#
# Total GULP energy -289900.997927 kJ/mol
# GULP energy per Si atom -5575.019191 kJ/mol
# Density = 1.538731 g / cm^3
# Si number density = 15.422411 Si / 1000 Ang^3
#
#
#
# Elastic Constant Matrix: (Units=GPa)
#
#
# Indices 1 2 3 4 5 6 
#
# 1 34.1816 43.0360 42.0588 0.0000 0.0000 0.0000
# 2 43.0360 147.9386 86.4422 0.0000 0.0000 0.0000
# 3 42.0588 86.4422 133.1621 0.0000 0.0000 0.0000
# 4 0.0000 0.0000 0.0000 25.1668 0.0000 0.0000
# 5 0.0000 0.0000 0.0000 0.0000 27.5680 0.0000
# 6 0.0000 0.0000 0.0000 0.0000 0.0000 19.1233
#
#
#
# Elastic Compliance Matrix: (Units=1/GPa)
#
#
# Indices 1 2 3 4 5 6 
#
# 1 0.054940 -0.009414 -0.011242 0.000000 0.000000 0.000000
# 2 -0.009414 0.012503 -0.005143 0.000000 0.000000 0.000000
# 3 -0.011242 -0.005143 0.014399 0.000000 0.000000 0.000000
# 4 0.000000 0.000000 0.000000 0.039735 0.000000 0.000000
# 5 0.000000 0.000000 0.000000 0.000000 0.036274 0.000000
# 6 0.000000 0.000000 0.000000 0.000000 0.000000 0.052292
#
#
# Mechanical properties :
#
#
# Convention : Reuss Voigt Hill
#
# Bulk Modulus (GPa) = 33.06311 73.15072 53.10691
# Shear Modulus (GPa) = 18.39433 23.95464 21.17449
#
# Velocity S-wave (km/s) = 3.45730 3.94539 3.70938
# Velocity P-wave (km/s) = 6.11736 8.26373 7.27019
#
# Compressibility (1/GPa) = 0.03024519
#
# Stress axis : x y z
#
# Youngs Moduli (GPa) = 18.20159 79.97903 69.44889
#
# Poissons Ratio (x) = 0.75289 0.78073
# Poissons Ratio (y) = 0.17134 0.35719
# Poissons Ratio (z) = 0.20462 0.41135
#
# Static dielectric constant tensor:
#      x y z
#    x 1.508290 0.000000 0.000000 
#    y 0.000000 1.531690 0.000000 
#    z 0.000000 0.000000 1.472840 
# 
# From -- ./inp_files/14635.got.cif
#   From: 2010.05.17/outbox.cif.g08.bks.cpg/sg51_8_cif.got.tgz:14635.got - 2010.06.03 11:52:47.
