data_PCOD9398944
_publ_section_title
;
Structure prediction by ZEFSAII (Michael W. Deem and Ramdas Pophale) SiO2 
 PCOD9398944
Probable space group: P M M A
;
_chemical_formula_sum "Si O2"
_cell_formula_units_Z 56
_cell_length_a 27.353571
_cell_length_b 8.788041
_cell_length_c 15.064686
_cell_angle_alpha 90.000000
_cell_angle_beta 90.000000
_cell_angle_gamma 90.000000
_cell_volume 3621.314051
_symmetry_space_group_name_H-M "P M M A"
_symmetry_group_IT_number 51
_symmetry_cell_setting 'orthorhombic'
loop_
_space_group_symop_operation_xyz
x,y,z
1/2-x,-y,z
1/2+x,-y,-z
-x,y,-z
-x,-y,-z
1/2+x,y,-z
1/2-x,y,z
x,-y,z
loop_
_atom_site_type_symbol
_atom_site_label
_atom_site_fract_x
_atom_site_fract_y
_atom_site_fract_z
Si Si1 0.193544 0.684251 0.884678
Si Si2 0.437534 0.816101 0.185582
Si Si3 0.432356 0.816991 0.575157
Si Si4 0.614171 0.818039 0.985676
Si Si5 0.376727 0.321836 0.731519
Si Si6 0.956584 0.185123 0.618720
Si Si7 0.039240 0.678724 0.879378
O O1 0.250000 0.729015 0.890539
O O2 0.190405 0.500000 0.886139
O O3 0.168172 0.735123 0.792171
O O4 0.160571 0.746067 0.964997
O O5 0.394844 0.773629 0.116736
O O6 0.433993 0.764606 0.287867
O O7 0.488110 0.751628 0.147039
O O8 0.440624 0.000000 0.185484
O O9 0.390603 0.758485 0.640292
O O10 0.486225 0.769563 0.611144
O O11 0.430551 0.765799 0.472455
O O12 0.431793 0.000000 0.576224
O O13 0.617344 0.000000 0.991830
O O14 0.566580 0.761582 0.039998
O O15 0.369018 0.500000 0.713899
O O16 0.423588 0.306740 0.796485
O O17 0.956208 0.000000 0.618167
O O18 0.033713 0.500000 0.899492
#
# Coordination Sequence:
#
# PCOD9398944 Si02
#       7
#     8   8   8   8   8   8   8
#     4   9  19  36  53  67  87 115 144 179 227 279
#     4  10  18  29  43  61  89 122 153 186 220 256
#     4   9  15  26  44  62  83 118 155 181 211 252
#     4  10  20  30  44  66  89 115 147 185 226 264
#     4   9  17  28  43  65  89 112 144 183 223 263
#     4   8  15  26  41  61  86 119 156 183 207 249
#     4  10  19  29  41  60  89 124 156 184 214 257
#
# _framework density 15.464001
#
# number of rings (size 3 to 8) (size 9 to 14) (size 15 to 20)
#    0.000    2.714    1.429    3.000    0.000    5.429 
#    0.000    2.143    0.000    0.000    0.000    1.000 
#    0.000    5.714    0.000    0.000    0.000    0.000 
#
# Total GULP energy -311929.275613 kJ/mol
# GULP energy per Si atom -5570.165636 kJ/mol
# Density = 1.542880 g / cm^3
# Si number density = 15.464001 Si / 1000 Ang^3
#
#
#
# Elastic Constant Matrix: (Units=GPa)
#
#
# Indices 1 2 3 4 5 6 
#
# 1 76.0643 18.6979 66.2594 0.0000 0.0000 0.0000
# 2 18.6979 11.1035 27.7021 0.0000 0.0000 0.0000
# 3 66.2594 27.7021 150.2856 0.0000 0.0000 0.0000
# 4 0.0000 0.0000 0.0000 3.5482 0.0000 0.0000
# 5 0.0000 0.0000 0.0000 0.0000 11.4575 0.0000
# 6 0.0000 0.0000 0.0000 0.0000 0.0000 14.6569
#
#
#
# Elastic Compliance Matrix: (Units=1/GPa)
#
#
# Indices 1 2 3 4 5 6 
#
# 1 0.025100 -0.027139 -0.006064 0.000000 0.000000 0.000000
# 2 -0.027139 0.196090 -0.024180 0.000000 0.000000 0.000000
# 3 -0.006064 -0.024180 0.013785 0.000000 0.000000 0.000000
# 4 0.000000 0.000000 0.000000 0.281830 0.000000 0.000000
# 5 0.000000 0.000000 0.000000 0.000000 0.087279 0.000000
# 6 0.000000 0.000000 0.000000 0.000000 0.000000 0.068227
#
#
# Mechanical properties :
#
#
# Convention : Reuss Voigt Hill
#
# Bulk Modulus (GPa) = 8.31885 51.41914 29.86899
# Shear Modulus (GPa) = 6.04487 14.25212 10.14850
#
# Velocity S-wave (km/s) = 1.97926 3.03913 2.56455
# Velocity P-wave (km/s) = 3.25799 6.75560 5.30342
#
# Compressibility (1/GPa) = 0.12020895
#
# Stress axis : x y z
#
# Youngs Moduli (GPa) = 39.84020 5.09970 72.54488
#
# Poissons Ratio (x) = 0.13840 0.43990
# Poissons Ratio (y) = 1.08123 1.75413
# Poissons Ratio (z) = 0.24159 0.12331
#
# Static dielectric constant tensor:
#      x y z
#    x 1.489520 0.000000 0.000000 
#    y 0.000000 1.523690 0.000000 
#    z 0.000000 0.000000 1.550720 
# 
# From -- ./inp_files/26498.got.cif
#   From: 2010.05.17/outbox.cif.g08.bks.cpg/sg51_14_cif.got.tgz:26498.got - 2010.06.03 11:52:47.
