data_PCOD9398323
_publ_section_title
;
Structure prediction by ZEFSAII (Michael W. Deem and Ramdas Pophale) SiO2 
 PCOD9398323
Probable space group: P B A N
;
_chemical_formula_sum "Si O2"
_cell_formula_units_Z 56
_cell_length_a 21.000000
_cell_length_b 15.000000
_cell_length_c 9.000000
_cell_angle_alpha 90.000000
_cell_angle_beta 90.000000
_cell_angle_gamma 90.000000
_cell_volume 2835.000000
_symmetry_space_group_name_H-M "P B A N"
_symmetry_group_IT_number 50
_space_group.IT_coordinate_system_code '2'
_symmetry_cell_setting 'orthorhombic'
loop_
_space_group_symop_operation_xyz
x,y,z
1/2-x,1/2-y,z
x,1/2-y,-z
1/2-x,y,-z
-x,-y,-z
1/2+x,1/2+y,-z
-x,1/2+y,z
1/2+x,-y,z
loop_
_atom_site_type_symbol
_atom_site_label
_atom_site_fract_x
_atom_site_fract_y
_atom_site_fract_z
Si Si1 0.810555 0.016601 0.069141
Si Si2 0.106267 0.340683 0.588687
Si Si3 0.086514 0.662603 0.040478
Si Si4 0.352560 0.159675 0.924810
Si Si5 0.026935 0.415423 0.092316
Si Si6 0.454267 0.667251 0.614672
Si Si7 0.615979 0.987829 0.645458
O O1 0.823202 0.999196 0.244191
O O2 0.871728 0.075362 0.033767
O O3 0.750000 0.065120 0.000000
O O4 0.813839 0.926016 0.975562
O O5 0.117585 0.250000 0.500000
O O6 0.138112 0.334563 0.749549
O O7 0.130148 0.421320 0.487576
O O8 0.029743 0.351513 0.604363
O O9 0.060546 0.675007 0.208197
O O10 0.125409 0.750000 0.000000
O O11 0.032719 0.650566 0.914077
O O12 0.328644 0.250000 0.000000
O O13 0.420463 0.137091 0.999079
O O14 0.060086 0.445182 0.246375
O O15 0.000000 0.500000 0.000000
O O16 0.441380 0.750000 0.500000
O O17 0.411843 0.579789 0.579703
#
# Coordination Sequence:
#
# PCOD9398323 Si02
#       7
#     8   8   8   8   8   8   8
#     4  10  23  43  62  81 108 156 218 263 294 335
#     4  11  21  32  52  89 125 157 182 227 304 377
#     4  11  22  35  60  88 119 156 197 247 295 362
#     4  11  21  36  60  87 120 156 193 244 301 367
#     4  11  17  34  57  85 123 155 192 235 297 364
#     4  10  21  32  49  85 128 159 183 225 297 375
#     4  10  21  36  57  85 122 155 196 247 295 362
#
# _framework density 19.753086
#
# number of rings (size 3 to 8) (size 9 to 14) (size 15 to 20)
#    0.000    1.429    5.714    2.571    4.000    1.714 
#    0.000    0.714    0.000    0.857    0.000    1.000 
#    0.000    0.000    0.000    0.000    0.000    0.000 
#
# Total GULP energy -311998.942886 kJ/mol
# GULP energy per Si atom -5571.409694 kJ/mol
# Density = 1.970813 g / cm^3
# Si number density = 19.753086 Si / 1000 Ang^3
#
#
#
# Elastic Constant Matrix: (Units=GPa)
#
#
# Indices 1 2 3 4 5 6 
#
# 1 67.1318 17.1540 39.8209 0.0000 0.0000 0.0000
# 2 17.1540 91.4172 41.8822 0.0000 0.0000 0.0000
# 3 39.8209 41.8822 94.6419 0.0000 0.0000 0.0000
# 4 0.0000 0.0000 0.0000 36.0535 0.0000 0.0000
# 5 0.0000 0.0000 0.0000 0.0000 4.1201 0.0000
# 6 0.0000 0.0000 0.0000 0.0000 0.0000 -12.5924
#
#
#
# Elastic Compliance Matrix: (Units=1/GPa)
#
#
# Indices 1 2 3 4 5 6 
#
# 1 0.019851 0.000128 -0.008409 0.000000 0.000000 0.000000
# 2 0.000128 0.013721 -0.006126 0.000000 0.000000 0.000000
# 3 -0.008409 -0.006126 0.016815 0.000000 0.000000 0.000000
# 4 0.000000 0.000000 0.000000 0.027737 0.000000 0.000000
# 5 0.000000 0.000000 0.000000 0.000000 0.242714 0.000000
# 6 0.000000 0.000000 0.000000 0.000000 0.000000 -0.079413
#
#
# Mechanical properties :
#
#
# Convention : Reuss Voigt Hill
#
# Bulk Modulus (GPa) = 46.35339 50.10056 48.22697
# Shear Modulus (GPa) = 18.02244 15.80516 16.91380
#
# Velocity S-wave (km/s) = 3.02385 2.83174 2.92937
# Velocity P-wave (km/s) = 5.97569 6.00917 5.99245
#
# Compressibility (1/GPa) = 0.02157340
#
# Stress axis : x y z
#
# Youngs Moduli (GPa) = 50.37406 72.87863 59.47022
#
# Poissons Ratio (x) = -0.00929 0.50009
# Poissons Ratio (y) = -0.00642 0.36430
# Poissons Ratio (z) = 0.42360 0.44644
#
# Static dielectric constant tensor:
#      x y z
#    x 1.718990 0.000000 0.000000 
#    y 0.000000 1.660660 0.000000 
#    z 0.000000 0.000000 1.616120 
# 
# From -- ./inp_files/15366.got.cif
#   From: 2010.05.17/outbox.ucp.g08.bks.cvg/sg50_8_cif.got.tgz:15366.got - 2010.06.11 16:26:39.
