data_PCOD9398569
_publ_section_title
;
Structure prediction by ZEFSAII (Michael W. Deem and Ramdas Pophale) SiO2 
 PCOD9398569
Probable space group: P M M A
;
_chemical_formula_sum "Si O2"
_cell_formula_units_Z 56
_cell_length_a 22.534491
_cell_length_b 7.464593
_cell_length_c 17.301084
_cell_angle_alpha 90.000000
_cell_angle_beta 90.000000
_cell_angle_gamma 90.000000
_cell_volume 2910.229246
_symmetry_space_group_name_H-M "P M M A"
_symmetry_group_IT_number 51
_symmetry_cell_setting 'orthorhombic'
loop_
_space_group_symop_operation_xyz
x,y,z
1/2-x,-y,z
1/2+x,-y,-z
-x,y,-z
-x,-y,-z
1/2+x,y,-z
1/2-x,y,z
x,-y,z
loop_
_atom_site_type_symbol
_atom_site_label
_atom_site_fract_x
_atom_site_fract_y
_atom_site_fract_z
Si Si1 0.089538 0.782021 0.974342
Si Si2 0.060584 0.705791 0.461783
Si Si3 0.973371 0.781796 0.876253
Si Si4 0.486846 0.783168 0.298241
Si Si5 0.182754 0.219019 0.855595
Si Si6 0.815986 0.212263 0.458157
Si Si7 0.377043 0.218952 0.696311
O O1 0.149134 0.723171 0.932830
O O2 0.035425 0.731101 0.917214
O O3 0.089069 0.000000 0.976047
O O4 0.075754 0.723241 0.061440
O O5 0.060075 0.500000 0.485962
O O6 0.052545 0.722424 0.369921
O O7 0.125633 0.768587 0.488310
O O8 0.000000 0.788529 0.500000
O O9 0.969127 0.721662 0.787881
O O10 0.973055 0.000000 0.873855
O O11 0.554768 0.726123 0.313746
O O12 0.485904 0.000000 0.298005
O O13 0.250000 0.278839 0.851909
O O14 0.147350 0.275040 0.779293
O O15 0.182520 0.000000 0.855092
O O16 0.750000 0.280629 0.481350
O O17 0.836245 0.282117 0.374054
O O18 0.809569 0.000000 0.449508
O O19 0.376891 0.000000 0.695716
#
# Coordination Sequence:
#
# PCOD9398569 Si02
#       7
#     8   8   8   8   8   8   8
#     4   8  12  19  31  53  85 116 148 184 225 277
#     4  11  23  36  50  71  99 131 165 203 247 294
#     4   8  13  21  36  58  84 113 149 192 231 272
#     4  10  17  28  49  71  93 124 161 202 245 286
#     4   9  14  19  30  53  90 128 151 175 225 290
#     4  10  20  34  53  75  98 126 161 203 249 298
#     4   9  15  24  40  66  96 122 152 190 236 289
#
# _framework density 19.242470000000001
#
# number of rings (size 3 to 8) (size 9 to 14) (size 15 to 20)
#    0.000    2.714    2.857    1.714    0.000    2.571 
#    0.000    0.000    0.000    0.857    0.000    6.000 
#    0.000    0.000    0.000    0.286    0.000    0.000 
#
# Total GULP energy -312193.467086 kJ/mol
# GULP energy per Si atom -5574.883341 kJ/mol
# Density = 1.919867 g / cm^3
# Si number density = 19.242470 Si / 1000 Ang^3
#
#
#
# Elastic Constant Matrix: (Units=GPa)
#
#
# Indices 1 2 3 4 5 6 
#
# 1 141.6296 8.0128 76.1672 0.0000 0.0000 0.0000
# 2 8.0128 52.9916 -1.6461 0.0000 0.0000 0.0000
# 3 76.1672 -1.6461 129.4759 0.0000 0.0000 0.0000
# 4 0.0000 0.0000 0.0000 14.3461 0.0000 0.0000
# 5 0.0000 0.0000 0.0000 0.0000 21.8410 0.0000
# 6 0.0000 0.0000 0.0000 0.0000 0.0000 -213.0224
#
#
#
# Elastic Compliance Matrix: (Units=1/GPa)
#
#
# Indices 1 2 3 4 5 6 
#
# 1 0.010493 -0.001779 -0.006195 0.000000 0.000000 0.000000
# 2 -0.001779 0.019180 0.001290 0.000000 0.000000 0.000000
# 3 -0.006195 0.001290 0.011384 0.000000 0.000000 0.000000
# 4 0.000000 0.000000 0.000000 0.069705 0.000000 0.000000
# 5 0.000000 0.000000 0.000000 0.000000 0.045785 0.000000
# 6 0.000000 0.000000 0.000000 0.000000 0.000000 -0.004694
#
#
# Mechanical properties :
#
#
# Convention : Reuss Voigt Hill
#
# Bulk Modulus (GPa) = 36.11493 54.35168 45.23330
# Shear Modulus (GPa) = 28.66116 -19.26284 4.69916
#
# Velocity S-wave (km/s) = 3.86356 -3.16738 1.56441
# Velocity P-wave (km/s) = 6.22189 3.86401 5.17892
#
# Compressibility (1/GPa) = 0.02768938
#
# Stress axis : x y z
#
# Youngs Moduli (GPa) = 95.29973 52.13762 87.83882
#
# Poissons Ratio (x) = 0.09276 0.54420
# Poissons Ratio (y) = 0.16955 -0.11335
# Poissons Ratio (z) = 0.59043 -0.06728
#
# Static dielectric constant tensor:
#      x y z
#    x 1.674650 0.000000 0.000000 
#    y 0.000000 1.743000 0.000000 
#    z 0.000000 0.000000 1.662950 
# 
# From -- ./inp_files/30392.got.cif
#   From: 2010.05.17/outbox.cif.g08.bks.cpg/sg51_16_cif.got.tgz:30392.got - 2010.06.03 11:52:47.
