data_PCOD9398605
_publ_section_title
;
Structure prediction by ZEFSAII (Michael W. Deem and Ramdas Pophale) SiO2 
 PCOD9398605
Probable space group: P M M A
;
_chemical_formula_sum "Si O2"
_cell_formula_units_Z 56
_cell_length_a 21.935423
_cell_length_b 7.496220
_cell_length_c 17.514650
_cell_angle_alpha 90.000000
_cell_angle_beta 90.000000
_cell_angle_gamma 90.000000
_cell_volume 2879.982180
_symmetry_space_group_name_H-M "P M M A"
_symmetry_group_IT_number 51
_symmetry_cell_setting 'orthorhombic'
loop_
_space_group_symop_operation_xyz
x,y,z
1/2-x,-y,z
1/2+x,-y,-z
-x,y,-z
-x,-y,-z
1/2+x,y,-z
1/2-x,y,z
x,-y,z
loop_
_atom_site_type_symbol
_atom_site_label
_atom_site_fract_x
_atom_site_fract_y
_atom_site_fract_z
Si Si1 0.111808 0.294023 0.194723
Si Si2 0.028654 0.781952 0.621128
Si Si3 0.818514 0.216142 0.651365
Si Si4 0.473803 0.796127 0.792061
Si Si5 0.938223 0.780803 0.044719
Si Si6 0.318500 0.790266 0.044742
Si Si7 0.092073 0.783108 0.472688
O O1 0.100359 0.500000 0.178195
O O2 0.139675 0.273202 0.278444
O O3 0.159719 0.226021 0.132376
O O4 0.046320 0.201213 0.191553
O O5 0.034757 0.715993 0.707636
O O6 0.079271 0.726177 0.559246
O O7 0.964845 0.730248 0.581276
O O8 0.027641 0.000000 0.624397
O O9 0.750000 0.279776 0.661819
O O10 0.847801 0.274511 0.571402
O O11 0.818233 0.000000 0.652011
O O12 0.443052 0.718827 0.867684
O O13 0.451883 0.000000 0.786815
O O14 0.938636 0.000000 0.043986
O O15 0.875882 0.719948 0.004205
O O16 0.000000 0.727132 0.000000
O O17 0.250000 0.715723 0.034358
O O18 0.314825 0.000000 0.026698
O O19 0.091538 0.000000 0.474273
#
# Coordination Sequence:
#
# PCOD9398605 Si02
#       7
#     8   8   8   8   8   8   8
#     4  12  23  32  45  69 101 128 154 193 242 286
#     4   8  13  22  43  69  90 114 145 188 226 262
#     4  10  19  31  48  67  91 126 162 191 225 280
#     4  10  17  30  52  72  95 126 161 195 233 282
#     4   9  16  28  50  75  94 117 158 204 236 272
#     4  10  20  35  53  70  92 126 164 197 232 284
#     4   8  13  23  41  68  92 112 149 189 222 260
#
# _framework density 19.444565000000001
#
# number of rings (size 3 to 8) (size 9 to 14) (size 15 to 20)
#    0.000    2.429    2.857    2.571    0.000    2.286 
#    0.000    1.429    0.000    2.571    0.000    6.000 
#    0.000    0.000    0.000    2.571    0.000    2.857 
#
# Total GULP energy -312345.855826 kJ/mol
# GULP energy per Si atom -5577.604568 kJ/mol
# Density = 1.940031 g / cm^3
# Si number density = 19.444565 Si / 1000 Ang^3
#
#
#
# Elastic Constant Matrix: (Units=GPa)
#
#
# Indices 1 2 3 4 5 6 
#
# 1 95.3075 -0.8111 60.3198 0.0000 0.0000 0.0000
# 2 -0.8111 54.5495 0.2230 0.0000 0.0000 0.0000
# 3 60.3198 0.2230 148.5518 0.0000 0.0000 0.0000
# 4 0.0000 0.0000 0.0000 205.3509 0.0000 0.0000
# 5 0.0000 0.0000 0.0000 0.0000 19.0598 0.0000
# 6 0.0000 0.0000 0.0000 0.0000 0.0000 -19.5177
#
#
#
# Elastic Compliance Matrix: (Units=1/GPa)
#
#
# Indices 1 2 3 4 5 6 
#
# 1 0.014124 0.000233 -0.005736 0.000000 0.000000 0.000000
# 2 0.000233 0.018336 -0.000122 0.000000 0.000000 0.000000
# 3 -0.005736 -0.000122 0.009061 0.000000 0.000000 0.000000
# 4 0.000000 0.000000 0.000000 0.004870 0.000000 0.000000
# 5 0.000000 0.000000 0.000000 0.000000 0.052466 0.000000
# 6 0.000000 0.000000 0.000000 0.000000 0.000000 -0.051235
#
#
# Mechanical properties :
#
#
# Convention : Reuss Voigt Hill
#
# Bulk Modulus (GPa) = 33.03359 46.43026 39.73192
# Shear Modulus (GPa) = 72.50425 56.89038 64.69732
#
# Velocity S-wave (km/s) = 6.11299 5.41491 5.77451
# Velocity P-wave (km/s) = 8.17620 7.93883 8.05839
#
# Compressibility (1/GPa) = 0.03027222
#
# Stress axis : x y z
#
# Youngs Moduli (GPa) = 70.79956 54.53765 110.36563
#
# Poissons Ratio (x) = -0.01273 0.63301
# Poissons Ratio (y) = -0.01653 0.01350
# Poissons Ratio (z) = 0.40608 0.00667
#
# Static dielectric constant tensor:
#      x y z
#    x 1.666090 0.000000 0.000000 
#    y 0.000000 1.755020 0.000000 
#    z 0.000000 0.000000 1.686520 
# 
# From -- ./inp_files/30389.got.cif
#   From: 2010.05.17/outbox.cif.g08.bks.cpg/sg51_16_cif.got.tgz:30389.got - 2010.06.03 11:52:47.
