data_PCOD9398745
_publ_section_title
;
Structure prediction by ZEFSAII (Michael W. Deem and Ramdas Pophale) SiO2 
 PCOD9398745
Probable space group: P M M A
;
_chemical_formula_sum "Si O2"
_cell_formula_units_Z 48
_cell_length_a 8.821581
_cell_length_b 24.752831
_cell_length_c 13.818827
_cell_angle_alpha 90.000000
_cell_angle_beta 90.000000
_cell_angle_gamma 90.000000
_cell_volume 3017.466677
_symmetry_space_group_name_H-M "P M M A"
_symmetry_group_IT_number 51
_symmetry_cell_setting 'orthorhombic'
loop_
_space_group_symop_operation_xyz
x,y,z
1/2-x,-y,z
1/2+x,-y,-z
-x,y,-z
-x,-y,-z
1/2+x,y,-z
1/2-x,y,z
x,-y,z
loop_
_atom_site_type_symbol
_atom_site_label
_atom_site_fract_x
_atom_site_fract_y
_atom_site_fract_z
Si Si1 0.069702 0.167149 0.602547
Si Si2 0.068221 0.331000 0.107848
Si Si3 0.431143 0.110192 0.102622
Si Si4 0.432584 0.219033 0.209141
Si Si5 0.431642 0.559183 0.891449
Si Si6 0.567226 0.061239 0.692642
O O1 0.250000 0.168009 0.598629
O O2 0.000000 0.183274 0.500000
O O3 0.009551 0.204444 0.689668
O O4 0.011838 0.106871 0.628998
O O5 0.250000 0.334827 0.100741
O O6 0.028354 0.277673 0.168187
O O7 0.002792 0.386596 0.152169
O O8 0.000000 0.325265 0.000000
O O9 0.250000 0.108520 0.093818
O O10 0.475442 0.171295 0.133935
O O11 0.472770 0.073464 0.194985
O O12 0.500000 0.094872 0.000000
O O13 0.250000 0.215865 0.220972
O O14 0.250000 0.564495 0.896996
O O15 0.466497 0.500000 0.847501
O O16 0.500000 0.557788 0.000000
O O17 0.750000 0.067695 0.684488
O O18 0.527469 0.000000 0.666833
#
# Coordination Sequence:
#
# PCOD9398745 Si02
#       6
#     8   8   8   8   8   8
#     4  11  22  36  55  74  92 115 143 181 229 278
#     4  10  18  27  43  66  94 127 160 196 232 268
#     4   9  17  29  45  65  91 122 152 183 220 261
#     4   9  19  34  48  66  93 121 152 189 228 271
#     4   9  16  25  37  55  84 123 164 201 232 265
#     4   9  19  36  53  69  93 122 151 185 223 265
#
# _framework density 15.907382999999999
#
# number of rings (size 3 to 8) (size 9 to 14) (size 15 to 20)
#    0.000    2.500    0.000    5.000    0.000    6.000 
#    0.000    0.000    0.000    0.000    0.000    0.000 
#    0.000    0.667    0.000    2.167    0.000    3.500 
#
# Total GULP energy -267595.777482 kJ/mol
# GULP energy per Si atom -5574.912031 kJ/mol
# Density = 1.587118 g / cm^3
# Si number density = 15.907383 Si / 1000 Ang^3
#
#
#
# Elastic Constant Matrix: (Units=GPa)
#
#
# Indices 1 2 3 4 5 6 
#
# 1 46.8208 37.2118 22.3365 0.0000 0.0000 0.0000
# 2 37.2118 112.2957 15.0415 0.0000 0.0000 0.0000
# 3 22.3365 15.0415 56.8003 0.0000 0.0000 0.0000
# 4 0.0000 0.0000 0.0000 8.4240 0.0000 0.0000
# 5 0.0000 0.0000 0.0000 0.0000 24.6214 0.0000
# 6 0.0000 0.0000 0.0000 0.0000 0.0000 29.3954
#
#
#
# Elastic Compliance Matrix: (Units=1/GPa)
#
#
# Indices 1 2 3 4 5 6 
#
# 1 0.034490 -0.009966 -0.010924 0.000000 0.000000 0.000000
# 2 -0.009966 0.012112 0.000712 0.000000 0.000000 0.000000
# 3 -0.010924 0.000712 0.021713 0.000000 0.000000 0.000000
# 4 0.000000 0.000000 0.000000 0.118708 0.000000 0.000000
# 5 0.000000 0.000000 0.000000 0.000000 0.040615 0.000000
# 6 0.000000 0.000000 0.000000 0.000000 0.000000 0.034019
#
#
# Mechanical properties :
#
#
# Convention : Reuss Voigt Hill
#
# Bulk Modulus (GPa) = 35.76720 40.56628 38.16674
# Shear Modulus (GPa) = 16.05994 21.90995 18.98495
#
# Velocity S-wave (km/s) = 3.18085 3.71529 3.45841
# Velocity P-wave (km/s) = 6.00199 6.63034 6.32397
#
# Compressibility (1/GPa) = 0.02795858
#
# Stress axis : x y z
#
# Youngs Moduli (GPa) = 28.99387 82.56150 46.05558
#
# Poissons Ratio (x) = 0.82280 0.50311
# Poissons Ratio (y) = 0.28895 -0.03277
# Poissons Ratio (z) = 0.31673 -0.05875
#
# Static dielectric constant tensor:
#      x y z
#    x 1.532510 0.000000 0.000000 
#    y 0.000000 1.565130 0.000000 
#    z 0.000000 0.000000 1.505090 
# 
# From -- ./inp_files/14545.got.cif
#   From: 2010.05.17/outbox.cif.g08.bks.cpg/sg51_8_cif.got.tgz:14545.got - 2010.06.03 11:52:47.
