data_PCOD9398713
_publ_section_title
;
Structure prediction by ZEFSAII (Michael W. Deem and Ramdas Pophale) SiO2 
 PCOD9398713
Probable space group: P M M A
;
_chemical_formula_sum "Si O2"
_cell_formula_units_Z 48
_cell_length_a 8.873312
_cell_length_b 24.798982
_cell_length_c 13.780121
_cell_angle_alpha 90.000000
_cell_angle_beta 90.000000
_cell_angle_gamma 90.000000
_cell_volume 3032.303287
_symmetry_space_group_name_H-M "P M M A"
_symmetry_group_IT_number 51
_symmetry_cell_setting 'orthorhombic'
loop_
_space_group_symop_operation_xyz
x,y,z
1/2-x,-y,z
1/2+x,-y,-z
-x,y,-z
-x,-y,-z
1/2+x,y,-z
1/2-x,y,z
x,-y,z
loop_
_atom_site_type_symbol
_atom_site_label
_atom_site_fract_x
_atom_site_fract_y
_atom_site_fract_z
Si Si1 0.431348 0.561316 0.306013
Si Si2 0.430540 0.940854 0.108509
Si Si3 0.069229 0.168068 0.892129
Si Si4 0.069170 0.282867 0.804113
Si Si5 0.429521 0.386562 0.101168
Si Si6 0.070362 0.334786 0.600917
O O1 0.250000 0.566022 0.316022
O O2 0.475346 0.500000 0.327380
O O3 0.468631 0.576619 0.194265
O O4 0.509271 0.605732 0.372873
O O5 0.250000 0.935253 0.102260
O O6 0.502139 0.886975 0.152765
O O7 0.463885 0.000000 0.152651
O O8 0.500000 0.942320 0.000000
O O9 0.250000 0.163448 0.899332
O O10 0.030900 0.222102 0.833493
O O11 0.000000 0.173802 0.000000
O O12 0.250000 0.289437 0.814588
O O13 0.028904 0.297942 0.693533
O O14 0.990175 0.326984 0.872286
O O15 0.250000 0.385159 0.092286
O O16 0.500000 0.404943 0.000000
O O17 0.250000 0.336191 0.593160
O O18 0.000000 0.316383 0.500000
#
# Coordination Sequence:
#
# PCOD9398713 Si02
#       6
#     8   8   8   8   8   8
#     4   9  19  35  51  68  90 115 146 181 215 257
#     4   9  16  25  37  55  82 117 154 187 216 247
#     4  10  18  27  41  62  88 119 152 183 215 250
#     4   9  19  33  47  65  89 115 146 184 220 260
#     4  10  19  30  46  66  89 119 150 180 216 257
#     4  10  20  35  53  71  90 112 140 176 222 271
#
# _framework density 15.829552
#
# number of rings (size 3 to 8) (size 9 to 14) (size 15 to 20)
#    0.000    2.500    0.000    3.500    0.000    6.000 
#    0.000    0.000    0.000    0.000    0.000    0.000 
#    0.000    0.667    0.000    1.500    0.000    3.000 
#
# Total GULP energy -267591.453781 kJ/mol
# GULP energy per Si atom -5574.821954 kJ/mol
# Density = 1.579352 g / cm^3
# Si number density = 15.829552 Si / 1000 Ang^3
#
#
#
# Elastic Constant Matrix: (Units=GPa)
#
#
# Indices 1 2 3 4 5 6 
#
# 1 36.3245 28.6377 18.3222 0.0000 0.0000 0.0000
# 2 28.6377 108.2669 13.5826 0.0000 0.0000 0.0000
# 3 18.3222 13.5826 54.9294 0.0000 0.0000 0.0000
# 4 0.0000 0.0000 0.0000 8.5654 0.0000 0.0000
# 5 0.0000 0.0000 0.0000 0.0000 23.7376 0.0000
# 6 0.0000 0.0000 0.0000 0.0000 0.0000 22.8051
#
#
#
# Elastic Compliance Matrix: (Units=1/GPa)
#
#
# Indices 1 2 3 4 5 6 
#
# 1 0.040530 -0.009313 -0.011216 0.000000 0.000000 0.000000
# 2 -0.009313 0.011672 0.000220 0.000000 0.000000 0.000000
# 3 -0.011216 0.000220 0.021892 0.000000 0.000000 0.000000
# 4 0.000000 0.000000 0.000000 0.116749 0.000000 0.000000
# 5 0.000000 0.000000 0.000000 0.000000 0.042127 0.000000
# 6 0.000000 0.000000 0.000000 0.000000 0.000000 0.043850
#
#
# Mechanical properties :
#
#
# Convention : Reuss Voigt Hill
#
# Bulk Modulus (GPa) = 29.87257 35.62287 32.74772
# Shear Modulus (GPa) = 15.21623 20.28683 17.75153
#
# Velocity S-wave (km/s) = 3.10377 3.58380 3.35239
# Velocity P-wave (km/s) = 5.63533 6.29902 5.97640
#
# Compressibility (1/GPa) = 0.03347553
#
# Stress axis : x y z
#
# Youngs Moduli (GPa) = 24.67331 85.67298 45.67888
#
# Poissons Ratio (x) = 0.79791 0.51234
# Poissons Ratio (y) = 0.22979 -0.01006
# Poissons Ratio (z) = 0.27674 -0.01888
#
# Static dielectric constant tensor:
#      x y z
#    x 1.529020 0.000000 0.000000 
#    y 0.000000 1.551980 0.000000 
#    z 0.000000 0.000000 1.513720 
# 
# From -- ./inp_files/14538.got.cif
#   From: 2010.05.17/outbox.cif.g08.bks.cpg/sg51_8_cif.got.tgz:14538.got - 2010.06.03 11:52:47.
