data_PCOD9398305
_publ_section_title
;
Structure prediction by ZEFSAII (Michael W. Deem and Ramdas Pophale) SiO2 
 PCOD9398305
Probable space group: P B A N
;
_chemical_formula_sum "Si O2"
_cell_formula_units_Z 64
_cell_length_a 26.569513
_cell_length_b 7.626424
_cell_length_c 17.819262
_cell_angle_alpha 90.000000
_cell_angle_beta 90.000000
_cell_angle_gamma 90.000000
_cell_volume 3610.723681
_symmetry_space_group_name_H-M "P B A N"
_symmetry_group_IT_number 50
_space_group.IT_coordinate_system_code '2'
_symmetry_cell_setting 'orthorhombic'
loop_
_space_group_symop_operation_xyz
x,y,z
1/2-x,1/2-y,z
x,1/2-y,-z
1/2-x,y,-z
-x,-y,-z
1/2+x,1/2+y,-z
-x,1/2+y,z
1/2+x,-y,z
loop_
_atom_site_type_symbol
_atom_site_label
_atom_site_fract_x
_atom_site_fract_y
_atom_site_fract_z
Si Si1 0.307721 0.040949 0.163043
Si Si2 0.056994 0.460474 0.414425
Si Si3 0.443005 0.039518 0.585573
Si Si4 0.750001 0.963852 0.413790
Si Si5 0.151625 0.035215 0.319797
Si Si6 0.848376 0.535219 0.680203
Si Si7 0.807722 0.540948 0.163043
Si Si8 0.192834 0.542092 0.000000
O O1 0.338822 0.975951 0.234491
O O2 0.250000 0.971030 0.165280
O O3 0.303994 0.250000 0.171656
O O4 0.329712 0.008529 0.080248
O O5 0.063609 0.527039 0.499998
O O6 0.061861 0.249996 0.417748
O O7 0.100394 0.525499 0.359072
O O8 0.999999 0.499993 0.390567
O O9 0.399603 0.974494 0.640924
O O10 0.750000 0.750000 0.414468
O O11 0.750000 0.022330 0.500000
O O12 0.699916 0.017175 0.369405
O O13 0.800086 0.017172 0.369407
O O14 0.150625 0.249998 0.319599
O O15 0.161178 0.975949 0.234490
O O16 0.829712 0.508529 0.080247
O O17 0.196275 0.750000 0.000000
O O18 0.250000 0.465934 0.000000
#
# Coordination Sequence:
#
# PCOD9398305 Si02
#       8
#     8   8   8   8   8   8   8   8
#     4   9  15  25  41  61  85 111 139 171 209 253
#     4   9  17  29  44  62  85 114 148 183 215 247
#     4   9  17  29  44  62  85 114 148 183 215 247
#     4   9  14  20  34  59  89 114 136 169 215 257
#     4   9  15  24  39  62  88 112 140 176 215 253
#     4   9  15  24  39  62  88 112 140 176 215 253
#     4   9  15  25  41  61  85 111 139 171 209 253
#     4   9  17  27  39  57  84 115 144 169 200 246
#
# _framework density 17.724978
#
# number of rings (size 3 to 8) (size 9 to 14) (size 15 to 20)
#    0.000    3.000    1.250    1.125    0.000    4.500 
#    0.000    1.250    0.000    0.000    0.000    0.875 
#    0.000    6.000    0.000    0.000    0.000    0.000 
#
# Total GULP energy -356644.160864 kJ/mol
# GULP energy per Si atom -5572.565013 kJ/mol
# Density = 1.768464 g / cm^3
# Si number density = 17.724978 Si / 1000 Ang^3
#
#
#
# Elastic Constant Matrix: (Units=GPa)
#
#
# Indices 1 2 3 4 5 6 
#
# 1 121.9686 2.9973 99.0905 0.0000 0.0000 0.0000
# 2 2.9973 34.1369 4.8476 0.0000 0.0000 0.0000
# 3 99.0905 4.8476 192.4100 0.0000 0.0000 0.0000
# 4 0.0000 0.0000 0.0000 -7.9636 0.0000 0.0000
# 5 0.0000 0.0000 0.0000 0.0000 8.4434 0.0000
# 6 0.0000 0.0000 0.0000 0.0000 0.0000 11.1382
#
#
#
# Elastic Compliance Matrix: (Units=1/GPa)
#
#
# Indices 1 2 3 4 5 6 
#
# 1 0.014098 -0.000208 -0.007255 0.000000 0.000000 0.000000
# 2 -0.000208 0.029402 -0.000634 0.000000 0.000000 0.000000
# 3 -0.007255 -0.000634 0.008950 0.000000 0.000000 0.000000
# 4 0.000000 0.000000 0.000000 -0.125571 0.000000 0.000000
# 5 0.000000 0.000000 0.000000 0.000000 0.118436 0.000000
# 6 0.000000 0.000000 0.000000 0.000000 0.000000 0.089781
#
#
# Mechanical properties :
#
#
# Convention : Reuss Voigt Hill
#
# Bulk Modulus (GPa) = 27.58125 62.48737 45.03431
# Shear Modulus (GPa) = 30.60417 18.42892 24.51655
#
# Velocity S-wave (km/s) = 4.15976 3.22796 3.72313
# Velocity P-wave (km/s) = 6.21819 7.01593 6.62907
#
# Compressibility (1/GPa) = 0.03625651
#
# Stress axis : x y z
#
# Youngs Moduli (GPa) = 70.93000 34.01122 111.73547
#
# Poissons Ratio (x) = 0.00706 0.81069
# Poissons Ratio (y) = 0.01472 0.07082
# Poissons Ratio (z) = 0.51463 0.02156
#
# Static dielectric constant tensor:
#      x y z
#    x 1.575990 0.000000 0.000000 
#    y 0.000000 1.671200 0.000000 
#    z 0.000000 0.000000 1.636280 
# 
# From -- ./inp_files/29973.got.cif
#   From: 2010.05.17/outbox.cif.g08.bks.cpg/sg50_15_cif.got.tgz:29973.got - 2010.06.03 11:33:33.
