data_PCOD9398045
_publ_section_title
;
Structure prediction by ZEFSAII (Michael W. Deem and Ramdas Pophale) SiO2 
 PCOD9398045
Probable space group: P B A N
;
_chemical_formula_sum "Si O2"
_cell_formula_units_Z 40
_cell_length_a 8.861095
_cell_length_b 18.594084
_cell_length_c 11.117501
_cell_angle_alpha 90.000000
_cell_angle_beta 90.000000
_cell_angle_gamma 90.000000
_cell_volume 1831.763321
_symmetry_space_group_name_H-M "P B A N"
_symmetry_group_IT_number 50
_space_group.IT_coordinate_system_code '2'
_symmetry_cell_setting 'orthorhombic'
loop_
_space_group_symop_operation_xyz
x,y,z
1/2-x,1/2-y,z
x,1/2-y,-z
1/2-x,y,-z
-x,-y,-z
1/2+x,1/2+y,-z
-x,1/2+y,z
1/2+x,-y,z
loop_
_atom_site_type_symbol
_atom_site_label
_atom_site_fract_x
_atom_site_fract_y
_atom_site_fract_z
Si Si1 0.568049 0.333028 0.993267
Si Si2 0.592977 0.101470 0.261316
Si Si3 0.078758 0.276059 0.365374
Si Si4 0.612012 0.539142 0.589398
Si Si5 0.434777 0.649999 0.744987
O O1 0.537643 0.380000 0.874266
O O2 0.510604 0.250000 0.000000
O O3 0.750000 0.327889 0.000000
O O4 0.522472 0.369945 0.118631
O O5 0.468614 0.141576 0.344408
O O6 0.625609 0.019808 0.302808
O O7 0.758908 0.136156 0.276911
O O8 0.250000 0.250000 0.340642
O O9 0.044511 0.250000 0.500000
O O10 0.970858 0.233254 0.274672
O O11 0.750000 0.555095 0.500000
O O12 0.500000 0.500000 0.500000
O O13 0.537499 0.607926 0.650411
#
# Coordination Sequence:
#
# PCOD9398045 Si02
#       5
#     8   8   8   8   8
#     4   9  18  39  67  98 129 166 227 283 327 399
#     4  11  23  43  68  95 129 179 226 270 341 406
#     4  11  25  38  62  97 135 169 222 278 336 398
#     4  12  26  43  66  95 137 177 224 276 337 407
#     4  11  23  42  69  94 130 180 219 279 336 402
#
# _framework density 21.836883
#
# number of rings (size 3 to 8) (size 9 to 14) (size 15 to 20)
#    0.000    1.200    4.000    1.800    5.600    1.600 
#    0.000    2.000    0.000    0.000    0.000    0.000 
#    0.000    0.000    0.000    0.000    0.000    0.000 
#
# Total GULP energy -223201.417727 kJ/mol
# GULP energy per Si atom -5580.035443 kJ/mol
# Density = 2.178718 g / cm^3
# Si number density = 21.836883 Si / 1000 Ang^3
#
#
#
# Elastic Constant Matrix: (Units=GPa)
#
#
# Indices 1 2 3 4 5 6 
#
# 1 72.3868 20.1179 40.5968 0.0000 0.0000 0.0000
# 2 20.1179 86.0789 38.6076 0.0000 0.0000 0.0000
# 3 40.5968 38.6076 130.2916 0.0000 0.0000 0.0000
# 4 0.0000 0.0000 0.0000 33.0088 0.0000 0.0000
# 5 0.0000 0.0000 0.0000 0.0000 22.5762 0.0000
# 6 0.0000 0.0000 0.0000 0.0000 0.0000 33.2071
#
#
#
# Elastic Compliance Matrix: (Units=1/GPa)
#
#
# Indices 1 2 3 4 5 6 
#
# 1 0.016989 -0.001841 -0.004748 0.000000 0.000000 0.000000
# 2 -0.001841 0.013597 -0.003455 0.000000 0.000000 0.000000
# 3 -0.004748 -0.003455 0.010178 0.000000 0.000000 0.000000
# 4 0.000000 0.000000 0.000000 0.030295 0.000000 0.000000
# 5 0.000000 0.000000 0.000000 0.000000 0.044294 0.000000
# 6 0.000000 0.000000 0.000000 0.000000 0.000000 0.030114
#
#
# Mechanical properties :
#
#
# Convention : Reuss Voigt Hill
#
# Bulk Modulus (GPa) = 48.36562 54.15574 51.26068
# Shear Modulus (GPa) = 28.99399 30.38742 29.69071
#
# Velocity S-wave (km/s) = 3.64779 3.73441 3.69136
# Velocity P-wave (km/s) = 6.31969 6.59154 6.45705
#
# Compressibility (1/GPa) = 0.02067584
#
# Stress axis : x y z
#
# Youngs Moduli (GPa) = 58.86096 73.54369 98.24716
#
# Poissons Ratio (x) = 0.13540 0.46648
# Poissons Ratio (y) = 0.10837 0.33949
# Poissons Ratio (z) = 0.27947 0.25413
#
# Static dielectric constant tensor:
#      x y z
#    x 1.782150 0.000000 0.000000 
#    y 0.000000 1.795730 0.000000 
#    z 0.000000 0.000000 1.848630 
# 
# From -- ./inp_files/18716.got.cif
#   From: 2010.05.17/outbox.cif.g08.bks.cpg/sg50_10_cif.got.tgz:18716.got - 2010.06.03 11:33:33.
