data_PCOD9398184
_publ_section_title
;
Structure prediction by ZEFSAII (Michael W. Deem and Ramdas Pophale) SiO2 
 PCOD9398184
Probable space group: P B A N
;
_chemical_formula_sum "Si O2"
_cell_formula_units_Z 40
_cell_length_a 8.612559
_cell_length_b 9.916468
_cell_length_c 18.281731
_cell_angle_alpha 90.000000
_cell_angle_beta 90.000000
_cell_angle_gamma 90.000000
_cell_volume 1561.372547
_symmetry_space_group_name_H-M "P B A N"
_symmetry_group_IT_number 50
_space_group.IT_coordinate_system_code '2'
_symmetry_cell_setting 'orthorhombic'
loop_
_space_group_symop_operation_xyz
x,y,z
1/2-x,1/2-y,z
x,1/2-y,-z
1/2-x,y,-z
-x,-y,-z
1/2+x,1/2+y,-z
-x,1/2+y,z
1/2+x,-y,z
loop_
_atom_site_type_symbol
_atom_site_label
_atom_site_fract_x
_atom_site_fract_y
_atom_site_fract_z
Si Si1 0.820813 0.398847 0.572869
Si Si2 0.691210 0.062109 0.871592
Si Si3 0.004338 0.810745 0.078054
Si Si4 0.645485 0.055335 0.283042
Si Si5 0.574961 0.794373 0.339873
O O1 0.750000 0.250000 0.572403
O O2 0.750000 0.464151 0.500000
O O3 0.761137 0.460386 0.648102
O O4 0.000339 0.364452 0.587474
O O5 0.834990 0.101712 0.925240
O O6 0.558523 0.176089 0.879496
O O7 0.767951 0.078871 0.792016
O O8 0.620203 0.913928 0.887038
O O9 0.955913 0.750000 0.000000
O O10 0.528129 0.171501 0.309133
O O11 0.568117 0.909958 0.278907
O O12 0.750000 0.750000 0.352469
#
# Coordination Sequence:
#
# PCOD9398184 Si02
#       5
#     8   8   8   8   8
#     4   9  21  43  70 105 164 214 263 342 411 477
#     4  11  27  48  82 115 165 209 269 341 404 485
#     4  11  27  52  81 120 160 212 267 336 410 498
#     4  11  26  46  73 113 157 209 272 339 405 490
#     4  11  25  45  76 110 158 208 277 336 410 484
#
# _framework density 25.618485
#
# number of rings (size 3 to 8) (size 9 to 14) (size 15 to 20)
#    0.000    1.400    0.000    3.000   14.000    1.600 
#    0.000   14.000    0.000    3.600    0.000    0.000 
#    0.000    0.000    0.000    0.000    0.000    0.000 
#
# Total GULP energy -223721.482551 kJ/mol
# GULP energy per Si atom -5593.037064 kJ/mol
# Density = 2.556018 g / cm^3
# Si number density = 25.618485 Si / 1000 Ang^3
#
#
#
# Elastic Constant Matrix: (Units=GPa)
#
#
# Indices 1 2 3 4 5 6 
#
# 1 158.5582 65.3554 82.5125 0.0000 0.0000 0.0000
# 2 65.3554 145.1063 41.5525 0.0000 0.0000 0.0000
# 3 82.5125 41.5525 158.0415 0.0000 0.0000 0.0000
# 4 0.0000 0.0000 0.0000 26.2430 0.0000 0.0000
# 5 0.0000 0.0000 0.0000 0.0000 16.8858 0.0000
# 6 0.0000 0.0000 0.0000 0.0000 0.0000 42.0578
#
#
#
# Elastic Compliance Matrix: (Units=1/GPa)
#
#
# Indices 1 2 3 4 5 6 
#
# 1 0.009874 -0.003213 -0.004311 0.000000 0.000000 0.000000
# 2 -0.003213 0.008498 -0.000557 0.000000 0.000000 0.000000
# 3 -0.004311 -0.000557 0.008724 0.000000 0.000000 0.000000
# 4 0.000000 0.000000 0.000000 0.038105 0.000000 0.000000
# 5 0.000000 0.000000 0.000000 0.000000 0.059221 0.000000
# 6 0.000000 0.000000 0.000000 0.000000 0.000000 0.023777
#
#
# Mechanical properties :
#
#
# Convention : Reuss Voigt Hill
#
# Bulk Modulus (GPa) = 91.44120 93.39407 92.41763
# Shear Modulus (GPa) = 29.76071 35.18968 32.47520
#
# Velocity S-wave (km/s) = 3.41205 3.71024 3.56427
# Velocity P-wave (km/s) = 7.16197 7.40874 7.28640
#
# Compressibility (1/GPa) = 0.01093599
#
# Stress axis : x y z
#
# Youngs Moduli (GPa) = 101.27208 117.67353 114.62122
#
# Poissons Ratio (x) = 0.37809 0.49408
# Poissons Ratio (y) = 0.32539 0.06383
# Poissons Ratio (z) = 0.43654 0.06552
#
# Static dielectric constant tensor:
#      x y z
#    x 2.143830 0.000000 0.000000 
#    y 0.000000 2.029560 0.000000 
#    z 0.000000 0.000000 2.064290 
# 
# From -- ./inp_files/28483.got.cif
#   From: 2010.05.17/outbox.cif.g08.bks.cpg/sg50_15_cif.got.tgz:28483.got - 2010.06.03 11:33:33.
