data_PCOD9398695
_publ_section_title
;
Structure prediction by ZEFSAII (Michael W. Deem and Ramdas Pophale) SiO2 
 PCOD9398695
Probable space group: P M M A
;
_chemical_formula_sum "Si O2"
_cell_formula_units_Z 64
_cell_length_a 8.844672
_cell_length_b 26.944999
_cell_length_c 18.837562
_cell_angle_alpha 90.000000
_cell_angle_beta 90.000000
_cell_angle_gamma 90.000000
_cell_volume 4489.361714
_symmetry_space_group_name_H-M "P M M A"
_symmetry_group_IT_number 51
_symmetry_cell_setting 'orthorhombic'
loop_
_space_group_symop_operation_xyz
x,y,z
1/2-x,-y,z
1/2+x,-y,-z
-x,y,-z
-x,-y,-z
1/2+x,y,-z
1/2-x,y,z
x,-y,z
loop_
_atom_site_type_symbol
_atom_site_label
_atom_site_fract_x
_atom_site_fract_y
_atom_site_fract_z
Si Si1 0.923786 0.201808 0.792771
Si Si2 0.430659 0.643877 0.833769
Si Si3 0.574767 0.694764 0.704197
Si Si4 0.068391 0.249188 0.578136
Si Si5 0.431209 0.150646 0.665619
Si Si6 0.932709 0.056474 0.422206
Si Si7 0.566796 0.264256 0.921849
Si Si8 0.070594 0.558830 0.076896
O O1 0.750000 0.185994 0.797692
O O2 0.928418 0.253698 0.749004
O O3 0.977757 0.218166 0.870662
O O4 0.012293 0.163116 0.744395
O O5 0.750000 0.646775 0.163967
O O6 0.490398 0.655850 0.754767
O O7 0.501314 0.686207 0.885068
O O8 0.490169 0.591968 0.864062
O O9 0.750000 0.681247 0.693913
O O10 0.494372 0.708332 0.630575
O O11 0.250000 0.251147 0.575637
O O12 0.023256 0.196303 0.613902
O O13 0.000000 0.252896 0.500000
O O14 0.250000 0.150329 0.666850
O O15 0.483957 0.098772 0.632391
O O16 0.750000 0.058634 0.426874
O O17 0.000000 0.066500 0.500000
O O18 0.974677 0.000000 0.402142
O O19 0.750000 0.267274 0.922510
O O20 0.500000 0.259436 0.000000
O O21 0.250000 0.568987 0.075881
O O22 0.048421 0.500000 0.088396
O O23 0.000000 0.571238 0.000000
#
# Coordination Sequence:
#
# PCOD9398695 Si02
#       8
#     8   8   8   8   8   8   8   8
#     4   8  16  28  41  57  78 104 133 167 203 241
#     4  11  20  30  45  63  85 113 143 174 209 248
#     4   9  17  30  44  59  81 108 139 173 208 246
#     4  10  18  27  40  60  84 110 141 173 208 248
#     4   9  17  27  40  57  78 107 140 171 204 244
#     4   9  17  28  40  56  79 106 137 172 206 239
#     4  10  19  30  43  61  84 110 140 170 203 243
#     4  10  20  33  47  63  85 113 145 180 214 246
#
# _framework density 14.255924
#
# number of rings (size 3 to 8) (size 9 to 14) (size 15 to 20)
#    0.000    2.500    0.000    4.125    0.000    5.250 
#    0.000    0.000    0.000    0.000    0.000    0.000 
#    0.000    1.000    0.000    3.000    0.000    4.625 
#
# Total GULP energy -356660.787695 kJ/mol
# GULP energy per Si atom -5572.824808 kJ/mol
# Density = 1.422348 g / cm^3
# Si number density = 14.255924 Si / 1000 Ang^3
#
#
#
# Elastic Constant Matrix: (Units=GPa)
#
#
# Indices 1 2 3 4 5 6 
#
# 1 65.4119 34.9963 42.5027 0.0000 0.0000 0.0000
# 2 34.9963 58.8271 40.3352 0.0000 0.0000 0.0000
# 3 42.5027 40.3352 102.4025 0.0000 0.0000 0.0000
# 4 0.0000 0.0000 0.0000 27.0577 0.0000 0.0000
# 5 0.0000 0.0000 0.0000 0.0000 26.5811 0.0000
# 6 0.0000 0.0000 0.0000 0.0000 0.0000 16.7215
#
#
#
# Elastic Compliance Matrix: (Units=1/GPa)
#
#
# Indices 1 2 3 4 5 6 
#
# 1 0.024994 -0.010626 -0.006188 0.000000 0.000000 0.000000
# 2 -0.010626 0.027806 -0.006542 0.000000 0.000000 0.000000
# 3 -0.006188 -0.006542 0.014911 0.000000 0.000000 0.000000
# 4 0.000000 0.000000 0.000000 0.036958 0.000000 0.000000
# 5 0.000000 0.000000 0.000000 0.000000 0.037621 0.000000
# 6 0.000000 0.000000 0.000000 0.000000 0.000000 0.059803
#
#
# Mechanical properties :
#
#
# Convention : Reuss Voigt Hill
#
# Bulk Modulus (GPa) = 47.62393 51.36777 49.49585
# Shear Modulus (GPa) = 19.54620 21.32588 20.43604
#
# Velocity S-wave (km/s) = 3.70684 3.87192 3.79028
# Velocity P-wave (km/s) = 7.19721 7.48998 7.34506
#
# Compressibility (1/GPa) = 0.02099785
#
# Stress axis : x y z
#
# Youngs Moduli (GPa) = 40.01008 35.96365 67.06539
#
# Poissons Ratio (x) = 0.38214 0.41503
# Poissons Ratio (y) = 0.42513 0.43875
# Poissons Ratio (z) = 0.24760 0.23528
#
# Static dielectric constant tensor:
#      x y z
#    x 1.481110 0.000000 0.000000 
#    y 0.000000 1.465680 0.000000 
#    z 0.000000 0.000000 1.462560 
# 
# From -- ./inp_files/28674.got.cif
#   From: 2010.05.17/outbox.cif.g08.bks.cpg/sg51_15_cif.got.tgz:28674.got - 2010.06.03 11:52:47.
