data_PCOD9398574
_publ_section_title
;
Structure prediction by ZEFSAII (Michael W. Deem and Ramdas Pophale) SiO2 
 PCOD9398574
Probable space group: P M M A
;
_chemical_formula_sum "Si O2"
_cell_formula_units_Z 44
_cell_length_a 8.717692
_cell_length_b 17.566733
_cell_length_c 15.664503
_cell_angle_alpha 90.000000
_cell_angle_beta 90.000000
_cell_angle_gamma 90.000000
_cell_volume 2398.883414
_symmetry_space_group_name_H-M "P M M A"
_symmetry_group_IT_number 51
_symmetry_cell_setting 'orthorhombic'
loop_
_space_group_symop_operation_xyz
x,y,z
1/2-x,-y,z
1/2+x,-y,-z
-x,y,-z
-x,-y,-z
1/2+x,y,-z
1/2-x,y,z
x,-y,z
loop_
_atom_site_type_symbol
_atom_site_label
_atom_site_fract_x
_atom_site_fract_y
_atom_site_fract_z
Si Si1 0.066651 0.287193 0.416215
Si Si2 0.567434 0.586120 0.092798
Si Si3 0.932366 0.116833 0.410659
Si Si4 0.067911 0.701723 0.226655
Si Si5 0.566165 0.000000 0.095993
Si Si6 0.434402 0.118752 0.228753
O O1 0.250000 0.273734 0.424237
O O2 0.038780 0.323854 0.324300
O O3 0.000000 0.327405 0.500000
O O4 0.979824 0.206120 0.412212
O O5 0.750000 0.585747 0.086952
O O6 0.515605 0.500000 0.115753
O O7 0.515745 0.648178 0.160579
O O8 0.500000 0.604030 0.000000
O O9 0.750000 0.107279 0.410083
O O10 0.000000 0.085876 0.500000
O O11 0.002969 0.090177 0.320642
O O12 0.250000 0.697065 0.211687
O O13 0.026998 0.791361 0.220234
O O14 0.505959 0.071735 0.151139
O O15 0.750000 0.000000 0.092841
O O16 0.500000 0.000000 0.000000
O O17 0.250000 0.111312 0.228754
#
# Coordination Sequence:
#
# PCOD9398574 Si02
#       6
#     8   8   8   8   4   8
#     4   9  16  27  45  73 107 142 179 218 262 311
#     4  10  21  36  55  79 107 139 174 216 269 324
#     4  10  17  28  49  78 110 144 179 218 266 319
#     4   9  19  34  55  82 110 141 178 219 264 314
#     4  12  26  44  63  82 105 142 184 224 276 326
#     4  10  21  39  59  82 111 143 182 227 271 319
#
# _framework density 18.341868000000002
#
# number of rings (size 3 to 8) (size 9 to 14) (size 15 to 20)
#    0.000    2.182    0.000    6.273    0.000    6.182 
#    0.000    0.455    0.000    0.545    0.000    0.000 
#    0.000    0.000    0.000    0.000    0.000    0.000 
#
# Total GULP energy -245463.557715 kJ/mol
# GULP energy per Si atom -5578.717221 kJ/mol
# Density = 1.830012 g / cm^3
# Si number density = 18.341868 Si / 1000 Ang^3
#
#
#
# Elastic Constant Matrix: (Units=GPa)
#
#
# Indices 1 2 3 4 5 6 
#
# 1 107.7618 48.8742 89.3714 0.0000 0.0000 0.0000
# 2 48.8742 68.5476 78.8405 0.0000 0.0000 0.0000
# 3 89.3714 78.8405 194.4299 0.0000 0.0000 0.0000
# 4 0.0000 0.0000 0.0000 6.5165 0.0000 0.0000
# 5 0.0000 0.0000 0.0000 0.0000 41.5047 0.0000
# 6 0.0000 0.0000 0.0000 0.0000 0.0000 19.2287
#
#
#
# Elastic Compliance Matrix: (Units=1/GPa)
#
#
# Indices 1 2 3 4 5 6 
#
# 1 0.016047 -0.005543 -0.005129 0.000000 0.000000 0.000000
# 2 -0.005543 0.029253 -0.009314 0.000000 0.000000 0.000000
# 3 -0.005129 -0.009314 0.011278 0.000000 0.000000 0.000000
# 4 0.000000 0.000000 0.000000 0.153456 0.000000 0.000000
# 5 0.000000 0.000000 0.000000 0.000000 0.024094 0.000000
# 6 0.000000 0.000000 0.000000 0.000000 0.000000 0.052006
#
#
# Mechanical properties :
#
#
# Convention : Reuss Voigt Hill
#
# Bulk Modulus (GPa) = 60.21730 89.43462 74.82596
# Shear Modulus (GPa) = 15.07659 23.69352 19.38505
#
# Velocity S-wave (km/s) = 2.87012 3.59802 3.25449
# Velocity P-wave (km/s) = 6.62460 8.13183 7.41660
#
# Compressibility (1/GPa) = 0.01660652
#
# Stress axis : x y z
#
# Youngs Moduli (GPa) = 62.31730 34.18415 88.67191
#
# Poissons Ratio (x) = 0.18948 0.45476
# Poissons Ratio (y) = 0.34541 0.82592
# Poissons Ratio (z) = 0.31960 0.31840
#
# Static dielectric constant tensor:
#      x y z
#    x 1.551400 0.000000 0.000000 
#    y 0.000000 1.638730 0.000000 
#    z 0.000000 0.000000 1.648610 
# 
# From -- ./inp_files/20968.got.cif
#   From: 2010.05.17/outbox.cif.g08.bks.cpg/sg51_11_cif.got.tgz:20968.got - 2010.06.03 11:52:47.
