data_PCOD9398779
_publ_section_title
;
Structure prediction by ZEFSAII (Michael W. Deem and Ramdas Pophale) SiO2 
 PCOD9398779
Probable space group: P M M A
;
_chemical_formula_sum "Si O2"
_cell_formula_units_Z 64
_cell_length_a 20.134815
_cell_length_b 7.364100
_cell_length_c 22.991375
_cell_angle_alpha 90.000000
_cell_angle_beta 90.000000
_cell_angle_gamma 90.000000
_cell_volume 3409.041326
_symmetry_space_group_name_H-M "P M M A"
_symmetry_group_IT_number 51
_symmetry_cell_setting 'orthorhombic'
loop_
_space_group_symop_operation_xyz
x,y,z
1/2-x,-y,z
1/2+x,-y,-z
-x,y,-z
-x,-y,-z
1/2+x,y,-z
1/2-x,y,z
x,-y,z
loop_
_atom_site_type_symbol
_atom_site_label
_atom_site_fract_x
_atom_site_fract_y
_atom_site_fract_z
Si Si1 0.462611 0.207482 0.172704
Si Si2 0.041745 0.222840 0.302229
Si Si3 0.323761 0.778393 0.367713
Si Si4 0.462506 0.777611 0.940970
Si Si5 0.966780 0.781782 0.411964
Si Si6 0.394683 0.218094 0.480146
Si Si7 0.676688 0.217671 0.016273
Si Si8 0.676063 0.714528 0.878975
O O1 0.469526 0.287369 0.236800
O O2 0.501206 0.287111 0.117325
O O3 0.384963 0.205338 0.156034
O O4 0.486345 0.000000 0.177316
O O5 0.114120 0.277687 0.327487
O O6 0.984150 0.281371 0.347204
O O7 0.042662 0.000000 0.302227
O O8 0.250000 0.720939 0.349508
O O9 0.339581 0.719139 0.434270
O O10 0.324565 0.000000 0.367577
O O11 0.386241 0.718909 0.947187
O O12 0.464817 0.000000 0.940822
O O13 0.500000 0.721658 0.000000
O O14 0.908153 0.713483 0.454328
O O15 0.035933 0.750046 0.446251
O O16 0.958716 0.000000 0.408655
O O17 0.386506 0.000000 0.484556
O O18 0.750000 0.287720 0.031535
O O19 0.678293 0.000000 0.021853
O O20 0.665298 0.255896 0.947910
O O21 0.750000 0.784483 0.864991
O O22 0.675589 0.500000 0.868415
#
# Coordination Sequence:
#
# PCOD9398779 Si02
#       8
#     8   8   8   8   8   8   8   8
#     4  10  18  28  42  58  77 103 134 165 199 235
#     4   8  14  21  30  46  66  90 121 155 186 217
#     4   8  12  17  24  38  63  91 119 149 177 210
#     4   9  15  25  41  61  81  96 119 165 208 232
#     4   7   9  15  25  38  56  77 107 142 173 206
#     4   7   9  13  23  36  52  80 110 137 173 210
#     4   9  16  28  46  62  75  97 128 158 194 241
#     4  10  20  31  41  56  80 105 128 158 194 234
#
# _framework density 18.773607999999999
#
# number of rings (size 3 to 8) (size 9 to 14) (size 15 to 20)
#    0.000    3.500    1.250    2.625    0.000    1.250 
#    0.000    2.500    0.000    0.000    0.000    0.875 
#    0.000    7.000    0.000    9.000    0.000   10.875 
#
# Total GULP energy -356337.509745 kJ/mol
# GULP energy per Si atom -5567.773590 kJ/mol
# Density = 1.873088 g / cm^3
# Si number density = 18.773608 Si / 1000 Ang^3
#
#
#
# Elastic Constant Matrix: (Units=GPa)
#
#
# Indices 1 2 3 4 5 6 
#
# 1 53.2193 3.7286 58.3040 0.0000 0.0000 0.0000
# 2 3.7286 66.0561 5.4205 0.0000 0.0000 0.0000
# 3 58.3040 5.4205 157.3557 0.0000 0.0000 0.0000
# 4 0.0000 0.0000 0.0000 -4.8986 0.0000 0.0000
# 5 0.0000 0.0000 0.0000 0.0000 20.8378 0.0000
# 6 0.0000 0.0000 0.0000 0.0000 0.0000 -19.8602
#
#
#
# Elastic Compliance Matrix: (Units=1/GPa)
#
#
# Indices 1 2 3 4 5 6 
#
# 1 0.031674 -0.000827 -0.011708 0.000000 0.000000 0.000000
# 2 -0.000827 0.015203 -0.000217 0.000000 0.000000 0.000000
# 3 -0.011708 -0.000217 0.010700 0.000000 0.000000 0.000000
# 4 0.000000 0.000000 0.000000 -0.204138 0.000000 0.000000
# 5 0.000000 0.000000 0.000000 0.000000 0.047990 0.000000
# 6 0.000000 0.000000 0.000000 0.000000 0.000000 -0.050352
#
#
# Mechanical properties :
#
#
# Convention : Reuss Voigt Hill
#
# Bulk Modulus (GPa) = 31.17796 45.72636 38.45216
# Shear Modulus (GPa) = -44.35474 13.16098 -15.59688
#
# Velocity S-wave (km/s) = -4.86594 2.65058 -2.88547
# Velocity P-wave (km/s) = 3.86348 5.81180 3.07006
#
# Compressibility (1/GPa) = 0.03207394
#
# Stress axis : x y z
#
# Youngs Moduli (GPa) = 31.57143 65.77576 93.45417
#
# Poissons Ratio (x) = 0.05441 1.09412
# Poissons Ratio (y) = 0.02611 0.02030
# Poissons Ratio (z) = 0.36962 0.01429
#
# Static dielectric constant tensor:
#      x y z
#    x 1.652320 0.000000 0.000000 
#    y 0.000000 1.701710 0.000000 
#    z 0.000000 0.000000 1.671500 
# 
# From -- ./inp_files/35947.got.cif
#   From: 2010.05.17/outbox.cif.g08.bks.cpg/sg51_18_cif.got.tgz:35947.got - 2010.06.03 11:52:47.
