data_PCOD9398837
_publ_section_title
;
Structure prediction by ZEFSAII (Michael W. Deem and Ramdas Pophale) SiO2 
 PCOD9398837
Probable space group: P M M A
;
_chemical_formula_sum "Si O2"
_cell_formula_units_Z 64
_cell_length_a 26.680816
_cell_length_b 7.508053
_cell_length_c 17.761364
_cell_angle_alpha 90.000000
_cell_angle_beta 90.000000
_cell_angle_gamma 90.000000
_cell_volume 3557.973853
_symmetry_space_group_name_H-M "P M M A"
_symmetry_group_IT_number 51
_symmetry_cell_setting 'orthorhombic'
loop_
_space_group_symop_operation_xyz
x,y,z
1/2-x,-y,z
1/2+x,-y,-z
-x,y,-z
-x,-y,-z
1/2+x,y,-z
1/2-x,y,z
x,-y,z
loop_
_atom_site_type_symbol
_atom_site_label
_atom_site_fract_x
_atom_site_fract_y
_atom_site_fract_z
Si Si1 0.560936 0.207954 0.500770
Si Si2 0.898371 0.211089 0.820207
Si Si3 0.306554 0.215196 0.081718
Si Si4 0.057906 0.218842 0.334866
Si Si5 0.096551 0.288187 0.823812
Si Si6 0.442047 0.785421 0.662360
Si Si7 0.806041 0.288241 0.093036
Si Si8 0.998725 0.284716 0.913399
O O1 0.500000 0.213550 0.500000
O O2 0.575706 0.280830 0.582525
O O3 0.576081 0.282831 0.419367
O O4 0.575704 0.000000 0.501314
O O5 0.849706 0.283352 0.862993
O O6 0.910787 0.280834 0.736903
O O7 0.947631 0.234191 0.871468
O O8 0.890317 0.000000 0.811401
O O9 0.250000 0.276991 0.099102
O O10 0.306339 0.000000 0.085262
O O11 0.317725 0.263413 0.995243
O O12 0.999698 0.273256 0.324900
O O13 0.057997 0.000000 0.335822
O O14 0.096895 0.500000 0.837684
O O15 0.089963 0.261038 0.735050
O O16 0.148257 0.215464 0.857676
O O17 0.047135 0.218737 0.866989
O O18 0.443766 0.000000 0.656936
O O19 0.750000 0.214920 0.106718
O O20 0.803325 0.500000 0.106925
O O21 0.000266 0.500000 0.914217
O O22 0.000000 0.223759 0.000000
#
# Coordination Sequence:
#
# PCOD9398837 Si02
#       8
#     8   8   8   8   8   8   8   8
#     4   7  11  20  37  59  81 107 139 171 198 230
#     4  10  18  28  44  64  84 109 140 173 205 244
#     4   9  18  31  45  63  86 108 135 177 222 249
#     4   8  13  23  39  61  85 108 140 174 199 235
#     4  10  19  29  42  62  87 110 134 172 217 249
#     4   9  15  25  42  62  84 111 142 170 199 246
#     4   9  18  33  50  63  77 106 149 184 207 243
#     4  10  20  31  41  56  84 117 140 162 203 254
#
# _framework density 17.987766000000001
#
# number of rings (size 3 to 8) (size 9 to 14) (size 15 to 20)
#    0.000    3.000    1.250    2.250    0.000    2.250 
#    0.000    0.000    0.000    4.125    0.000    0.875 
#    0.000    3.000    0.000    0.000    0.000    0.000 
#
# Total GULP energy -356676.996823 kJ/mol
# GULP energy per Si atom -5573.078075 kJ/mol
# Density = 1.794683 g / cm^3
# Si number density = 17.987766 Si / 1000 Ang^3
#
#
#
# Elastic Constant Matrix: (Units=GPa)
#
#
# Indices 1 2 3 4 5 6 
#
# 1 115.3706 2.9927 96.8301 0.0000 0.0000 0.0000
# 2 2.9927 45.0091 -5.9289 0.0000 0.0000 0.0000
# 3 96.8301 -5.9289 172.1845 0.0000 0.0000 0.0000
# 4 0.0000 0.0000 0.0000 20.9254 0.0000 0.0000
# 5 0.0000 0.0000 0.0000 0.0000 16.1613 0.0000
# 6 0.0000 0.0000 0.0000 0.0000 0.0000 9.1675
#
#
#
# Elastic Compliance Matrix: (Units=1/GPa)
#
#
# Indices 1 2 3 4 5 6 
#
# 1 0.016660 -0.002353 -0.009450 0.000000 0.000000 0.000000
# 2 -0.002353 0.022651 0.002103 0.000000 0.000000 0.000000
# 3 -0.009450 0.002103 0.011194 0.000000 0.000000 0.000000
# 4 0.000000 0.000000 0.000000 0.047789 0.000000 0.000000
# 5 0.000000 0.000000 0.000000 0.000000 0.061876 0.000000
# 6 0.000000 0.000000 0.000000 0.000000 0.000000 0.109081
#
#
# Mechanical properties :
#
#
# Convention : Reuss Voigt Hill
#
# Bulk Modulus (GPa) = 32.14766 57.81688 44.98227
# Shear Modulus (GPa) = 16.72132 25.16221 20.94177
#
# Velocity S-wave (km/s) = 3.05223 3.74418 3.41577
# Velocity P-wave (km/s) = 5.50747 7.13470 6.37323
#
# Compressibility (1/GPa) = 0.03110646
#
# Stress axis : x y z
#
# Youngs Moduli (GPa) = 60.02351 44.14787 89.32965
#
# Poissons Ratio (x) = 0.10386 0.84417
# Poissons Ratio (y) = 0.14121 -0.18786
# Poissons Ratio (z) = 0.56723 -0.09284
#
# Static dielectric constant tensor:
#      x y z
#    x 1.601710 0.000000 0.000000 
#    y 0.000000 1.685820 0.000000 
#    z 0.000000 0.000000 1.639370 
# 
# From -- ./inp_files/30874.got.cif
#   From: 2010.05.17/outbox.cif.g08.bks.cpg/sg51_16_cif.got.tgz:30874.got - 2010.06.03 11:52:47.
