data_PCOD9398370
_publ_section_title
;
Structure prediction by ZEFSAII (Michael W. Deem and Ramdas Pophale) SiO2 
 PCOD9398370
Probable space group: P M M A
;
_chemical_formula_sum "Si O2"
_cell_formula_units_Z 52
_cell_length_a 8.730699
_cell_length_b 35.167200
_cell_length_c 9.597638
_cell_angle_alpha 90.000000
_cell_angle_beta 90.000000
_cell_angle_gamma 90.000000
_cell_volume 2946.803469
_symmetry_space_group_name_H-M "P M M A"
_symmetry_group_IT_number 51
_symmetry_cell_setting 'orthorhombic'
loop_
_space_group_symop_operation_xyz
x,y,z
1/2-x,-y,z
1/2+x,-y,-z
-x,y,-z
-x,-y,-z
1/2+x,y,-z
1/2-x,y,z
x,-y,z
loop_
_atom_site_type_symbol
_atom_site_label
_atom_site_fract_x
_atom_site_fract_y
_atom_site_fract_z
Si Si1 0.433411 0.271941 0.156066
Si Si2 0.567344 0.890160 0.156272
Si Si3 0.433499 0.812279 0.156831
Si Si4 0.433286 0.956411 0.344967
Si Si5 0.066661 0.338604 0.656036
Si Si6 0.066640 0.422899 0.657026
Si Si7 0.932658 0.500000 0.658341
O O1 0.250000 0.274750 0.148651
O O2 0.470514 0.229604 0.215112
O O3 0.499855 0.305304 0.249974
O O4 0.500000 0.274627 0.000000
O O5 0.750000 0.889361 0.149357
O O6 0.506730 0.850209 0.220105
O O7 0.508437 0.925610 0.244729
O O8 0.500000 0.893034 0.000000
O O9 0.250000 0.816545 0.152277
O O10 0.500000 0.811123 0.000000
O O11 0.500000 0.951810 0.500000
O O12 0.250000 0.951516 0.347473
O O13 0.466107 0.000000 0.300706
O O14 0.250000 0.335678 0.648489
O O15 0.030365 0.380976 0.715203
O O16 0.000000 0.335918 0.500000
O O17 0.250000 0.427463 0.651247
O O18 0.000000 0.421389 0.500000
O O19 0.993426 0.460620 0.723532
O O20 0.750000 0.500000 0.651803
O O21 0.000000 0.500000 0.500000
#
# Coordination Sequence:
#
# PCOD9398370 Si02
#       7
#     8   8   8   8   8   8   4
#     4  10  20  34  54  77 102 133 170 210 250 298
#     4  11  21  34  55  81 108 137 170 212 257 300
#     4   9  17  31  51  75 102 132 167 208 254 301
#     4  10  21  38  58  79 106 140 175 211 253 303
#     4  10  20  33  50  72 101 134 167 206 254 302
#     4   9  16  26  40  60  88 122 157 196 242 292
#     4  10  16  22  36  58  85 118 155 196 239 288
#
# _framework density 17.646239000000001
#
# number of rings (size 3 to 8) (size 9 to 14) (size 15 to 20)
#    0.000    2.154    0.000    6.231    0.000    4.923 
#    0.000    0.769    0.000    3.692    0.000    0.538 
#    0.000    0.000    0.000    0.000    0.000    0.000 
#
# Total GULP energy -289887.150723 kJ/mol
# GULP energy per Si atom -5574.752899 kJ/mol
# Density = 1.760608 g / cm^3
# Si number density = 17.646239 Si / 1000 Ang^3
#
#
#
# Elastic Constant Matrix: (Units=GPa)
#
#
# Indices 1 2 3 4 5 6 
#
# 1 118.1307 94.4144 29.0334 0.0000 0.0000 0.0000
# 2 94.4144 217.3189 63.6287 0.0000 0.0000 0.0000
# 3 29.0334 63.6287 36.4682 0.0000 0.0000 0.0000
# 4 0.0000 0.0000 0.0000 21.8289 0.0000 0.0000
# 5 0.0000 0.0000 0.0000 0.0000 23.9045 0.0000
# 6 0.0000 0.0000 0.0000 0.0000 0.0000 32.8418
#
#
#
# Elastic Compliance Matrix: (Units=1/GPa)
#
#
# Indices 1 2 3 4 5 6 
#
# 1 0.012986 -0.005346 -0.001012 0.000000 0.000000 0.000000
# 2 -0.005346 0.011608 -0.015997 0.000000 0.000000 0.000000
# 3 -0.001012 -0.015997 0.056138 0.000000 0.000000 0.000000
# 4 0.000000 0.000000 0.000000 0.045811 0.000000 0.000000
# 5 0.000000 0.000000 0.000000 0.000000 0.041833 0.000000
# 6 0.000000 0.000000 0.000000 0.000000 0.000000 0.030449
#
#
# Mechanical properties :
#
#
# Convention : Reuss Voigt Hill
#
# Bulk Modulus (GPa) = 27.76012 82.89676 55.32844
# Shear Modulus (GPa) = 19.56631 28.03779 23.80205
#
# Velocity S-wave (km/s) = 3.33349 3.99040 3.67665
# Velocity P-wave (km/s) = 5.53008 8.26499 7.03178
#
# Compressibility (1/GPa) = 0.03602289
#
# Stress axis : x y z
#
# Youngs Moduli (GPa) = 77.00399 86.14969 17.81332
#
# Poissons Ratio (x) = 0.46053 0.01802
# Poissons Ratio (y) = 0.41164 0.28496
# Poissons Ratio (z) = 0.07792 1.37813
#
# Static dielectric constant tensor:
#      x y z
#    x 1.588170 0.000000 0.000000 
#    y 0.000000 1.668080 0.000000 
#    z 0.000000 0.000000 1.564030 
# 
# From -- ./inp_files/14752.got.cif
#   From: 2010.05.17/outbox.cif.g08.bks.cpg/sg51_8_cif.got.tgz:14752.got - 2010.06.03 11:52:47.
