data_PCOD9398283
_publ_section_title
;
Structure prediction by ZEFSAII (Michael W. Deem and Ramdas Pophale) SiO2 
 PCOD9398283
Probable space group: P B A N
;
_chemical_formula_sum "Si O2"
_cell_formula_units_Z 38
_cell_length_a 17.444290
_cell_length_b 5.350316
_cell_length_c 17.497180
_cell_angle_alpha 90.000000
_cell_angle_beta 90.000000
_cell_angle_gamma 90.000000
_cell_volume 1633.054921
_symmetry_space_group_name_H-M "P B A N"
_symmetry_group_IT_number 50
_space_group.IT_coordinate_system_code '2'
_symmetry_cell_setting 'orthorhombic'
loop_
_space_group_symop_operation_xyz
x,y,z
1/2-x,1/2-y,z
x,1/2-y,-z
1/2-x,y,-z
-x,-y,-z
1/2+x,1/2+y,-z
-x,1/2+y,z
1/2+x,-y,z
loop_
_atom_site_type_symbol
_atom_site_label
_atom_site_fract_x
_atom_site_fract_y
_atom_site_fract_z
Si Si1 0.250000 0.750000 0.745646
Si Si2 0.146528 0.972783 0.120445
Si Si3 0.750000 0.750000 0.000000
Si Si4 0.445878 0.250000 0.500000
Si Si5 0.333281 0.352294 0.641598
Si Si6 0.549470 0.250000 0.000000
Si Si7 0.049070 0.303264 0.762979
O O1 0.197720 0.602609 0.807121
O O2 0.308037 0.599157 0.689872
O O3 0.198535 0.085882 0.055180
O O4 0.085905 0.170566 0.153617
O O5 0.100646 0.755286 0.077255
O O6 0.500000 0.500000 0.500000
O O7 0.388554 0.329081 0.568926
O O8 0.250000 0.250000 0.619681
O O9 0.381958 0.196292 0.702794
O O10 0.500000 0.500000 0.000000
O O11 0.996788 0.547174 0.751814
#
# Coordination Sequence:
#
# PCOD9398283 Si02
#       7
#     4   8   2   4   8   4   8
#     4  12  26  49  83 118 160 212 288 350 418 498
#     4  12  25  47  73 111 156 217 278 355 422 498
#     4  12  26  46  76 110 162 216 294 354 436 508
#     4  12  31  56  87 126 174 220 266 338 423 508
#     4  12  27  52  82 124 160 215 271 334 408 502
#     4  12  27  47  70 105 151 210 270 334 414 493
#     4  12  26  47  77 114 158 208 266 335 408 490
#
# _framework density 23.269273999999999
#
# number of rings (size 3 to 8) (size 9 to 14) (size 15 to 20)
#    0.000    0.000    2.105    7.263    2.947    3.368 
#    0.000    0.000    0.000    0.000    0.000    0.000 
#    0.000    0.000    0.000    0.000    0.000    0.000 
#
# Total GULP energy -212428.177986 kJ/mol
# GULP energy per Si atom -5590.215210 kJ/mol
# Density = 2.321631 g / cm^3
# Si number density = 23.269274 Si / 1000 Ang^3
#
#
#
# Elastic Constant Matrix: (Units=GPa)
#
#
# Indices 1 2 3 4 5 6 
#
# 1 191.7403 98.8042 103.1850 0.0000 0.0000 0.0000
# 2 98.8042 152.4949 74.6240 0.0000 0.0000 0.0000
# 3 103.1850 74.6240 192.0421 0.0000 0.0000 0.0000
# 4 0.0000 0.0000 0.0000 27.1033 0.0000 0.0000
# 5 0.0000 0.0000 0.0000 0.0000 87.1277 0.0000
# 6 0.0000 0.0000 0.0000 0.0000 0.0000 31.9076
#
#
#
# Elastic Compliance Matrix: (Units=1/GPa)
#
#
# Indices 1 2 3 4 5 6 
#
# 1 0.009226 -0.004386 -0.003253 0.000000 0.000000 0.000000
# 2 -0.004386 0.010182 -0.001600 0.000000 0.000000 0.000000
# 3 -0.003253 -0.001600 0.007577 0.000000 0.000000 0.000000
# 4 0.000000 0.000000 0.000000 0.036896 0.000000 0.000000
# 5 0.000000 0.000000 0.000000 0.000000 0.011477 0.000000
# 6 0.000000 0.000000 0.000000 0.000000 0.000000 0.031340
#
#
# Mechanical properties :
#
#
# Convention : Reuss Voigt Hill
#
# Bulk Modulus (GPa) = 117.54606 121.05597 119.30101
# Shear Modulus (GPa) = 39.05874 46.53865 42.79869
#
# Velocity S-wave (km/s) = 4.10146 4.47699 4.29333
# Velocity P-wave (km/s) = 8.54719 8.88040 8.71539
#
# Compressibility (1/GPa) = 0.00850730
#
# Stress axis : x y z
#
# Youngs Moduli (GPa) = 108.38959 98.20962 131.98261
#
# Poissons Ratio (x) = 0.43073 0.42932
# Poissons Ratio (y) = 0.47538 0.21119
# Poissons Ratio (z) = 0.35258 0.15715
#
# Static dielectric constant tensor:
#      x y z
#    x 1.931710 0.000000 0.000000 
#    y 0.000000 1.928530 0.000000 
#    z 0.000000 0.000000 1.884600 
# 
# From -- ./inp_files/29629.got.cif
#   From: 2010.05.17/outbox.cif.g08.bks.cpg/sg50_15_cif.got.tgz:29629.got - 2010.06.03 11:33:33.
