data_PCOD9398025
_publ_section_title
;
Structure prediction by ZEFSAII (Michael W. Deem and Ramdas Pophale) SiO2 
 PCOD9398025
Probable space group: P B A N
;
_chemical_formula_sum "Si O2"
_cell_formula_units_Z 40
_cell_length_a 12.277401
_cell_length_b 8.759923
_cell_length_c 17.139621
_cell_angle_alpha 90.000000
_cell_angle_beta 90.000000
_cell_angle_gamma 90.000000
_cell_volume 1843.350597
_symmetry_space_group_name_H-M "P B A N"
_symmetry_group_IT_number 50
_space_group.IT_coordinate_system_code '2'
_symmetry_cell_setting 'orthorhombic'
loop_
_space_group_symop_operation_xyz
x,y,z
1/2-x,1/2-y,z
x,1/2-y,-z
1/2-x,y,-z
-x,-y,-z
1/2+x,1/2+y,-z
-x,1/2+y,z
1/2+x,-y,z
loop_
_atom_site_type_symbol
_atom_site_label
_atom_site_fract_x
_atom_site_fract_y
_atom_site_fract_z
Si Si1 0.940852 0.866728 0.299728
Si Si2 0.122170 0.073303 0.025368
Si Si3 0.249973 0.569596 0.659921
Si Si4 0.612118 0.560905 0.789114
Si Si5 0.074607 0.890834 0.448023
O O1 0.891663 0.725149 0.253131
O O2 0.017547 0.817488 0.371175
O O3 0.859580 0.978383 0.343758
O O4 0.005045 0.969200 0.237285
O O5 0.123271 0.066707 0.119051
O O6 0.116470 0.250000 0.000000
O O7 0.250000 0.020374 0.000000
O O8 0.000000 0.000000 0.000000
O O9 0.250000 0.750000 0.651553
O O10 0.206990 0.531334 0.746286
O O11 0.169707 0.511788 0.592333
O O12 0.113581 0.750000 0.500000
O O13 0.000000 0.000000 0.500000
#
# Coordination Sequence:
#
# PCOD9398025 Si02
#       5
#     8   8   8   8   8
#     4  11  23  42  68  98 133 186 235 283 363 418
#     4  11  27  48  74 113 151 195 245 306 383 444
#     4  11  24  41  66  99 127 183 234 281 355 418
#     4  11  24  43  70  97 139 180 231 298 342 445
#     4  11  23  41  61  93 137 173 229 292 347 420
#
# _framework density 21.699615000000001
#
# number of rings (size 3 to 8) (size 9 to 14) (size 15 to 20)
#    0.000    1.000    0.000    7.800    8.400    3.200 
#    0.000    1.000    0.000    0.000    0.000    0.000 
#    0.000    0.000    0.000    0.000    0.000    0.000 
#
# Total GULP energy -223093.434189 kJ/mol
# GULP energy per Si atom -5577.335855 kJ/mol
# Density = 2.165023 g / cm^3
# Si number density = 21.699615 Si / 1000 Ang^3
#
#
#
# Elastic Constant Matrix: (Units=GPa)
#
#
# Indices 1 2 3 4 5 6 
#
# 1 117.0673 33.0274 57.2181 0.0000 0.0000 0.0000
# 2 33.0274 77.0719 37.1954 0.0000 0.0000 0.0000
# 3 57.2181 37.1954 197.8285 0.0000 0.0000 0.0000
# 4 0.0000 0.0000 0.0000 -27.6961 0.0000 0.0000
# 5 0.0000 0.0000 0.0000 0.0000 25.2984 0.0000
# 6 0.0000 0.0000 0.0000 0.0000 0.0000 27.7952
#
#
#
# Elastic Compliance Matrix: (Units=1/GPa)
#
#
# Indices 1 2 3 4 5 6 
#
# 1 0.010702 -0.003401 -0.002456 0.000000 0.000000 0.000000
# 2 -0.003401 0.015350 -0.001903 0.000000 0.000000 0.000000
# 3 -0.002456 -0.001903 0.006123 0.000000 0.000000 0.000000
# 4 0.000000 0.000000 0.000000 -0.036106 0.000000 0.000000
# 5 0.000000 0.000000 0.000000 0.000000 0.039528 0.000000
# 6 0.000000 0.000000 0.000000 0.000000 0.000000 0.035977
#
#
# Mechanical properties :
#
#
# Convention : Reuss Voigt Hill
#
# Bulk Modulus (GPa) = 60.03587 71.87219 65.95403
# Shear Modulus (GPa) = 53.96918 22.71461 38.34190
#
# Velocity S-wave (km/s) = 4.99250 3.23890 4.20806
# Velocity P-wave (km/s) = 7.80770 6.86881 7.35326
#
# Compressibility (1/GPa) = 0.01665671
#
# Stress axis : x y z
#
# Youngs Moduli (GPa) = 93.44134 65.14478 163.32078
#
# Poissons Ratio (x) = 0.22155 0.40110
# Poissons Ratio (y) = 0.31778 0.31072
# Poissons Ratio (z) = 0.22948 0.12394
#
# Static dielectric constant tensor:
#      x y z
#    x 1.855470 0.000000 0.000000 
#    y 0.000000 1.777490 0.000000 
#    z 0.000000 0.000000 1.733130 
# 
# From -- ./inp_files/29071.got.cif
#   From: 2010.05.17/outbox.cif.g08.bks.cpg/sg50_15_cif.got.tgz:29071.got - 2010.06.03 11:33:33.
