data_PCOD9398416
_publ_section_title
;
Structure prediction by ZEFSAII (Michael W. Deem and Ramdas Pophale) SiO2 
 PCOD9398416
Probable space group: P M M A
;
_chemical_formula_sum "Si O2"
_cell_formula_units_Z 52
_cell_length_a 21.926536
_cell_length_b 14.379705
_cell_length_c 7.299632
_cell_angle_alpha 90.000000
_cell_angle_beta 90.000000
_cell_angle_gamma 90.000000
_cell_volume 2301.552942
_symmetry_space_group_name_H-M "P M M A"
_symmetry_group_IT_number 51
_symmetry_cell_setting 'orthorhombic'
loop_
_space_group_symop_operation_xyz
x,y,z
1/2-x,-y,z
1/2+x,-y,-z
-x,y,-z
-x,-y,-z
1/2+x,y,-z
1/2-x,y,z
x,-y,z
loop_
_atom_site_type_symbol
_atom_site_label
_atom_site_fract_x
_atom_site_fract_y
_atom_site_fract_z
Si Si1 0.581801 0.250000 0.338000
Si Si2 0.153007 0.391864 0.187144
Si Si3 0.449265 0.750000 0.235508
Si Si4 0.250000 0.750001 0.344644
Si Si5 0.316180 0.392282 0.762734
Si Si6 0.816180 0.892282 0.237266
Si Si7 0.153007 0.891864 0.187143
O O1 0.560926 0.250000 0.546026
O O2 0.521905 0.250000 0.210061
O O3 0.625681 0.337059 0.304347
O O4 0.625681 0.162940 0.304348
O O5 0.148597 0.500000 0.239783
O O6 0.087656 0.340895 0.170524
O O7 0.196236 0.331161 0.317360
O O8 0.181767 0.386542 0.983690
O O9 0.412344 0.840894 0.170524
O O10 0.196236 0.831162 0.317362
O O11 0.250000 0.353529 0.702096
O O12 0.319161 0.500000 0.711434
O O13 0.750000 0.853530 0.297906
O O14 0.819162 0.000000 0.288563
O O15 0.818233 0.886540 0.016310
O O16 0.148597 0.000000 0.239780
#
# Coordination Sequence:
#
# PCOD9398416 Si02
#       7
#     8   8   8   4   8   8   8
#     4  11  23  42  59  80 122 164 202 245 282 353
#     4  10  20  37  62  90 118 148 193 244 293 351
#     4  10  25  40  57  85 118 165 205 235 295 341
#     4  10  16  30  58  88 116 148 178 224 294 346
#     4  10  21  38  62  91 118 150 192 246 304 352
#     4  10  21  38  62  91 118 150 192 246 304 352
#     4  10  20  37  62  90 118 148 193 244 293 351
#
# _framework density 22.593440000000001
#
# number of rings (size 3 to 8) (size 9 to 14) (size 15 to 20)
#    0.000    1.846    1.538    2.769    0.000    4.923 
#   11.077    6.154    0.000    0.000    0.000    0.000 
#    0.000    0.000    0.000    0.000    0.000    0.000 
#
# Total GULP energy -289970.280579 kJ/mol
# GULP energy per Si atom -5576.351550 kJ/mol
# Density = 2.254202 g / cm^3
# Si number density = 22.593440 Si / 1000 Ang^3
#
#
#
# Elastic Constant Matrix: (Units=GPa)
#
#
# Indices 1 2 3 4 5 6 
#
# 1 225.8467 91.9925 14.8201 0.0000 0.0000 0.0000
# 2 91.9925 190.5516 -0.4175 0.0000 0.0000 0.0000
# 3 14.8201 -0.4175 49.1480 0.0000 0.0000 0.0000
# 4 0.0000 0.0000 0.0000 17.2718 0.0000 0.0000
# 5 0.0000 0.0000 0.0000 0.0000 36.0993 0.0000
# 6 0.0000 0.0000 0.0000 0.0000 0.0000 15.0075
#
#
#
# Elastic Compliance Matrix: (Units=1/GPa)
#
#
# Indices 1 2 3 4 5 6 
#
# 1 0.005655 -0.002734 -0.001728 0.000000 0.000000 0.000000
# 2 -0.002734 0.006570 0.000880 0.000000 0.000000 0.000000
# 3 -0.001728 0.000880 0.020875 0.000000 0.000000 0.000000
# 4 0.000000 0.000000 0.000000 0.057898 0.000000 0.000000
# 5 0.000000 0.000000 0.000000 0.000000 0.027701 0.000000
# 6 0.000000 0.000000 0.000000 0.000000 0.000000 0.066633
#
#
# Mechanical properties :
#
#
# Convention : Reuss Voigt Hill
#
# Bulk Modulus (GPa) = 38.55671 75.37071 56.96371
# Shear Modulus (GPa) = 24.85813 37.61913 31.23863
#
# Velocity S-wave (km/s) = 3.32058 4.08493 3.72242
# Velocity P-wave (km/s) = 5.63952 7.46196 6.61381
#
# Compressibility (1/GPa) = 0.02593582
#
# Stress axis : x y z
#
# Youngs Moduli (GPa) = 176.84432 152.21635 47.90339
#
# Poissons Ratio (x) = 0.41611 0.08279
# Poissons Ratio (y) = 0.48344 -0.04216
# Poissons Ratio (z) = 0.30565 -0.13397
#
# Static dielectric constant tensor:
#      x y z
#    x 1.835710 0.000000 0.000000 
#    y 0.000000 1.795730 0.000000 
#    z 0.000000 0.000000 1.951870 
# 
# From -- ./inp_files/10885.got.cif
#   From: 2010.05.17/outbox.cif.g08.bks.cpg/sg51_6_cif.got.tgz:10885.got - 2010.06.03 11:52:47.
