data_PCOD9398468
_publ_section_title
;
Structure prediction by ZEFSAII (Michael W. Deem and Ramdas Pophale) SiO2 
 PCOD9398468
Probable space group: P M M A
;
_chemical_formula_sum "Si O2"
_cell_formula_units_Z 40
_cell_length_a 8.750393
_cell_length_b 21.269885
_cell_length_c 15.427518
_cell_angle_alpha 90.000000
_cell_angle_beta 90.000000
_cell_angle_gamma 90.000000
_cell_volume 2871.367379
_symmetry_space_group_name_H-M "P M M A"
_symmetry_group_IT_number 51
_symmetry_cell_setting 'orthorhombic'
loop_
_space_group_symop_operation_xyz
x,y,z
1/2-x,-y,z
1/2+x,-y,-z
-x,y,-z
-x,-y,-z
1/2+x,y,-z
1/2-x,y,z
x,-y,z
loop_
_atom_site_type_symbol
_atom_site_label
_atom_site_fract_x
_atom_site_fract_y
_atom_site_fract_z
Si Si1 0.931949 0.173480 0.403405
Si Si2 0.433022 0.430883 0.597749
Si Si3 0.567266 0.303447 0.598039
Si Si4 0.568641 0.074401 0.726661
Si Si5 0.574311 0.076402 0.089989
O O1 0.750000 0.179735 0.409608
O O2 0.000000 0.164631 0.500000
O O3 0.003137 0.238123 0.365312
O O4 0.979904 0.115822 0.343055
O O5 0.500000 0.433361 0.500000
O O6 0.250000 0.423402 0.592947
O O7 0.466100 0.500000 0.636843
O O8 0.506641 0.368547 0.638814
O O9 0.500000 0.303510 0.500000
O O10 0.750000 0.303004 0.595286
O O11 0.750000 0.083039 0.716202
O O12 0.518086 0.093333 0.823699
O O13 0.534824 0.000000 0.716375
O O14 0.750000 0.096752 0.096936
O O15 0.573870 0.000000 0.086882
O O16 0.500000 0.098355 0.000000
#
# Coordination Sequence:
#
# PCOD9398468 Si02
#       5
#     8   8   8   8   8
#     4  11  21  33  46  58  76 103 137 173 208 245
#     4   9  15  22  33  50  71  93 119 153 192 231
#     4  10  17  26  39  53  71  95 126 161 197 236
#     4  10  20  33  47  63  82 103 131 168 207 246
#     4   9  16  27  44  65  86 106 127 154 193 240
#
# _framework density 13.930645
#
# number of rings (size 3 to 8) (size 9 to 14) (size 15 to 20)
#    0.000    2.200    0.000    7.800    0.000    5.200 
#    0.000    0.000    0.000    0.000    0.000    0.000 
#    0.000    0.000    0.000    0.000    0.000    1.000 
#
# Total GULP energy -222800.389694 kJ/mol
# GULP energy per Si atom -5570.009742 kJ/mol
# Density = 1.389894 g / cm^3
# Si number density = 13.930645 Si / 1000 Ang^3
#
#
#
# Elastic Constant Matrix: (Units=GPa)
#
#
# Indices 1 2 3 4 5 6 
#
# 1 116.0321 49.4920 26.3577 0.0000 0.0000 0.0000
# 2 49.4920 76.7262 31.5417 0.0000 0.0000 0.0000
# 3 26.3577 31.5417 46.0919 0.0000 0.0000 0.0000
# 4 0.0000 0.0000 0.0000 -0.6607 0.0000 0.0000
# 5 0.0000 0.0000 0.0000 0.0000 18.6942 0.0000
# 6 0.0000 0.0000 0.0000 0.0000 0.0000 15.2407
#
#
#
# Elastic Compliance Matrix: (Units=1/GPa)
#
#
# Indices 1 2 3 4 5 6 
#
# 1 0.012046 -0.006871 -0.002186 0.000000 0.000000 0.000000
# 2 -0.006871 0.022055 -0.011163 0.000000 0.000000 0.000000
# 3 -0.002186 -0.011163 0.030585 0.000000 0.000000 0.000000
# 4 0.000000 0.000000 0.000000 -1.513659 0.000000 0.000000
# 5 0.000000 0.000000 0.000000 0.000000 0.053492 0.000000
# 6 0.000000 0.000000 0.000000 0.000000 0.000000 0.065614
#
#
# Mechanical properties :
#
#
# Convention : Reuss Voigt Hill
#
# Bulk Modulus (GPa) = 41.24676 50.40366 45.82521
# Shear Modulus (GPa) = -3.90215 15.41877 5.75831
#
# Velocity S-wave (km/s) = -1.67547 3.33051 2.03532
# Velocity P-wave (km/s) = 5.09215 7.14493 6.20403
#
# Compressibility (1/GPa) = 0.02424433
#
# Stress axis : x y z
#
# Youngs Moduli (GPa) = 83.01634 45.34144 32.69554
#
# Poissons Ratio (x) = 0.31156 0.07148
# Poissons Ratio (y) = 0.57044 0.36499
# Poissons Ratio (z) = 0.18149 0.50616
#
# Static dielectric constant tensor:
#      x y z
#    x 1.465880 0.000000 0.000000 
#    y 0.000000 1.512890 0.000000 
#    z 0.000000 0.000000 1.427610 
# 
# From -- ./inp_files/21305.got.cif
#   From: 2010.05.17/outbox.cif.g08.bks.cpg/sg51_11_cif.got.tgz:21305.got - 2010.06.03 11:52:47.
