data_PCOD9398617
_publ_section_title
;
Structure prediction by ZEFSAII (Michael W. Deem and Ramdas Pophale) SiO2 
 PCOD9398617
Probable space group: P M M A
;
_chemical_formula_sum "Si O2"
_cell_formula_units_Z 64
_cell_length_a 32.053407
_cell_length_b 7.472624
_cell_length_c 12.325445
_cell_angle_alpha 90.000000
_cell_angle_beta 90.000000
_cell_angle_gamma 90.000000
_cell_volume 2952.228283
_symmetry_space_group_name_H-M "P M M A"
_symmetry_group_IT_number 51
_symmetry_cell_setting 'orthorhombic'
loop_
_space_group_symop_operation_xyz
x,y,z
1/2-x,-y,z
1/2+x,-y,-z
-x,y,-z
-x,-y,-z
1/2+x,y,-z
1/2-x,y,z
x,-y,z
loop_
_atom_site_type_symbol
_atom_site_label
_atom_site_fract_x
_atom_site_fract_y
_atom_site_fract_z
Si Si1 0.579716 0.783462 0.496821
Si Si2 0.296403 0.715970 0.266116
Si Si3 0.795454 0.207394 0.258522
Si Si4 0.044482 0.218321 0.733863
Si Si5 0.048779 0.219047 0.267648
Si Si6 0.624175 0.788380 0.881943
Si Si7 0.624236 0.780202 0.128529
Si Si8 0.322220 0.291803 0.503587
O O1 0.556029 0.724968 0.388459
O O2 0.559104 0.724944 0.609324
O O3 0.627833 0.726405 0.493433
O O4 0.579472 0.000000 0.496354
O O5 0.250000 0.775146 0.233583
O O6 0.296413 0.500000 0.270435
O O7 0.333152 0.766098 0.184523
O O8 0.306541 0.781068 0.388177
O O9 0.750000 0.288207 0.235507
O O10 0.835664 0.282959 0.196935
O O11 0.803730 0.210375 0.387277
O O12 0.793514 0.000000 0.225160
O O13 0.081419 0.275838 0.813505
O O14 0.997819 0.274956 0.763646
O O15 0.044539 0.000000 0.734018
O O16 0.085432 0.282771 0.188438
O O17 0.049534 0.000000 0.267537
O O18 0.616754 0.000000 0.892280
O O19 0.626660 0.719431 0.004330
O O20 0.624337 0.000000 0.131283
O O21 0.310661 0.500000 0.507321
#
# Coordination Sequence:
#
# PCOD9398617 Si02
#       8
#     8   8   8   8   8   8   8   8
#     4  10  17  30  53  78 106 138 175 215 261 316
#     4  10  22  39  56  75 103 139 174 210 262 322
#     4  10  20  35  55  78 105 138 174 212 260 317
#     4   9  16  28  50  78 109 140 170 212 265 312
#     4   9  17  28  48  81 111 135 170 217 261 307
#     4  10  20  34  54  81 108 135 177 224 258 298
#     4   9  18  32  51  78 109 141 175 216 262 304
#     4  11  21  34  55  80 107 136 169 214 267 318
#
# _framework density 21.678539000000001
#
# number of rings (size 3 to 8) (size 9 to 14) (size 15 to 20)
#    0.000    2.250    2.500    1.125    0.000    4.000 
#    0.000    4.375    0.000    2.250    0.000    0.875 
#    0.000    0.000    0.000    0.000    0.000    0.000 
#
# Total GULP energy -357573.944263 kJ/mol
# GULP energy per Si atom -5587.092879 kJ/mol
# Density = 2.162920 g / cm^3
# Si number density = 21.678539 Si / 1000 Ang^3
#
#
#
# Elastic Constant Matrix: (Units=GPa)
#
#
# Indices 1 2 3 4 5 6 
#
# 1 219.5769 -4.4479 104.2624 0.0000 0.0000 0.0000
# 2 -4.4479 60.1656 0.8358 0.0000 0.0000 0.0000
# 3 104.2624 0.8358 173.6782 0.0000 0.0000 0.0000
# 4 0.0000 0.0000 0.0000 -30.3598 0.0000 0.0000
# 5 0.0000 0.0000 0.0000 0.0000 1.7915 0.0000
# 6 0.0000 0.0000 0.0000 0.0000 0.0000 26.6362
#
#
#
# Elastic Compliance Matrix: (Units=1/GPa)
#
#
# Indices 1 2 3 4 5 6 
#
# 1 0.006387 0.000525 -0.003836 0.000000 0.000000 0.000000
# 2 0.000525 0.016665 -0.000396 0.000000 0.000000 0.000000
# 3 -0.003836 -0.000396 0.008063 0.000000 0.000000 0.000000
# 4 0.000000 0.000000 0.000000 -0.032938 0.000000 0.000000
# 5 0.000000 0.000000 0.000000 0.000000 0.558187 0.000000
# 6 0.000000 0.000000 0.000000 0.000000 0.000000 0.037543
#
#
# Mechanical properties :
#
#
# Convention : Reuss Voigt Hill
#
# Bulk Modulus (GPa) = 42.19213 72.74681 57.46947
# Shear Modulus (GPa) = 8.20722 23.13162 15.66942
#
# Velocity S-wave (km/s) = 1.94784 3.27008 2.69143
# Velocity P-wave (km/s) = 4.95617 6.92010 6.01878
#
# Compressibility (1/GPa) = 0.02370110
#
# Stress axis : x y z
#
# Youngs Moduli (GPa) = 156.57905 60.00555 124.02640
#
# Poissons Ratio (x) = -0.03153 0.47583
# Poissons Ratio (y) = -0.08227 0.04907
# Poissons Ratio (z) = 0.60071 0.02374
#
# Static dielectric constant tensor:
#      x y z
#    x 1.762380 0.000000 0.000000 
#    y 0.000000 1.844210 0.000000 
#    z 0.000000 0.000000 1.745160 
# 
# From -- ./inp_files/19546.got.cif
#   From: 2010.05.17/outbox.cif.g08.bks.cpg/sg51_10_cif.got.tgz:19546.got - 2010.06.03 11:52:47.
