data_PCOD9398636
_publ_section_title
;
Structure prediction by ZEFSAII (Michael W. Deem and Ramdas Pophale) SiO2 
 PCOD9398636
Probable space group: P M M A
;
_chemical_formula_sum "Si O2"
_cell_formula_units_Z 64
_cell_length_a 22.134799
_cell_length_b 18.556386
_cell_length_c 9.100251
_cell_angle_alpha 90.000000
_cell_angle_beta 90.000000
_cell_angle_gamma 90.000000
_cell_volume 3737.854152
_symmetry_space_group_name_H-M "P M M A"
_symmetry_group_IT_number 51
_symmetry_cell_setting 'orthorhombic'
loop_
_space_group_symop_operation_xyz
x,y,z
1/2-x,-y,z
1/2+x,-y,-z
-x,y,-z
-x,-y,-z
1/2+x,y,-z
1/2-x,y,z
x,-y,z
loop_
_atom_site_type_symbol
_atom_site_label
_atom_site_fract_x
_atom_site_fract_y
_atom_site_fract_z
Si Si1 0.389868 0.278870 0.695911
Si Si2 0.319032 0.292467 0.990617
Si Si3 0.513541 0.782898 0.675045
Si Si4 0.072302 0.580710 0.514681
Si Si5 0.182737 0.217002 0.439030
Si Si6 0.819303 0.135060 0.858072
Si Si7 0.047993 0.917427 0.133234
Si Si8 0.620114 0.332575 0.733065
O O1 0.452340 0.244900 0.750432
O O2 0.404772 0.354802 0.617808
O O3 0.362891 0.224686 0.573348
O O4 0.343924 0.290533 0.827089
O O5 0.250000 0.317151 0.996644
O O6 0.321100 0.211039 0.055349
O O7 0.361426 0.338644 0.098712
O O8 0.500000 0.784009 0.500000
O O9 0.532528 0.859065 0.741928
O O10 0.565713 0.724950 0.710241
O O11 0.086748 0.500000 0.565196
O O12 0.101122 0.597221 0.355566
O O13 0.000000 0.587228 0.500000
O O14 0.250000 0.210002 0.497902
O O15 0.173757 0.155950 0.315199
O O16 0.175154 0.292010 0.349655
O O17 0.750000 0.105810 0.877507
O O18 0.880342 0.093380 0.904242
O O19 0.039965 0.000000 0.181358
O O20 0.000000 0.905264 0.000000
#
# Coordination Sequence:
#
# PCOD9398636 Si02
#       8
#     8   8   8   8   8   8   8   8
#     4  11  19  31  52  82 112 139 171 224 269 320
#     4  10  20  32  53  80 107 138 182 225 262 308
#     4  12  19  34  55  82 105 138 180 218 274 318
#     4  10  19  35  55  80 108 137 174 219 273 329
#     4   9  16  29  52  75 102 135 175 220 259 303
#     4   9  17  34  54  76 102 141 187 232 267 311
#     4  11  23  36  51  78 116 151 179 219 274 336
#     4  10  17  33  53  78 104 138 170 225 257 318
#
# _framework density 17.122122999999998
#
# number of rings (size 3 to 8) (size 9 to 14) (size 15 to 20)
#    0.000    1.750    6.250    2.250    0.000    0.500 
#    0.000    0.625    0.000   15.750    0.000    0.000 
#    0.000    4.500    0.000    0.000    0.000    0.000 
#
# Total GULP energy -356452.321415 kJ/mol
# GULP energy per Si atom -5569.567522 kJ/mol
# Density = 1.708315 g / cm^3
# Si number density = 17.122123 Si / 1000 Ang^3
#
#
#
# Elastic Constant Matrix: (Units=GPa)
#
#
# Indices 1 2 3 4 5 6 
#
# 1 120.3530 30.5726 34.4615 0.0000 0.0000 0.0000
# 2 30.5726 62.3088 10.2301 0.0000 0.0000 0.0000
# 3 34.4615 10.2301 64.8509 0.0000 0.0000 0.0000
# 4 0.0000 0.0000 0.0000 11.5297 0.0000 0.0000
# 5 0.0000 0.0000 0.0000 0.0000 28.7767 0.0000
# 6 0.0000 0.0000 0.0000 0.0000 0.0000 10.2450
#
#
#
# Elastic Compliance Matrix: (Units=1/GPa)
#
#
# Indices 1 2 3 4 5 6 
#
# 1 0.010913 -0.004520 -0.005086 0.000000 0.000000 0.000000
# 2 -0.004520 0.018348 -0.000493 0.000000 0.000000 0.000000
# 3 -0.005086 -0.000493 0.018201 0.000000 0.000000 0.000000
# 4 0.000000 0.000000 0.000000 0.086732 0.000000 0.000000
# 5 0.000000 0.000000 0.000000 0.000000 0.034750 0.000000
# 6 0.000000 0.000000 0.000000 0.000000 0.000000 0.097608
#
#
# Mechanical properties :
#
#
# Convention : Reuss Voigt Hill
#
# Bulk Modulus (GPa) = 36.67794 44.22679 40.45237
# Shear Modulus (GPa) = 16.90115 21.59353 19.24734
#
# Velocity S-wave (km/s) = 3.14521 3.55512 3.35643
# Velocity P-wave (km/s) = 5.88708 6.53744 6.22076
#
# Compressibility (1/GPa) = 0.02726434
#
# Stress axis : x y z
#
# Youngs Moduli (GPa) = 91.63026 54.50304 54.94337
#
# Poissons Ratio (x) = 0.24634 0.27946
# Poissons Ratio (y) = 0.41414 0.02706
# Poissons Ratio (z) = 0.46607 0.02684
#
# Static dielectric constant tensor:
#      x y z
#    x 1.634320 0.000000 0.000000 
#    y 0.000000 1.556190 0.000000 
#    z 0.000000 0.000000 1.592800 
# 
# From -- ./inp_files/11230.got.cif
#   From: 2010.05.17/outbox.cif.g08.bks.cpg/sg51_6_cif.got.tgz:11230.got - 2010.06.03 11:52:47.
