data_PCOD9398878
_publ_section_title
;
Structure prediction by ZEFSAII (Michael W. Deem and Ramdas Pophale) SiO2 
 PCOD9398878
Probable space group: P M M A
;
_chemical_formula_sum "Si O2"
_cell_formula_units_Z 56
_cell_length_a 18.609318
_cell_length_b 7.536848
_cell_length_c 20.136394
_cell_angle_alpha 90.000000
_cell_angle_beta 90.000000
_cell_angle_gamma 90.000000
_cell_volume 2824.242045
_symmetry_space_group_name_H-M "P M M A"
_symmetry_group_IT_number 51
_symmetry_cell_setting 'orthorhombic'
loop_
_space_group_symop_operation_xyz
x,y,z
1/2-x,-y,z
1/2+x,-y,-z
-x,y,-z
-x,-y,-z
1/2+x,y,-z
1/2-x,y,z
x,-y,z
loop_
_atom_site_type_symbol
_atom_site_label
_atom_site_fract_x
_atom_site_fract_y
_atom_site_fract_z
Si Si1 0.589623 0.209145 0.225195
Si Si2 0.666934 0.787025 0.948116
Si Si3 0.670043 0.285714 0.358299
Si Si4 0.054178 0.704271 0.298277
Si Si5 0.024767 0.282417 0.572698
Si Si6 0.331734 0.288183 0.196749
Si Si7 0.165940 0.216698 0.907026
O O1 0.648062 0.233912 0.283506
O O2 0.516671 0.294012 0.252140
O O3 0.620036 0.278282 0.155599
O O4 0.575226 0.000000 0.218275
O O5 0.750000 0.723979 0.945880
O O6 0.635156 0.739235 0.876761
O O7 0.667996 0.000000 0.950300
O O8 0.638344 0.727441 0.019873
O O9 0.750000 0.222314 0.374881
O O10 0.670553 0.500000 0.360573
O O11 0.605083 0.226394 0.405995
O O12 0.073783 0.500000 0.311984
O O13 0.118443 0.784902 0.255290
O O14 0.028449 0.780542 0.368652
O O15 0.024480 0.500000 0.573891
O O16 0.000000 0.226507 0.500000
O O17 0.250000 0.217367 0.197789
O O18 0.327554 0.500000 0.205060
O O19 0.250000 0.267924 0.900762
O O20 0.165209 0.000000 0.905313
#
# Coordination Sequence:
#
# PCOD9398878 Si02
#       7
#     8   8   8   8   8   8   8
#     4  10  18  28  45  67  90 118 152 187 221 262
#     4   8  14  26  44  63  83 110 144 182 223 262
#     4   9  17  29  45  67  95 124 152 184 224 267
#     4   9  18  32  47  64  90 119 144 178 226 273
#     4   8  14  27  47  67  88 117 149 178 212 258
#     4   9  17  30  47  65  85 111 145 184 224 266
#     4   8  14  25  41  62  87 113 144 184 224 257
#
# _framework density 19.828327999999999
#
# number of rings (size 3 to 8) (size 9 to 14) (size 15 to 20)
#    0.000    3.286    0.000    2.571    0.000    1.429 
#    0.000    2.857    0.000   18.857    0.000    0.000 
#    0.000    4.571    0.000    0.000    0.000    0.000 
#
# Total GULP energy -311961.357198 kJ/mol
# GULP energy per Si atom -5570.738521 kJ/mol
# Density = 1.978320 g / cm^3
# Si number density = 19.828328 Si / 1000 Ang^3
#
#
#
# Elastic Constant Matrix: (Units=GPa)
#
#
# Indices 1 2 3 4 5 6 
#
# 1 70.5825 -2.5534 86.8956 0.0000 0.0000 0.0000
# 2 -2.5534 49.6790 1.6377 0.0000 0.0000 0.0000
# 3 86.8956 1.6377 195.3990 0.0000 0.0000 0.0000
# 4 0.0000 0.0000 0.0000 18.4321 0.0000 0.0000
# 5 0.0000 0.0000 0.0000 0.0000 24.2914 0.0000
# 6 0.0000 0.0000 0.0000 0.0000 0.0000 1.3420
#
#
#
# Elastic Compliance Matrix: (Units=1/GPa)
#
#
# Indices 1 2 3 4 5 6 
#
# 1 0.031523 0.002083 -0.014036 0.000000 0.000000 0.000000
# 2 0.002083 0.020272 -0.001096 0.000000 0.000000 0.000000
# 3 -0.014036 -0.001096 0.011369 0.000000 0.000000 0.000000
# 4 0.000000 0.000000 0.000000 0.054253 0.000000 0.000000
# 5 0.000000 0.000000 0.000000 0.000000 0.041167 0.000000
# 6 0.000000 0.000000 0.000000 0.000000 0.000000 0.745177
#
#
# Mechanical properties :
#
#
# Convention : Reuss Voigt Hill
#
# Bulk Modulus (GPa) = 26.97902 54.18002 40.57952
# Shear Modulus (GPa) = 5.30664 24.12513 14.71588
#
# Velocity S-wave (km/s) = 1.63771 3.49191 2.72723
# Velocity P-wave (km/s) = 4.14873 6.60619 5.51606
#
# Compressibility (1/GPa) = 0.03706584
#
# Stress axis : x y z
#
# Youngs Moduli (GPa) = 31.72246 49.32808 87.95903
#
# Poissons Ratio (x) = -0.10275 1.23461
# Poissons Ratio (y) = -0.06608 0.09642
# Poissons Ratio (z) = 0.44526 0.05407
#
# Static dielectric constant tensor:
#      x y z
#    x 1.693960 0.000000 0.000000 
#    y 0.000000 1.799840 0.000000 
#    z 0.000000 0.000000 1.707160 
# 
# From -- ./inp_files/33683.got.cif
#   From: 2010.05.17/outbox.cif.g08.bks.cpg/sg51_17_cif.got.tgz:33683.got - 2010.06.03 11:52:47.
