data_PCOD9398335
_publ_section_title
;
Structure prediction by ZEFSAII (Michael W. Deem and Ramdas Pophale) SiO2 
 PCOD9398335
Probable space group: P B A N
;
_chemical_formula_sum "Si O2"
_cell_formula_units_Z 48
_cell_length_a 9.000000
_cell_length_b 18.000000
_cell_length_c 15.000000
_cell_angle_alpha 90.000000
_cell_angle_beta 90.000000
_cell_angle_gamma 90.000000
_cell_volume 2430.000000
_symmetry_space_group_name_H-M "P B A N"
_symmetry_group_IT_number 50
_space_group.IT_coordinate_system_code '2'
_symmetry_cell_setting 'orthorhombic'
loop_
_space_group_symop_operation_xyz
x,y,z
1/2-x,1/2-y,z
x,1/2-y,-z
1/2-x,y,-z
-x,-y,-z
1/2+x,1/2+y,-z
-x,1/2+y,z
1/2+x,-y,z
loop_
_atom_site_type_symbol
_atom_site_label
_atom_site_fract_x
_atom_site_fract_y
_atom_site_fract_z
Si Si1 0.677247 0.413042 0.599449
Si Si2 0.575009 0.338681 0.017455
Si Si3 0.084595 0.389008 0.153504
Si Si4 0.587449 0.651610 0.794846
Si Si5 0.592165 0.284011 0.722028
Si Si6 0.546395 0.014967 0.702382
O O1 0.750000 0.413784 0.500000
O O2 0.622242 0.330996 0.631491
O O3 0.809800 0.443273 0.662971
O O4 0.536512 0.465949 0.625716
O O5 0.470223 0.385276 0.948816
O O6 0.554324 0.250000 0.000000
O O7 0.750000 0.355688 0.000000
O O8 0.520568 0.351220 0.118730
O O9 0.243628 0.348677 0.168755
O O10 0.087754 0.465179 0.210654
O O11 0.958067 0.342976 0.204789
O O12 0.532115 0.719666 0.732016
O O13 0.565372 0.577817 0.736956
O O14 0.750000 0.250000 0.746940
#
# Coordination Sequence:
#
# PCOD9398335 Si02
#       6
#     8   8   8   8   8   8
#     4  11  24  45  71  97 130 175 227 278 348 419
#     4  11  24  38  64  96 134 180 229 274 326 403
#     4  11  24  41  65  98 132 180 225 268 332 400
#     4  12  23  41  66  95 140 175 225 277 336 394
#     4  11  22  39  67  96 130 173 220 274 338 397
#     4  11  24  43  69  96 133 177 221 280 343 408
#
# _framework density 19.753086
#
# number of rings (size 3 to 8) (size 9 to 14) (size 15 to 20)
#    0.000    0.833    5.000    2.500    2.333    1.667 
#    0.000    0.000    0.000    0.000    4.333    0.000 
#    0.000    0.000    0.000    0.000    0.000    0.000 
#
# Total GULP energy -267978.528293 kJ/mol
# GULP energy per Si atom -5582.886006 kJ/mol
# Density = 1.970813 g / cm^3
# Si number density = 19.753086 Si / 1000 Ang^3
#
#
#
# Elastic Constant Matrix: (Units=GPa)
#
#
# Indices 1 2 3 4 5 6 
#
# 1 100.8173 23.9855 19.8309 0.0000 0.0000 0.0000
# 2 23.9855 88.0501 46.0845 0.0000 0.0000 0.0000
# 3 19.8309 46.0845 105.7060 0.0000 0.0000 0.0000
# 4 0.0000 0.0000 0.0000 24.5742 0.0000 0.0000
# 5 0.0000 0.0000 0.0000 0.0000 35.1538 0.0000
# 6 0.0000 0.0000 0.0000 0.0000 0.0000 25.2335
#
#
#
# Elastic Compliance Matrix: (Units=1/GPa)
#
#
# Indices 1 2 3 4 5 6 
#
# 1 0.010680 -0.002411 -0.000953 0.000000 0.000000 0.000000
# 2 -0.002411 0.015259 -0.006200 0.000000 0.000000 0.000000
# 3 -0.000953 -0.006200 0.012342 0.000000 0.000000 0.000000
# 4 0.000000 0.000000 0.000000 0.040693 0.000000 0.000000
# 5 0.000000 0.000000 0.000000 0.000000 0.028446 0.000000
# 6 0.000000 0.000000 0.000000 0.000000 0.000000 0.039630
#
#
# Mechanical properties :
#
#
# Convention : Reuss Voigt Hill
#
# Bulk Modulus (GPa) = 52.20876 52.70836 52.45856
# Shear Modulus (GPa) = 28.97514 30.63713 29.80614
#
# Velocity S-wave (km/s) = 3.83412 3.94255 3.88872
# Velocity P-wave (km/s) = 6.78887 6.88959 6.83942
#
# Compressibility (1/GPa) = 0.01915387
#
# Stress axis : x y z
#
# Youngs Moduli (GPa) = 93.63436 65.53527 81.02424
#
# Poissons Ratio (x) = 0.15799 0.07718
# Poissons Ratio (y) = 0.22572 0.50236
# Poissons Ratio (z) = 0.08920 0.40633
#
# Static dielectric constant tensor:
#      x y z
#    x 1.693260 0.000000 0.000000 
#    y 0.000000 1.746330 0.000000 
#    z 0.000000 0.000000 1.689210 
# 
# From -- ./inp_files/24976.got.cif
#   From: 2010.05.17/outbox.ucp.g08.bks.cvg/sg50_13_cif.got.tgz:24976.got - 2010.06.11 16:26:39.
