data_PCOD9398195
_publ_section_title
;
Structure prediction by ZEFSAII (Michael W. Deem and Ramdas Pophale) SiO2 
 PCOD9398195
Probable space group: P B A N
;
_chemical_formula_sum "Si O2"
_cell_formula_units_Z 18
_cell_length_a 7.647361
_cell_length_b 12.500093
_cell_length_c 7.366487
_cell_angle_alpha 90.000000
_cell_angle_beta 90.000000
_cell_angle_gamma 90.000000
_cell_volume 704.182556
_symmetry_space_group_name_H-M "P B A N"
_symmetry_group_IT_number 50
_space_group.IT_coordinate_system_code '2'
_symmetry_cell_setting 'orthorhombic'
loop_
_space_group_symop_operation_xyz
x,y,z
1/2-x,1/2-y,z
x,1/2-y,-z
1/2-x,y,-z
-x,-y,-z
1/2+x,1/2+y,-z
-x,1/2+y,z
1/2+x,-y,z
loop_
_atom_site_type_symbol
_atom_site_label
_atom_site_fract_x
_atom_site_fract_y
_atom_site_fract_z
Si Si1 0.213143 0.899712 0.295083
Si Si2 0.310046 0.136437 0.209065
Si Si3 0.750000 0.250000 0.000000
O O1 0.250000 0.866212 0.500000
O O2 0.017388 0.872719 0.233785
O O3 0.234435 0.026986 0.288654
O O4 0.329794 0.835480 0.146420
O O5 0.250000 0.250000 0.287583
O O6 0.250000 0.135570 0.000000
#
# Coordination Sequence:
#
# PCOD9398195 Si02
#       3
#     8   8   2
#     4  12  27  49  79 117 161 212 275 339 409 486
#     4  11  25  48  82 119 160 210 272 338 412 482
#     4  12  26  48  80 102 168 208 276 326 416 466
#
# _framework density 25.561551000000001
#
# number of rings (size 3 to 8) (size 9 to 14) (size 15 to 20)
#    0.000    0.444    2.222    6.000    6.222    0.889 
#    8.000    0.000    0.000    0.000    0.000    0.000 
#    0.000    0.000    0.000    0.000    0.000    0.000 
#
# Total GULP energy -100743.445669 kJ/mol
# GULP energy per Si atom -5596.858093 kJ/mol
# Density = 2.550337 g / cm^3
# Si number density = 25.561551 Si / 1000 Ang^3
#
#
#
# Elastic Constant Matrix: (Units=GPa)
#
#
# Indices 1 2 3 4 5 6 
#
# 1 164.9623 56.7441 40.8114 0.0000 0.0000 0.0000
# 2 56.7441 295.1997 73.5990 0.0000 0.0000 0.0000
# 3 40.8114 73.5990 261.9178 0.0000 0.0000 0.0000
# 4 0.0000 0.0000 0.0000 264.3786 0.0000 0.0000
# 5 0.0000 0.0000 0.0000 0.0000 21.6187 0.0000
# 6 0.0000 0.0000 0.0000 0.0000 0.0000 63.9725
#
#
#
# Elastic Compliance Matrix: (Units=1/GPa)
#
#
# Indices 1 2 3 4 5 6 
#
# 1 0.006617 -0.001091 -0.000724 0.000000 0.000000 0.000000
# 2 -0.001091 0.003823 -0.000904 0.000000 0.000000 0.000000
# 3 -0.000724 -0.000904 0.004185 0.000000 0.000000 0.000000
# 4 0.000000 0.000000 0.000000 0.003782 0.000000 0.000000
# 5 0.000000 0.000000 0.000000 0.000000 0.046256 0.000000
# 6 0.000000 0.000000 0.000000 0.000000 0.000000 0.015632
#
#
# Mechanical properties :
#
#
# Convention : Reuss Voigt Hill
#
# Bulk Modulus (GPa) = 108.87646 118.26543 113.57095
# Shear Modulus (GPa) = 56.30897 106.72230 81.51564
#
# Velocity S-wave (km/s) = 4.69857 6.46852 5.65324
# Velocity P-wave (km/s) = 8.49245 10.10724 9.33483
#
# Compressibility (1/GPa) = 0.00918472
#
# Stress axis : x y z
#
# Youngs Moduli (GPa) = 151.13585 261.59346 238.95315
#
# Poissons Ratio (x) = 0.28547 0.17308
# Poissons Ratio (y) = 0.16493 0.21605
# Poissons Ratio (z) = 0.10947 0.23652
#
# Static dielectric constant tensor:
#      x y z
#    x 2.195060 0.000000 0.000000 
#    y 0.000000 2.036740 0.000000 
#    z 0.000000 0.000000 2.066560 
# 
# From -- ./inp_files/8150.got.cif
#   From: 2010.05.17/outbox.cif.g08.bks.cpg/sg50_5_cif.got.tgz:8150.got - 2010.06.03 11:33:33.
