data_PCOD9398101
_publ_section_title
;
Structure prediction by ZEFSAII (Michael W. Deem and Ramdas Pophale) SiO2 
 PCOD9398101
Probable space group: P B A N
;
_chemical_formula_sum "Si O2"
_cell_formula_units_Z 40
_cell_length_a 17.109395
_cell_length_b 21.783429
_cell_length_c 5.052822
_cell_angle_alpha 90.000000
_cell_angle_beta 90.000000
_cell_angle_gamma 90.000000
_cell_volume 1883.193284
_symmetry_space_group_name_H-M "P B A N"
_symmetry_group_IT_number 50
_space_group.IT_coordinate_system_code '2'
_symmetry_cell_setting 'orthorhombic'
loop_
_space_group_symop_operation_xyz
x,y,z
1/2-x,1/2-y,z
x,1/2-y,-z
1/2-x,y,-z
-x,-y,-z
1/2+x,1/2+y,-z
-x,1/2+y,z
1/2+x,-y,z
loop_
_atom_site_type_symbol
_atom_site_label
_atom_site_fract_x
_atom_site_fract_y
_atom_site_fract_z
Si Si1 0.162388 0.677313 0.018630
Si Si2 0.941544 0.501574 0.249055
Si Si3 0.338519 0.380677 0.089488
Si Si4 0.410391 0.321505 0.562027
Si Si5 0.079553 0.874139 0.462278
O O1 0.122923 0.646148 0.272766
O O2 0.171682 0.750000 0.000000
O O3 0.250000 0.650822 0.000000
O O4 0.105782 0.669129 0.772000
O O5 0.882625 0.556393 0.174801
O O6 0.897178 0.439313 0.330776
O O7 0.000000 0.500000 0.500000
O O8 0.000000 0.500000 0.000000
O O9 0.343905 0.339648 0.352209
O O10 0.250000 0.392323 0.000000
O O11 0.382971 0.343337 0.853708
O O12 0.428594 0.250000 0.500000
O O13 0.487415 0.362283 0.497561
#
# Coordination Sequence:
#
# PCOD9398101 Si02
#       5
#     8   8   8   8   8
#     4  11  24  42  64 100 146 183 224 289 355 413
#     4  12  23  46  71  96 135 180 228 290 350 407
#     4  12  26  46  70 103 141 183 236 294 357 421
#     4  12  25  43  71 105 140 187 236 287 353 430
#     4  12  23  42  72 100 134 182 243 286 347 431
#
# _framework density 21.240514999999998
#
# number of rings (size 3 to 8) (size 9 to 14) (size 15 to 20)
#    0.000    0.200    4.000    6.000    0.000    4.800 
#    0.000    4.000    0.000    0.000    0.000    0.000 
#    0.000    0.000    0.000    0.000    0.000    0.000 
#
# Total GULP energy -222993.372523 kJ/mol
# GULP energy per Si atom -5574.834313 kJ/mol
# Density = 2.119217 g / cm^3
# Si number density = 21.240515 Si / 1000 Ang^3
#
#
#
# Elastic Constant Matrix: (Units=GPa)
#
#
# Indices 1 2 3 4 5 6 
#
# 1 107.9629 17.2230 36.4469 0.0000 0.0000 0.0000
# 2 17.2230 133.8341 35.6332 0.0000 0.0000 0.0000
# 3 36.4469 35.6332 168.0106 0.0000 0.0000 0.0000
# 4 0.0000 0.0000 0.0000 46.2708 0.0000 0.0000
# 5 0.0000 0.0000 0.0000 0.0000 21.4817 0.0000
# 6 0.0000 0.0000 0.0000 0.0000 0.0000 24.0994
#
#
#
# Elastic Compliance Matrix: (Units=1/GPa)
#
#
# Indices 1 2 3 4 5 6 
#
# 1 0.010066 -0.000757 -0.002023 0.000000 0.000000 0.000000
# 2 -0.000757 0.007976 -0.001527 0.000000 0.000000 0.000000
# 3 -0.002023 -0.001527 0.006715 0.000000 0.000000 0.000000
# 4 0.000000 0.000000 0.000000 0.021612 0.000000 0.000000
# 5 0.000000 0.000000 0.000000 0.000000 0.046551 0.000000
# 6 0.000000 0.000000 0.000000 0.000000 0.000000 0.041495
#
#
# Mechanical properties :
#
#
# Convention : Reuss Voigt Hill
#
# Bulk Modulus (GPa) = 61.94918 65.37933 63.66426
# Shear Modulus (GPa) = 33.69035 39.73735 36.71385
#
# Velocity S-wave (km/s) = 3.98695 4.33000 4.16201
# Velocity P-wave (km/s) = 7.10094 7.47301 7.28935
#
# Compressibility (1/GPa) = 0.01614226
#
# Stress axis : x y z
#
# Youngs Moduli (GPa) = 99.34273 125.37600 148.92349
#
# Poissons Ratio (x) = 0.09488 0.30130
# Poissons Ratio (y) = 0.07518 0.22747
# Poissons Ratio (z) = 0.20099 0.19151
#
# Static dielectric constant tensor:
#      x y z
#    x 1.792720 0.000000 0.000000 
#    y 0.000000 2.333970 0.000000 
#    z 0.000000 0.000000 1.740110 
# 
# From -- ./inp_files/3363.got.cif
#   From: 2010.05.17/outbox.cif.g08.bks.cpg/sg50_2_cif.got.tgz:3363.got - 2010.06.03 11:33:33.
