data_PCOD9398389
_publ_section_title
;
Structure prediction by ZEFSAII (Michael W. Deem and Ramdas Pophale) SiO2 
 PCOD9398389
Probable space group: P M M A
;
_chemical_formula_sum "Si O2"
_cell_formula_units_Z 32
_cell_length_a 8.578360
_cell_length_b 22.004865
_cell_length_c 9.156770
_cell_angle_alpha 90.000000
_cell_angle_beta 90.000000
_cell_angle_gamma 90.000000
_cell_volume 1728.483675
_symmetry_space_group_name_H-M "P M M A"
_symmetry_group_IT_number 51
_symmetry_cell_setting 'orthorhombic'
loop_
_space_group_symop_operation_xyz
x,y,z
1/2-x,-y,z
1/2+x,-y,-z
-x,y,-z
-x,-y,-z
1/2+x,y,-z
1/2-x,y,z
x,-y,z
loop_
_atom_site_type_symbol
_atom_site_label
_atom_site_fract_x
_atom_site_fract_y
_atom_site_fract_z
Si Si1 0.435744 0.748273 0.335353
Si Si2 0.562514 0.500000 0.165607
Si Si3 0.436056 0.000000 0.332772
Si Si4 0.937960 0.367576 0.165657
Si Si5 0.063955 0.125552 0.666957
O O1 0.500000 0.743355 0.500000
O O2 0.250000 0.753018 0.338918
O O3 0.489828 0.688677 0.250642
O O4 0.504834 0.810757 0.268484
O O5 0.750000 0.500000 0.160092
O O6 0.516084 0.565651 0.229208
O O7 0.500000 0.500000 0.000000
O O8 0.500000 0.000000 0.500000
O O9 0.498330 0.936949 0.266030
O O10 0.250000 0.000000 0.336639
O O11 0.750000 0.363012 0.166584
O O12 0.000000 0.365712 0.000000
O O13 0.250000 0.123723 0.663809
O O14 0.000000 0.126611 0.500000
#
# Coordination Sequence:
#
# PCOD9398389 Si02
#       5
#     8   4   4   8   8
#     4  11  21  34  50  72 101 135 168 206 252 301
#     4   8  16  30  51  74  99 126 160 202 246 290
#     4  10  16  24  38  60  89 122 159 200 241 288
#     4  10  19  34  54  78 102 130 165 205 247 295
#     4  10  17  27  42  63  91 125 161 201 245 293
#
# _framework density 18.513337
#
# number of rings (size 3 to 8) (size 9 to 14) (size 15 to 20)
#    0.000    2.000    0.000    9.375    0.000    1.000 
#    0.000    0.625    0.000    0.000    0.000    0.875 
#    0.000    0.000    0.000    0.000    0.000    0.000 
#
# Total GULP energy -178382.338879 kJ/mol
# GULP energy per Si atom -5574.448090 kJ/mol
# Density = 1.847120 g / cm^3
# Si number density = 18.513337 Si / 1000 Ang^3
#
#
#
# Elastic Constant Matrix: (Units=GPa)
#
#
# Indices 1 2 3 4 5 6 
#
# 1 164.7585 81.5881 14.3638 0.0000 0.0000 0.0000
# 2 81.5881 242.5169 37.7821 0.0000 0.0000 0.0000
# 3 14.3638 37.7821 15.8569 0.0000 0.0000 0.0000
# 4 0.0000 0.0000 0.0000 69.1135 0.0000 0.0000
# 5 0.0000 0.0000 0.0000 0.0000 17.9128 0.0000
# 6 0.0000 0.0000 0.0000 0.0000 0.0000 35.9661
#
#
#
# Elastic Compliance Matrix: (Units=1/GPa)
#
#
# Indices 1 2 3 4 5 6 
#
# 1 0.007297 -0.002267 -0.001210 0.000000 0.000000 0.000000
# 2 -0.002267 0.007262 -0.015249 0.000000 0.000000 0.000000
# 3 -0.001210 -0.015249 0.100494 0.000000 0.000000 0.000000
# 4 0.000000 0.000000 0.000000 0.014469 0.000000 0.000000
# 5 0.000000 0.000000 0.000000 0.000000 0.055826 0.000000
# 6 0.000000 0.000000 0.000000 0.000000 0.000000 0.027804
#
#
# Mechanical properties :
#
#
# Convention : Reuss Voigt Hill
#
# Bulk Modulus (GPa) = 12.88622 76.73335 44.80979
# Shear Modulus (GPa) = 18.08511 43.89170 30.98840
#
# Velocity S-wave (km/s) = 3.12888 4.87438 4.09570
# Velocity P-wave (km/s) = 4.47536 8.55670 6.82810
#
# Compressibility (1/GPa) = 0.07760226
#
# Stress axis : x y z
#
# Youngs Moduli (GPa) = 137.03642 137.71035 9.95082
#
# Poissons Ratio (x) = 0.31212 0.01204
# Poissons Ratio (y) = 0.31059 0.15174
# Poissons Ratio (z) = 0.16579 2.09997
#
# Static dielectric constant tensor:
#      x y z
#    x 1.614810 0.000000 0.000000 
#    y 0.000000 1.735810 0.000000 
#    z 0.000000 0.000000 1.616870 
# 
# From -- ./inp_files/13943.got.cif
#   From: 2010.05.17/outbox.cif.g08.bks.cpg/sg51_7_cif.got.tgz:13943.got - 2010.06.03 11:52:47.
