data_PCOD9398168
_publ_section_title
;
Structure prediction by ZEFSAII (Michael W. Deem and Ramdas Pophale) SiO2 
 PCOD9398168
Probable space group: P B A N
;
_chemical_formula_sum "Si O2"
_cell_formula_units_Z 56
_cell_length_a 20.605312
_cell_length_b 9.700399
_cell_length_c 13.448030
_cell_angle_alpha 90.000000
_cell_angle_beta 90.000000
_cell_angle_gamma 90.000000
_cell_volume 2687.988846
_symmetry_space_group_name_H-M "P B A N"
_symmetry_group_IT_number 50
_space_group.IT_coordinate_system_code '2'
_symmetry_cell_setting 'orthorhombic'
loop_
_space_group_symop_operation_xyz
x,y,z
1/2-x,1/2-y,z
x,1/2-y,-z
1/2-x,y,-z
-x,-y,-z
1/2+x,1/2+y,-z
-x,1/2+y,z
1/2+x,-y,z
loop_
_atom_site_type_symbol
_atom_site_label
_atom_site_fract_x
_atom_site_fract_y
_atom_site_fract_z
Si Si1 0.688707 0.677486 0.892140
Si Si2 0.605566 0.408006 0.033825
Si Si3 0.856546 0.749582 0.610617
Si Si4 0.735829 0.088803 0.839199
Si Si5 0.442817 0.232839 0.777171
Si Si6 0.254173 0.481065 0.383482
Si Si7 0.519862 0.021723 0.145065
O O1 0.750000 0.750000 0.837883
O O2 0.711535 0.517845 0.886360
O O3 0.622539 0.723373 0.842066
O O4 0.685798 0.750000 0.000000
O O5 0.667865 0.443714 0.102819
O O6 0.580078 0.019426 0.068326
O O7 0.542095 0.445337 0.097950
O O8 0.612050 0.250000 0.000000
O O9 0.880498 0.750000 0.500000
O O10 0.916210 0.705610 0.677404
O O11 0.800409 0.636588 0.616574
O O12 0.822175 0.897818 0.632203
O O13 0.750000 0.250000 0.859502
O O14 0.739810 0.067339 0.718338
O O15 0.496726 0.326586 0.828021
O O16 0.463114 0.074965 0.763035
O O17 0.250000 0.537769 0.500000
#
# Coordination Sequence:
#
# PCOD9398168 Si02
#       7
#     8   8   8   8   8   8   8
#     4  11  26  40  65  97 127 175 229 278 334 402
#     4  11  25  43  60  88 134 177 228 263 324 397
#     4   9  18  37  71 100 126 165 223 291 337 400
#     4  12  27  42  64 103 144 176 210 286 357 409
#     4  12  24  43  66  92 132 171 236 274 332 407
#     4   9  18  39  67 103 134 168 220 277 354 423
#     4  11  26  42  64  87 123 188 231 274 315 389
#
# _framework density 20.83342
#
# number of rings (size 3 to 8) (size 9 to 14) (size 15 to 20)
#    0.000    1.286    2.857    3.429   10.000    0.571 
#    0.000    0.714    0.000    0.000    0.000    0.000 
#    0.000    0.000    0.000    0.000    0.000    0.000 
#
# Total GULP energy -311944.690794 kJ/mol
# GULP energy per Si atom -5570.440907 kJ/mol
# Density = 2.078600 g / cm^3
# Si number density = 20.833420 Si / 1000 Ang^3
#
#
#
# Elastic Constant Matrix: (Units=GPa)
#
#
# Indices 1 2 3 4 5 6 
#
# 1 102.0865 26.9575 45.3583 0.0000 0.0000 0.0000
# 2 26.9575 103.0536 37.8547 0.0000 0.0000 0.0000
# 3 45.3583 37.8547 121.3901 0.0000 0.0000 0.0000
# 4 0.0000 0.0000 0.0000 25.7912 0.0000 0.0000
# 5 0.0000 0.0000 0.0000 0.0000 36.2949 0.0000
# 6 0.0000 0.0000 0.0000 0.0000 0.0000 26.6064
#
#
#
# Elastic Compliance Matrix: (Units=1/GPa)
#
#
# Indices 1 2 3 4 5 6 
#
# 1 0.011999 -0.001685 -0.003958 0.000000 0.000000 0.000000
# 2 -0.001685 0.011196 -0.002862 0.000000 0.000000 0.000000
# 3 -0.003958 -0.002862 0.010609 0.000000 0.000000 0.000000
# 4 0.000000 0.000000 0.000000 0.038773 0.000000 0.000000
# 5 0.000000 0.000000 0.000000 0.000000 0.027552 0.000000
# 6 0.000000 0.000000 0.000000 0.000000 0.000000 0.037585
#
#
# Mechanical properties :
#
#
# Convention : Reuss Voigt Hill
#
# Bulk Modulus (GPa) = 59.54294 60.76348 60.15321
# Shear Modulus (GPa) = 31.18726 32.16247 31.67486
#
# Velocity S-wave (km/s) = 3.87328 3.93337 3.90344
# Velocity P-wave (km/s) = 6.97464 7.06104 7.01797
#
# Compressibility (1/GPa) = 0.01679460
#
# Stress axis : x y z
#
# Youngs Moduli (GPa) = 83.33893 89.32062 94.25686
#
# Poissons Ratio (x) = 0.15049 0.37308
# Poissons Ratio (y) = 0.14042 0.26974
# Poissons Ratio (z) = 0.32987 0.25561
#
# Static dielectric constant tensor:
#      x y z
#    x 1.766400 0.000000 0.000000 
#    y 0.000000 1.777490 0.000000 
#    z 0.000000 0.000000 1.858030 
# 
# From -- ./inp_files/27233.got.cif
#   From: 2010.05.17/outbox.cif.g08.bks.cpg/sg50_14_cif.got.tgz:27233.got - 2010.06.03 11:33:33.
