data_PCOD9398661
_publ_section_title
;
Structure prediction by ZEFSAII (Michael W. Deem and Ramdas Pophale) SiO2 
 PCOD9398661
Probable space group: P M M A
;
_chemical_formula_sum "Si O2"
_cell_formula_units_Z 64
_cell_length_a 26.815198
_cell_length_b 9.347308
_cell_length_c 18.785641
_cell_angle_alpha 90.000000
_cell_angle_beta 90.000000
_cell_angle_gamma 90.000000
_cell_volume 4708.619316
_symmetry_space_group_name_H-M "P M M A"
_symmetry_group_IT_number 51
_symmetry_cell_setting 'orthorhombic'
loop_
_space_group_symop_operation_xyz
x,y,z
1/2-x,-y,z
1/2+x,-y,-z
-x,y,-z
-x,-y,-z
1/2+x,y,-z
1/2-x,y,z
x,-y,z
loop_
_atom_site_type_symbol
_atom_site_label
_atom_site_fract_x
_atom_site_fract_y
_atom_site_fract_z
Si Si1 0.307260 0.329146 0.824320
Si Si2 0.948611 0.664676 0.546011
Si Si3 0.553457 0.163641 0.959085
Si Si4 0.103054 0.170389 0.575353
Si Si5 0.002661 0.830145 0.665042
Si Si6 0.692183 0.171283 0.323066
Si Si7 0.901766 0.670929 0.083325
Si Si8 0.989128 0.172270 0.169156
O O1 0.250000 0.292480 0.843076
O O2 0.309496 0.500000 0.811924
O O3 0.319960 0.248796 0.751045
O O4 0.347493 0.295075 0.884737
O O5 0.935112 0.500000 0.557563
O O6 0.908856 0.746109 0.496909
O O7 0.962434 0.744367 0.618871
O O8 0.000000 0.668269 0.500000
O O9 0.537717 0.204920 0.879177
O O10 0.571778 0.000000 0.960381
O O11 0.500000 0.164917 0.000000
O O12 0.588606 0.265290 0.004979
O O13 0.153665 0.213009 0.615367
O O14 0.056895 0.196508 0.629587
O O15 0.104141 0.000000 0.561356
O O16 0.004006 0.792955 0.748185
O O17 0.993097 0.000000 0.658489
O O18 0.750000 0.202722 0.340373
O O19 0.687375 0.000000 0.313030
O O20 0.908690 0.500000 0.082993
O O21 0.942638 0.744289 0.135003
O O22 0.980490 0.000000 0.162686
#
# Coordination Sequence:
#
# PCOD9398661 Si02
#       8
#     8   8   8   8   8   8   8   8
#     4   9  18  30  40  53  77 106 133 162 196 230
#     4   9  17  27  38  54  76 100 127 159 190 221
#     4   8  15  27  40  54  75 102 128 155 189 229
#     4   9  16  26  40  56  76 103 130 156 188 225
#     4   9  16  26  40  56  75 101 131 157 185 226
#     4   9  17  28  42  60  79 100 131 168 197 222
#     4  10  18  26  39  57  76 102 134 164 192 223
#     4   9  17  28  41  57  78 104 130 156 191 234
#
# _framework density 13.592093999999999
#
# number of rings (size 3 to 8) (size 9 to 14) (size 15 to 20)
#    0.000    3.000    0.000    2.250    0.000    6.750 
#    0.000    2.500    0.000    0.000    0.000    0.000 
#    0.000    1.000    0.000    4.750    0.000    2.750 
#
# Total GULP energy -356333.282681 kJ/mol
# GULP energy per Si atom -5567.707542 kJ/mol
# Density = 1.356116 g / cm^3
# Si number density = 13.592094 Si / 1000 Ang^3
#
#
#
# Elastic Constant Matrix: (Units=GPa)
#
#
# Indices 1 2 3 4 5 6 
#
# 1 61.5629 35.9495 40.7859 0.0000 0.0000 0.0000
# 2 35.9495 40.4674 43.6202 0.0000 0.0000 0.0000
# 3 40.7859 43.6202 94.7329 0.0000 0.0000 0.0000
# 4 0.0000 0.0000 0.0000 11.1893 0.0000 0.0000
# 5 0.0000 0.0000 0.0000 0.0000 25.1012 0.0000
# 6 0.0000 0.0000 0.0000 0.0000 0.0000 14.9960
#
#
#
# Elastic Compliance Matrix: (Units=1/GPa)
#
#
# Indices 1 2 3 4 5 6 
#
# 1 0.033852 -0.028516 -0.001444 0.000000 0.000000 0.000000
# 2 -0.028516 0.073084 -0.021374 0.000000 0.000000 0.000000
# 3 -0.001444 -0.021374 0.021020 0.000000 0.000000 0.000000
# 4 0.000000 0.000000 0.000000 0.089371 0.000000 0.000000
# 5 0.000000 0.000000 0.000000 0.000000 0.039839 0.000000
# 6 0.000000 0.000000 0.000000 0.000000 0.000000 0.066684
#
#
# Mechanical properties :
#
#
# Convention : Reuss Voigt Hill
#
# Bulk Modulus (GPa) = 39.54771 48.60825 44.07798
# Shear Modulus (GPa) = 11.49560 15.35113 13.42337
#
# Velocity S-wave (km/s) = 2.91134 3.36432 3.14600
# Velocity P-wave (km/s) = 6.36086 7.13662 6.75988
#
# Compressibility (1/GPa) = 0.02528591
#
# Stress axis : x y z
#
# Youngs Moduli (GPa) = 29.53998 13.68294 47.57440
#
# Poissons Ratio (x) = 0.39019 0.06871
# Poissons Ratio (y) = 0.84237 1.01687
# Poissons Ratio (z) = 0.04266 0.29246
#
# Static dielectric constant tensor:
#      x y z
#    x 1.434220 0.000000 0.000000 
#    y 0.000000 1.453360 0.000000 
#    z 0.000000 0.000000 1.441910 
# 
# From -- ./inp_files/30989.got.cif
#   From: 2010.05.17/outbox.cif.g08.bks.cpg/sg51_16_cif.got.tgz:30989.got - 2010.06.03 11:52:47.
