data_PCOD9398849
_publ_section_title
;
Structure prediction by ZEFSAII (Michael W. Deem and Ramdas Pophale) SiO2 
 PCOD9398849
Probable space group: P M M A
;
_chemical_formula_sum "Si O2"
_cell_formula_units_Z 52
_cell_length_a 9.109050
_cell_length_b 18.905994
_cell_length_c 18.554407
_cell_angle_alpha 90.000000
_cell_angle_beta 90.000000
_cell_angle_gamma 90.000000
_cell_volume 3195.359163
_symmetry_space_group_name_H-M "P M M A"
_symmetry_group_IT_number 51
_symmetry_cell_setting 'orthorhombic'
loop_
_space_group_symop_operation_xyz
x,y,z
1/2-x,-y,z
1/2+x,-y,-z
-x,y,-z
-x,-y,-z
1/2+x,y,-z
1/2-x,y,z
x,-y,z
loop_
_atom_site_type_symbol
_atom_site_label
_atom_site_fract_x
_atom_site_fract_y
_atom_site_fract_z
Si Si1 0.425248 0.788671 0.422487
Si Si2 0.918321 0.291797 0.207509
Si Si3 0.426777 0.500000 0.422102
Si Si4 0.081640 0.141729 0.707399
Si Si5 0.425290 0.357461 0.338271
Si Si6 0.574500 0.921714 0.840632
Si Si7 0.426034 0.221755 0.076962
O O1 0.500000 0.794944 0.500000
O O2 0.250000 0.796812 0.427537
O O3 0.492712 0.844192 0.365630
O O4 0.455500 0.710413 0.389341
O O5 0.750000 0.309938 0.190761
O O6 0.917858 0.217314 0.251047
O O7 0.991945 0.345986 0.263040
O O8 0.011359 0.276299 0.136027
O O9 0.250000 0.500000 0.430334
O O10 0.500000 0.500000 0.500000
O O11 0.467568 0.429392 0.378393
O O12 0.250000 0.121614 0.693233
O O13 0.003936 0.090224 0.764103
O O14 0.250000 0.358072 0.325227
O O15 0.750000 0.917174 0.829637
O O16 0.534611 0.857012 0.893258
O O17 0.539139 0.000000 0.869032
O O18 0.250000 0.226529 0.072584
O O19 0.500000 0.232691 0.000000
#
# Coordination Sequence:
#
# PCOD9398849 Si02
#       7
#     8   8   4   8   8   8   8
#     4  10  18  28  44  65  89 117 151 192 236 277
#     4   9  17  30  48  68  90 119 157 197 233 272
#     4  10  20  32  46  68 101 136 167 198 234 276
#     4   9  17  29  45  65  87 113 150 193 232 272
#     4   9  18  31  46  66  94 128 161 193 231 275
#     4   9  18  32  48  66  91 124 156 184 221 272
#     4  10  19  31  48  71  99 126 153 189 231 273
#
# _framework density 16.273602
#
# number of rings (size 3 to 8) (size 9 to 14) (size 15 to 20)
#    0.000    2.615    0.000    2.308    0.000    6.154 
#    0.000    0.000    0.000    0.462    0.000    0.538 
#    0.000    0.000    0.000    0.000    0.000    0.000 
#
# Total GULP energy -289873.361421 kJ/mol
# GULP energy per Si atom -5574.487720 kJ/mol
# Density = 1.623656 g / cm^3
# Si number density = 16.273602 Si / 1000 Ang^3
#
#
#
# Elastic Constant Matrix: (Units=GPa)
#
#
# Indices 1 2 3 4 5 6 
#
# 1 60.2053 17.2785 64.5748 0.0000 0.0000 0.0000
# 2 17.2785 42.8258 34.8952 0.0000 0.0000 0.0000
# 3 64.5748 34.8952 143.1750 0.0000 0.0000 0.0000
# 4 0.0000 0.0000 0.0000 16.8791 0.0000 0.0000
# 5 0.0000 0.0000 0.0000 0.0000 34.2373 0.0000
# 6 0.0000 0.0000 0.0000 0.0000 0.0000 14.0102
#
#
#
# Elastic Compliance Matrix: (Units=1/GPa)
#
#
# Indices 1 2 3 4 5 6 
#
# 1 0.032246 -0.001447 -0.014191 0.000000 0.000000 0.000000
# 2 -0.001447 0.029202 -0.006465 0.000000 0.000000 0.000000
# 3 -0.014191 -0.006465 0.014960 0.000000 0.000000 0.000000
# 4 0.000000 0.000000 0.000000 0.059245 0.000000 0.000000
# 5 0.000000 0.000000 0.000000 0.000000 0.029208 0.000000
# 6 0.000000 0.000000 0.000000 0.000000 0.000000 0.071376
#
#
# Mechanical properties :
#
#
# Convention : Reuss Voigt Hill
#
# Bulk Modulus (GPa) = 31.05284 53.30034 42.17659
# Shear Modulus (GPa) = 17.17172 21.65582 19.41377
#
# Velocity S-wave (km/s) = 3.25189 3.65188 3.45767
# Velocity P-wave (km/s) = 5.76393 7.11374 6.47411
#
# Compressibility (1/GPa) = 0.03220317
#
# Stress axis : x y z
#
# Youngs Moduli (GPa) = 31.01164 34.24470 66.84308
#
# Poissons Ratio (x) = 0.04955 0.94856
# Poissons Ratio (y) = 0.04487 0.43211
# Poissons Ratio (z) = 0.44008 0.22138
#
# Static dielectric constant tensor:
#      x y z
#    x 1.545300 0.000000 0.000000 
#    y 0.000000 1.544010 0.000000 
#    z 0.000000 0.000000 1.518710 
# 
# From -- ./inp_files/27902.got.cif
#   From: 2010.05.17/outbox.cif.g08.bks.cpg/sg51_14_cif.got.tgz:27902.got - 2010.06.03 11:52:47.
