data_PCOD9398818
_publ_section_title
;
Structure prediction by ZEFSAII (Michael W. Deem and Ramdas Pophale) SiO2 
 PCOD9398818
Probable space group: P M M A
;
_chemical_formula_sum "Si O2"
_cell_formula_units_Z 52
_cell_length_a 8.981040
_cell_length_b 27.245034
_cell_length_c 14.077554
_cell_angle_alpha 90.000000
_cell_angle_beta 90.000000
_cell_angle_gamma 90.000000
_cell_volume 3444.618953
_symmetry_space_group_name_H-M "P M M A"
_symmetry_group_IT_number 51
_symmetry_cell_setting 'orthorhombic'
loop_
_space_group_symop_operation_xyz
x,y,z
1/2-x,-y,z
1/2+x,-y,-z
-x,y,-z
-x,-y,-z
1/2+x,y,-z
1/2-x,y,z
x,-y,z
loop_
_atom_site_type_symbol
_atom_site_label
_atom_site_fract_x
_atom_site_fract_y
_atom_site_fract_z
Si Si1 0.071022 0.108005 0.605546
Si Si2 0.927580 0.443379 0.103058
Si Si3 0.928958 0.254990 0.898376
Si Si4 0.070576 0.354762 0.209628
Si Si5 0.928688 0.700593 0.601168
Si Si6 0.571787 0.000000 0.396091
Si Si7 0.070502 0.199404 0.291544
O O1 0.250000 0.111890 0.597543
O O2 0.000000 0.112571 0.500000
O O3 0.007621 0.150714 0.671485
O O4 0.032036 0.053382 0.645216
O O5 0.750000 0.438007 0.095865
O O6 0.960931 0.500000 0.129161
O O7 0.993698 0.404139 0.175519
O O8 0.000000 0.434277 0.000000
O O9 0.750000 0.253989 0.906001
O O10 0.969859 0.309339 0.859908
O O11 0.970586 0.216939 0.814729
O O12 0.000000 0.245151 0.000000
O O13 0.250000 0.359872 0.206097
O O14 0.028843 0.337249 0.315482
O O15 0.750000 0.699406 0.593438
O O16 0.968808 0.754913 0.639529
O O17 0.000000 0.690642 0.500000
O O18 0.500000 0.000000 0.500000
O O19 0.750000 0.000000 0.405606
O O20 0.250000 0.193739 0.294743
#
# Coordination Sequence:
#
# PCOD9398818 Si02
#       7
#     8   8   8   8   8   4   8
#     4  10  18  28  43  63  88 118 149 181 217 258
#     4  10  20  32  47  69  94 118 145 179 219 262
#     4   9  18  31  46  65  91 118 145 179 217 259
#     4   9  18  32  48  67  91 119 148 179 217 259
#     4   9  18  31  46  65  91 120 149 181 217 256
#     4   8  16  28  40  58  85 114 145 180 217 256
#     4   9  18  31  44  63  91 119 146 179 218 259
#
# _framework density 15.09601
#
# number of rings (size 3 to 8) (size 9 to 14) (size 15 to 20)
#    0.000    2.769    0.000    3.692    0.000    6.462 
#    0.000    3.077    0.000    0.462    0.000    0.538 
#    0.000    0.000    0.000    0.000    0.000    0.000 
#
# Total GULP energy -289737.270938 kJ/mol
# GULP energy per Si atom -5571.870595 kJ/mol
# Density = 1.506165 g / cm^3
# Si number density = 15.096010 Si / 1000 Ang^3
#
#
#
# Elastic Constant Matrix: (Units=GPa)
#
#
# Indices 1 2 3 4 5 6 
#
# 1 30.9974 50.4613 39.3744 0.0000 0.0000 0.0000
# 2 50.4613 142.5735 79.9846 0.0000 0.0000 0.0000
# 3 39.3744 79.9846 114.7294 0.0000 0.0000 0.0000
# 4 0.0000 0.0000 0.0000 21.3108 0.0000 0.0000
# 5 0.0000 0.0000 0.0000 0.0000 28.9858 0.0000
# 6 0.0000 0.0000 0.0000 0.0000 0.0000 25.0546
#
#
#
# Elastic Compliance Matrix: (Units=1/GPa)
#
#
# Indices 1 2 3 4 5 6 
#
# 1 0.087836 -0.023283 -0.013913 0.000000 0.000000 0.000000
# 2 -0.023283 0.017691 -0.004343 0.000000 0.000000 0.000000
# 3 -0.013913 -0.004343 0.016519 0.000000 0.000000 0.000000
# 4 0.000000 0.000000 0.000000 0.046925 0.000000 0.000000
# 5 0.000000 0.000000 0.000000 0.000000 0.034500 0.000000
# 6 0.000000 0.000000 0.000000 0.000000 0.000000 0.039913
#
#
# Mechanical properties :
#
#
# Convention : Reuss Voigt Hill
#
# Bulk Modulus (GPa) = 25.66176 69.77119 47.71648
# Shear Modulus (GPa) = 14.72974 22.96889 18.84931
#
# Velocity S-wave (km/s) = 3.12707 3.90490 3.53743
# Velocity P-wave (km/s) = 5.48398 8.16392 6.95427
#
# Compressibility (1/GPa) = 0.03896848
#
# Stress axis : x y z
#
# Youngs Moduli (GPa) = 11.38483 56.52680 60.53761
#
# Poissons Ratio (x) = 1.31609 0.84226
# Poissons Ratio (y) = 0.26507 0.26290
# Poissons Ratio (z) = 0.15840 0.24548
#
# Static dielectric constant tensor:
#      x y z
#    x 1.503220 0.000000 0.000000 
#    y 0.000000 1.510400 0.000000 
#    z 0.000000 0.000000 1.476420 
# 
# From -- ./inp_files/14650.got.cif
#   From: 2010.05.17/outbox.cif.g08.bks.cpg/sg51_8_cif.got.tgz:14650.got - 2010.06.03 11:52:47.
