data_PCOD9398615
_publ_section_title
;
Structure prediction by ZEFSAII (Michael W. Deem and Ramdas Pophale) SiO2 
 PCOD9398615
Probable space group: P M M A
;
_chemical_formula_sum "Si O2"
_cell_formula_units_Z 64
_cell_length_a 7.743424
_cell_length_b 21.652947
_cell_length_c 20.198239
_cell_angle_alpha 90.000000
_cell_angle_beta 90.000000
_cell_angle_gamma 90.000000
_cell_volume 3386.597316
_symmetry_space_group_name_H-M "P M M A"
_symmetry_group_IT_number 51
_symmetry_cell_setting 'orthorhombic'
loop_
_space_group_symop_operation_xyz
x,y,z
1/2-x,-y,z
1/2+x,-y,-z
-x,y,-z
-x,-y,-z
1/2+x,y,-z
1/2-x,y,z
x,-y,z
loop_
_atom_site_type_symbol
_atom_site_label
_atom_site_fract_x
_atom_site_fract_y
_atom_site_fract_z
Si Si1 0.042923 0.620985 0.072913
Si Si2 0.455956 0.879111 0.573867
Si Si3 0.953870 0.311421 0.711830
Si Si4 0.954150 0.067575 0.712521
Si Si5 0.538220 0.431675 0.788110
Si Si6 0.457021 0.762809 0.073046
Si Si7 0.955297 0.262570 0.426361
Si Si8 0.537820 0.811206 0.787628
O O1 0.250000 0.623783 0.077217
O O2 0.983998 0.582787 0.136375
O O3 0.977072 0.691907 0.077580
O O4 0.000000 0.596561 0.000000
O O5 0.500000 0.901249 0.500000
O O6 0.250000 0.877930 0.579887
O O7 0.526138 0.918190 0.634669
O O8 0.522869 0.808187 0.579858
O O9 0.750000 0.311720 0.726459
O O10 0.022504 0.374857 0.742707
O O11 0.021919 0.249330 0.747132
O O12 0.977534 0.303375 0.633741
O O13 0.750000 0.065360 0.726867
O O14 0.024607 0.126127 0.753074
O O15 0.028348 0.000000 0.727805
O O16 0.750000 0.431951 0.786848
O O17 0.481389 0.500000 0.767836
O O18 0.250000 0.759462 0.077731
O O19 0.515900 0.801736 0.136272
O O20 0.500000 0.786810 0.000000
O O21 0.750000 0.259818 0.420523
O O22 0.000000 0.284516 0.500000
O O23 0.750000 0.811884 0.785181
#
# Coordination Sequence:
#
# PCOD9398615 Si02
#       8
#     8   8   8   8   8   8   8   8
#     4   9  16  27  43  65  94 128 163 197 235 281
#     4  10  20  33  50  72 100 133 164 196 235 283
#     4  10  17  30  53  74  95 128 163 201 244 284
#     4  10  20  33  50  72  97 127 163 203 244 286
#     4   9  17  29  47  72  99 129 166 201 238 290
#     4   9  16  28  46  69  94 123 159 200 243 286
#     4  10  20  33  51  77 103 127 159 200 243 287
#     4   9  16  29  50  71  93 124 163 200 239 288
#
# _framework density 18.898025000000001
#
# number of rings (size 3 to 8) (size 9 to 14) (size 15 to 20)
#    0.000    2.500    2.500    0.750    0.000    1.750 
#    0.000    1.875    0.000    1.875    0.000    0.000 
#    0.000    0.000    0.000    0.000    0.000    0.000 
#
# Total GULP energy -357003.712711 kJ/mol
# GULP energy per Si atom -5578.183011 kJ/mol
# Density = 1.885501 g / cm^3
# Si number density = 18.898025 Si / 1000 Ang^3
#
#
#
# Elastic Constant Matrix: (Units=GPa)
#
#
# Indices 1 2 3 4 5 6 
#
# 1 25.0978 9.1056 -7.1219 0.0000 0.0000 0.0000
# 2 9.1056 143.4255 86.9272 0.0000 0.0000 0.0000
# 3 -7.1219 86.9272 126.8218 0.0000 0.0000 0.0000
# 4 0.0000 0.0000 0.0000 20.5903 0.0000 0.0000
# 5 0.0000 0.0000 0.0000 0.0000 22.1278 0.0000
# 6 0.0000 0.0000 0.0000 0.0000 0.0000 7.1598
#
#
#
# Elastic Compliance Matrix: (Units=1/GPa)
#
#
# Indices 1 2 3 4 5 6 
#
# 1 0.044714 -0.007459 0.007624 0.000000 0.000000 0.000000
# 2 -0.007459 0.013171 -0.009447 0.000000 0.000000 0.000000
# 3 0.007624 -0.009447 0.014788 0.000000 0.000000 0.000000
# 4 0.000000 0.000000 0.000000 0.048567 0.000000 0.000000
# 5 0.000000 0.000000 0.000000 0.000000 0.045192 0.000000
# 6 0.000000 0.000000 0.000000 0.000000 0.000000 0.139669
#
#
# Mechanical properties :
#
#
# Convention : Reuss Voigt Hill
#
# Bulk Modulus (GPa) = 18.48133 52.57410 35.52772
# Shear Modulus (GPa) = 14.58992 23.73786 19.16389
#
# Velocity S-wave (km/s) = 2.78156 3.54800 3.18790
# Velocity P-wave (km/s) = 4.48518 6.68316 5.69129
#
# Compressibility (1/GPa) = 0.05410865
#
# Stress axis : x y z
#
# Youngs Moduli (GPa) = 22.36447 75.92187 67.62051
#
# Poissons Ratio (x) = 0.56633 -0.51553
# Poissons Ratio (y) = 0.16682 0.63881
# Poissons Ratio (z) = -0.17050 0.71723
#
# Static dielectric constant tensor:
#      x y z
#    x 1.692280 0.000000 0.000000 
#    y 0.000000 1.666230 0.000000 
#    z 0.000000 0.000000 1.643560 
# 
# From -- ./inp_files/28445.got.cif
#   From: 2010.05.17/outbox.cif.g08.bks.cpg/sg51_15_cif.got.tgz:28445.got - 2010.06.03 11:52:47.
