data_PCOD9398493
_publ_section_title
;
Structure prediction by ZEFSAII (Michael W. Deem and Ramdas Pophale) SiO2 
 PCOD9398493
Probable space group: P M M A
;
_chemical_formula_sum "Si O2"
_cell_formula_units_Z 64
_cell_length_a 30.627999
_cell_length_b 7.552421
_cell_length_c 15.594443
_cell_angle_alpha 90.000000
_cell_angle_beta 90.000000
_cell_angle_gamma 90.000000
_cell_volume 3607.237048
_symmetry_space_group_name_H-M "P M M A"
_symmetry_group_IT_number 51
_symmetry_cell_setting 'orthorhombic'
loop_
_space_group_symop_operation_xyz
x,y,z
1/2-x,-y,z
1/2+x,-y,-z
-x,y,-z
-x,-y,-z
1/2+x,y,-z
1/2-x,y,z
x,-y,z
loop_
_atom_site_type_symbol
_atom_site_label
_atom_site_fract_x
_atom_site_fract_y
_atom_site_fract_z
Si Si1 0.440460 0.784536 0.121663
Si Si2 0.299119 0.716366 0.006707
Si Si3 0.112442 0.792520 0.288050
Si Si4 0.608928 0.294240 0.054361
Si Si5 0.063966 0.785446 0.449161
Si Si6 0.533548 0.793362 0.182158
Si Si7 0.701684 0.286502 0.794786
Si Si8 0.032130 0.785056 0.625510
O O1 0.415243 0.722200 0.207295
O O2 0.490779 0.724714 0.131668
O O3 0.438957 0.000000 0.116794
O O4 0.415478 0.721688 0.037152
O O5 0.250000 0.770610 0.979822
O O6 0.299542 0.500000 0.005488
O O7 0.305142 0.769778 0.106327
O O8 0.341828 0.778791 0.955638
O O9 0.099253 0.719420 0.380750
O O10 0.162757 0.775063 0.264560
O O11 0.100912 0.000000 0.290618
O O12 0.613303 0.500000 0.075454
O O13 0.576792 0.217447 0.125556
O O14 0.062458 0.720310 0.547147
O O15 0.017219 0.747224 0.405080
O O16 0.067284 0.000000 0.455335
O O17 0.538978 0.718037 0.278036
O O18 0.523175 0.000000 0.195125
O O19 0.750000 0.228118 0.768322
O O20 0.701073 0.500000 0.795333
O O21 0.036224 0.000000 0.627365
#
# Coordination Sequence:
#
# PCOD9398493 Si02
#       8
#     8   8   8   8   8   8   8   8
#     4  10  19  30  42  61  91 124 150 174 210 257
#     4   8  15  29  46  61  79 106 142 182 220 258
#     4  10  17  26  44  69  93 113 143 184 222 254
#     4  11  21  31  45  64  85 115 153 187 218 255
#     4   8  13  23  42  67  88 109 143 181 211 250
#     4  10  19  31  45  62  89 123 152 179 216 257
#     4   9  17  30  46  62  84 117 151 179 215 268
#     4   8  13  24  43  64  86 113 146 179 211 252
#
# _framework density 17.742108999999999
#
# number of rings (size 3 to 8) (size 9 to 14) (size 15 to 20)
#    0.000    2.750    2.500    2.250    0.000    2.250 
#    0.000    0.000    0.000    2.250    0.000    2.625 
#    0.000    5.000    0.000    0.000    0.000    0.000 
#
# Total GULP energy -356664.972324 kJ/mol
# GULP energy per Si atom -5572.890193 kJ/mol
# Density = 1.770173 g / cm^3
# Si number density = 17.742109 Si / 1000 Ang^3
#
#
#
# Elastic Constant Matrix: (Units=GPa)
#
#
# Indices 1 2 3 4 5 6 
#
# 1 111.8262 -10.5699 51.5434 0.0000 0.0000 0.0000
# 2 -10.5699 35.0210 -5.8628 0.0000 0.0000 0.0000
# 3 51.5434 -5.8628 83.4343 0.0000 0.0000 0.0000
# 4 0.0000 0.0000 0.0000 -47.3926 0.0000 0.0000
# 5 0.0000 0.0000 0.0000 0.0000 24.9062 0.0000
# 6 0.0000 0.0000 0.0000 0.0000 0.0000 15.5982
#
#
#
# Elastic Compliance Matrix: (Units=1/GPa)
#
#
# Indices 1 2 3 4 5 6 
#
# 1 0.012724 0.002554 -0.007681 0.000000 0.000000 0.000000
# 2 0.002554 0.029407 0.000488 0.000000 0.000000 0.000000
# 3 -0.007681 0.000488 0.016765 0.000000 0.000000 0.000000
# 4 0.000000 0.000000 0.000000 -0.021100 0.000000 0.000000
# 5 0.000000 0.000000 0.000000 0.000000 0.040151 0.000000
# 6 0.000000 0.000000 0.000000 0.000000 0.000000 0.064110
#
#
# Mechanical properties :
#
#
# Convention : Reuss Voigt Hill
#
# Bulk Modulus (GPa) = 20.15337 33.38921 26.77129
# Shear Modulus (GPa) = 29.78436 11.63376 20.70906
#
# Velocity S-wave (km/s) = 4.10169 2.56347 3.42018
# Velocity P-wave (km/s) = 5.81511 5.25565 5.54244
#
# Compressibility (1/GPa) = 0.04961950
#
# Stress axis : x y z
#
# Youngs Moduli (GPa) = 78.58937 34.00551 59.64792
#
# Poissons Ratio (x) = -0.08687 0.45817
# Poissons Ratio (y) = -0.20076 -0.02913
# Poissons Ratio (z) = 0.60366 -0.01660
#
# Static dielectric constant tensor:
#      x y z
#    x 1.611340 0.000000 0.000000 
#    y 0.000000 1.696010 0.000000 
#    z 0.000000 0.000000 1.609550 
# 
# From -- ./inp_files/26607.got.cif
#   From: 2010.05.17/outbox.cif.g08.bks.cpg/sg51_14_cif.got.tgz:26607.got - 2010.06.03 11:52:47.
