data_PCOD9398212
_publ_section_title
;
Structure prediction by ZEFSAII (Michael W. Deem and Ramdas Pophale) SiO2 
 PCOD9398212
Probable space group: P B A N
;
_chemical_formula_sum "Si O2"
_cell_formula_units_Z 32
_cell_length_a 9.225589
_cell_length_b 8.788341
_cell_length_c 15.652780
_cell_angle_alpha 90.000000
_cell_angle_beta 90.000000
_cell_angle_gamma 90.000000
_cell_volume 1269.090181
_symmetry_space_group_name_H-M "P B A N"
_symmetry_group_IT_number 50
_space_group.IT_coordinate_system_code '2'
_symmetry_cell_setting 'orthorhombic'
loop_
_space_group_symop_operation_xyz
x,y,z
1/2-x,1/2-y,z
x,1/2-y,-z
1/2-x,y,-z
-x,-y,-z
1/2+x,1/2+y,-z
-x,1/2+y,z
1/2+x,-y,z
loop_
_atom_site_type_symbol
_atom_site_label
_atom_site_fract_x
_atom_site_fract_y
_atom_site_fract_z
Si Si1 0.530909 0.306651 0.095267
Si Si2 0.903862 0.396757 0.439993
Si Si3 0.177491 0.415105 0.335058
Si Si4 0.289812 0.974753 0.843583
O O1 0.387415 0.380109 0.134188
O O2 0.601052 0.169663 0.150533
O O3 0.658849 0.433306 0.092458
O O4 0.504602 0.250000 0.000000
O O5 0.890213 0.250000 0.500000
O O6 0.761349 0.479842 0.404544
O O7 0.000000 0.500000 0.500000
O O8 0.010323 0.382788 0.357881
O O9 0.250000 0.250000 0.336115
O O10 0.209559 0.497601 0.245974
#
# Coordination Sequence:
#
# PCOD9398212 Si02
#       4
#     8   8   8   8
#     4  11  26  50  76 114 156 200 265 318 386 461
#     4  12  27  50  79 110 151 199 260 316 385 458
#     4  12  28  50  77 113 158 202 254 321 389 460
#     4  11  26  47  78 111 155 203 255 319 389 464
#
# _framework density 25.214915999999999
#
# number of rings (size 3 to 8) (size 9 to 14) (size 15 to 20)
#    0.000    0.500    2.500    4.500    7.000    6.000 
#    0.000    2.500    0.000    0.000    0.000    0.000 
#    0.000    0.000    0.000    0.000    0.000    0.000 
#
# Total GULP energy -179307.731345 kJ/mol
# GULP energy per Si atom -5603.366605 kJ/mol
# Density = 2.515753 g / cm^3
# Si number density = 25.214916 Si / 1000 Ang^3
#
#
#
# Elastic Constant Matrix: (Units=GPa)
#
#
# Indices 1 2 3 4 5 6 
#
# 1 143.3845 41.4982 42.2984 0.0000 0.0000 0.0000
# 2 41.4982 128.4365 49.0963 0.0000 0.0000 0.0000
# 3 42.2984 49.0963 138.1449 0.0000 0.0000 0.0000
# 4 0.0000 0.0000 0.0000 53.0342 0.0000 0.0000
# 5 0.0000 0.0000 0.0000 0.0000 16.6582 0.0000
# 6 0.0000 0.0000 0.0000 0.0000 0.0000 53.7992
#
#
#
# Elastic Compliance Matrix: (Units=1/GPa)
#
#
# Indices 1 2 3 4 5 6 
#
# 1 0.008057 -0.001921 -0.001784 0.000000 0.000000 0.000000
# 2 -0.001921 0.009468 -0.002777 0.000000 0.000000 0.000000
# 3 -0.001784 -0.002777 0.008772 0.000000 0.000000 0.000000
# 4 0.000000 0.000000 0.000000 0.018856 0.000000 0.000000
# 5 0.000000 0.000000 0.000000 0.000000 0.060030 0.000000
# 6 0.000000 0.000000 0.000000 0.000000 0.000000 0.018588
#
#
# Mechanical properties :
#
#
# Convention : Reuss Voigt Hill
#
# Bulk Modulus (GPa) = 75.00334 75.08352 75.04343
# Shear Modulus (GPa) = 35.41616 43.16984 39.29300
#
# Velocity S-wave (km/s) = 3.75183 4.14221 3.95184
# Velocity P-wave (km/s) = 6.96983 7.26081 7.11680
#
# Compressibility (1/GPa) = 0.01333274
#
# Stress axis : x y z
#
# Youngs Moduli (GPa) = 124.12242 105.61783 114.00075
#
# Poissons Ratio (x) = 0.20290 0.20338
# Poissons Ratio (y) = 0.23845 0.31655
# Poissons Ratio (z) = 0.22144 0.29327
#
# Static dielectric constant tensor:
#      x y z
#    x 2.204830 0.000000 0.000000 
#    y 0.000000 2.145700 0.000000 
#    z 0.000000 0.000000 2.040020 
# 
# From -- ./inp_files/25594.got.cif
#   From: 2010.05.17/outbox.cif.g08.bks.cpg/sg50_13_cif.got.tgz:25594.got - 2010.06.03 11:33:33.
