data_PCOD9398392
_publ_section_title
;
Structure prediction by ZEFSAII (Michael W. Deem and Ramdas Pophale) SiO2 
 PCOD9398392
Probable space group: P M M A
;
_chemical_formula_sum "Si O2"
_cell_formula_units_Z 44
_cell_length_a 8.593883
_cell_length_b 30.164852
_cell_length_c 9.229686
_cell_angle_alpha 90.000000
_cell_angle_beta 90.000000
_cell_angle_gamma 90.000000
_cell_volume 2392.641118
_symmetry_space_group_name_H-M "P M M A"
_symmetry_group_IT_number 51
_symmetry_cell_setting 'orthorhombic'
loop_
_space_group_symop_operation_xyz
x,y,z
1/2-x,-y,z
1/2+x,-y,-z
-x,y,-z
-x,-y,-z
1/2+x,y,-z
1/2-x,y,z
x,-y,z
loop_
_atom_site_type_symbol
_atom_site_label
_atom_site_fract_x
_atom_site_fract_y
_atom_site_fract_z
Si Si1 0.436312 0.771854 0.161646
Si Si2 0.936932 0.683816 0.663606
Si Si3 0.564247 0.500000 0.665795
Si Si4 0.937861 0.952420 0.335154
Si Si5 0.564256 0.408536 0.334587
Si Si6 0.437079 0.144502 0.664161
O O1 0.250000 0.773543 0.160027
O O2 0.482673 0.727086 0.246197
O O3 0.498935 0.815050 0.243514
O O4 0.500000 0.770710 0.000000
O O5 0.750000 0.680306 0.658381
O O6 0.000000 0.688808 0.500000
O O7 0.005161 0.638076 0.727977
O O8 0.750000 0.500000 0.661721
O O9 0.500000 0.500000 0.500000
O O10 0.501973 0.454022 0.732062
O O11 0.750000 0.952481 0.338560
O O12 0.985210 0.904286 0.275176
O O13 0.000000 0.952536 0.500000
O O14 0.988107 0.000000 0.269184
O O15 0.500000 0.407621 0.500000
O O16 0.750000 0.410103 0.337670
O O17 0.500000 0.147918 0.500000
O O18 0.250000 0.146502 0.660551
#
# Coordination Sequence:
#
# PCOD9398392 Si02
#       6
#     8   8   4   8   8   8
#     4  11  24  39  55  74 100 133 171 214 261 311
#     4  10  20  34  52  75 100 130 166 206 251 299
#     4  10  16  24  38  60  95 132 163 198 241 292
#     4   8  14  25  43  70 102 133 164 201 245 292
#     4  10  17  26  42  66  96 129 163 201 244 292
#     4  10  19  32  53  79 107 137 171 210 252 300
#
# _framework density 18.389720000000001
#
# number of rings (size 3 to 8) (size 9 to 14) (size 15 to 20)
#    0.000    2.182    0.000    6.818    0.000    5.091 
#    0.000    0.000    0.000    0.545    0.000    0.636 
#    0.000    0.000    0.000    0.000    0.000    0.000 
#
# Total GULP energy -245262.551261 kJ/mol
# GULP energy per Si atom -5574.148892 kJ/mol
# Density = 1.834786 g / cm^3
# Si number density = 18.389720 Si / 1000 Ang^3
#
#
#
# Elastic Constant Matrix: (Units=GPa)
#
#
# Indices 1 2 3 4 5 6 
#
# 1 83.5910 67.0280 19.3761 0.0000 0.0000 0.0000
# 2 67.0280 252.7241 62.6761 0.0000 0.0000 0.0000
# 3 19.3761 62.6761 46.0090 0.0000 0.0000 0.0000
# 4 0.0000 0.0000 0.0000 -5.2903 0.0000 0.0000
# 5 0.0000 0.0000 0.0000 0.0000 17.7248 0.0000
# 6 0.0000 0.0000 0.0000 0.0000 0.0000 28.4870
#
#
#
# Elastic Compliance Matrix: (Units=1/GPa)
#
#
# Indices 1 2 3 4 5 6 
#
# 1 0.015252 -0.003703 -0.001378 0.000000 0.000000 0.000000
# 2 -0.003703 0.006875 -0.007806 0.000000 0.000000 0.000000
# 3 -0.001378 -0.007806 0.032949 0.000000 0.000000 0.000000
# 4 0.000000 0.000000 0.000000 -0.189025 0.000000 0.000000
# 5 0.000000 0.000000 0.000000 0.000000 0.056418 0.000000
# 6 0.000000 0.000000 0.000000 0.000000 0.000000 0.035104
#
#
# Mechanical properties :
#
#
# Convention : Reuss Voigt Hill
#
# Bulk Modulus (GPa) = 34.12858 75.60938 54.86898
# Shear Modulus (GPa) = -726.15920 23.73389 -351.21266
#
# Velocity S-wave (km/s) = -19.89295 3.59640 -13.83466
# Velocity P-wave (km/s) = 22.56193 7.64524 15.00985
#
# Compressibility (1/GPa) = 0.02930095
#
# Stress axis : x y z
#
# Youngs Moduli (GPa) = 65.56492 145.45536 30.35003
#
# Poissons Ratio (x) = 0.53867 0.04183
# Poissons Ratio (y) = 0.24281 0.23691
# Poissons Ratio (z) = 0.09037 1.13540
#
# Static dielectric constant tensor:
#      x y z
#    x 1.622510 0.000000 0.000000 
#    y 0.000000 1.720220 0.000000 
#    z 0.000000 0.000000 1.578430 
# 
# From -- ./inp_files/5852.got.cif
#   From: 2010.05.17/outbox.cif.g08.bks.cpg/sg51_3_cif.got.tgz:5852.got - 2010.06.03 11:52:47.
