data_PCOD9398172
_publ_section_title
;
Structure prediction by ZEFSAII (Michael W. Deem and Ramdas Pophale) SiO2 
 PCOD9398172
Probable space group: P B A N
;
_chemical_formula_sum "Si O2"
_cell_formula_units_Z 48
_cell_length_a 8.930612
_cell_length_b 15.740765
_cell_length_c 16.968211
_cell_angle_alpha 90.000000
_cell_angle_beta 90.000000
_cell_angle_gamma 90.000000
_cell_volume 2385.300574
_symmetry_space_group_name_H-M "P B A N"
_symmetry_group_IT_number 50
_space_group.IT_coordinate_system_code '2'
_symmetry_cell_setting 'orthorhombic'
loop_
_space_group_symop_operation_xyz
x,y,z
1/2-x,1/2-y,z
x,1/2-y,-z
1/2-x,y,-z
-x,-y,-z
1/2+x,1/2+y,-z
-x,1/2+y,z
1/2+x,-y,z
loop_
_atom_site_type_symbol
_atom_site_label
_atom_site_fract_x
_atom_site_fract_y
_atom_site_fract_z
Si Si1 0.068014 0.153014 0.411609
Si Si2 0.680559 0.339529 0.913087
Si Si3 0.960157 0.500235 0.301454
Si Si4 0.430524 0.153834 0.405999
Si Si5 0.709564 0.496408 0.190582
Si Si6 0.319320 0.161166 0.087039
O O1 0.005350 0.080077 0.356361
O O2 0.249371 0.149986 0.405391
O O3 0.024401 0.248859 0.388288
O O4 0.026075 0.137400 0.502827
O O5 0.750000 0.250000 0.885142
O O6 0.733169 0.416095 0.857894
O O7 0.500106 0.333895 0.917408
O O8 0.750000 0.354028 0.000000
O O9 0.787849 0.500485 0.275857
O O10 0.001948 0.413983 0.346260
O O11 0.037544 0.510254 0.216317
O O12 0.725932 0.582647 0.141605
O O13 0.250000 0.250000 0.116955
O O14 0.250000 0.148416 0.000000
#
# Coordination Sequence:
#
# PCOD9398172 Si02
#       6
#     8   8   8   8   8   8
#     4   9  19  38  64  87 120 163 212 257 303 373
#     4  11  25  44  68  95 125 165 211 260 309 368
#     4  12  23  40  59  94 127 165 203 257 317 368
#     4   9  19  38  63  90 117 164 213 254 307 368
#     4  12  27  40  63  92 131 167 206 255 316 378
#     4  11  25  44  69  94 122 168 214 256 309 372
#
# _framework density 20.123252000000001
#
# number of rings (size 3 to 8) (size 9 to 14) (size 15 to 20)
#    0.000    1.333    3.333    4.000    4.667    4.000 
#    0.000    0.000    0.000    2.000    0.000    0.000 
#    0.000    0.000    0.000    0.000    0.000    0.000 
#
# Total GULP energy -268102.746712 kJ/mol
# GULP energy per Si atom -5585.473890 kJ/mol
# Density = 2.007745 g / cm^3
# Si number density = 20.123252 Si / 1000 Ang^3
#
#
#
# Elastic Constant Matrix: (Units=GPa)
#
#
# Indices 1 2 3 4 5 6 
#
# 1 67.6137 51.3699 30.7044 0.0000 0.0000 0.0000
# 2 51.3699 186.8700 100.1820 0.0000 0.0000 0.0000
# 3 30.7044 100.1820 76.4636 0.0000 0.0000 0.0000
# 4 0.0000 0.0000 0.0000 447.9700 0.0000 0.0000
# 5 0.0000 0.0000 0.0000 0.0000 20.8702 0.0000
# 6 0.0000 0.0000 0.0000 0.0000 0.0000 4.0135
#
#
#
# Elastic Compliance Matrix: (Units=1/GPa)
#
#
# Indices 1 2 3 4 5 6 
#
# 1 0.018849 -0.003776 -0.002621 0.000000 0.000000 0.000000
# 2 -0.003776 0.018738 -0.023034 0.000000 0.000000 0.000000
# 3 -0.002621 -0.023034 0.044310 0.000000 0.000000 0.000000
# 4 0.000000 0.000000 0.000000 0.002232 0.000000 0.000000
# 5 0.000000 0.000000 0.000000 0.000000 0.047915 0.000000
# 6 0.000000 0.000000 0.000000 0.000000 0.000000 0.249162
#
#
# Mechanical properties :
#
#
# Convention : Reuss Voigt Hill
#
# Bulk Modulus (GPa) = 43.41461 77.27331 60.34396
# Shear Modulus (GPa) = 11.16698 104.48347 57.82522
#
# Velocity S-wave (km/s) = 2.35825 7.21349 5.36637
# Velocity P-wave (km/s) = 5.38853 10.38570 8.27342
#
# Compressibility (1/GPa) = 0.02303372
#
# Stress axis : x y z
#
# Youngs Moduli (GPa) = 53.05218 53.36697 22.56821
#
# Poissons Ratio (x) = 0.20153 0.05916
# Poissons Ratio (y) = 0.20034 0.51984
# Poissons Ratio (z) = 0.13907 1.22927
#
# Static dielectric constant tensor:
#      x y z
#    x 1.700020 0.000000 0.000000 
#    y 0.000000 1.676870 0.000000 
#    z 0.000000 0.000000 1.687930 
# 
# From -- ./inp_files/28721.got.cif
#   From: 2010.05.17/outbox.cif.g08.bks.cpg/sg50_15_cif.got.tgz:28721.got - 2010.06.03 11:33:33.
