data_PCOD9398009
_publ_section_title
;
Structure prediction by ZEFSAII (Michael W. Deem and Ramdas Pophale) SiO2 
 PCOD9398009
Probable space group: P B A N
;
_chemical_formula_sum "Si O2"
_cell_formula_units_Z 40
_cell_length_a 18.239698
_cell_length_b 11.613822
_cell_length_c 8.594028
_cell_angle_alpha 90.000000
_cell_angle_beta 90.000000
_cell_angle_gamma 90.000000
_cell_volume 1820.495346
_symmetry_space_group_name_H-M "P B A N"
_symmetry_group_IT_number 50
_space_group.IT_coordinate_system_code '2'
_symmetry_cell_setting 'orthorhombic'
loop_
_space_group_symop_operation_xyz
x,y,z
1/2-x,1/2-y,z
x,1/2-y,-z
1/2-x,y,-z
-x,-y,-z
1/2+x,1/2+y,-z
-x,1/2+y,z
1/2+x,-y,z
loop_
_atom_site_type_symbol
_atom_site_label
_atom_site_fract_x
_atom_site_fract_y
_atom_site_fract_z
Si Si1 0.830679 0.214693 0.819606
Si Si2 0.861043 0.930245 0.388508
Si Si3 0.385467 0.184151 0.716824
Si Si4 0.955909 0.343931 0.635531
Si Si5 0.221616 0.025235 0.171737
O O1 0.750000 0.250000 0.759853
O O2 0.894794 0.281290 0.736793
O O3 0.833598 0.078927 0.789263
O O4 0.833286 0.250000 0.000000
O O5 0.890302 0.821562 0.289902
O O6 0.851442 0.871462 0.557572
O O7 0.787878 0.969449 0.296484
O O8 0.918276 0.034703 0.408373
O O9 0.467857 0.137394 0.725051
O O10 0.326174 0.140453 0.838666
O O11 0.973015 0.250000 0.500000
O O12 0.250000 0.996064 0.000000
#
# Coordination Sequence:
#
# PCOD9398009 Si02
#       5
#     8   8   8   8   8
#     4  11  22  46  69 101 138 172 224 284 339 394
#     4  11  23  45  66  97 137 177 225 278 335 405
#     4  11  26  42  65 100 141 178 218 284 343 403
#     4  12  24  43  71 103 134 178 228 278 344 404
#     4  12  24  45  72  98 134 182 232 279 334 413
#
# _framework density 21.972041999999998
#
# number of rings (size 3 to 8) (size 9 to 14) (size 15 to 20)
#    0.000    0.600    6.000    3.000    2.800    3.600 
#    3.600    2.000    0.000    0.000    0.000    0.000 
#    0.000    0.000    0.000    0.000    0.000    0.000 
#
# Total GULP energy -223442.108014 kJ/mol
# GULP energy per Si atom -5586.052700 kJ/mol
# Density = 2.192203 g / cm^3
# Si number density = 21.972042 Si / 1000 Ang^3
#
#
#
# Elastic Constant Matrix: (Units=GPa)
#
#
# Indices 1 2 3 4 5 6 
#
# 1 104.4954 19.8613 17.7151 0.0000 0.0000 0.0000
# 2 19.8613 136.2999 1.9472 0.0000 0.0000 0.0000
# 3 17.7151 1.9472 13.9984 0.0000 0.0000 0.0000
# 4 0.0000 0.0000 0.0000 29.3500 0.0000 0.0000
# 5 0.0000 0.0000 0.0000 0.0000 15.7650 0.0000
# 6 0.0000 0.0000 0.0000 0.0000 0.0000 32.2348
#
#
#
# Elastic Compliance Matrix: (Units=1/GPa)
#
#
# Indices 1 2 3 4 5 6 
#
# 1 0.012523 -0.001602 -0.015625 0.000000 0.000000 0.000000
# 2 -0.001602 0.007556 0.000976 0.000000 0.000000 0.000000
# 3 -0.015625 0.000976 0.091075 0.000000 0.000000 0.000000
# 4 0.000000 0.000000 0.000000 0.034072 0.000000 0.000000
# 5 0.000000 0.000000 0.000000 0.000000 0.063432 0.000000
# 6 0.000000 0.000000 0.000000 0.000000 0.000000 0.031022
#
#
# Mechanical properties :
#
#
# Convention : Reuss Voigt Hill
#
# Bulk Modulus (GPa) = 12.71423 37.09344 24.90384
# Shear Modulus (GPa) = 16.75602 29.82130 23.28866
#
# Velocity S-wave (km/s) = 2.76453 3.68807 3.25918
# Velocity P-wave (km/s) = 3.99866 5.92069 5.05192
#
# Compressibility (1/GPa) = 0.07865202
#
# Stress axis : x y z
#
# Youngs Moduli (GPa) = 79.85178 132.34149 10.97993
#
# Poissons Ratio (x) = 0.21196 0.17157
# Poissons Ratio (y) = 0.12789 -0.01071
# Poissons Ratio (z) = 1.24772 -0.12914
#
# Static dielectric constant tensor:
#      x y z
#    x 1.787280 0.000000 0.000000 
#    y 0.000000 1.876090 0.000000 
#    z 0.000000 0.000000 1.876420 
# 
# From -- ./inp_files/11018.got.cif
#   From: 2010.05.17/outbox.cif.g08.bks.cpg/sg50_6_cif.got.tgz:11018.got - 2010.06.03 11:33:33.
