data_PCOD9398214
_publ_section_title
;
Structure prediction by ZEFSAII (Michael W. Deem and Ramdas Pophale) SiO2 
 PCOD9398214
Probable space group: P B A N
;
_chemical_formula_sum "Si O2"
_cell_formula_units_Z 22
_cell_length_a 5.070355
_cell_length_b 33.293602
_cell_length_c 5.457440
_cell_angle_alpha 90.000000
_cell_angle_beta 90.000000
_cell_angle_gamma 90.000000
_cell_volume 921.272528
_symmetry_space_group_name_H-M "P B A N"
_symmetry_group_IT_number 50
_space_group.IT_coordinate_system_code '2'
_symmetry_cell_setting 'orthorhombic'
loop_
_space_group_symop_operation_xyz
x,y,z
1/2-x,1/2-y,z
x,1/2-y,-z
1/2-x,y,-z
-x,-y,-z
1/2+x,1/2+y,-z
-x,1/2+y,z
1/2+x,-y,z
loop_
_atom_site_type_symbol
_atom_site_label
_atom_site_fract_x
_atom_site_fract_y
_atom_site_fract_z
Si Si1 0.250000 0.969767 0.000000
Si Si2 0.250000 0.250000 0.000000
Si Si3 0.994339 0.597242 0.349214
Si Si4 0.082804 0.682282 0.247692
O O1 0.121236 0.937255 0.814466
O O2 0.500000 0.000000 0.000000
O O3 0.417045 0.221358 0.821810
O O4 0.250000 0.609382 0.500000
O O5 0.907578 0.641228 0.256971
O O6 0.750000 0.579792 0.500000
O O7 0.250000 0.689052 0.500000
O O8 0.250000 0.675203 0.000000
#
# Coordination Sequence:
#
# PCOD9398214 Si02
#       4
#     4   2   8   8
#     4  12  26  45  78 115 152 197 266 335 412 488
#     4  12  30  48  84 112 168 202 286 336 418 462
#     4  11  26  49  76 107 157 209 264 327 409 489
#     4  11  28  52  76 114 158 214 271 336 408 488
#
# _framework density 23.880015
#
# number of rings (size 3 to 8) (size 9 to 14) (size 15 to 20)
#    0.000    0.727    1.818    2.727   10.182   10.182 
#    0.000    0.000    0.000    0.000    0.000    0.000 
#    0.000    0.000    0.000    0.000    0.000    0.000 
#
# Total GULP energy -122492.159692 kJ/mol
# GULP energy per Si atom -5567.825441 kJ/mol
# Density = 2.382566 g / cm^3
# Si number density = 23.880015 Si / 1000 Ang^3
#
#
#
# Elastic Constant Matrix: (Units=GPa)
#
#
# Indices 1 2 3 4 5 6 
#
# 1 156.5460 63.0035 71.5765 0.0000 0.0000 0.0000
# 2 63.0035 210.4169 61.5196 0.0000 0.0000 0.0000
# 3 71.5765 61.5196 140.3265 0.0000 0.0000 0.0000
# 4 0.0000 0.0000 0.0000 100.4696 0.0000 0.0000
# 5 0.0000 0.0000 0.0000 0.0000 35.9778 0.0000
# 6 0.0000 0.0000 0.0000 0.0000 0.0000 72.1154
#
#
#
# Elastic Compliance Matrix: (Units=1/GPa)
#
#
# Indices 1 2 3 4 5 6 
#
# 1 0.008727 -0.001504 -0.003792 0.000000 0.000000 0.000000
# 2 -0.001504 0.005711 -0.001736 0.000000 0.000000 0.000000
# 3 -0.003792 -0.001736 0.009822 0.000000 0.000000 0.000000
# 4 0.000000 0.000000 0.000000 0.009953 0.000000 0.000000
# 5 0.000000 0.000000 0.000000 0.000000 0.027795 0.000000
# 6 0.000000 0.000000 0.000000 0.000000 0.000000 0.013867
#
#
# Mechanical properties :
#
#
# Convention : Reuss Voigt Hill
#
# Bulk Modulus (GPa) = 98.09518 99.94318 99.01918
# Shear Modulus (GPa) = 53.56932 62.45856 58.01394
#
# Velocity S-wave (km/s) = 4.74146 5.11976 4.93423
# Velocity P-wave (km/s) = 8.43462 8.76883 8.60334
#
# Compressibility (1/GPa) = 0.01019418
#
# Stress axis : x y z
#
# Youngs Moduli (GPa) = 114.58527 175.11499 101.81742
#
# Poissons Ratio (x) = 0.26345 0.38608
# Poissons Ratio (y) = 0.17239 0.17677
# Poissons Ratio (z) = 0.43450 0.30402
#
# Static dielectric constant tensor:
#      x y z
#    x 1.840700 0.000000 0.000000 
#    y 0.000000 2.223060 0.000000 
#    z 0.000000 0.000000 1.851770 
# 
# From -- ./inp_files/426.got.cif
#   From: 2010.05.17/outbox.cif.g08.bks.cpg/sg50_1_cif.got.tgz:426.got - 2010.06.03 11:33:33.
