data_PCOD9398238
_publ_section_title
;
Structure prediction by ZEFSAII (Michael W. Deem and Ramdas Pophale) SiO2 
 PCOD9398238
Probable space group: P B A N
;
_chemical_formula_sum "Si O2"
_cell_formula_units_Z 32
_cell_length_a 8.525639
_cell_length_b 20.104555
_cell_length_c 7.852819
_cell_angle_alpha 90.000000
_cell_angle_beta 90.000000
_cell_angle_gamma 90.000000
_cell_volume 1346.005987
_symmetry_space_group_name_H-M "P B A N"
_symmetry_group_IT_number 50
_space_group.IT_coordinate_system_code '2'
_symmetry_cell_setting 'orthorhombic'
loop_
_space_group_symop_operation_xyz
x,y,z
1/2-x,1/2-y,z
x,1/2-y,-z
1/2-x,y,-z
-x,-y,-z
1/2+x,1/2+y,-z
-x,1/2+y,z
1/2+x,-y,z
loop_
_atom_site_type_symbol
_atom_site_label
_atom_site_fract_x
_atom_site_fract_y
_atom_site_fract_z
Si Si1 0.387470 0.459494 0.377519
Si Si2 0.060725 0.319088 0.281076
Si Si3 0.898656 0.057011 0.902458
Si Si4 0.935835 0.822970 0.688106
O O1 0.250000 0.432799 0.500000
O O2 0.500000 0.500000 0.500000
O O3 0.321691 0.512998 0.248220
O O4 0.471336 0.399743 0.274784
O O5 0.999637 0.244986 0.230920
O O6 0.249775 0.319167 0.270840
O O7 0.028731 0.321887 0.484715
O O8 0.996620 0.382071 0.178315
O O9 0.750000 0.085375 0.000000
O O10 0.000000 0.000000 0.000000
#
# Coordination Sequence:
#
# PCOD9398238 Si02
#       4
#     8   8   8   8
#     4  12  21  38  65  97 126 174 239 290 340 412
#     4   9  17  34  61  98 128 170 223 297 350 406
#     4  12  25  41  63 101 153 188 224 290 374 439
#     4   9  16  33  65  96 123 159 245 300 330 402
#
# _framework density 23.774038000000001
#
# number of rings (size 3 to 8) (size 9 to 14) (size 15 to 20)
#    0.000    1.500    5.000    4.500    0.000    0.000 
#    0.000    1.250    0.000   16.500    0.000    0.000 
#    0.000    0.000    0.000    0.000    0.000    0.000 
#
# Total GULP energy -178399.093819 kJ/mol
# GULP energy per Si atom -5574.971682 kJ/mol
# Density = 2.371993 g / cm^3
# Si number density = 23.774038 Si / 1000 Ang^3
#
#
#
# Elastic Constant Matrix: (Units=GPa)
#
#
# Indices 1 2 3 4 5 6 
#
# 1 56.8924 46.2713 35.6175 0.0000 0.0000 0.0000
# 2 46.2713 253.1743 53.2271 0.0000 0.0000 0.0000
# 3 35.6175 53.2271 57.6235 0.0000 0.0000 0.0000
# 4 0.0000 0.0000 0.0000 36.7374 0.0000 0.0000
# 5 0.0000 0.0000 0.0000 0.0000 32.2406 0.0000
# 6 0.0000 0.0000 0.0000 0.0000 0.0000 28.1805
#
#
#
# Elastic Compliance Matrix: (Units=1/GPa)
#
#
# Indices 1 2 3 4 5 6 
#
# 1 0.029411 -0.001928 -0.016399 0.000000 0.000000 0.000000
# 2 -0.001928 0.005028 -0.003453 0.000000 0.000000 0.000000
# 3 -0.016399 -0.003453 0.030680 0.000000 0.000000 0.000000
# 4 0.000000 0.000000 0.000000 0.027220 0.000000 0.000000
# 5 0.000000 0.000000 0.000000 0.000000 0.031017 0.000000
# 6 0.000000 0.000000 0.000000 0.000000 0.000000 0.035485
#
#
# Mechanical properties :
#
#
# Convention : Reuss Voigt Hill
#
# Bulk Modulus (GPa) = 46.38138 70.88021 58.63079
# Shear Modulus (GPa) = 23.85646 34.93666 29.39656
#
# Velocity S-wave (km/s) = 3.17119 3.83760 3.52020
# Velocity P-wave (km/s) = 5.74110 7.03670 6.42166
#
# Compressibility (1/GPa) = 0.02156038
#
# Stress axis : x y z
#
# Youngs Moduli (GPa) = 34.00063 198.88185 32.59491
#
# Poissons Ratio (x) = 0.38338 0.53451
# Poissons Ratio (y) = 0.06554 0.11255
# Poissons Ratio (z) = 0.55756 0.68673
#
# Static dielectric constant tensor:
#      x y z
#    x 1.879560 0.000000 0.000000 
#    y 0.000000 1.839070 0.000000 
#    z 0.000000 0.000000 1.956890 
# 
# From -- ./inp_files/9034.got.cif
#   From: 2010.05.17/outbox.cif.g08.bks.cpg/sg50_5_cif.got.tgz:9034.got - 2010.06.03 11:33:33.
