data_PCOD9398371
_publ_section_title
;
Structure prediction by ZEFSAII (Michael W. Deem and Ramdas Pophale) SiO2 
 PCOD9398371
Probable space group: P M M A
;
_chemical_formula_sum "Si O2"
_cell_formula_units_Z 28
_cell_length_a 8.762968
_cell_length_b 18.855301
_cell_length_c 9.824591
_cell_angle_alpha 90.000000
_cell_angle_beta 90.000000
_cell_angle_gamma 90.000000
_cell_volume 1623.301445
_symmetry_space_group_name_H-M "P M M A"
_symmetry_group_IT_number 51
_symmetry_cell_setting 'orthorhombic'
loop_
_space_group_symop_operation_xyz
x,y,z
1/2-x,-y,z
1/2+x,-y,-z
-x,y,-z
-x,-y,-z
1/2+x,y,-z
1/2-x,y,z
x,-y,z
loop_
_atom_site_type_symbol
_atom_site_label
_atom_site_fract_x
_atom_site_fract_y
_atom_site_fract_z
Si Si1 0.932583 0.300980 0.652069
Si Si2 0.932620 0.143402 0.652993
Si Si3 0.432650 0.581343 0.849829
Si Si4 0.432147 0.000000 0.654464
O O1 0.750000 0.307038 0.643963
O O2 0.967270 0.221740 0.709685
O O3 0.000000 0.306131 0.500000
O O4 0.000153 0.362055 0.745788
O O5 0.750000 0.134325 0.646823
O O6 0.000000 0.146422 0.500000
O O7 0.006814 0.073371 0.718210
O O8 0.250000 0.587317 0.854502
O O9 0.471398 0.500000 0.810560
O O10 0.500000 0.593414 0.000000
O O11 0.500000 0.000000 0.500000
O O12 0.250000 0.000000 0.647947
#
# Coordination Sequence:
#
# PCOD9398371 Si02
#       4
#     8   8   8   4
#     4  10  20  33  51  75 103 134 167 206 251 296
#     4   9  16  26  40  61  91 125 160 198 240 285
#     4  10  21  37  56  76  99 129 165 205 248 296
#     4  10  16  22  36  58  87 124 161 196 237 284
#
# _framework density 17.248799000000002
#
# number of rings (size 3 to 8) (size 9 to 14) (size 15 to 20)
#    0.000    2.286    0.000    5.571    0.000    5.714 
#    0.000    0.000    0.000    0.000    0.000    1.000 
#    0.000    0.000    0.000    0.000    0.000    0.000 
#
# Total GULP energy -156043.286167 kJ/mol
# GULP energy per Si atom -5572.974506 kJ/mol
# Density = 1.720954 g / cm^3
# Si number density = 17.248799 Si / 1000 Ang^3
#
#
#
# Elastic Constant Matrix: (Units=GPa)
#
#
# Indices 1 2 3 4 5 6 
#
# 1 100.3497 86.2704 31.9120 0.0000 0.0000 0.0000
# 2 86.2704 205.4925 74.4749 0.0000 0.0000 0.0000
# 3 31.9120 74.4749 39.7654 0.0000 0.0000 0.0000
# 4 0.0000 0.0000 0.0000 -7.5644 0.0000 0.0000
# 5 0.0000 0.0000 0.0000 0.0000 23.0201 0.0000
# 6 0.0000 0.0000 0.0000 0.0000 0.0000 17.5971
#
#
#
# Elastic Compliance Matrix: (Units=1/GPa)
#
#
# Indices 1 2 3 4 5 6 
#
# 1 0.015601 -0.006264 -0.000789 0.000000 0.000000 0.000000
# 2 -0.006264 0.017664 -0.028055 0.000000 0.000000 0.000000
# 3 -0.000789 -0.028055 0.078323 0.000000 0.000000 0.000000
# 4 0.000000 0.000000 0.000000 -0.132199 0.000000 0.000000
# 5 0.000000 0.000000 0.000000 0.000000 0.043440 0.000000
# 6 0.000000 0.000000 0.000000 0.000000 0.000000 0.056828
#
#
# Mechanical properties :
#
#
# Convention : Reuss Voigt Hill
#
# Bulk Modulus (GPa) = 24.17028 81.21358 52.69193
# Shear Modulus (GPa) = 30.55060 16.80725 23.67893
#
# Velocity S-wave (km/s) = 4.21310 3.12493 3.70913
# Velocity P-wave (km/s) = 6.14085 7.75926 6.99700
#
# Compressibility (1/GPa) = 0.04137312
#
# Stress axis : x y z
#
# Youngs Moduli (GPa) = 64.09883 56.61317 12.76762
#
# Poissons Ratio (x) = 0.35461 0.01007
# Poissons Ratio (y) = 0.40150 0.35819
# Poissons Ratio (z) = 0.05055 1.58828
#
# Static dielectric constant tensor:
#      x y z
#    x 1.573510 0.000000 0.000000 
#    y 0.000000 1.656450 0.000000 
#    z 0.000000 0.000000 1.536430 
# 
# From -- ./inp_files/4773.got.cif
#   From: 2010.05.17/outbox.cif.g08.bks.cpg/sg51_3_cif.got.tgz:4773.got - 2010.06.03 11:52:47.
