data_PCOD9398252
_publ_section_title
;
Structure prediction by ZEFSAII (Michael W. Deem and Ramdas Pophale) SiO2 
 PCOD9398252
Probable space group: P B A N
;
_chemical_formula_sum "Si O2"
_cell_formula_units_Z 40
_cell_length_a 15.824164
_cell_length_b 14.072208
_cell_length_c 7.485285
_cell_angle_alpha 90.000000
_cell_angle_beta 90.000000
_cell_angle_gamma 90.000000
_cell_volume 1666.830204
_symmetry_space_group_name_H-M "P B A N"
_symmetry_group_IT_number 50
_space_group.IT_coordinate_system_code '2'
_symmetry_cell_setting 'orthorhombic'
loop_
_space_group_symop_operation_xyz
x,y,z
1/2-x,1/2-y,z
x,1/2-y,-z
1/2-x,y,-z
-x,-y,-z
1/2+x,1/2+y,-z
-x,1/2+y,z
1/2+x,-y,z
loop_
_atom_site_type_symbol
_atom_site_label
_atom_site_fract_x
_atom_site_fract_y
_atom_site_fract_z
Si Si1 0.614971 0.119744 0.368021
Si Si2 0.531034 0.770793 0.815122
Si Si3 0.709906 0.094108 0.685058
Si Si4 0.318073 0.394653 0.761612
Si Si5 0.631172 0.895853 0.349494
O O1 0.531768 0.168916 0.303733
O O2 0.636092 0.145302 0.576919
O O3 0.703363 0.145204 0.261816
O O4 0.603407 0.006020 0.338023
O O5 0.614715 0.832544 0.865996
O O6 0.561662 0.676065 0.719310
O O7 0.484614 0.750000 0.000000
O O8 0.750000 0.044686 0.500000
O O9 0.677006 0.007946 0.801875
O O10 0.217947 0.375885 0.761300
O O11 0.348122 0.376464 0.557115
#
# Coordination Sequence:
#
# PCOD9398252 Si02
#       5
#     8   8   8   8   8
#     4   7  16  34  51  77 107 140 194 241 276 330
#     4  12  23  28  46  86 127 150 167 222 304 368
#     4   6  12  32  59  75  87 140 207 264 271 297
#     4   9  16  34  54  77 104 142 195 246 282 323
#     4   9  18  36  55  72 104 153 200 243 277 312
#
# _framework density 23.997644000000001
#
# number of rings (size 3 to 8) (size 9 to 14) (size 15 to 20)
#    1.200    2.000    2.000    1.200    0.000    7.200 
#    0.000    0.000    0.000    0.000    0.000   50.400 
#    0.000   57.600    0.000    0.000    0.000   55.200 
#
# Total GULP energy -222816.095055 kJ/mol
# GULP energy per Si atom -5570.402376 kJ/mol
# Density = 2.394302 g / cm^3
# Si number density = 23.997644 Si / 1000 Ang^3
#
#
#
# Elastic Constant Matrix: (Units=GPa)
#
#
# Indices 1 2 3 4 5 6 
#
# 1 140.1178 77.7169 35.0153 0.0000 0.0000 0.0000
# 2 77.7169 101.1418 16.7244 0.0000 0.0000 0.0000
# 3 35.0153 16.7244 28.3723 0.0000 0.0000 0.0000
# 4 0.0000 0.0000 0.0000 -163.5212 0.0000 0.0000
# 5 0.0000 0.0000 0.0000 0.0000 11.8817 0.0000
# 6 0.0000 0.0000 0.0000 0.0000 0.0000 22.0733
#
#
#
# Elastic Compliance Matrix: (Units=1/GPa)
#
#
# Indices 1 2 3 4 5 6 
#
# 1 0.016336 -0.010214 -0.014140 0.000000 0.000000 0.000000
# 2 -0.010214 0.017341 0.002384 0.000000 0.000000 0.000000
# 3 -0.014140 0.002384 0.051291 0.000000 0.000000 0.000000
# 4 0.000000 0.000000 0.000000 -0.006115 0.000000 0.000000
# 5 0.000000 0.000000 0.000000 0.000000 0.084163 0.000000
# 6 0.000000 0.000000 0.000000 0.000000 0.000000 0.045304
#
#
# Mechanical properties :
#
#
# Convention : Reuss Voigt Hill
#
# Bulk Modulus (GPa) = 24.37390 58.72724 41.55057
# Shear Modulus (GPa) = 18.80158 -16.56820 1.11669
#
# Velocity S-wave (km/s) = 2.80210 -2.63042 0.68289
# Velocity P-wave (km/s) = 4.54399 3.91149 4.23955
#
# Compressibility (1/GPa) = 0.04102749
#
# Stress axis : x y z
#
# Youngs Moduli (GPa) = 61.21585 57.66517 19.49669
#
# Poissons Ratio (x) = 0.58900 0.27567
# Poissons Ratio (y) = 0.62527 -0.04647
# Poissons Ratio (z) = 0.86556 -0.13745
#
# Static dielectric constant tensor:
#      x y z
#    x 2.057440 0.000000 0.000000 
#    y 0.000000 2.002860 0.000000 
#    z 0.000000 0.000000 1.992720 
# 
# From -- ./inp_files/12761.got.cif
#   From: 2010.05.17/outbox.cif.g08.bks.cpg/sg50_7_cif.got.tgz:12761.got - 2010.06.03 11:33:33.
