data_PCOD9398264
_publ_section_title
;
Structure prediction by ZEFSAII (Michael W. Deem and Ramdas Pophale) SiO2 
 PCOD9398264
Probable space group: P B A N
;
_chemical_formula_sum "Si O2"
_cell_formula_units_Z 32
_cell_length_a 19.610480
_cell_length_b 9.209791
_cell_length_c 7.766573
_cell_angle_alpha 90.000000
_cell_angle_beta 90.000000
_cell_angle_gamma 90.000000
_cell_volume 1402.708496
_symmetry_space_group_name_H-M "P B A N"
_symmetry_group_IT_number 50
_space_group.IT_coordinate_system_code '2'
_symmetry_cell_setting 'orthorhombic'
loop_
_space_group_symop_operation_xyz
x,y,z
1/2-x,1/2-y,z
x,1/2-y,-z
1/2-x,y,-z
-x,-y,-z
1/2+x,1/2+y,-z
-x,1/2+y,z
1/2+x,-y,z
loop_
_atom_site_type_symbol
_atom_site_label
_atom_site_fract_x
_atom_site_fract_y
_atom_site_fract_z
Si Si1 0.828035 0.401645 0.222659
Si Si2 0.671006 0.071325 0.805971
Si Si3 0.056896 0.157614 0.825352
Si Si4 0.541475 0.545493 0.666439
O O1 0.749145 0.440245 0.255840
O O2 0.847691 0.233399 0.257150
O O3 0.879988 0.499974 0.326368
O O4 0.832802 0.421474 0.015303
O O5 0.621605 0.937877 0.765981
O O6 0.036940 0.284839 0.696239
O O7 0.069702 0.250000 0.000000
O O8 0.994340 0.044984 0.821271
O O9 0.500000 0.500000 0.500000
#
# Coordination Sequence:
#
# PCOD9398264 Si02
#       4
#     8   8   8   8
#     4   9  19  39  66  99 138 172 222 290 355 422
#     4   9  19  38  68 102 129 172 232 290 346 413
#     4  12  24  41  67 100 133 185 243 296 347 421
#     4  12  26  42  62  96 143 186 229 293 365 428
#
# _framework density 22.813009000000001
#
# number of rings (size 3 to 8) (size 9 to 14) (size 15 to 20)
#    0.000    1.500    2.500    4.500    3.500    1.000 
#    0.000    1.250    0.000    6.000    0.000    0.000 
#    0.000    0.000    0.000    0.000    0.000    0.000 
#
# Total GULP energy -178853.207079 kJ/mol
# GULP energy per Si atom -5589.162721 kJ/mol
# Density = 2.276109 g / cm^3
# Si number density = 22.813009 Si / 1000 Ang^3
#
#
#
# Elastic Constant Matrix: (Units=GPa)
#
#
# Indices 1 2 3 4 5 6 
#
# 1 113.1663 72.2297 25.4283 0.0000 0.0000 0.0000
# 2 72.2297 164.3545 26.7612 0.0000 0.0000 0.0000
# 3 25.4283 26.7612 76.3305 0.0000 0.0000 0.0000
# 4 0.0000 0.0000 0.0000 30.5795 0.0000 0.0000
# 5 0.0000 0.0000 0.0000 0.0000 20.3783 0.0000
# 6 0.0000 0.0000 0.0000 0.0000 0.0000 54.1932
#
#
#
# Elastic Compliance Matrix: (Units=1/GPa)
#
#
# Indices 1 2 3 4 5 6 
#
# 1 0.012686 -0.005183 -0.002409 0.000000 0.000000 0.000000
# 2 -0.005183 0.008570 -0.001278 0.000000 0.000000 0.000000
# 3 -0.002409 -0.001278 0.014352 0.000000 0.000000 0.000000
# 4 0.000000 0.000000 0.000000 0.032702 0.000000 0.000000
# 5 0.000000 0.000000 0.000000 0.000000 0.049072 0.000000
# 6 0.000000 0.000000 0.000000 0.000000 0.000000 0.018453
#
#
# Mechanical properties :
#
#
# Convention : Reuss Voigt Hill
#
# Bulk Modulus (GPa) = 55.96688 66.96551 61.46619
# Shear Modulus (GPa) = 31.34215 36.32567 33.83391
#
# Velocity S-wave (km/s) = 3.71060 3.99472 3.85528
# Velocity P-wave (km/s) = 6.55318 7.12003 6.84248
#
# Compressibility (1/GPa) = 0.01786771
#
# Stress axis : x y z
#
# Youngs Moduli (GPa) = 78.82781 116.68249 69.67894
#
# Poissons Ratio (x) = 0.60475 0.16786
# Poissons Ratio (y) = 0.40856 0.08906
# Poissons Ratio (z) = 0.18990 0.14913
#
# Static dielectric constant tensor:
#      x y z
#    x 1.841760 0.000000 0.000000 
#    y 0.000000 1.802660 0.000000 
#    z 0.000000 0.000000 1.897950 
# 
# From -- ./inp_files/14826.got.cif
#   From: 2010.05.17/outbox.cif.g08.bks.cpg/sg50_8_cif.got.tgz:14826.got - 2010.06.03 11:33:33.
