data_PCOD9398686
_publ_section_title
;
Structure prediction by ZEFSAII (Michael W. Deem and Ramdas Pophale) SiO2 
 PCOD9398686
Probable space group: P M M A
;
_chemical_formula_sum "Si O2"
_cell_formula_units_Z 64
_cell_length_a 9.369332
_cell_length_b 22.430066
_cell_length_c 20.909665
_cell_angle_alpha 90.000000
_cell_angle_beta 90.000000
_cell_angle_gamma 90.000000
_cell_volume 4394.265110
_symmetry_space_group_name_H-M "P M M A"
_symmetry_group_IT_number 51
_symmetry_cell_setting 'orthorhombic'
loop_
_space_group_symop_operation_xyz
x,y,z
1/2-x,-y,z
1/2+x,-y,-z
-x,y,-z
-x,-y,-z
1/2+x,y,-z
1/2-x,y,z
x,-y,z
loop_
_atom_site_type_symbol
_atom_site_label
_atom_site_fract_x
_atom_site_fract_y
_atom_site_fract_z
Si Si1 0.421349 0.431268 0.431609
Si Si2 0.913159 0.837040 0.171405
Si Si3 0.411339 0.568656 0.791409
Si Si4 0.411642 0.655257 0.132312
Si Si5 0.090580 0.742994 0.943802
Si Si6 0.580751 0.070971 0.066077
Si Si7 0.582934 0.346776 0.332669
Si Si8 0.584586 0.747605 0.747142
O O1 0.500000 0.427996 0.500000
O O2 0.250000 0.422446 0.437108
O O3 0.443124 0.500000 0.407801
O O4 0.493657 0.381808 0.386489
O O5 0.750000 0.848170 0.193825
O O6 0.905030 0.786173 0.116853
O O7 0.966799 0.893445 0.129773
O O8 0.010098 0.807945 0.226637
O O9 0.250000 0.575403 0.817133
O O10 0.436097 0.500000 0.775938
O O11 0.523581 0.594612 0.840993
O O12 0.418241 0.608463 0.727905
O O13 0.250000 0.649472 0.110814
O O14 0.510889 0.683837 0.078770
O O15 0.414209 0.701660 0.192405
O O16 0.250000 0.731502 0.965799
O O17 0.000000 0.771815 0.000000
O O18 0.750000 0.084519 0.058223
O O19 0.564804 0.000000 0.075401
O O20 0.500000 0.086267 0.000000
O O21 0.750000 0.337102 0.350064
O O22 0.506351 0.286487 0.307441
O O23 0.750000 0.756831 0.728779
#
# Coordination Sequence:
#
# PCOD9398686 Si02
#       8
#     8   8   8   8   8   8   8   8
#     4  10  20  32  45  62  86 116 149 182 213 247
#     4   9  17  28  41  58  80 105 133 166 205 245
#     4   9  17  28  42  59  77  97 120 148 186 231
#     4   9  17  28  40  55  74  93 116 148 186 229
#     4  10  18  27  40  56  73  93 118 150 189 233
#     4   9  17  28  41  58  82 112 145 179 213 251
#     4  10  18  29  45  63  84 108 135 168 206 246
#     4   9  17  28  42  60  80 102 130 166 206 245
#
# _framework density 14.564437
#
# number of rings (size 3 to 8) (size 9 to 14) (size 15 to 20)
#    0.000    2.625    0.000    2.625    0.000    6.000 
#    0.000    0.000    0.000    0.375    0.000    0.000 
#    0.000    0.000    0.000    0.000    0.000    0.625 
#
# Total GULP energy -356349.107110 kJ/mol
# GULP energy per Si atom -5567.954799 kJ/mol
# Density = 1.453129 g / cm^3
# Si number density = 14.564437 Si / 1000 Ang^3
#
#
#
# Elastic Constant Matrix: (Units=GPa)
#
#
# Indices 1 2 3 4 5 6 
#
# 1 102.6276 37.9953 36.2415 0.0000 0.0000 0.0000
# 2 37.9953 59.9219 26.6277 0.0000 0.0000 0.0000
# 3 36.2415 26.6277 40.0752 0.0000 0.0000 0.0000
# 4 0.0000 0.0000 0.0000 25.5074 0.0000 0.0000
# 5 0.0000 0.0000 0.0000 0.0000 19.9904 0.0000
# 6 0.0000 0.0000 0.0000 0.0000 0.0000 16.0092
#
#
#
# Elastic Compliance Matrix: (Units=1/GPa)
#
#
# Indices 1 2 3 4 5 6 
#
# 1 0.015321 -0.005049 -0.010501 0.000000 0.000000 0.000000
# 2 -0.005049 0.025344 -0.012274 0.000000 0.000000 0.000000
# 3 -0.010501 -0.012274 0.042605 0.000000 0.000000 0.000000
# 4 0.000000 0.000000 0.000000 0.039204 0.000000 0.000000
# 5 0.000000 0.000000 0.000000 0.000000 0.050024 0.000000
# 6 0.000000 0.000000 0.000000 0.000000 0.000000 0.062464
#
#
# Mechanical properties :
#
#
# Convention : Reuss Voigt Hill
#
# Bulk Modulus (GPa) = 36.20194 44.92822 40.56508
# Shear Modulus (GPa) = 16.67677 19.08539 17.88108
#
# Velocity S-wave (km/s) = 3.38751 3.62389 3.50769
# Velocity P-wave (km/s) = 6.34118 6.95880 6.65716
#
# Compressibility (1/GPa) = 0.02762283
#
# Stress axis : x y z
#
# Youngs Moduli (GPa) = 65.26796 39.45739 23.47134
#
# Poissons Ratio (x) = 0.19920 0.24648
# Poissons Ratio (y) = 0.32951 0.28809
# Poissons Ratio (z) = 0.68540 0.48430
#
# Static dielectric constant tensor:
#      x y z
#    x 1.505570 0.000000 0.000000 
#    y 0.000000 1.484140 0.000000 
#    z 0.000000 0.000000 1.472970 
# 
# From -- ./inp_files/28606.got.cif
#   From: 2010.05.17/outbox.cif.g08.bks.cpg/sg51_15_cif.got.tgz:28606.got - 2010.06.03 11:52:47.
