data_PCOD9398857
_publ_section_title
;
Structure prediction by ZEFSAII (Michael W. Deem and Ramdas Pophale) SiO2 
 PCOD9398857
Probable space group: P M M A
;
_chemical_formula_sum "Si O2"
_cell_formula_units_Z 40
_cell_length_a 14.895411
_cell_length_b 7.297561
_cell_length_c 17.962835
_cell_angle_alpha 90.000000
_cell_angle_beta 90.000000
_cell_angle_gamma 90.000000
_cell_volume 1952.563225
_symmetry_space_group_name_H-M "P M M A"
_symmetry_group_IT_number 51
_symmetry_cell_setting 'orthorhombic'
loop_
_space_group_symop_operation_xyz
x,y,z
1/2-x,-y,z
1/2+x,-y,-z
-x,y,-z
-x,-y,-z
1/2+x,y,-z
1/2-x,y,z
x,-y,z
loop_
_atom_site_type_symbol
_atom_site_label
_atom_site_fract_x
_atom_site_fract_y
_atom_site_fract_z
Si Si1 0.552614 0.213095 0.069570
Si Si2 0.974773 0.777634 0.613904
Si Si3 0.944974 0.775495 0.239104
Si Si4 0.250000 0.282325 0.911781
Si Si5 0.250000 0.796893 0.740728
Si Si6 0.148065 0.777148 0.517484
O O1 0.542026 0.287159 0.153998
O O2 0.657799 0.226374 0.050751
O O3 0.526012 0.000000 0.075167
O O4 0.500000 0.294853 0.000000
O O5 0.981484 0.722782 0.699997
O O6 0.067731 0.722096 0.573079
O O7 0.890397 0.721306 0.563679
O O8 0.974507 0.000000 0.612663
O O9 0.847758 0.713540 0.271231
O O10 0.939218 0.000000 0.236788
O O11 0.250000 0.500000 0.900883
O O12 0.250000 0.191036 0.830658
O O13 0.250000 0.000000 0.705418
O O14 0.250000 0.715554 0.532959
O O15 0.150157 0.000000 0.519595
#
# Coordination Sequence:
#
# PCOD9398857 Si02
#       6
#     8   8   8   4   4   8
#     4   9  17  30  47  63  85 116 147 179 214 255
#     4   8  13  19  28  44  65  92 131 165 189 234
#     4   8  13  21  35  53  71  95 135 172 199 236
#     4  10  18  28  44  66  90 111 138 178 220 265
#     4   8  14  24  38  58  80 105 134 168 208 251
#     4   8  13  19  26  39  65  98 126 157 198 238
#
# _framework density 20.485892
#
# number of rings (size 3 to 8) (size 9 to 14) (size 15 to 20)
#    0.000    3.600    0.000    3.300    1.400    0.400 
#    0.000    0.000    2.200    0.000    0.000    0.000 
#    0.000    0.000    0.000   57.600    6.400   67.200 
#
# Total GULP energy -222740.405334 kJ/mol
# GULP energy per Si atom -5568.510133 kJ/mol
# Density = 2.043927 g / cm^3
# Si number density = 20.485892 Si / 1000 Ang^3
#
#
#
# Elastic Constant Matrix: (Units=GPa)
#
#
# Indices 1 2 3 4 5 6 
#
# 1 62.1167 -12.4160 25.1910 0.0000 0.0000 0.0000
# 2 -12.4160 86.3640 -1.3066 0.0000 0.0000 0.0000
# 3 25.1910 -1.3066 102.0407 0.0000 0.0000 0.0000
# 4 0.0000 0.0000 0.0000 -29.5315 0.0000 0.0000
# 5 0.0000 0.0000 0.0000 0.0000 36.8363 0.0000
# 6 0.0000 0.0000 0.0000 0.0000 0.0000 109.2323
#
#
#
# Elastic Compliance Matrix: (Units=1/GPa)
#
#
# Indices 1 2 3 4 5 6 
#
# 1 0.018449 0.002584 -0.004521 0.000000 0.000000 0.000000
# 2 0.002584 0.011943 -0.000485 0.000000 0.000000 0.000000
# 3 -0.004521 -0.000485 0.010910 0.000000 0.000000 0.000000
# 4 0.000000 0.000000 0.000000 -0.033862 0.000000 0.000000
# 5 0.000000 0.000000 0.000000 0.000000 0.027147 0.000000
# 6 0.000000 0.000000 0.000000 0.000000 0.000000 0.009155
#
#
# Mechanical properties :
#
#
# Convention : Reuss Voigt Hill
#
# Bulk Modulus (GPa) = 27.42969 30.38425 28.90697
# Shear Modulus (GPa) = 82.31943 39.24428 60.78185
#
# Velocity S-wave (km/s) = 6.34592 4.38159 5.45294
# Velocity P-wave (km/s) = 8.19225 6.36096 7.33398
#
# Compressibility (1/GPa) = 0.03645684
#
# Stress axis : x y z
#
# Youngs Moduli (GPa) = 54.20398 83.73084 91.65894
#
# Poissons Ratio (x) = -0.21635 0.41443
# Poissons Ratio (y) = -0.14006 0.04445
# Poissons Ratio (z) = 0.24508 0.04061
#
# Static dielectric constant tensor:
#      x y z
#    x 1.737320 0.000000 0.000000 
#    y 0.000000 1.821640 0.000000 
#    z 0.000000 0.000000 1.750000 
# 
# From -- ./inp_files/33179.got.cif
#   From: 2010.05.17/outbox.cif.g08.bks.cpg/sg51_17_cif.got.tgz:33179.got - 2010.06.03 11:52:47.
