data_PCOD9398061
_publ_section_title
;
Structure prediction by ZEFSAII (Michael W. Deem and Ramdas Pophale) SiO2 
 PCOD9398061
Probable space group: P B A N
;
_chemical_formula_sum "Si O2"
_cell_formula_units_Z 58
_cell_length_a 18.205657
_cell_length_b 14.190112
_cell_length_c 11.539207
_cell_angle_alpha 90.000000
_cell_angle_beta 90.000000
_cell_angle_gamma 90.000000
_cell_volume 2981.042335
_symmetry_space_group_name_H-M "P B A N"
_symmetry_group_IT_number 50
_space_group.IT_coordinate_system_code '2'
_symmetry_cell_setting 'orthorhombic'
loop_
_space_group_symop_operation_xyz
x,y,z
1/2-x,1/2-y,z
x,1/2-y,-z
1/2-x,y,-z
-x,-y,-z
1/2+x,1/2+y,-z
-x,1/2+y,z
1/2+x,-y,z
loop_
_atom_site_type_symbol
_atom_site_label
_atom_site_fract_x
_atom_site_fract_y
_atom_site_fract_z
Si Si1 0.756402 0.914655 0.860730
Si Si2 0.173879 0.613218 0.821895
Si Si3 0.019033 0.509492 0.866237
Si Si4 0.330154 0.656819 0.443053
Si Si5 0.750000 0.250000 0.000000
Si Si6 0.104623 0.372559 0.265130
Si Si7 0.094840 0.345990 0.744675
Si Si8 0.416026 0.034820 0.510456
O O1 0.682467 0.880431 0.799501
O O2 0.827444 0.860409 0.810729
O O3 0.771098 0.023893 0.827658
O O4 0.750000 0.905879 0.000000
O O5 0.093790 0.568796 0.846120
O O6 0.174934 0.661067 0.695804
O O7 0.199255 0.685578 0.919018
O O8 0.034897 0.405858 0.815532
O O9 0.953892 0.562297 0.800779
O O10 0.000000 0.500000 0.000000
O O11 0.365862 0.750000 0.500000
O O12 0.250000 0.650556 0.500000
O O13 0.371293 0.560866 0.471740
O O14 0.079362 0.264137 0.265306
O O15 0.108684 0.411432 0.395257
O O16 0.096767 0.397458 0.620300
O O17 0.500000 0.000000 0.500000
#
# Coordination Sequence:
#
# PCOD9398061 Si02
#       8
#     8   8   8   8   2   8   8   8
#     4  11  23  45  71  97 139 182 224 286 338 402
#     4  11  23  44  62  99 144 169 229 290 328 408
#     4  11  25  46  66  97 138 178 225 285 342 400
#     4  11  23  43  70  98 131 176 221 277 347 406
#     4  12  24  36  74 104 126 192 230 274 352 400
#     4  12  25  42  73 101 128 189 226 272 356 406
#     4  11  25  46  67 100 141 169 229 289 334 412
#     4  12  24  45  66  99 139 176 223 282 339 404
#
# _framework density 19.456282000000002
#
# number of rings (size 3 to 8) (size 9 to 14) (size 15 to 20)
#    0.000    0.690    4.828    4.138    0.000    6.069 
#    0.000    1.379    0.000    0.000    0.000    0.000 
#    0.000    0.000    0.000    0.000    0.000    0.000 
#
# Total GULP energy -324432.807915 kJ/mol
# GULP energy per Si atom -5593.669102 kJ/mol
# Density = 1.941200 g / cm^3
# Si number density = 19.456282 Si / 1000 Ang^3
#
#
#
# Elastic Constant Matrix: (Units=GPa)
#
#
# Indices 1 2 3 4 5 6 
#
# 1 70.2332 35.4593 37.2436 0.0000 0.0000 0.0000
# 2 35.4593 134.5937 68.8198 0.0000 0.0000 0.0000
# 3 37.2436 68.8198 201.1251 0.0000 0.0000 0.0000
# 4 0.0000 0.0000 0.0000 23.6872 0.0000 0.0000
# 5 0.0000 0.0000 0.0000 0.0000 33.4383 0.0000
# 6 0.0000 0.0000 0.0000 0.0000 0.0000 13.0869
#
#
#
# Elastic Compliance Matrix: (Units=1/GPa)
#
#
# Indices 1 2 3 4 5 6 
#
# 1 0.017039 -0.003485 -0.001963 0.000000 0.000000 0.000000
# 2 -0.003485 0.009718 -0.002680 0.000000 0.000000 0.000000
# 3 -0.001963 -0.002680 0.006252 0.000000 0.000000 0.000000
# 4 0.000000 0.000000 0.000000 0.042217 0.000000 0.000000
# 5 0.000000 0.000000 0.000000 0.000000 0.029906 0.000000
# 6 0.000000 0.000000 0.000000 0.000000 0.000000 0.076412
#
#
# Mechanical properties :
#
#
# Convention : Reuss Voigt Hill
#
# Bulk Modulus (GPa) = 59.68852 76.55526 68.12189
# Shear Modulus (GPa) = 24.58392 31.67109 28.12751
#
# Velocity S-wave (km/s) = 3.55850 4.03899 3.80633
# Velocity P-wave (km/s) = 6.90136 7.82202 7.37607
#
# Compressibility (1/GPa) = 0.01675364
#
# Stress axis : x y z
#
# Youngs Moduli (GPa) = 58.68988 102.89855 159.93737
#
# Poissons Ratio (x) = 0.35865 0.31388
# Poissons Ratio (y) = 0.20456 0.42862
# Poissons Ratio (z) = 0.11518 0.27576
#
# Static dielectric constant tensor:
#      x y z
#    x 1.665000 0.000000 0.000000 
#    y 0.000000 1.679660 0.000000 
#    z 0.000000 0.000000 1.696040 
# 
# From -- ./inp_files/21912.got.cif
#   From: 2010.05.17/outbox.cif.g08.bks.cpg/sg50_11_cif.got.tgz:21912.got - 2010.06.03 11:33:33.
