data_PCOD9398360
_publ_section_title
;
Structure prediction by ZEFSAII (Michael W. Deem and Ramdas Pophale) SiO2 
 PCOD9398360
Probable space group: P M M A
;
_chemical_formula_sum "Si O2"
_cell_formula_units_Z 44
_cell_length_a 8.669707
_cell_length_b 29.289521
_cell_length_c 9.373941
_cell_angle_alpha 90.000000
_cell_angle_beta 90.000000
_cell_angle_gamma 90.000000
_cell_volume 2380.339511
_symmetry_space_group_name_H-M "P M M A"
_symmetry_group_IT_number 51
_symmetry_cell_setting 'orthorhombic'
loop_
_space_group_symop_operation_xyz
x,y,z
1/2-x,-y,z
1/2+x,-y,-z
-x,y,-z
-x,-y,-z
1/2+x,y,-z
1/2-x,y,z
x,-y,z
loop_
_atom_site_type_symbol
_atom_site_label
_atom_site_fract_x
_atom_site_fract_y
_atom_site_fract_z
Si Si1 0.064985 0.906876 0.161657
Si Si2 0.933685 0.000000 0.162568
Si Si3 0.435614 0.806256 0.160159
Si Si4 0.934342 0.446603 0.657412
Si Si5 0.064228 0.281816 0.340666
Si Si6 0.434042 0.365882 0.841292
O O1 0.250000 0.911434 0.157978
O O2 0.022975 0.856683 0.219781
O O3 0.994075 0.952626 0.229106
O O4 0.000000 0.905366 0.000000
O O5 0.750000 0.000000 0.156156
O O6 0.000000 0.000000 0.000000
O O7 0.250000 0.805254 0.149630
O O8 0.484736 0.764553 0.259460
O O9 0.500000 0.801102 0.000000
O O10 0.750000 0.440097 0.657237
O O11 0.966653 0.500000 0.687050
O O12 0.000000 0.436262 0.500000
O O13 0.011306 0.413105 0.770247
O O14 0.250000 0.283688 0.343252
O O15 0.000000 0.282445 0.500000
O O16 0.000641 0.324897 0.253966
O O17 0.250000 0.363550 0.844022
O O18 0.500000 0.361936 0.000000
#
# Coordination Sequence:
#
# PCOD9398360 Si02
#       6
#     8   4   8   8   8   8
#     4   9  15  25  40  62  92 128 165 206 255 308
#     4  10  16  22  34  58  91 128 165 204 250 304
#     4   9  19  33  52  76 104 136 174 218 267 320
#     4  10  21  39  63  90 120 155 193 232 275 324
#     4  11  23  40  59  82 110 143 183 226 273 328
#     4  12  25  41  61  86 116 150 187 230 278 328
#
# _framework density 18.484759
#
# number of rings (size 3 to 8) (size 9 to 14) (size 15 to 20)
#    0.000    1.818    0.000    6.273    0.000    5.091 
#    0.000    0.000    0.000    0.000    0.000    0.636 
#    0.000    0.000    0.000    0.000    0.000    0.000 
#
# Total GULP energy -245642.419543 kJ/mol
# GULP energy per Si atom -5582.782262 kJ/mol
# Density = 1.844269 g / cm^3
# Si number density = 18.484759 Si / 1000 Ang^3
#
#
#
# Elastic Constant Matrix: (Units=GPa)
#
#
# Indices 1 2 3 4 5 6 
#
# 1 100.3861 65.3630 43.9181 0.0000 0.0000 0.0000
# 2 65.3630 144.0469 86.4459 0.0000 0.0000 0.0000
# 3 43.9181 86.4459 108.1008 0.0000 0.0000 0.0000
# 4 0.0000 0.0000 0.0000 4.6994 0.0000 0.0000
# 5 0.0000 0.0000 0.0000 0.0000 26.5927 0.0000
# 6 0.0000 0.0000 0.0000 0.0000 0.0000 28.3460
#
#
#
# Elastic Compliance Matrix: (Units=1/GPa)
#
#
# Indices 1 2 3 4 5 6 
#
# 1 0.014218 -0.005739 -0.001187 0.000000 0.000000 0.000000
# 2 -0.005739 0.015665 -0.010195 0.000000 0.000000 0.000000
# 3 -0.001187 -0.010195 0.017885 0.000000 0.000000 0.000000
# 4 0.000000 0.000000 0.000000 0.212793 0.000000 0.000000
# 5 0.000000 0.000000 0.000000 0.000000 0.037604 0.000000
# 6 0.000000 0.000000 0.000000 0.000000 0.000000 0.035278
#
#
# Mechanical properties :
#
#
# Convention : Reuss Voigt Hill
#
# Bulk Modulus (GPa) = 73.93208 82.66529 78.29869
# Shear Modulus (GPa) = 13.43384 22.38141 17.90763
#
# Velocity S-wave (km/s) = 2.69876 3.48343 3.11590
# Velocity P-wave (km/s) = 7.05650 7.81006 7.44282
#
# Compressibility (1/GPa) = 0.01352593
#
# Stress axis : x y z
#
# Youngs Moduli (GPa) = 70.33526 63.83757 55.91128
#
# Poissons Ratio (x) = 0.36638 0.06634
# Poissons Ratio (y) = 0.40368 0.57002
# Poissons Ratio (z) = 0.08346 0.65083
#
# Static dielectric constant tensor:
#      x y z
#    x 1.617210 0.000000 0.000000 
#    y 0.000000 1.686660 0.000000 
#    z 0.000000 0.000000 1.590510 
# 
# From -- ./inp_files/5803.got.cif
#   From: 2010.05.17/outbox.cif.g08.bks.cpg/sg51_3_cif.got.tgz:5803.got - 2010.06.03 11:52:47.
