data_PCOD9398957
_publ_section_title
;
Structure prediction by ZEFSAII (Michael W. Deem and Ramdas Pophale) SiO2 
 PCOD9398957
Probable space group: P M M A
;
_chemical_formula_sum "Si O2"
_cell_formula_units_Z 64
_cell_length_a 8.902163
_cell_length_b 27.111516
_cell_length_c 18.999331
_cell_angle_alpha 90.000000
_cell_angle_beta 90.000000
_cell_angle_gamma 90.000000
_cell_volume 4585.510094
_symmetry_space_group_name_H-M "P M M A"
_symmetry_group_IT_number 51
_symmetry_cell_setting 'orthorhombic'
loop_
_space_group_symop_operation_xyz
x,y,z
1/2-x,-y,z
1/2+x,-y,-z
-x,y,-z
-x,-y,-z
1/2+x,y,-z
1/2-x,y,z
x,-y,z
loop_
_atom_site_type_symbol
_atom_site_label
_atom_site_fract_x
_atom_site_fract_y
_atom_site_fract_z
Si Si1 0.429371 0.742426 0.076397
Si Si2 0.069291 0.647274 0.170352
Si Si3 0.431157 0.443363 0.075969
Si Si4 0.928049 0.298378 0.291850
Si Si5 0.429198 0.942347 0.576102
Si Si6 0.570678 0.206135 0.788084
Si Si7 0.570689 0.855327 0.659325
Si Si8 0.931052 0.761771 0.422986
O O1 0.250000 0.740312 0.068324
O O2 0.475213 0.692301 0.117873
O O3 0.465381 0.787648 0.129659
O O4 0.500000 0.745945 0.000000
O O5 0.250000 0.648298 0.174848
O O6 0.021683 0.596234 0.134330
O O7 0.004816 0.658173 0.247638
O O8 0.250000 0.441126 0.070443
O O9 0.473280 0.500000 0.092406
O O10 0.500000 0.430707 0.000000
O O11 0.750000 0.304132 0.287842
O O12 0.968479 0.284759 0.372187
O O13 0.980024 0.249337 0.250409
O O14 0.500000 0.930194 0.500000
O O15 0.250000 0.935990 0.572638
O O16 0.499122 0.905876 0.633096
O O17 0.461663 0.000000 0.590390
O O18 0.750000 0.216892 0.781253
O O19 0.542093 0.157795 0.741514
O O20 0.750000 0.855856 0.648170
O O21 0.499607 0.810763 0.613501
O O22 0.750000 0.766585 0.425763
O O23 0.000000 0.756420 0.500000
#
# Coordination Sequence:
#
# PCOD9398957 Si02
#       8
#     8   8   8   8   8   8   8   8
#     4   9  16  25  37  55  78 103 132 161 191 229
#     4   9  17  28  40  54  77 108 136 163 198 238
#     4   9  17  28  41  58  80 106 137 171 203 235
#     4   9  17  27  40  58  77  99 131 167 195 227
#     4  10  20  32  44  59  81 107 135 168 201 232
#     4   8  16  29  41  55  78 106 132 160 196 236
#     4  10  18  29  45  60  78 107 138 166 197 233
#     4  10  19  29  41  59  82 106 133 163 195 234
#
# _framework density 13.957007000000001
#
# number of rings (size 3 to 8) (size 9 to 14) (size 15 to 20)
#    0.000    2.750    0.000    3.000    0.000    5.250 
#    0.000    0.000    0.000    0.000    0.000    0.000 
#    0.000    1.000    0.000    2.250    0.000    3.750 
#
# Total GULP energy -356275.012340 kJ/mol
# GULP energy per Si atom -5566.797068 kJ/mol
# Density = 1.392524 g / cm^3
# Si number density = 13.957007 Si / 1000 Ang^3
#
#
#
# Elastic Constant Matrix: (Units=GPa)
#
#
# Indices 1 2 3 4 5 6 
#
# 1 28.4230 25.7094 31.6423 0.0000 0.0000 0.0000
# 2 25.7094 64.7097 42.1230 0.0000 0.0000 0.0000
# 3 31.6423 42.1230 98.3799 0.0000 0.0000 0.0000
# 4 0.0000 0.0000 0.0000 27.5723 0.0000 0.0000
# 5 0.0000 0.0000 0.0000 0.0000 23.0639 0.0000
# 6 0.0000 0.0000 0.0000 0.0000 0.0000 16.8611
#
#
#
# Elastic Compliance Matrix: (Units=1/GPa)
#
#
# Indices 1 2 3 4 5 6 
#
# 1 0.066326 -0.017282 -0.013933 0.000000 0.000000 0.000000
# 2 -0.017282 0.025928 -0.005543 0.000000 0.000000 0.000000
# 3 -0.013933 -0.005543 0.017019 0.000000 0.000000 0.000000
# 4 0.000000 0.000000 0.000000 0.036268 0.000000 0.000000
# 5 0.000000 0.000000 0.000000 0.000000 0.043358 0.000000
# 6 0.000000 0.000000 0.000000 0.000000 0.000000 0.059308
#
#
# Mechanical properties :
#
#
# Convention : Reuss Voigt Hill
#
# Bulk Modulus (GPa) = 27.96626 43.38466 35.67546
# Shear Modulus (GPa) = 14.98606 19.63531 17.31069
#
# Velocity S-wave (km/s) = 3.28034 3.75486 3.52559
# Velocity P-wave (km/s) = 5.86757 7.06757 6.49535
#
# Compressibility (1/GPa) = 0.03575737
#
# Stress axis : x y z
#
# Youngs Moduli (GPa) = 15.07702 38.56822 58.75627
#
# Poissons Ratio (x) = 0.66653 0.81866
# Poissons Ratio (y) = 0.26056 0.32569
# Poissons Ratio (z) = 0.21007 0.21379
#
# Static dielectric constant tensor:
#      x y z
#    x 1.469040 0.000000 0.000000 
#    y 0.000000 1.459300 0.000000 
#    z 0.000000 0.000000 1.467360 
# 
# From -- ./inp_files/28702.got.cif
#   From: 2010.05.17/outbox.cif.g08.bks.cpg/sg51_15_cif.got.tgz:28702.got - 2010.06.03 11:52:47.
