data_PCOD9398755
_publ_section_title
;
Structure prediction by ZEFSAII (Michael W. Deem and Ramdas Pophale) SiO2 
 PCOD9398755
Probable space group: P M M A
;
_chemical_formula_sum "Si O2"
_cell_formula_units_Z 56
_cell_length_a 27.784166
_cell_length_b 7.861778
_cell_length_c 14.955351
_cell_angle_alpha 90.000000
_cell_angle_beta 90.000000
_cell_angle_gamma 90.000000
_cell_volume 3266.741363
_symmetry_space_group_name_H-M "P M M A"
_symmetry_group_IT_number 51
_symmetry_cell_setting 'orthorhombic'
loop_
_space_group_symop_operation_xyz
x,y,z
1/2-x,-y,z
1/2+x,-y,-z
-x,y,-z
-x,-y,-z
1/2+x,y,-z
1/2-x,y,z
x,-y,z
loop_
_atom_site_type_symbol
_atom_site_label
_atom_site_fract_x
_atom_site_fract_y
_atom_site_fract_z
Si Si1 0.878379 0.804130 0.025313
Si Si2 0.958095 0.303490 0.888275
Si Si3 0.540716 0.707628 0.377894
Si Si4 0.441445 0.701486 0.819695
Si Si5 0.067865 0.294884 0.430034
Si Si6 0.804883 0.791987 0.878911
Si Si7 0.886174 0.200502 0.743440
O O1 0.895088 0.726416 0.118756
O O2 0.867621 0.000000 0.042429
O O3 0.924196 0.789444 0.958909
O O4 0.834365 0.731670 0.966548
O O5 0.961182 0.500000 0.918171
O O6 0.929449 0.294902 0.794690
O O7 0.011032 0.230885 0.870832
O O8 0.541526 0.500000 0.378483
O O9 0.559615 0.767566 0.281794
O O10 0.484928 0.757396 0.392865
O O11 0.569375 0.762267 0.466767
O O12 0.450385 0.500000 0.812567
O O13 0.069002 0.500000 0.429087
O O14 0.107913 0.231376 0.361405
O O15 0.750000 0.733656 0.875713
O O16 0.836963 0.745284 0.792416
O O17 0.804429 0.000000 0.881894
O O18 0.892274 0.000000 0.761288
#
# Coordination Sequence:
#
# PCOD9398755 Si02
#       7
#     8   8   8   8   8   8   8
#     4  10  20  30  43  65  88 110 141 185 229 261
#     4  10  18  29  44  60  84 122 156 177 203 253
#     4   8  15  27  44  62  83 120 162 182 194 241
#     4  10  18  29  43  61  86 121 156 178 203 252
#     4   9  15  28  46  62  85 119 155 182 206 248
#     4   8  16  32  49  63  83 113 145 176 219 277
#     4  10  18  27  44  69  92 112 142 186 230 263
#
# _framework density 17.142465000000001
#
# number of rings (size 3 to 8) (size 9 to 14) (size 15 to 20)
#    0.000    2.714    1.429    3.429    0.000    2.857 
#    0.000    2.143    0.000   15.429    0.000    1.000 
#    0.000    8.000    0.000    0.000    0.000    0.000 
#
# Total GULP energy -312037.083373 kJ/mol
# GULP energy per Si atom -5572.090775 kJ/mol
# Density = 1.710345 g / cm^3
# Si number density = 17.142465 Si / 1000 Ang^3
#
#
#
# Elastic Constant Matrix: (Units=GPa)
#
#
# Indices 1 2 3 4 5 6 
#
# 1 98.1745 3.1626 56.4985 0.0000 0.0000 0.0000
# 2 3.1626 18.9268 -3.2225 0.0000 0.0000 0.0000
# 3 56.4985 -3.2225 106.8528 0.0000 0.0000 0.0000
# 4 0.0000 0.0000 0.0000 -8.7614 0.0000 0.0000
# 5 0.0000 0.0000 0.0000 0.0000 13.8353 0.0000
# 6 0.0000 0.0000 0.0000 0.0000 0.0000 11.9469
#
#
#
# Elastic Compliance Matrix: (Units=1/GPa)
#
#
# Indices 1 2 3 4 5 6 
#
# 1 0.014916 -0.003855 -0.008003 0.000000 0.000000 0.000000
# 2 -0.003855 0.054104 0.003670 0.000000 0.000000 0.000000
# 3 -0.008003 0.003670 0.013701 0.000000 0.000000 0.000000
# 4 0.000000 0.000000 0.000000 -0.114137 0.000000 0.000000
# 5 0.000000 0.000000 0.000000 0.000000 0.072279 0.000000
# 6 0.000000 0.000000 0.000000 0.000000 0.000000 0.083704
#
#
# Mechanical properties :
#
#
# Convention : Reuss Voigt Hill
#
# Bulk Modulus (GPa) = 15.07276 37.42570 26.24923
# Shear Modulus (GPa) = 30.66410 14.57186 22.61798
#
# Velocity S-wave (km/s) = 4.23399 2.91872 3.63631
# Velocity P-wave (km/s) = 5.71961 5.76525 5.74247
#
# Compressibility (1/GPa) = 0.06634485
#
# Stress axis : x y z
#
# Youngs Moduli (GPa) = 67.04313 18.48291 72.98769
#
# Poissons Ratio (x) = 0.07125 0.58412
# Poissons Ratio (y) = 0.25845 -0.26787
# Poissons Ratio (z) = 0.53655 -0.06783
#
# Static dielectric constant tensor:
#      x y z
#    x 1.561200 0.000000 0.000000 
#    y 0.000000 1.624210 0.000000 
#    z 0.000000 0.000000 1.624920 
# 
# From -- ./inp_files/26497.got.cif
#   From: 2010.05.17/outbox.cif.g08.bks.cpg/sg51_14_cif.got.tgz:26497.got - 2010.06.03 11:52:47.
