data_PCOD9398244
_publ_section_title
;
Structure prediction by ZEFSAII (Michael W. Deem and Ramdas Pophale) SiO2 
 PCOD9398244
Probable space group: P B A N
;
_chemical_formula_sum "Si O2"
_cell_formula_units_Z 46
_cell_length_a 21.944121
_cell_length_b 8.662124
_cell_length_c 12.109369
_cell_angle_alpha 90.000000
_cell_angle_beta 90.000000
_cell_angle_gamma 90.000000
_cell_volume 2301.781521
_symmetry_space_group_name_H-M "P B A N"
_symmetry_group_IT_number 50
_space_group.IT_coordinate_system_code '2'
_symmetry_cell_setting 'orthorhombic'
loop_
_space_group_symop_operation_xyz
x,y,z
1/2-x,1/2-y,z
x,1/2-y,-z
1/2-x,y,-z
-x,-y,-z
1/2+x,1/2+y,-z
-x,1/2+y,z
1/2+x,-y,z
loop_
_atom_site_type_symbol
_atom_site_label
_atom_site_fract_x
_atom_site_fract_y
_atom_site_fract_z
Si Si1 0.184866 0.946177 0.626495
Si Si2 0.534484 0.707089 0.119543
Si Si3 0.841864 0.535238 0.866436
Si Si4 0.750000 0.750000 0.000000
Si Si5 0.919524 0.041652 0.814227
Si Si6 0.826227 0.073641 0.618195
Si Si7 0.146418 0.750000 0.000000
O O1 0.159497 0.987006 0.505293
O O2 0.177619 0.760346 0.625191
O O3 0.256926 0.980933 0.636757
O O4 0.156493 0.021845 0.734310
O O5 0.589623 0.586926 0.102053
O O6 0.482583 0.636770 0.197363
O O7 0.562668 0.866742 0.159714
O O8 0.506805 0.750000 0.000000
O O9 0.822424 0.369702 0.916352
O O10 0.794253 0.652762 0.920156
O O11 0.874897 0.032963 0.710354
O O12 0.886637 0.132290 0.914598
#
# Coordination Sequence:
#
# PCOD9398244 Si02
#       7
#     8   8   8   2   8   8   4
#     4   9  20  39  69  90 130 162 214 270 331 384
#     4  12  24  41  60  93 136 173 217 268 338 395
#     4  12  25  41  63  98 136 175 212 276 336 394
#     4  12  28  40  60 102 146 170 216 282 330 402
#     4  12  23  40  66  92 130 169 226 269 327 401
#     4   9  20  40  65 100 117 167 220 272 318 399
#     4  12  22  38  66  98 125 173 220 268 336 398
#
# _framework density 19.984521000000001
#
# number of rings (size 3 to 8) (size 9 to 14) (size 15 to 20)
#    0.000    1.043    5.217    2.609    4.870    0.348 
#    0.000    1.739    0.000    0.000    0.000    0.000 
#    0.000    0.000    0.000    0.000    0.000    0.000 
#
# Total GULP energy -256593.598328 kJ/mol
# GULP energy per Si atom -5578.121703 kJ/mol
# Density = 1.993903 g / cm^3
# Si number density = 19.984521 Si / 1000 Ang^3
#
#
#
# Elastic Constant Matrix: (Units=GPa)
#
#
# Indices 1 2 3 4 5 6 
#
# 1 61.1727 17.0431 63.2553 0.0000 0.0000 0.0000
# 2 17.0431 72.2453 45.8412 0.0000 0.0000 0.0000
# 3 63.2553 45.8412 159.4260 0.0000 0.0000 0.0000
# 4 0.0000 0.0000 0.0000 21.0764 0.0000 0.0000
# 5 0.0000 0.0000 0.0000 0.0000 -4.5815 0.0000
# 6 0.0000 0.0000 0.0000 0.0000 0.0000 -34.0523
#
#
#
# Elastic Compliance Matrix: (Units=1/GPa)
#
#
# Indices 1 2 3 4 5 6 
#
# 1 0.027737 0.000538 -0.011160 0.000000 0.000000 0.000000
# 2 0.000538 0.016941 -0.005085 0.000000 0.000000 0.000000
# 3 -0.011160 -0.005085 0.012162 0.000000 0.000000 0.000000
# 4 0.000000 0.000000 0.000000 0.047446 0.000000 0.000000
# 5 0.000000 0.000000 0.000000 0.000000 -0.218271 0.000000
# 6 0.000000 0.000000 0.000000 0.000000 0.000000 -0.029367
#
#
# Mechanical properties :
#
#
# Convention : Reuss Voigt Hill
#
# Bulk Modulus (GPa) = 39.32770 60.56923 49.94846
# Shear Modulus (GPa) = -48.32751 7.60216 -20.36268
#
# Velocity S-wave (km/s) = -4.92290 1.95251 -3.19552
# Velocity P-wave (km/s) = 3.54845 5.95457 3.38123
#
# Compressibility (1/GPa) = 0.02542737
#
# Stress axis : x y z
#
# Youngs Moduli (GPa) = 36.05270 59.02779 82.22038
#
# Poissons Ratio (x) = -0.03175 0.91757
# Poissons Ratio (y) = -0.01939 0.41806
# Poissons Ratio (z) = 0.40234 0.30014
#
# Static dielectric constant tensor:
#      x y z
#    x 1.724190 0.000000 0.000000 
#    y 0.000000 1.706090 0.000000 
#    z 0.000000 0.000000 1.737770 
# 
# From -- ./inp_files/22794.got.cif
#   From: 2010.05.17/outbox.cif.g08.bks.cpg/sg50_12_cif.got.tgz:22794.got - 2010.06.03 11:33:33.
