data_PCOD9398181
_publ_section_title
;
Structure prediction by ZEFSAII (Michael W. Deem and Ramdas Pophale) SiO2 
 PCOD9398181
Probable space group: P B A N
;
_chemical_formula_sum "Si O2"
_cell_formula_units_Z 40
_cell_length_a 15.394472
_cell_length_b 15.176041
_cell_length_c 7.897097
_cell_angle_alpha 90.000000
_cell_angle_beta 90.000000
_cell_angle_gamma 90.000000
_cell_volume 1844.976173
_symmetry_space_group_name_H-M "P B A N"
_symmetry_group_IT_number 50
_space_group.IT_coordinate_system_code '2'
_symmetry_cell_setting 'orthorhombic'
loop_
_space_group_symop_operation_xyz
x,y,z
1/2-x,1/2-y,z
x,1/2-y,-z
1/2-x,y,-z
-x,-y,-z
1/2+x,1/2+y,-z
-x,1/2+y,z
1/2+x,-y,z
loop_
_atom_site_type_symbol
_atom_site_label
_atom_site_fract_x
_atom_site_fract_y
_atom_site_fract_z
Si Si1 0.028390 0.730813 0.806672
Si Si2 0.720756 0.525162 0.185856
Si Si3 0.664070 0.793209 0.687341
Si Si4 0.063948 0.923292 0.706748
Si Si5 0.097018 0.957115 0.316080
O O1 0.924906 0.722118 0.783908
O O2 0.055850 0.818244 0.706175
O O3 0.070290 0.639446 0.748772
O O4 0.050224 0.750000 0.000000
O O5 0.685431 0.603719 0.303961
O O6 0.640987 0.456795 0.172276
O O7 0.805891 0.482062 0.266097
O O8 0.750000 0.557319 0.000000
O O9 0.750000 0.750000 0.764814
O O10 0.654391 0.750000 0.500000
O O11 0.087889 0.954126 0.518313
O O12 0.972604 0.970519 0.750896
#
# Coordination Sequence:
#
# PCOD9398181 Si02
#       5
#     8   8   8   8   8
#     4  12  26  44  72 106 144 185 239 303 359 421
#     4  12  27  44  72 108 145 187 238 301 364 417
#     4  11  26  42  69 102 144 182 242 287 353 429
#     4  11  25  45  74 102 143 195 239 294 357 434
#     4  11  25  46  73 101 146 191 245 288 358 437
#
# _framework density 21.680496999999999
#
# number of rings (size 3 to 8) (size 9 to 14) (size 15 to 20)
#    0.000    0.600    2.000    4.800   14.000    2.400 
#    0.000    4.000    0.000    0.000    0.000    0.000 
#    0.000    0.000    0.000    0.000    0.000    0.000 
#
# Total GULP energy -223885.308600 kJ/mol
# GULP energy per Si atom -5597.132715 kJ/mol
# Density = 2.163115 g / cm^3
# Si number density = 21.680497 Si / 1000 Ang^3
#
#
#
# Elastic Constant Matrix: (Units=GPa)
#
#
# Indices 1 2 3 4 5 6 
#
# 1 91.9246 31.2050 5.2445 0.0000 0.0000 0.0000
# 2 31.2050 132.4837 18.0123 0.0000 0.0000 0.0000
# 3 5.2445 18.0123 62.0196 0.0000 0.0000 0.0000
# 4 0.0000 0.0000 0.0000 21.6044 0.0000 0.0000
# 5 0.0000 0.0000 0.0000 0.0000 23.5825 0.0000
# 6 0.0000 0.0000 0.0000 0.0000 0.0000 42.3573
#
#
#
# Elastic Compliance Matrix: (Units=1/GPa)
#
#
# Indices 1 2 3 4 5 6 
#
# 1 0.011826 -0.002758 -0.000199 0.000000 0.000000 0.000000
# 2 -0.002758 0.008502 -0.002236 0.000000 0.000000 0.000000
# 3 -0.000199 -0.002236 0.016790 0.000000 0.000000 0.000000
# 4 0.000000 0.000000 0.000000 0.046287 0.000000 0.000000
# 5 0.000000 0.000000 0.000000 0.000000 0.042404 0.000000
# 6 0.000000 0.000000 0.000000 0.000000 0.000000 0.023609
#
#
# Mechanical properties :
#
#
# Convention : Reuss Voigt Hill
#
# Bulk Modulus (GPa) = 37.40896 43.92796 40.66846
# Shear Modulus (GPa) = 29.63572 32.97323 31.30447
#
# Velocity S-wave (km/s) = 3.70121 3.90406 3.80399
# Velocity P-wave (km/s) = 5.96300 6.37399 6.17192
#
# Compressibility (1/GPa) = 0.02673156
#
# Stress axis : x y z
#
# Youngs Moduli (GPa) = 84.55774 117.62187 59.55881
#
# Poissons Ratio (x) = 0.32446 0.01185
# Poissons Ratio (y) = 0.23325 0.13317
# Poissons Ratio (z) = 0.01682 0.26299
#
# Static dielectric constant tensor:
#      x y z
#    x 1.753540 0.000000 0.000000 
#    y 0.000000 1.364960 0.000000 
#    z 0.000000 0.000000 1.804260 
# 
# From -- ./inp_files/12563.got.cif
#   From: 2010.05.17/outbox.cif.g08.bks.cpg/sg50_7_cif.got.tgz:12563.got - 2010.06.03 11:33:33.
