data_PCOD9398293
_publ_section_title
;
Structure prediction by ZEFSAII (Michael W. Deem and Ramdas Pophale) SiO2 
 PCOD9398293
Probable space group: P B A N
;
_chemical_formula_sum "Si O2"
_cell_formula_units_Z 28
_cell_length_a 15.490488
_cell_length_b 14.377367
_cell_length_c 4.941644
_cell_angle_alpha 90.000000
_cell_angle_beta 90.000000
_cell_angle_gamma 90.000000
_cell_volume 1100.565548
_symmetry_space_group_name_H-M "P B A N"
_symmetry_group_IT_number 50
_space_group.IT_coordinate_system_code '2'
_symmetry_cell_setting 'orthorhombic'
loop_
_space_group_symop_operation_xyz
x,y,z
1/2-x,1/2-y,z
x,1/2-y,-z
1/2-x,y,-z
-x,-y,-z
1/2+x,1/2+y,-z
-x,1/2+y,z
1/2+x,-y,z
loop_
_atom_site_type_symbol
_atom_site_label
_atom_site_fract_x
_atom_site_fract_y
_atom_site_fract_z
Si Si1 0.328381 0.579694 0.299154
Si Si2 0.117291 0.096024 0.001354
Si Si3 0.750000 0.750000 0.000000
Si Si4 0.250000 0.750000 0.000000
Si Si5 0.009443 0.360745 0.514239
O O1 0.250000 0.554300 0.500000
O O2 0.341785 0.502915 0.067490
O O3 0.306479 0.680503 0.178279
O O4 0.420638 0.589854 0.439875
O O5 0.182361 0.175301 0.118737
O O6 0.033250 0.109029 0.184565
O O7 0.086828 0.113251 0.695318
O O8 0.998887 0.250000 0.500000
#
# Coordination Sequence:
#
# PCOD9398293 Si02
#       5
#     8   8   2   2   8
#     4  12  30  50  81 115 160 214 271 331 398 481
#     4  12  29  49  82 115 163 203 268 328 404 474
#     4  12  26  52  80 120 154 214 254 338 394 472
#     4  12  28  50  76 112 152 214 268 336 384 482
#     4  12  26  52  79 119 160 212 258 332 400 473
#
# _framework density 25.441466999999999
#
# number of rings (size 3 to 8) (size 9 to 14) (size 15 to 20)
#    0.000    0.000    2.857    4.714   16.000    1.143 
#    0.000    0.000    0.000    0.000    0.000    0.000 
#    0.000    0.000    0.000    0.000    0.000    0.000 
#
# Total GULP energy -157034.313481 kJ/mol
# GULP energy per Si atom -5608.368339 kJ/mol
# Density = 2.538356 g / cm^3
# Si number density = 25.441467 Si / 1000 Ang^3
#
#
#
# Elastic Constant Matrix: (Units=GPa)
#
#
# Indices 1 2 3 4 5 6 
#
# 1 126.4859 29.3821 12.6254 0.0000 0.0000 0.0000
# 2 29.3821 175.5468 18.3419 0.0000 0.0000 0.0000
# 3 12.6254 18.3419 77.5385 0.0000 0.0000 0.0000
# 4 0.0000 0.0000 0.0000 42.5737 0.0000 0.0000
# 5 0.0000 0.0000 0.0000 0.0000 16.4264 0.0000
# 6 0.0000 0.0000 0.0000 0.0000 0.0000 -66.3662
#
#
#
# Elastic Compliance Matrix: (Units=1/GPa)
#
#
# Indices 1 2 3 4 5 6 
#
# 1 0.008308 -0.001281 -0.001050 0.000000 0.000000 0.000000
# 2 -0.001281 0.006038 -0.001220 0.000000 0.000000 0.000000
# 3 -0.001050 -0.001220 0.013356 0.000000 0.000000 0.000000
# 4 0.000000 0.000000 0.000000 0.023489 0.000000 0.000000
# 5 0.000000 0.000000 0.000000 0.000000 0.060877 0.000000
# 6 0.000000 0.000000 0.000000 0.000000 0.000000 -0.015068
#
#
# Mechanical properties :
#
#
# Convention : Reuss Voigt Hill
#
# Bulk Modulus (GPa) = 48.53925 55.58557 52.06241
# Shear Modulus (GPa) = 45.05737 19.80824 32.43280
#
# Velocity S-wave (km/s) = 4.21292 2.79333 3.57431
# Velocity P-wave (km/s) = 6.54103 5.68326 6.12717
#
# Compressibility (1/GPa) = 0.02060188
#
# Stress axis : x y z
#
# Youngs Moduli (GPa) = 120.36064 165.60864 74.87097
#
# Poissons Ratio (x) = 0.21213 0.07860
# Poissons Ratio (y) = 0.15417 0.09133
# Poissons Ratio (z) = 0.12636 0.20201
#
# Static dielectric constant tensor:
#      x y z
#    x 2.008930 0.000000 0.000000 
#    y 0.000000 1.962460 0.000000 
#    z 0.000000 0.000000 1.992160 
# 
# From -- ./inp_files/3972.got.cif
#   From: 2010.05.17/outbox.cif.g08.bks.cpg/sg50_2_cif.got.tgz:3972.got - 2010.06.03 11:33:33.
