data_PCOD9398558
_publ_section_title
;
Structure prediction by ZEFSAII (Michael W. Deem and Ramdas Pophale) SiO2 
 PCOD9398558
Probable space group: P M M A
;
_chemical_formula_sum "Si O2"
_cell_formula_units_Z 64
_cell_length_a 31.139593
_cell_length_b 7.494347
_cell_length_c 15.216220
_cell_angle_alpha 90.000000
_cell_angle_beta 90.000000
_cell_angle_gamma 90.000000
_cell_volume 3551.023190
_symmetry_space_group_name_H-M "P M M A"
_symmetry_group_IT_number 51
_symmetry_cell_setting 'orthorhombic'
loop_
_space_group_symop_operation_xyz
x,y,z
1/2-x,-y,z
1/2+x,-y,-z
-x,y,-z
-x,-y,-z
1/2+x,y,-z
1/2-x,y,z
x,-y,z
loop_
_atom_site_type_symbol
_atom_site_label
_atom_site_fract_x
_atom_site_fract_y
_atom_site_fract_z
Si Si1 0.928650 0.284190 0.747752
Si Si2 0.538480 0.206913 0.061003
Si Si3 0.298433 0.214647 0.136341
Si Si4 0.880603 0.205202 0.569515
Si Si5 0.611626 0.709233 0.930997
Si Si6 0.956538 0.780603 0.448224
Si Si7 0.201157 0.218122 0.337564
Si Si8 0.471086 0.207388 0.746998
O O1 0.927322 0.500000 0.743807
O O2 0.904958 0.209952 0.662801
O O3 0.906307 0.222621 0.837617
O O4 0.977461 0.221341 0.747135
O O5 0.542494 0.286289 0.158726
O O6 0.525982 0.000000 0.075363
O O7 0.500000 0.284051 0.000000
O O8 0.583040 0.211733 0.008567
O O9 0.250000 0.275212 0.113774
O O10 0.337226 0.266020 0.072634
O O11 0.308037 0.275733 0.236751
O O12 0.297448 0.000000 0.138807
O O13 0.914185 0.281742 0.499834
O O14 0.834257 0.284137 0.593846
O O15 0.873408 0.000000 0.542712
O O16 0.602536 0.500000 0.934049
O O17 0.956813 0.718555 0.347345
O O18 0.000000 0.726806 0.500000
O O19 0.957013 0.000000 0.449268
O O20 0.250000 0.268550 0.357986
O O21 0.199239 0.000000 0.336837
O O22 0.457478 0.000000 0.745559
#
# Coordination Sequence:
#
# PCOD9398558 Si02
#       8
#     8   8   8   8   8   8   8   8
#     4  11  21  29  41  65  95 123 152 186 227 268
#     4  10  20  32  49  68  86 118 164 202 233 277
#     4   9  17  30  49  71  94 120 153 191 227 270
#     4  10  17  28  47  65  87 122 153 182 216 266
#     4  11  22  32  45  67  97 128 155 190 233 280
#     4   9  16  26  45  70  89 112 150 188 227 267
#     4   8  14  24  41  66  90 113 145 181 214 253
#     4  10  19  33  48  64  89 119 156 197 230 270
#
# _framework density 18.022974000000001
#
# number of rings (size 3 to 8) (size 9 to 14) (size 15 to 20)
#    0.000    2.250    3.750    1.500    0.000    2.000 
#    0.000    1.250    0.000    0.375    0.000    0.875 
#    0.000    5.000    0.000    0.000    0.000    0.125 
#
# Total GULP energy -356916.359861 kJ/mol
# GULP energy per Si atom -5576.818123 kJ/mol
# Density = 1.798195 g / cm^3
# Si number density = 18.022974 Si / 1000 Ang^3
#
#
#
# Elastic Constant Matrix: (Units=GPa)
#
#
# Indices 1 2 3 4 5 6 
#
# 1 130.3788 -9.6513 67.5248 0.0000 0.0000 0.0000
# 2 -9.6513 52.3687 1.4443 0.0000 0.0000 0.0000
# 3 67.5248 1.4443 136.3267 0.0000 0.0000 0.0000
# 4 0.0000 0.0000 0.0000 -14.7916 0.0000 0.0000
# 5 0.0000 0.0000 0.0000 0.0000 22.7522 0.0000
# 6 0.0000 0.0000 0.0000 0.0000 0.0000 360.4576
#
#
#
# Elastic Compliance Matrix: (Units=1/GPa)
#
#
# Indices 1 2 3 4 5 6 
#
# 1 0.010540 0.002087 -0.005243 0.000000 0.000000 0.000000
# 2 0.002087 0.019514 -0.001240 0.000000 0.000000 0.000000
# 3 -0.005243 -0.001240 0.009945 0.000000 0.000000 0.000000
# 4 0.000000 0.000000 0.000000 -0.067606 0.000000 0.000000
# 5 0.000000 0.000000 0.000000 0.000000 0.043952 0.000000
# 6 0.000000 0.000000 0.000000 0.000000 0.000000 0.002774
#
#
# Mechanical properties :
#
#
# Convention : Reuss Voigt Hill
#
# Bulk Modulus (GPa) = 32.04412 48.63443 40.33927
# Shear Modulus (GPa) = 130.50163 91.00072 110.75118
#
# Velocity S-wave (km/s) = 8.51855 7.11345 7.84751
# Velocity P-wave (km/s) = 10.70385 9.72170 10.22458
#
# Compressibility (1/GPa) = 0.03120697
#
# Stress axis : x y z
#
# Youngs Moduli (GPa) = 94.87984 51.24469 100.55106
#
# Poissons Ratio (x) = -0.10695 0.52715
# Poissons Ratio (y) = -0.19801 0.12473
# Poissons Ratio (z) = 0.49741 0.06357
#
# Static dielectric constant tensor:
#      x y z
#    x 1.624010 0.000000 0.000000 
#    y 0.000000 1.688290 0.000000 
#    z 0.000000 0.000000 1.623520 
# 
# From -- ./inp_files/26720.got.cif
#   From: 2010.05.17/outbox.cif.g08.bks.cpg/sg51_14_cif.got.tgz:26720.got - 2010.06.03 11:52:47.
