data_PCOD9398634
_publ_section_title
;
Structure prediction by ZEFSAII (Michael W. Deem and Ramdas Pophale) SiO2 
 PCOD9398634
Probable space group: P M M A
;
_chemical_formula_sum "Si O2"
_cell_formula_units_Z 64
_cell_length_a 7.728737
_cell_length_b 16.104408
_cell_length_c 24.523944
_cell_angle_alpha 90.000000
_cell_angle_beta 90.000000
_cell_angle_gamma 90.000000
_cell_volume 3052.415214
_symmetry_space_group_name_H-M "P M M A"
_symmetry_group_IT_number 51
_symmetry_cell_setting 'orthorhombic'
loop_
_space_group_symop_operation_xyz
x,y,z
1/2-x,-y,z
1/2+x,-y,-z
-x,y,-z
-x,-y,-z
1/2+x,y,-z
1/2-x,y,z
x,-y,z
loop_
_atom_site_type_symbol
_atom_site_label
_atom_site_fract_x
_atom_site_fract_y
_atom_site_fract_z
Si Si1 0.953238 0.090977 0.128264
Si Si2 0.453300 0.852856 0.247172
Si Si3 0.038150 0.592954 0.633047
Si Si4 0.458431 0.250150 0.936505
Si Si5 0.959564 0.340947 0.249260
Si Si6 0.542099 0.908519 0.634693
Si Si7 0.045411 0.748627 0.563334
Si Si8 0.961551 0.592216 0.132073
O O1 0.750000 0.087082 0.114460
O O2 0.027048 0.168478 0.094584
O O3 0.965815 0.110862 0.192413
O O4 0.029599 0.000000 0.117085
O O5 0.250000 0.872245 0.244290
O O6 0.478034 0.753795 0.248297
O O7 0.523130 0.888370 0.304258
O O8 0.250000 0.593014 0.632196
O O9 0.982329 0.500000 0.617823
O O10 0.986128 0.614670 0.694994
O O11 0.974149 0.666910 0.594046
O O12 0.250000 0.250376 0.930296
O O13 0.521701 0.333921 0.907109
O O14 0.500000 0.248484 0.000000
O O15 0.750000 0.338644 0.249220
O O16 0.013896 0.386799 0.194054
O O17 0.750000 0.911476 0.638244
O O18 0.502477 0.833000 0.594535
O O19 0.480606 0.000000 0.617092
O O20 0.250000 0.741907 0.567455
O O21 0.000000 0.751255 0.500000
O O22 0.750000 0.592305 0.131384
O O23 0.018694 0.500000 0.116288
#
# Coordination Sequence:
#
# PCOD9398634 Si02
#       8
#     8   8   8   8   8   8   8   8
#     4  10  21  38  59  82 109 144 186 229 271 326
#     4  11  21  34  57  87 120 149 177 220 281 339
#     4   9  18  33  57  88 116 145 186 232 276 329
#     4  10  21  37  55  78 108 143 187 232 275 324
#     4  10  17  32  58  85 113 146 185 226 274 330
#     4  10  22  40  60  83 114 150 186 227 279 337
#     4  11  23  39  60  84 113 149 192 237 281 328
#     4   9  17  31  55  83 109 141 181 225 274 328
#
# _framework density 20.967002999999998
#
# number of rings (size 3 to 8) (size 9 to 14) (size 15 to 20)
#    0.000    2.000    2.500    1.500    0.000    4.500 
#    0.000    0.000    0.000    4.875    0.000    0.000 
#    0.000    0.000    0.000    0.000    0.000    0.000 
#
# Total GULP energy -357518.953591 kJ/mol
# GULP energy per Si atom -5586.233650 kJ/mol
# Density = 2.091928 g / cm^3
# Si number density = 20.967003 Si / 1000 Ang^3
#
#
#
# Elastic Constant Matrix: (Units=GPa)
#
#
# Indices 1 2 3 4 5 6 
#
# 1 32.3130 8.1100 0.7087 0.0000 0.0000 0.0000
# 2 8.1100 233.9924 111.4587 0.0000 0.0000 0.0000
# 3 0.7087 111.4587 165.7215 0.0000 0.0000 0.0000
# 4 0.0000 0.0000 0.0000 -14.7424 0.0000 0.0000
# 5 0.0000 0.0000 0.0000 0.0000 4.7152 0.0000
# 6 0.0000 0.0000 0.0000 0.0000 0.0000 4.1661
#
#
#
# Elastic Compliance Matrix: (Units=1/GPa)
#
#
# Indices 1 2 3 4 5 6 
#
# 1 0.031305 -0.001503 0.000877 0.000000 0.000000 0.000000
# 2 -0.001503 0.006360 -0.004271 0.000000 0.000000 0.000000
# 3 0.000877 -0.004271 0.008903 0.000000 0.000000 0.000000
# 4 0.000000 0.000000 0.000000 -0.067832 0.000000 0.000000
# 5 0.000000 0.000000 0.000000 0.000000 0.212082 0.000000
# 6 0.000000 0.000000 0.000000 0.000000 0.000000 0.240033
#
#
# Mechanical properties :
#
#
# Convention : Reuss Voigt Hill
#
# Bulk Modulus (GPa) = 27.19287 74.73132 50.96209
# Shear Modulus (GPa) = 11.03987 19.61107 15.32547
#
# Velocity S-wave (km/s) = 2.29713 3.06163 2.70651
# Velocity P-wave (km/s) = 4.47585 6.94391 5.84171
#
# Compressibility (1/GPa) = 0.03677435
#
# Stress axis : x y z
#
# Youngs Moduli (GPa) = 31.94355 157.22554 112.31918
#
# Poissons Ratio (x) = 0.23626 -0.09848
# Poissons Ratio (y) = 0.04800 0.47975
# Poissons Ratio (z) = -0.02801 0.67156
#
# Static dielectric constant tensor:
#      x y z
#    x 1.771950 0.000000 0.000000 
#    y 0.000000 1.762910 0.000000 
#    z 0.000000 0.000000 1.668950 
# 
# From -- ./inp_files/34938.got.cif
#   From: 2010.05.17/outbox.cif.g08.bks.cpg/sg51_18_cif.got.tgz:34938.got - 2010.06.03 11:52:47.
