data_PCOD9398943
_publ_section_title
;
Structure prediction by ZEFSAII (Michael W. Deem and Ramdas Pophale) SiO2 
 PCOD9398943
Probable space group: P M M A
;
_chemical_formula_sum "Si O2"
_cell_formula_units_Z 64
_cell_length_a 7.889507
_cell_length_b 22.567572
_cell_length_c 19.320555
_cell_angle_alpha 90.000000
_cell_angle_beta 90.000000
_cell_angle_gamma 90.000000
_cell_volume 3439.967190
_symmetry_space_group_name_H-M "P M M A"
_symmetry_group_IT_number 51
_symmetry_cell_setting 'orthorhombic'
loop_
_space_group_symop_operation_xyz
x,y,z
1/2-x,-y,z
1/2+x,-y,-z
-x,y,-z
-x,-y,-z
1/2+x,y,-z
1/2-x,y,z
x,-y,z
loop_
_atom_site_type_symbol
_atom_site_label
_atom_site_fract_x
_atom_site_fract_y
_atom_site_fract_z
Si Si1 0.456831 0.830805 0.320634
Si Si2 0.050699 0.392696 0.727272
Si Si3 0.952048 0.597145 0.575587
Si Si4 0.955216 0.263563 0.779652
Si Si5 0.953993 0.688425 0.924844
Si Si6 0.452623 0.731169 0.426452
Si Si7 0.550180 0.563949 0.875802
Si Si8 0.454621 0.067818 0.422136
O O1 0.250000 0.834697 0.319529
O O2 0.510249 0.801022 0.248216
O O3 0.510841 0.776996 0.370223
O O4 0.515840 0.890121 0.359488
O O5 0.250000 0.397489 0.736528
O O6 0.005693 0.421690 0.652908
O O7 0.003205 0.322380 0.734531
O O8 0.965751 0.423417 0.793576
O O9 0.750000 0.597007 0.576133
O O10 0.023531 0.664700 0.574821
O O11 0.000000 0.570819 0.500000
O O12 0.750000 0.263740 0.778087
O O13 0.014568 0.275994 0.857566
O O14 0.750000 0.686507 0.920065
O O15 0.021544 0.621285 0.914645
O O16 0.000000 0.711721 0.000000
O O17 0.500000 0.757244 0.500000
O O18 0.250000 0.725959 0.419657
O O19 0.750000 0.561858 0.891633
O O20 0.474092 0.500000 0.892609
O O21 0.500000 0.088715 0.500000
O O22 0.250000 0.067138 0.419089
O O23 0.516162 0.000000 0.415411
#
# Coordination Sequence:
#
# PCOD9398943 Si02
#       8
#     8   8   8   8   8   8   8   8
#     4   9  15  26  43  60  82 116 156 194 229 269
#     4  11  20  30  46  69  95 120 147 188 238 278
#     4  10  18  29  43  61  86 116 150 187 227 276
#     4   9  17  32  48  63  87 123 157 184 223 278
#     4   9  18  31  50  72  96 123 148 177 220 272
#     4   9  16  24  36  54  78 109 142 179 219 260
#     4   9  19  36  55  72  91 122 159 185 212 260
#     4   9  17  28  42  61  87 122 162 202 241 277
#
# _framework density 18.604828999999999
#
# number of rings (size 3 to 8) (size 9 to 14) (size 15 to 20)
#    0.000    2.625    1.250    2.625    0.000    3.000 
#    0.000    0.625    0.000    0.375    0.000    0.000 
#    0.000    0.500    0.000    0.375    0.000    0.750 
#
# Total GULP energy -356376.124512 kJ/mol
# GULP energy per Si atom -5568.376946 kJ/mol
# Density = 1.856248 g / cm^3
# Si number density = 18.604829 Si / 1000 Ang^3
#
#
#
# Elastic Constant Matrix: (Units=GPa)
#
#
# Indices 1 2 3 4 5 6 
#
# 1 23.3995 2.4014 -5.0318 0.0000 0.0000 0.0000
# 2 2.4014 81.1775 32.4423 0.0000 0.0000 0.0000
# 3 -5.0318 32.4423 109.6749 0.0000 0.0000 0.0000
# 4 0.0000 0.0000 0.0000 97.6749 0.0000 0.0000
# 5 0.0000 0.0000 0.0000 0.0000 18.5977 0.0000
# 6 0.0000 0.0000 0.0000 0.0000 0.0000 1.3204
#
#
#
# Elastic Compliance Matrix: (Units=1/GPa)
#
#
# Indices 1 2 3 4 5 6 
#
# 1 0.043559 -0.002367 0.002699 0.000000 0.000000 0.000000
# 2 -0.002367 0.014099 -0.004279 0.000000 0.000000 0.000000
# 3 0.002699 -0.004279 0.010507 0.000000 0.000000 0.000000
# 4 0.000000 0.000000 0.000000 0.010238 0.000000 0.000000
# 5 0.000000 0.000000 0.000000 0.000000 0.053770 0.000000
# 6 0.000000 0.000000 0.000000 0.000000 0.000000 0.757329
#
#
# Mechanical properties :
#
#
# Convention : Reuss Voigt Hill
#
# Bulk Modulus (GPa) = 16.59189 30.43063 23.51126
# Shear Modulus (GPa) = 5.44966 35.81463 20.63215
#
# Velocity S-wave (km/s) = 1.71334 4.39226 3.33373
# Velocity P-wave (km/s) = 3.58489 6.48956 5.24242
#
# Compressibility (1/GPa) = 0.06027040
#
# Stress axis : x y z
#
# Youngs Moduli (GPa) = 22.95729 70.92788 95.17068
#
# Poissons Ratio (x) = 0.16789 -0.25683
# Poissons Ratio (y) = 0.05434 0.40724
# Poissons Ratio (z) = -0.06195 0.30351
#
# Static dielectric constant tensor:
#      x y z
#    x 1.665460 0.000000 0.000000 
#    y 0.000000 1.682140 0.000000 
#    z 0.000000 0.000000 1.694000 
# 
# From -- ./inp_files/28654.got.cif
#   From: 2010.05.17/outbox.cif.g08.bks.cpg/sg51_15_cif.got.tgz:28654.got - 2010.06.03 11:52:47.
