data_PCOD9398505
_publ_section_title
;
Structure prediction by ZEFSAII (Michael W. Deem and Ramdas Pophale) SiO2 
 PCOD9398505
Probable space group: P M M A
;
_chemical_formula_sum "Si O2"
_cell_formula_units_Z 52
_cell_length_a 27.454091
_cell_length_b 8.441401
_cell_length_c 10.145329
_cell_angle_alpha 90.000000
_cell_angle_beta 90.000000
_cell_angle_gamma 90.000000
_cell_volume 2351.190052
_symmetry_space_group_name_H-M "P M M A"
_symmetry_group_IT_number 51
_symmetry_cell_setting 'orthorhombic'
loop_
_space_group_symop_operation_xyz
x,y,z
1/2-x,-y,z
1/2+x,-y,-z
-x,y,-z
-x,-y,-z
1/2+x,y,-z
1/2-x,y,z
x,-y,z
loop_
_atom_site_type_symbol
_atom_site_label
_atom_site_fract_x
_atom_site_fract_y
_atom_site_fract_z
Si Si1 0.442240 0.500000 0.467033
Si Si2 0.038134 0.164867 0.749884
Si Si3 0.901350 0.175017 0.523667
Si Si4 0.694457 0.812736 0.125112
Si Si5 0.098485 0.822655 0.023853
Si Si6 0.547352 0.500000 0.249687
Si Si7 0.806164 0.313470 0.413084
Si Si8 0.057838 0.500000 0.033657
O O1 0.500000 0.500000 0.500000
O O2 0.424403 0.667502 0.411118
O O3 0.420914 0.500000 0.618260
O O4 0.070993 0.163830 0.618474
O O5 0.069996 0.163786 0.883047
O O6 0.016216 0.339675 0.749536
O O7 0.009215 0.000000 0.749186
O O8 0.845229 0.214413 0.495114
O O9 0.906995 0.000000 0.584072
O O10 0.750000 0.778677 0.084326
O O11 0.654384 0.788050 0.013189
O O12 0.683654 0.716847 0.258090
O O13 0.691348 0.000000 0.160249
O O14 0.075611 0.667113 0.090668
O O15 0.094565 0.000000 0.083109
O O16 0.578910 0.500000 0.117539
O O17 0.750000 0.264153 0.434951
O O18 0.809950 0.500000 0.442816
O O19 0.000000 0.500000 0.000000
#
# Coordination Sequence:
#
# PCOD9398505 Si02
#       8
#     4   8   8   8   8   4   8   4
#     4  10  20  32  45  62  81 103 140 183 219 257
#     4   8  13  21  35  54  71  97 133 159 191 231
#     4  10  17  27  42  56  78 109 139 173 209 243
#     4   9  16  24  35  55  82 112 145 174 201 240
#     4   9  16  26  39  54  77 106 135 171 206 238
#     4   8  16  28  42  54  75 100 125 168 212 244
#     4  10  18  24  35  58  86 115 147 177 203 239
#     4  10  20  30  43  60  77 103 142 181 213 251
#
# _framework density 22.11646
#
# number of rings (size 3 to 8) (size 9 to 14) (size 15 to 20)
#    0.000    2.769    2.308    0.462    1.077    1.538 
#    0.000    0.000    0.000    0.000    0.000    0.000 
#    0.000    0.000    0.000    2.769    0.000    6.000 
#
# Total GULP energy -289658.938993 kJ/mol
# GULP energy per Si atom -5570.364211 kJ/mol
# Density = 2.206612 g / cm^3
# Si number density = 22.116460 Si / 1000 Ang^3
#
#
#
# Elastic Constant Matrix: (Units=GPa)
#
#
# Indices 1 2 3 4 5 6 
#
# 1 122.2530 58.9470 10.7870 0.0000 0.0000 0.0000
# 2 58.9470 249.2539 1.9145 0.0000 0.0000 0.0000
# 3 10.7870 1.9145 41.0560 0.0000 0.0000 0.0000
# 4 0.0000 0.0000 0.0000 -33.7366 0.0000 0.0000
# 5 0.0000 0.0000 0.0000 0.0000 24.7403 0.0000
# 6 0.0000 0.0000 0.0000 0.0000 0.0000 79.7142
#
#
#
# Elastic Compliance Matrix: (Units=1/GPa)
#
#
# Indices 1 2 3 4 5 6 
#
# 1 0.009460 -0.002219 -0.002382 0.000000 0.000000 0.000000
# 2 -0.002219 0.004534 0.000372 0.000000 0.000000 0.000000
# 3 -0.002382 0.000372 0.024965 0.000000 0.000000 0.000000
# 4 0.000000 0.000000 0.000000 -0.029641 0.000000 0.000000
# 5 0.000000 0.000000 0.000000 0.000000 0.040420 0.000000
# 6 0.000000 0.000000 0.000000 0.000000 0.000000 0.012545
#
#
# Mechanical properties :
#
#
# Convention : Reuss Voigt Hill
#
# Bulk Modulus (GPa) = 32.78630 61.76222 47.27426
# Shear Modulus (GPa) = 61.79860 36.87120 49.33490
#
# Velocity S-wave (km/s) = 5.29179 4.08749 4.72814
# Velocity P-wave (km/s) = 7.22454 7.08966 7.15742
#
# Compressibility (1/GPa) = 0.03050055
#
# Stress axis : x y z
#
# Youngs Moduli (GPa) = 105.71021 220.56187 40.05529
#
# Poissons Ratio (x) = 0.48940 0.09541
# Poissons Ratio (y) = 0.23456 -0.01488
# Poissons Ratio (z) = 0.25180 -0.08195
#
# Static dielectric constant tensor:
#      x y z
#    x 1.795290 0.000000 0.000000 
#    y 0.000000 1.915620 0.000000 
#    z 0.000000 0.000000 1.865300 
# 
# From -- ./inp_files/26423.got.cif
#   From: 2010.05.17/outbox.cif.g08.bks.cpg/sg51_14_cif.got.tgz:26423.got - 2010.06.03 11:52:47.
