data_PCOD9398718
_publ_section_title
;
Structure prediction by ZEFSAII (Michael W. Deem and Ramdas Pophale) SiO2 
 PCOD9398718
Probable space group: P M M A
;
_chemical_formula_sum "Si O2"
_cell_formula_units_Z 56
_cell_length_a 21.851429
_cell_length_b 8.874751
_cell_length_c 18.194718
_cell_angle_alpha 90.000000
_cell_angle_beta 90.000000
_cell_angle_gamma 90.000000
_cell_volume 3528.428726
_symmetry_space_group_name_H-M "P M M A"
_symmetry_group_IT_number 51
_symmetry_cell_setting 'orthorhombic'
loop_
_space_group_symop_operation_xyz
x,y,z
1/2-x,-y,z
1/2+x,-y,-z
-x,y,-z
-x,-y,-z
1/2+x,y,-z
1/2-x,y,z
x,-y,z
loop_
_atom_site_type_symbol
_atom_site_label
_atom_site_fract_x
_atom_site_fract_y
_atom_site_fract_z
Si Si1 0.677512 0.177574 0.846409
Si Si2 0.939308 0.176569 0.403848
Si Si3 0.040706 0.179848 0.898866
Si Si4 0.914736 0.176543 0.563552
Si Si5 0.537344 0.677248 0.254708
Si Si6 0.107434 0.677253 0.287153
Si Si7 0.585781 0.680015 0.957592
O O1 0.750000 0.202097 0.846712
O O2 0.648454 0.230765 0.769557
O O3 0.643715 0.269842 0.910284
O O4 0.665251 0.000000 0.856856
O O5 0.906423 0.227568 0.479143
O O6 0.930227 0.268983 0.329559
O O7 0.012150 0.184864 0.421069
O O8 0.925253 0.000000 0.392164
O O9 0.056894 0.229888 0.816696
O O10 0.974106 0.250409 0.917609
O O11 0.038078 0.000000 0.905753
O O12 0.084577 0.250236 0.960886
O O13 0.884228 0.269291 0.628935
O O14 0.897970 0.000000 0.568594
O O15 0.546466 0.500000 0.242504
O O16 0.464179 0.702052 0.266413
O O17 0.119680 0.500000 0.279730
O O18 0.579816 0.500000 0.960188
#
# Coordination Sequence:
#
# PCOD9398718 Si02
#       7
#     8   8   8   8   8   8   8
#     4  11  23  37  52  69  91 122 161 200 238 284
#     4   8  14  24  38  58  84 119 154 185 221 264
#     4  11  20  31  49  69  93 125 158 193 233 286
#     4   8  14  25  40  57  83 117 154 188 220 264
#     4  10  18  27  41  65  94 123 154 193 233 276
#     4  10  19  29  44  64  89 120 155 194 236 277
#     4  11  21  34  50  69  93 119 153 196 242 287
#
# _framework density 15.871086999999999
#
# number of rings (size 3 to 8) (size 9 to 14) (size 15 to 20)
#    0.000    2.143    1.429    5.571    0.000    2.857 
#    0.000    2.857    0.000    0.000    0.000    0.000 
#    0.000    1.143    0.000   10.000    0.000    5.857 
#
# Total GULP energy -312237.809863 kJ/mol
# GULP energy per Si atom -5575.675176 kJ/mol
# Density = 1.583496 g / cm^3
# Si number density = 15.871087 Si / 1000 Ang^3
#
#
#
# Elastic Constant Matrix: (Units=GPa)
#
#
# Indices 1 2 3 4 5 6 
#
# 1 25.8311 31.9927 23.9632 0.0000 0.0000 0.0000
# 2 31.9927 107.4085 68.6287 0.0000 0.0000 0.0000
# 3 23.9632 68.6287 134.9532 0.0000 0.0000 0.0000
# 4 0.0000 0.0000 0.0000 -1.2215 0.0000 0.0000
# 5 0.0000 0.0000 0.0000 0.0000 7.9753 0.0000
# 6 0.0000 0.0000 0.0000 0.0000 0.0000 4.2462
#
#
#
# Elastic Compliance Matrix: (Units=1/GPa)
#
#
# Indices 1 2 3 4 5 6 
#
# 1 0.061859 -0.016898 -0.002391 0.000000 0.000000 0.000000
# 2 -0.016898 0.018407 -0.006360 0.000000 0.000000 0.000000
# 3 -0.002391 -0.006360 0.011069 0.000000 0.000000 0.000000
# 4 0.000000 0.000000 0.000000 -0.818642 0.000000 0.000000
# 5 0.000000 0.000000 0.000000 0.000000 0.125387 0.000000
# 6 0.000000 0.000000 0.000000 0.000000 0.000000 0.235505
#
#
# Mechanical properties :
#
#
# Convention : Reuss Voigt Hill
#
# Bulk Modulus (GPa) = 24.97650 57.48466 41.23058
# Shear Modulus (GPa) = -16.56887 11.77388 -2.39750
#
# Velocity S-wave (km/s) = -3.23455 2.72664 -1.23040
# Velocity P-wave (km/s) = 1.34963 6.79787 4.90064
#
# Compressibility (1/GPa) = 0.04003763
#
# Stress axis : x y z
#
# Youngs Moduli (GPa) = 16.16567 54.32620 90.34219
#
# Poissons Ratio (x) = 0.91798 0.21602
# Poissons Ratio (y) = 0.27316 0.57461
# Poissons Ratio (z) = 0.03865 0.34553
#
# Static dielectric constant tensor:
#      x y z
#    x 1.498790 0.000000 0.000000 
#    y 0.000000 1.529520 0.000000 
#    z 0.000000 0.000000 1.561220 
# 
# From -- ./inp_files/30430.got.cif
#   From: 2010.05.17/outbox.cif.g08.bks.cpg/sg51_16_cif.got.tgz:30430.got - 2010.06.03 11:52:47.
