data_PCOD9398709
_publ_section_title
;
Structure prediction by ZEFSAII (Michael W. Deem and Ramdas Pophale) SiO2 
 PCOD9398709
Probable space group: P M M A
;
_chemical_formula_sum "Si O2"
_cell_formula_units_Z 52
_cell_length_a 8.794188
_cell_length_b 27.369081
_cell_length_c 13.941335
_cell_angle_alpha 90.000000
_cell_angle_beta 90.000000
_cell_angle_gamma 90.000000
_cell_volume 3355.523801
_symmetry_space_group_name_H-M "P M M A"
_symmetry_group_IT_number 51
_symmetry_cell_setting 'orthorhombic'
loop_
_space_group_symop_operation_xyz
x,y,z
1/2-x,-y,z
1/2+x,-y,-z
-x,y,-z
-x,-y,-z
1/2+x,y,-z
1/2-x,y,z
x,-y,z
loop_
_atom_site_type_symbol
_atom_site_label
_atom_site_fract_x
_atom_site_fract_y
_atom_site_fract_z
Si Si1 0.067106 0.752739 0.713213
Si Si2 0.431922 0.148014 0.604618
Si Si3 0.566196 0.000000 0.893277
Si Si4 0.567755 0.446490 0.607771
Si Si5 0.932605 0.346743 0.392781
Si Si6 0.431530 0.199069 0.104255
Si Si7 0.433223 0.099547 0.212192
O O1 0.250000 0.753951 0.723159
O O2 0.024115 0.797710 0.642931
O O3 0.024100 0.700938 0.667849
O O4 0.992953 0.763950 0.815434
O O5 0.500000 0.139448 0.500000
O O6 0.250000 0.145580 0.600623
O O7 0.493608 0.110906 0.684996
O O8 0.520016 0.048686 0.835778
O O9 0.750000 0.000000 0.899755
O O10 0.500000 0.000000 0.000000
O O11 0.500000 0.447781 0.500000
O O12 0.750000 0.441693 0.602647
O O13 0.532471 0.500000 0.651316
O O14 0.496300 0.397402 0.650658
O O15 0.750000 0.349411 0.399251
O O16 0.000000 0.341651 0.500000
O O17 0.250000 0.201481 0.099980
O O18 0.474893 0.144933 0.142972
O O19 0.500000 0.207588 0.000000
O O20 0.250000 0.099648 0.222580
#
# Coordination Sequence:
#
# PCOD9398709 Si02
#       7
#     8   8   4   8   8   8   8
#     4   9  19  32  45  65  91 118 150 185 222 265
#     4  10  19  32  50  69  92 122 153 187 223 263
#     4  10  20  34  53  74  97 120 145 184 228 270
#     4   9  16  25  37  54  79 113 151 187 221 259
#     4  10  18  27  41  61  87 118 150 186 223 261
#     4  10  19  31  49  69  91 118 146 179 220 266
#     4   9  19  34  50  71  95 120 150 182 219 264
#
# _framework density 15.496835000000001
#
# number of rings (size 3 to 8) (size 9 to 14) (size 15 to 20)
#    0.000    2.462    0.000    3.692    0.000    4.000 
#    0.000    0.385    0.000    0.000    0.000    0.000 
#    0.000    0.615    0.000    2.000    0.000    3.231 
#
# Total GULP energy -289906.982189 kJ/mol
# GULP energy per Si atom -5575.134273 kJ/mol
# Density = 1.546156 g / cm^3
# Si number density = 15.496835 Si / 1000 Ang^3
#
#
#
# Elastic Constant Matrix: (Units=GPa)
#
#
# Indices 1 2 3 4 5 6 
#
# 1 37.3302 43.2969 38.9767 0.0000 0.0000 0.0000
# 2 43.2969 148.7717 73.0594 0.0000 0.0000 0.0000
# 3 38.9767 73.0594 122.2923 0.0000 0.0000 0.0000
# 4 0.0000 0.0000 0.0000 15.4925 0.0000 0.0000
# 5 0.0000 0.0000 0.0000 0.0000 24.9268 0.0000
# 6 0.0000 0.0000 0.0000 0.0000 0.0000 22.8098
#
#
#
# Elastic Compliance Matrix: (Units=1/GPa)
#
#
# Indices 1 2 3 4 5 6 
#
# 1 0.047397 -0.009023 -0.009716 0.000000 0.000000 0.000000
# 2 -0.009023 0.011230 -0.003833 0.000000 0.000000 0.000000
# 3 -0.009716 -0.003833 0.013564 0.000000 0.000000 0.000000
# 4 0.000000 0.000000 0.000000 0.064547 0.000000 0.000000
# 5 0.000000 0.000000 0.000000 0.000000 0.040117 0.000000
# 6 0.000000 0.000000 0.000000 0.000000 0.000000 0.043841
#
#
# Mechanical properties :
#
#
# Convention : Reuss Voigt Hill
#
# Bulk Modulus (GPa) = 36.97242 68.78449 52.87845
# Shear Modulus (GPa) = 18.19129 22.84990 20.52059
#
# Velocity S-wave (km/s) = 3.42990 3.84407 3.64288
# Velocity P-wave (km/s) = 6.29249 8.01156 7.20349
#
# Compressibility (1/GPa) = 0.02704719
#
# Stress axis : x y z
#
# Youngs Moduli (GPa) = 21.09824 89.04688 73.72485
#
# Poissons Ratio (x) = 0.80343 0.71632
# Poissons Ratio (y) = 0.19036 0.28261
# Poissons Ratio (z) = 0.20499 0.34135
#
# Static dielectric constant tensor:
#      x y z
#    x 1.516410 0.000000 0.000000 
#    y 0.000000 1.543760 0.000000 
#    z 0.000000 0.000000 1.476680 
# 
# From -- ./inp_files/14649.got.cif
#   From: 2010.05.17/outbox.cif.g08.bks.cpg/sg51_8_cif.got.tgz:14649.got - 2010.06.03 11:52:47.
