data_PCOD9398741
_publ_section_title
;
Structure prediction by ZEFSAII (Michael W. Deem and Ramdas Pophale) SiO2 
 PCOD9398741
Probable space group: P M M A
;
_chemical_formula_sum "Si O2"
_cell_formula_units_Z 56
_cell_length_a 24.959834
_cell_length_b 9.266035
_cell_length_c 16.547712
_cell_angle_alpha 90.000000
_cell_angle_beta 90.000000
_cell_angle_gamma 90.000000
_cell_volume 3827.133244
_symmetry_space_group_name_H-M "P M M A"
_symmetry_group_IT_number 51
_symmetry_cell_setting 'orthorhombic'
loop_
_space_group_symop_operation_xyz
x,y,z
1/2-x,-y,z
1/2+x,-y,-z
-x,y,-z
-x,-y,-z
1/2+x,y,-z
1/2-x,y,z
x,-y,z
loop_
_atom_site_type_symbol
_atom_site_label
_atom_site_fract_x
_atom_site_fract_y
_atom_site_fract_z
Si Si1 0.811606 0.326877 0.911480
Si Si2 0.087260 0.174306 0.019397
Si Si3 0.987264 0.824933 0.128195
Si Si4 0.398055 0.829554 0.388654
Si Si5 0.016014 0.171747 0.687684
Si Si6 0.940179 0.333891 0.461093
Si Si7 0.812658 0.328614 0.721805
O O1 0.750000 0.287109 0.930660
O O2 0.816174 0.500000 0.920215
O O3 0.856211 0.247011 0.963491
O O4 0.820977 0.293276 0.816515
O O5 0.044039 0.217909 0.088472
O O6 0.092019 0.000000 0.021308
O O7 0.059450 0.215825 0.934516
O O8 0.979546 0.776614 0.219949
O O9 0.988185 0.000000 0.129776
O O10 0.454648 0.808887 0.341854
O O11 0.404007 0.751488 0.474923
O O12 0.351513 0.760775 0.335124
O O13 0.390363 0.000000 0.399428
O O14 0.053384 0.255488 0.624680
O O15 0.027274 0.000000 0.683844
O O16 0.923606 0.500000 0.452943
O O17 0.000000 0.332221 0.500000
O O18 0.750000 0.302548 0.703897
O O19 0.822704 0.500000 0.712028
#
# Coordination Sequence:
#
# PCOD9398741 Si02
#       7
#     8   8   8   8   8   8   8
#     4   9  18  31  44  60  86 117 145 177 217 253
#     4   9  16  28  45  64  86 114 148 178 210 258
#     4   8  15  27  43  63  89 117 141 175 221 259
#     4  10  18  27  43  65  86 110 140 174 209 246
#     4   9  16  27  42  61  86 114 142 172 210 251
#     4   9  17  28  41  59  84 112 140 169 202 244
#     4   9  18  31  44  59  83 115 145 171 205 249
#
# _framework density 14.632362000000001
#
# number of rings (size 3 to 8) (size 9 to 14) (size 15 to 20)
#    0.000    3.000    0.000    3.429    0.000    4.571 
#    0.000    4.286    0.000    0.000    0.000    1.000 
#    0.000    5.714    0.000    0.000    0.000    0.000 
#
# Total GULP energy -311941.474772 kJ/mol
# GULP energy per Si atom -5570.383478 kJ/mol
# Density = 1.459906 g / cm^3
# Si number density = 14.632362 Si / 1000 Ang^3
#
#
#
# Elastic Constant Matrix: (Units=GPa)
#
#
# Indices 1 2 3 4 5 6 
#
# 1 80.0941 44.2165 53.5722 0.0000 0.0000 0.0000
# 2 44.2165 50.0646 48.7636 0.0000 0.0000 0.0000
# 3 53.5722 48.7636 121.5785 0.0000 0.0000 0.0000
# 4 0.0000 0.0000 0.0000 22.2562 0.0000 0.0000
# 5 0.0000 0.0000 0.0000 0.0000 24.3146 0.0000
# 6 0.0000 0.0000 0.0000 0.0000 0.0000 25.1522
#
#
#
# Elastic Compliance Matrix: (Units=1/GPa)
#
#
# Indices 1 2 3 4 5 6 
#
# 1 0.025282 -0.018837 -0.003585 0.000000 0.000000 0.000000
# 2 -0.018837 0.046816 -0.010477 0.000000 0.000000 0.000000
# 3 -0.003585 -0.010477 0.014007 0.000000 0.000000 0.000000
# 4 0.000000 0.000000 0.000000 0.044931 0.000000 0.000000
# 5 0.000000 0.000000 0.000000 0.000000 0.041127 0.000000
# 6 0.000000 0.000000 0.000000 0.000000 0.000000 0.039758
#
#
# Mechanical properties :
#
#
# Convention : Reuss Voigt Hill
#
# Bulk Modulus (GPa) = 49.24441 60.53797 54.89119
# Shear Modulus (GPa) = 17.57539 21.35694 19.46617
#
# Velocity S-wave (km/s) = 3.46949 3.82457 3.65135
# Velocity P-wave (km/s) = 7.05531 7.80805 7.44120
#
# Compressibility (1/GPa) = 0.02030687
#
# Stress axis : x y z
#
# Youngs Moduli (GPa) = 39.55312 21.36042 71.39332
#
# Poissons Ratio (x) = 0.40237 0.25595
# Poissons Ratio (y) = 0.74507 0.74797
# Poissons Ratio (z) = 0.14180 0.22379
#
# Static dielectric constant tensor:
#      x y z
#    x 1.460520 0.000000 0.000000 
#    y 0.000000 1.485270 0.000000 
#    z 0.000000 0.000000 1.480910 
# 
# From -- ./inp_files/30771.got.cif
#   From: 2010.05.17/outbox.cif.g08.bks.cpg/sg51_16_cif.got.tgz:30771.got - 2010.06.03 11:52:47.
