data_PCOD9398817
_publ_section_title
;
Structure prediction by ZEFSAII (Michael W. Deem and Ramdas Pophale) SiO2 
 PCOD9398817
Probable space group: P M M A
;
_chemical_formula_sum "Si O2"
_cell_formula_units_Z 56
_cell_length_a 9.181941
_cell_length_b 18.843706
_cell_length_c 21.378897
_cell_angle_alpha 90.000000
_cell_angle_beta 90.000000
_cell_angle_gamma 90.000000
_cell_volume 3699.015171
_symmetry_space_group_name_H-M "P M M A"
_symmetry_group_IT_number 51
_symmetry_cell_setting 'orthorhombic'
loop_
_space_group_symop_operation_xyz
x,y,z
1/2-x,-y,z
1/2+x,-y,-z
-x,y,-z
-x,-y,-z
1/2+x,y,-z
1/2-x,y,z
x,-y,z
loop_
_atom_site_type_symbol
_atom_site_label
_atom_site_fract_x
_atom_site_fract_y
_atom_site_fract_z
Si Si1 0.082992 0.790915 0.745394
Si Si2 0.575059 0.659656 0.692728
Si Si3 0.924290 0.082425 0.805610
Si Si4 0.422723 0.844325 0.062462
Si Si5 0.425099 0.417532 0.809005
Si Si6 0.924419 0.582883 0.563995
Si Si7 0.583742 0.284375 0.117896
O O1 0.250000 0.797601 0.724739
O O2 0.084419 0.752372 0.813436
O O3 0.991509 0.737780 0.702254
O O4 0.007601 0.866086 0.758089
O O5 0.750000 0.661132 0.699021
O O6 0.507659 0.610626 0.747547
O O7 0.536249 0.627209 0.625412
O O8 0.750000 0.091045 0.797717
O O9 0.958419 0.108937 0.876200
O O10 0.961290 0.000000 0.798381
O O11 0.250000 0.844109 0.054461
O O12 0.480896 0.764920 0.076691
O O13 0.500000 0.871107 0.000000
O O14 0.250000 0.409675 0.799139
O O15 0.456620 0.500000 0.820325
O O16 0.462074 0.364809 0.866477
O O17 0.750000 0.586413 0.556558
O O18 0.963835 0.500000 0.574101
O O19 0.000000 0.606805 0.500000
O O20 0.750000 0.282771 0.093885
#
# Coordination Sequence:
#
# PCOD9398817 Si02
#       7
#     8   8   8   8   8   8   8
#     4   9  17  29  45  65  87 113 145 178 215 257
#     4  10  18  28  43  63  88 117 150 186 220 257
#     4   9  18  32  48  67  92 118 141 169 210 257
#     4  10  19  30  45  63  83 110 143 175 207 249
#     4   9  17  28  43  64  87 110 138 176 223 268
#     4   9  18  30  42  59  86 121 158 192 225 259
#     4   8  15  28  43  59  81 107 136 172 213 256
#
# _framework density 15.139165
#
# number of rings (size 3 to 8) (size 9 to 14) (size 15 to 20)
#    0.000    2.857    0.000    2.571    0.000    6.571 
#    0.000    1.429    0.000    0.429    0.000    0.000 
#    0.000    0.571    0.000    1.857    0.000    2.286 
#
# Total GULP energy -311973.872771 kJ/mol
# GULP energy per Si atom -5570.962014 kJ/mol
# Density = 1.510471 g / cm^3
# Si number density = 15.139165 Si / 1000 Ang^3
#
#
#
# Elastic Constant Matrix: (Units=GPa)
#
#
# Indices 1 2 3 4 5 6 
#
# 1 38.4427 34.0375 18.3760 0.0000 0.0000 0.0000
# 2 34.0375 111.5859 20.1150 0.0000 0.0000 0.0000
# 3 18.3760 20.1150 31.7237 0.0000 0.0000 0.0000
# 4 0.0000 0.0000 0.0000 15.8132 0.0000 0.0000
# 5 0.0000 0.0000 0.0000 0.0000 23.0575 0.0000
# 6 0.0000 0.0000 0.0000 0.0000 0.0000 21.9020
#
#
#
# Elastic Compliance Matrix: (Units=1/GPa)
#
#
# Indices 1 2 3 4 5 6 
#
# 1 0.043999 -0.009966 -0.019167 0.000000 0.000000 0.000000
# 2 -0.009966 0.012376 -0.002074 0.000000 0.000000 0.000000
# 3 -0.019167 -0.002074 0.043940 0.000000 0.000000 0.000000
# 4 0.000000 0.000000 0.000000 0.063238 0.000000 0.000000
# 5 0.000000 0.000000 0.000000 0.000000 0.043370 0.000000
# 6 0.000000 0.000000 0.000000 0.000000 0.000000 0.045658
#
#
# Mechanical properties :
#
#
# Convention : Reuss Voigt Hill
#
# Bulk Modulus (GPa) = 26.38549 36.31213 31.34881
# Shear Modulus (GPa) = 15.26120 19.43615 17.34867
#
# Velocity S-wave (km/s) = 3.17844 3.58695 3.38886
# Velocity P-wave (km/s) = 5.56206 6.41814 6.00537
#
# Compressibility (1/GPa) = 0.03789962
#
# Stress axis : x y z
#
# Youngs Moduli (GPa) = 22.72790 80.80449 22.75827
#
# Poissons Ratio (x) = 0.80529 0.43621
# Poissons Ratio (y) = 0.22650 0.04720
# Poissons Ratio (z) = 0.43563 0.16760
#
# Static dielectric constant tensor:
#      x y z
#    x 1.508720 0.000000 0.000000 
#    y 0.000000 1.511470 0.000000 
#    z 0.000000 0.000000 1.481770 
# 
# From -- ./inp_files/32250.got.cif
#   From: 2010.05.17/outbox.cif.g08.bks.cpg/sg51_17_cif.got.tgz:32250.got - 2010.06.03 11:52:47.
