data_PCOD9398396
_publ_section_title
;
Structure prediction by ZEFSAII (Michael W. Deem and Ramdas Pophale) SiO2 
 PCOD9398396
Probable space group: P M M A
;
_chemical_formula_sum "Si O2"
_cell_formula_units_Z 30
_cell_length_a 5.342144
_cell_length_b 19.776730
_cell_length_c 11.868481
_cell_angle_alpha 90.000000
_cell_angle_beta 90.000000
_cell_angle_gamma 90.000000
_cell_volume 1253.906673
_symmetry_space_group_name_H-M "P M M A"
_symmetry_group_IT_number 51
_symmetry_cell_setting 'orthorhombic'
loop_
_space_group_symop_operation_xyz
x,y,z
1/2-x,-y,z
1/2+x,-y,-z
-x,y,-z
-x,-y,-z
1/2+x,y,-z
1/2-x,y,z
x,-y,z
loop_
_atom_site_type_symbol
_atom_site_label
_atom_site_fract_x
_atom_site_fract_y
_atom_site_fract_z
Si Si1 0.250000 0.721384 0.898782
Si Si2 0.250000 0.427258 0.878765
Si Si3 0.250000 0.426307 0.272408
Si Si4 0.250000 0.076374 0.076904
Si Si5 0.750000 0.853549 0.576848
Si Si6 0.250000 0.222874 0.148831
Si Si7 0.750000 0.293846 0.576034
Si Si8 0.750000 0.000000 0.576554
O O1 0.250000 0.644150 0.941243
O O2 0.492014 0.738918 0.825617
O O3 0.250000 0.766768 0.009979
O O4 0.250000 0.500000 0.940327
O O5 0.499650 0.425224 0.803141
O O6 0.250000 0.500000 0.332253
O O7 0.250000 0.361207 0.350723
O O8 0.250000 0.141982 0.157019
O O9 0.250000 0.000000 0.126627
O O10 0.500000 0.080718 0.000000
O O11 0.500000 0.852840 0.500000
O O12 0.750000 0.780536 0.637367
O O13 0.750000 0.926988 0.635079
O O14 0.500000 0.295028 0.500000
O O15 0.500000 0.000000 0.500000
#
# Coordination Sequence:
#
# PCOD9398396 Si02
#       8
#     4   4   4   4   4   4   4   2
#     4  10  18  30  49  67  95 126 155 202 246 282
#     4  10  21  37  52  68  91 126 166 203 236 283
#     4  10  21  36  52  69  94 124 161 200 234 288
#     4  10  16  25  41  65 102 135 154 189 246 291
#     4   8  14  23  37  60  91 116 135 170 211 260
#     4  10  17  30  45  74 102 123 156 205 250 280
#     4  10  19  31  49  74 100 121 146 192 244 288
#     4   8  12  20  34  54  86 118 138 162 202 256
#
# _framework density 23.925227
#
# number of rings (size 3 to 8) (size 9 to 14) (size 15 to 20)
#    0.000    2.400    2.667    1.600    0.000    0.533 
#    0.000    2.667    0.000    0.000    0.000    0.000 
#   16.000    0.000    0.000    0.000    0.000    0.000 
#
# Total GULP energy -167496.032677 kJ/mol
# GULP energy per Si atom -5583.201089 kJ/mol
# Density = 2.387077 g / cm^3
# Si number density = 23.925227 Si / 1000 Ang^3
#
#
#
# Elastic Constant Matrix: (Units=GPa)
#
#
# Indices 1 2 3 4 5 6 
#
# 1 229.1565 39.0294 23.4784 0.0000 0.0000 0.0000
# 2 39.0294 280.1944 48.7271 0.0000 0.0000 0.0000
# 3 23.4784 48.7271 26.3849 0.0000 0.0000 0.0000
# 4 0.0000 0.0000 0.0000 85.2142 0.0000 0.0000
# 5 0.0000 0.0000 0.0000 0.0000 25.4771 0.0000
# 6 0.0000 0.0000 0.0000 0.0000 0.0000 4.6765
#
#
#
# Elastic Compliance Matrix: (Units=1/GPa)
#
#
# Indices 1 2 3 4 5 6 
#
# 1 0.004804 0.000109 -0.004477 0.000000 0.000000 0.000000
# 2 0.000109 0.005260 -0.009811 0.000000 0.000000 0.000000
# 3 -0.004477 -0.009811 0.060003 0.000000 0.000000 0.000000
# 4 0.000000 0.000000 0.000000 0.011735 0.000000 0.000000
# 5 0.000000 0.000000 0.000000 0.000000 0.039251 0.000000
# 6 0.000000 0.000000 0.000000 0.000000 0.000000 0.213834
#
#
# Mechanical properties :
#
#
# Convention : Reuss Voigt Hill
#
# Bulk Modulus (GPa) = 23.97507 84.24506 54.11007
# Shear Modulus (GPa) = 13.25742 51.37363 32.31553
#
# Velocity S-wave (km/s) = 2.35653 4.63888 3.67916
# Velocity P-wave (km/s) = 4.17695 7.99878 6.38073
#
# Compressibility (1/GPa) = 0.04170999
#
# Stress axis : x y z
#
# Youngs Moduli (GPa) = 208.16575 190.11616 16.66574
#
# Poissons Ratio (x) = -0.02079 0.07461
# Poissons Ratio (y) = -0.02277 0.16351
# Poissons Ratio (z) = 0.93189 1.86528
#
# Static dielectric constant tensor:
#      x y z
#    x 1.660040 0.000000 0.000000 
#    y 0.000000 1.939810 0.000000 
#    z 0.000000 0.000000 2.124690 
# 
# From -- ./inp_files/19794.got.cif
#   From: 2010.05.17/outbox.cif.g08.bks.cpg/sg51_10_cif.got.tgz:19794.got - 2010.06.03 11:52:47.
