data_PCOD9398059
_publ_section_title
;
Structure prediction by ZEFSAII (Michael W. Deem and Ramdas Pophale) SiO2 
 PCOD9398059
Probable space group: P B A N
;
_chemical_formula_sum "Si O2"
_cell_formula_units_Z 34
_cell_length_a 12.508800
_cell_length_b 7.760078
_cell_length_c 15.280620
_cell_angle_alpha 90.000000
_cell_angle_beta 90.000000
_cell_angle_gamma 90.000000
_cell_volume 1483.278532
_symmetry_space_group_name_H-M "P B A N"
_symmetry_group_IT_number 50
_space_group.IT_coordinate_system_code '2'
_symmetry_cell_setting 'orthorhombic'
loop_
_space_group_symop_operation_xyz
x,y,z
1/2-x,1/2-y,z
x,1/2-y,-z
1/2-x,y,-z
-x,-y,-z
1/2+x,1/2+y,-z
-x,1/2+y,z
1/2+x,-y,z
loop_
_atom_site_type_symbol
_atom_site_label
_atom_site_fract_x
_atom_site_fract_y
_atom_site_fract_z
Si Si1 0.440929 0.126747 0.067609
Si Si2 0.638049 0.317963 0.160932
Si Si3 0.250000 0.750000 0.500000
Si Si4 0.598984 0.217592 0.358566
Si Si5 0.137337 0.314674 0.600838
O O1 0.535316 0.223819 0.119303
O O2 0.373105 0.017293 0.135660
O O3 0.379913 0.250000 0.000000
O O4 0.500000 0.000000 0.000000
O O5 0.750000 0.250000 0.124029
O O6 0.634774 0.276340 0.263322
O O7 0.336141 0.670581 0.568768
O O8 0.472009 0.238225 0.361413
O O9 0.627595 0.020522 0.384208
O O10 0.250000 0.250000 0.639240
O O11 0.136756 0.250000 0.500000
#
# Coordination Sequence:
#
# PCOD9398059 Si02
#       5
#     8   8   2   8   8
#     4   9  21  43  69 100 137 174 229 291 370 457
#     4  11  23  43  69 104 142 189 233 303 366 439
#     4  12  24  40  68  96 146 208 254 298 372 404
#     4  12  25  42  67  99 145 195 258 307 364 432
#     4  11  25  42  64  93 134 191 258 315 369 426
#
# _framework density 22.922194999999999
#
# number of rings (size 3 to 8) (size 9 to 14) (size 15 to 20)
#    0.000    1.176    2.353    3.529    3.294    6.118 
#    0.000    8.235    0.000    0.000    0.000    0.000 
#    0.000    0.000    0.000    0.000    0.000    0.000 
#
# Total GULP energy -189837.921672 kJ/mol
# GULP energy per Si atom -5583.468284 kJ/mol
# Density = 2.287002 g / cm^3
# Si number density = 22.922195 Si / 1000 Ang^3
#
#
#
# Elastic Constant Matrix: (Units=GPa)
#
#
# Indices 1 2 3 4 5 6 
#
# 1 196.3932 56.9546 30.1911 0.0000 0.0000 0.0000
# 2 56.9546 134.9058 56.8469 0.0000 0.0000 0.0000
# 3 30.1911 56.8469 148.5276 0.0000 0.0000 0.0000
# 4 0.0000 0.0000 0.0000 39.1817 0.0000 0.0000
# 5 0.0000 0.0000 0.0000 0.0000 -44.5420 0.0000
# 6 0.0000 0.0000 0.0000 0.0000 0.0000 25.3955
#
#
#
# Elastic Compliance Matrix: (Units=1/GPa)
#
#
# Indices 1 2 3 4 5 6 
#
# 1 0.005813 -0.002332 -0.000289 0.000000 0.000000 0.000000
# 2 -0.002332 0.009774 -0.003267 0.000000 0.000000 0.000000
# 3 -0.000289 -0.003267 0.008042 0.000000 0.000000 0.000000
# 4 0.000000 0.000000 0.000000 0.025522 0.000000 0.000000
# 5 0.000000 0.000000 0.000000 0.000000 -0.022451 0.000000
# 6 0.000000 0.000000 0.000000 0.000000 0.000000 0.039377
#
#
# Mechanical properties :
#
#
# Convention : Reuss Voigt Hill
#
# Bulk Modulus (GPa) = 84.37071 85.31243 84.84157
# Shear Modulus (GPa) = 61.12248 26.39597 43.75923
#
# Velocity S-wave (km/s) = 5.16944 3.39713 4.37399
# Velocity P-wave (km/s) = 8.51576 7.25854 7.91216
#
# Compressibility (1/GPa) = 0.01185245
#
# Stress axis : x y z
#
# Youngs Moduli (GPa) = 172.04032 102.31512 124.35095
#
# Poissons Ratio (x) = 0.23862 0.03592
# Poissons Ratio (y) = 0.40124 0.40622
# Poissons Ratio (z) = 0.04970 0.33423
#
# Static dielectric constant tensor:
#      x y z
#    x 1.827250 0.000000 0.000000 
#    y 0.000000 2.035170 0.000000 
#    z 0.000000 0.000000 1.866630 
# 
# From -- ./inp_files/25666.got.cif
#   From: 2010.05.17/outbox.cif.g08.bks.cpg/sg50_13_cif.got.tgz:25666.got - 2010.06.03 11:33:33.
