data_PCOD9398454
_publ_section_title
;
Structure prediction by ZEFSAII (Michael W. Deem and Ramdas Pophale) SiO2 
 PCOD9398454
Probable space group: P M M A
;
_chemical_formula_sum "Si O2"
_cell_formula_units_Z 64
_cell_length_a 8.492289
_cell_length_b 20.970281
_cell_length_c 20.620541
_cell_angle_alpha 90.000000
_cell_angle_beta 90.000000
_cell_angle_gamma 90.000000
_cell_volume 3672.223203
_symmetry_space_group_name_H-M "P M M A"
_symmetry_group_IT_number 51
_symmetry_cell_setting 'orthorhombic'
loop_
_space_group_symop_operation_xyz
x,y,z
1/2-x,-y,z
1/2+x,-y,-z
-x,y,-z
-x,-y,-z
1/2+x,y,-z
1/2-x,y,z
x,-y,z
loop_
_atom_site_type_symbol
_atom_site_label
_atom_site_fract_x
_atom_site_fract_y
_atom_site_fract_z
Si Si1 0.061681 0.073368 0.429241
Si Si2 0.063194 0.392888 0.067602
Si Si3 0.941220 0.759665 0.207261
Si Si4 0.438614 0.246864 0.933480
Si Si5 0.439913 0.609979 0.795467
Si Si6 0.440381 0.307377 0.573067
Si Si7 0.059485 0.814985 0.657916
Si Si8 0.442023 0.430545 0.653287
O O1 0.250000 0.074385 0.430708
O O2 0.000000 0.094384 0.500000
O O3 0.001738 0.120605 0.374083
O O4 0.008863 0.000000 0.419473
O O5 0.250000 0.393819 0.065278
O O6 0.001720 0.319551 0.067995
O O7 0.005995 0.417868 0.137392
O O8 0.000000 0.421574 0.000000
O O9 0.750000 0.760210 0.209306
O O10 0.988218 0.782671 0.135442
O O11 0.985660 0.684860 0.212010
O O12 0.996091 0.799481 0.269075
O O13 0.250000 0.249839 0.935798
O O14 0.500000 0.216795 0.000000
O O15 0.250000 0.607675 0.800092
O O16 0.488733 0.577233 0.728518
O O17 0.500000 0.305531 0.500000
O O18 0.250000 0.308212 0.572776
O O19 0.489202 0.244744 0.612987
O O20 0.495646 0.370900 0.610587
O O21 0.250000 0.816839 0.658343
O O22 0.250000 0.428679 0.653010
O O23 0.491803 0.500000 0.628742
#
# Coordination Sequence:
#
# PCOD9398454 Si02
#       8
#     8   8   8   8   8   8   8   8
#     4  10  21  36  52  72  99 130 163 198 237 283
#     4  10  17  25  39  62  89 117 150 187 231 281
#     4   8  14  25  43  65  90 124 157 191 233 278
#     4   9  15  24  39  60  91 126 159 192 231 276
#     4   9  15  28  47  65  88 117 152 193 236 280
#     4  10  20  33  50  72  97 123 156 197 240 285
#     4  10  18  31  51  73  99 129 163 199 236 279
#     4   9  17  31  52  72  89 118 160 198 237 291
#
# _framework density 17.428134
#
# number of rings (size 3 to 8) (size 9 to 14) (size 15 to 20)
#    0.000    2.625    1.250    3.750    0.000    2.500 
#    0.000    3.750    0.000    1.500    0.000    0.000 
#    0.000    0.500    0.000    1.125    0.000    2.125 
#
# Total GULP energy -356718.383648 kJ/mol
# GULP energy per Si atom -5573.724744 kJ/mol
# Density = 1.738847 g / cm^3
# Si number density = 17.428134 Si / 1000 Ang^3
#
#
#
# Elastic Constant Matrix: (Units=GPa)
#
#
# Indices 1 2 3 4 5 6 
#
# 1 31.0449 11.9487 25.0421 0.0000 0.0000 0.0000
# 2 11.9487 65.0000 53.9773 0.0000 0.0000 0.0000
# 3 25.0421 53.9773 159.1680 0.0000 0.0000 0.0000
# 4 0.0000 0.0000 0.0000 -18.2759 0.0000 0.0000
# 5 0.0000 0.0000 0.0000 0.0000 27.6408 0.0000
# 6 0.0000 0.0000 0.0000 0.0000 0.0000 30.6284
#
#
#
# Elastic Compliance Matrix: (Units=1/GPa)
#
#
# Indices 1 2 3 4 5 6 
#
# 1 0.037245 -0.002757 -0.004925 0.000000 0.000000 0.000000
# 2 -0.002757 0.021620 -0.006898 0.000000 0.000000 0.000000
# 3 -0.004925 -0.006898 0.009397 0.000000 0.000000 0.000000
# 4 0.000000 0.000000 0.000000 -0.054717 0.000000 0.000000
# 5 0.000000 0.000000 0.000000 0.000000 0.036178 0.000000
# 6 0.000000 0.000000 0.000000 0.000000 0.000000 0.032649
#
#
# Mechanical properties :
#
#
# Convention : Reuss Voigt Hill
#
# Bulk Modulus (GPa) = 25.57414 48.57213 37.07313
# Shear Modulus (GPa) = 40.13935 18.94830 29.54382
#
# Velocity S-wave (km/s) = 4.80431 3.30089 4.12172
# Velocity P-wave (km/s) = 6.74396 6.51600 6.63096
#
# Compressibility (1/GPa) = 0.03910200
#
# Stress axis : x y z
#
# Youngs Moduli (GPa) = 26.84914 46.25433 106.41989
#
# Poissons Ratio (x) = 0.12752 0.52411
# Poissons Ratio (y) = 0.07402 0.73408
# Poissons Ratio (z) = 0.13223 0.31906
#
# Static dielectric constant tensor:
#      x y z
#    x 1.596000 0.000000 0.000000 
#    y 0.000000 1.584100 0.000000 
#    z 0.000000 0.000000 1.628540 
# 
# From -- ./inp_files/32579.got.cif
#   From: 2010.05.17/outbox.cif.g08.bks.cpg/sg51_17_cif.got.tgz:32579.got - 2010.06.03 11:52:47.
