data_PCOD9398765
_publ_section_title
;
Structure prediction by ZEFSAII (Michael W. Deem and Ramdas Pophale) SiO2 
 PCOD9398765
Probable space group: P M M A
;
_chemical_formula_sum "Si O2"
_cell_formula_units_Z 64
_cell_length_a 28.778365
_cell_length_b 8.532318
_cell_length_c 14.527260
_cell_angle_alpha 90.000000
_cell_angle_beta 90.000000
_cell_angle_gamma 90.000000
_cell_volume 3567.112933
_symmetry_space_group_name_H-M "P M M A"
_symmetry_group_IT_number 51
_symmetry_cell_setting 'orthorhombic'
loop_
_space_group_symop_operation_xyz
x,y,z
1/2-x,-y,z
1/2+x,-y,-z
-x,y,-z
-x,-y,-z
1/2+x,y,-z
1/2-x,y,z
x,-y,z
loop_
_atom_site_type_symbol
_atom_site_label
_atom_site_fract_x
_atom_site_fract_y
_atom_site_fract_z
Si Si1 0.697833 0.690926 0.607395
Si Si2 0.447595 0.188318 0.893875
Si Si3 0.802285 0.308882 0.391981
Si Si4 0.305351 0.173307 0.108662
Si Si5 0.696068 0.677467 0.075015
Si Si6 0.626504 0.318743 0.243758
Si Si7 0.629326 0.678809 0.759027
Si Si8 0.444719 0.811445 0.100350
O O1 0.750000 0.743000 0.638079
O O2 0.697844 0.500000 0.614317
O O3 0.693107 0.730157 0.499749
O O4 0.654094 0.747896 0.667651
O O5 0.417250 0.242452 0.807321
O O6 0.501582 0.236035 0.885343
O O7 0.446211 0.000000 0.896309
O O8 0.431119 0.244077 0.996303
O O9 0.750000 0.258888 0.361676
O O10 0.802477 0.500000 0.384383
O O11 0.846080 0.251392 0.332159
O O12 0.250000 0.181217 0.113678
O O13 0.328180 0.305724 0.169564
O O14 0.320851 0.000000 0.138980
O O15 0.318513 0.201444 0.002999
O O16 0.750000 0.703480 0.097238
O O17 0.692039 0.500000 0.037274
O O18 0.665841 0.686011 0.165229
O O19 0.614479 0.500000 0.263352
O O20 0.616316 0.500000 0.740386
O O21 0.587582 0.756334 0.816101
O O22 0.443192 0.000000 0.098250
#
# Coordination Sequence:
#
# PCOD9398765 Si02
#       8
#     8   8   8   8   8   8   8   8
#     4   8  15  28  46  69  97 127 157 189 228 276
#     4   9  19  35  52  68  91 125 160 193 232 282
#     4   8  14  27  47  70  97 128 159 190 227 275
#     4  10  20  31  42  60  90 128 162 186 216 269
#     4   9  17  28  41  62  94 125 151 184 226 270
#     4  10  18  27  46  74  96 117 152 196 236 273
#     4  11  20  29  47  73  95 117 151 197 244 281
#     4   9  19  36  53  68  90 124 162 194 230 282
#
# _framework density 17.941680999999999
#
# number of rings (size 3 to 8) (size 9 to 14) (size 15 to 20)
#    0.000    2.750    0.000    3.750    0.000    6.250 
#    0.000    1.250    0.000    3.375    0.000    8.750 
#    0.000    0.000    0.000    0.000    0.000    0.000 
#
# Total GULP energy -356320.215828 kJ/mol
# GULP energy per Si atom -5567.503372 kJ/mol
# Density = 1.790084 g / cm^3
# Si number density = 17.941681 Si / 1000 Ang^3
#
#
#
# Elastic Constant Matrix: (Units=GPa)
#
#
# Indices 1 2 3 4 5 6 
#
# 1 107.7358 15.8854 60.2970 0.0000 0.0000 0.0000
# 2 15.8854 9.4305 10.6813 0.0000 0.0000 0.0000
# 3 60.2970 10.6813 84.8916 0.0000 0.0000 0.0000
# 4 0.0000 0.0000 0.0000 7.2936 0.0000 0.0000
# 5 0.0000 0.0000 0.0000 0.0000 36.3124 0.0000
# 6 0.0000 0.0000 0.0000 0.0000 0.0000 8.2901
#
#
#
# Elastic Compliance Matrix: (Units=1/GPa)
#
#
# Indices 1 2 3 4 5 6 
#
# 1 0.017733 -0.018198 -0.010306 0.000000 0.000000 0.000000
# 2 -0.018198 0.142338 -0.004983 0.000000 0.000000 0.000000
# 3 -0.010306 -0.004983 0.019727 0.000000 0.000000 0.000000
# 4 0.000000 0.000000 0.000000 0.137107 0.000000 0.000000
# 5 0.000000 0.000000 0.000000 0.000000 0.027539 0.000000
# 6 0.000000 0.000000 0.000000 0.000000 0.000000 0.120625
#
#
# Mechanical properties :
#
#
# Convention : Reuss Voigt Hill
#
# Bulk Modulus (GPa) = 8.86344 41.75394 25.30869
# Shear Modulus (GPa) = 8.77728 18.05882 13.41805
#
# Velocity S-wave (km/s) = 2.21421 3.17603 2.73769
# Velocity P-wave (km/s) = 3.38937 6.06400 4.91223
#
# Compressibility (1/GPa) = 0.11282305
#
# Stress axis : x y z
#
# Youngs Moduli (GPa) = 56.39150 7.02551 50.69254
#
# Poissons Ratio (x) = 0.12785 0.52243
# Poissons Ratio (y) = 1.02624 0.25263
# Poissons Ratio (z) = 0.58116 0.03501
#
# Static dielectric constant tensor:
#      x y z
#    x 1.636440 0.000000 0.000000 
#    y 0.000000 1.648410 0.000000 
#    z 0.000000 0.000000 1.628640 
# 
# From -- ./inp_files/26709.got.cif
#   From: 2010.05.17/outbox.cif.g08.bks.cpg/sg51_14_cif.got.tgz:26709.got - 2010.06.03 11:52:47.
