data_PCOD9398436
_publ_section_title
;
Structure prediction by ZEFSAII (Michael W. Deem and Ramdas Pophale) SiO2 
 PCOD9398436
Probable space group: P M M A
;
_chemical_formula_sum "Si O2"
_cell_formula_units_Z 56
_cell_length_a 25.583228
_cell_length_b 7.537470
_cell_length_c 16.790979
_cell_angle_alpha 90.000000
_cell_angle_beta 90.000000
_cell_angle_gamma 90.000000
_cell_volume 3237.851723
_symmetry_space_group_name_H-M "P M M A"
_symmetry_group_IT_number 51
_symmetry_cell_setting 'orthorhombic'
loop_
_space_group_symop_operation_xyz
x,y,z
1/2-x,-y,z
1/2+x,-y,-z
-x,y,-z
-x,-y,-z
1/2+x,y,-z
1/2-x,y,z
x,-y,z
loop_
_atom_site_type_symbol
_atom_site_label
_atom_site_fract_x
_atom_site_fract_y
_atom_site_fract_z
Si Si1 0.392008 0.705106 0.389559
Si Si2 0.309679 0.285167 0.263002
Si Si3 0.500427 0.791092 0.307105
Si Si4 0.308678 0.790560 0.079718
Si Si5 0.054510 0.714207 0.540026
Si Si6 0.415633 0.783160 0.011560
Si Si7 0.509050 0.783760 0.127202
O O1 0.376727 0.500000 0.400747
O O2 0.349749 0.783623 0.329261
O O3 0.448389 0.708327 0.345848
O O4 0.401460 0.779824 0.478450
O O5 0.250000 0.231144 0.279610
O O6 0.311629 0.500000 0.262384
O O7 0.322464 0.227694 0.173177
O O8 0.548542 0.765783 0.368193
O O9 0.510549 0.723283 0.218217
O O10 0.489544 0.000000 0.302007
O O11 0.250000 0.715727 0.068326
O O12 0.357231 0.718705 0.029129
O O13 0.305475 0.000000 0.062503
O O14 0.055316 0.500000 0.537520
O O15 0.000000 0.774762 0.500000
O O16 0.455680 0.731275 0.082096
O O17 0.414616 0.000000 0.011807
O O18 0.442941 0.727663 0.929175
O O19 0.509860 0.000000 0.127815
#
# Coordination Sequence:
#
# PCOD9398436 Si02
#       7
#     8   8   8   8   8   8   8
#     4   9  17  28  40  54  76 105 129 150 183 226
#     4   9  17  28  41  57  77 101 128 155 184 221
#     4  10  17  24  38  60  79  96 125 160 190 220
#     4   9  16  25  39  59  79  98 123 156 190 223
#     4   8  15  27  39  52  74 102 126 148 181 225
#     4   8  13  23  36  51  75 102 125 149 181 221
#     4   8  14  22  34  53  75 100 126 152 182 216
#
# _framework density 17.295418000000002
#
# number of rings (size 3 to 8) (size 9 to 14) (size 15 to 20)
#    0.000    3.286    0.000    3.000    0.000    4.286 
#    0.000    0.000    0.000    1.714    0.000    8.000 
#    0.000    1.143    0.000    0.000    0.000    0.000 
#
# Total GULP energy -311800.987001 kJ/mol
# GULP energy per Si atom -5567.874768 kJ/mol
# Density = 1.725605 g / cm^3
# Si number density = 17.295418 Si / 1000 Ang^3
#
#
#
# Elastic Constant Matrix: (Units=GPa)
#
#
# Indices 1 2 3 4 5 6 
#
# 1 86.1105 -2.7871 50.2061 0.0000 0.0000 0.0000
# 2 -2.7871 42.0905 -5.5566 0.0000 0.0000 0.0000
# 3 50.2061 -5.5566 125.9821 0.0000 0.0000 0.0000
# 4 0.0000 0.0000 0.0000 18.4122 0.0000 0.0000
# 5 0.0000 0.0000 0.0000 0.0000 30.1606 0.0000
# 6 0.0000 0.0000 0.0000 0.0000 0.0000 4.9128
#
#
#
# Elastic Compliance Matrix: (Units=1/GPa)
#
#
# Indices 1 2 3 4 5 6 
#
# 1 0.015130 0.000207 -0.006020 0.000000 0.000000 0.000000
# 2 0.000207 0.023900 0.000972 0.000000 0.000000 0.000000
# 3 -0.006020 0.000972 0.010380 0.000000 0.000000 0.000000
# 4 0.000000 0.000000 0.000000 0.054312 0.000000 0.000000
# 5 0.000000 0.000000 0.000000 0.000000 0.033156 0.000000
# 6 0.000000 0.000000 0.000000 0.000000 0.000000 0.203548
#
#
# Mechanical properties :
#
#
# Convention : Reuss Voigt Hill
#
# Bulk Modulus (GPa) = 25.17211 37.54531 31.35871
# Shear Modulus (GPa) = 13.76081 24.85186 19.30633
#
# Velocity S-wave (km/s) = 2.82376 3.79476 3.34469
# Velocity P-wave (km/s) = 5.02168 6.39966 5.75208
#
# Compressibility (1/GPa) = 0.03972650
#
# Stress axis : x y z
#
# Youngs Moduli (GPa) = 66.09470 41.84050 96.34177
#
# Poissons Ratio (x) = -0.00866 0.58001
# Poissons Ratio (y) = -0.01369 -0.09361
# Poissons Ratio (z) = 0.39791 -0.04065
#
# Static dielectric constant tensor:
#      x y z
#    x 1.592420 0.000000 0.000000 
#    y 0.000000 1.666580 0.000000 
#    z 0.000000 0.000000 1.605810 
# 
# From -- ./inp_files/30766.got.cif
#   From: 2010.05.17/outbox.cif.g08.bks.cpg/sg51_16_cif.got.tgz:30766.got - 2010.06.03 11:52:47.
