data_PCOD9398613
_publ_section_title
;
Structure prediction by ZEFSAII (Michael W. Deem and Ramdas Pophale) SiO2 
 PCOD9398613
Probable space group: P M M A
;
_chemical_formula_sum "Si O2"
_cell_formula_units_Z 42
_cell_length_a 25.365149
_cell_length_b 7.347842
_cell_length_c 10.620749
_cell_angle_alpha 90.000000
_cell_angle_beta 90.000000
_cell_angle_gamma 90.000000
_cell_volume 1979.485716
_symmetry_space_group_name_H-M "P M M A"
_symmetry_group_IT_number 51
_symmetry_cell_setting 'orthorhombic'
loop_
_space_group_symop_operation_xyz
x,y,z
1/2-x,-y,z
1/2+x,-y,-z
-x,y,-z
-x,-y,-z
1/2+x,y,-z
1/2-x,y,z
x,-y,z
loop_
_atom_site_type_symbol
_atom_site_label
_atom_site_fract_x
_atom_site_fract_y
_atom_site_fract_z
Si Si1 0.469823 0.780045 0.684926
Si Si2 0.192173 0.219879 0.312899
Si Si3 0.055226 0.292249 0.962718
Si Si4 0.750000 0.000000 0.076535
Si Si5 0.169171 0.713157 0.022250
Si Si6 0.580287 0.778635 0.580391
O O1 0.444045 0.710421 0.811956
O O2 0.531213 0.723417 0.669580
O O3 0.438048 0.725179 0.559755
O O4 0.469300 0.000000 0.688799
O O5 0.250000 0.280364 0.361084
O O6 0.138372 0.284305 0.379482
O O7 0.191907 0.000000 0.320256
O O8 0.188631 0.269243 0.165817
O O9 0.053487 0.500000 0.010002
O O10 0.109073 0.217553 0.017216
O O11 0.000000 0.203546 0.000000
O O12 0.795453 0.840569 0.063695
O O13 0.170925 0.500000 0.985735
O O14 0.581203 0.000000 0.582797
#
# Coordination Sequence:
#
# PCOD9398613 Si02
#       6
#     8   8   8   2   8   8
#     4   9  17  32  53  76 106 143 186 228 274 340
#     4  10  17  30  52  78 108 140 184 233 277 331
#     4  10  22  37  54  82 118 148 183 235 291 344
#     4  12  22  40  58  82 110 152 206 230 286 344
#     4  11  22  37  58  84 117 151 188 241 287 334
#     4   8  16  30  51  78 106 142 184 229 278 328
#
# _framework density 21.217632999999999
#
# number of rings (size 3 to 8) (size 9 to 14) (size 15 to 20)
#    0.000    2.286    1.905    2.571    1.333    0.381 
#    0.000    2.857    2.095    0.000    0.000    0.000 
#    0.000    0.000    0.000    0.000    0.000    0.000 
#
# Total GULP energy -233920.817708 kJ/mol
# GULP energy per Si atom -5569.543279 kJ/mol
# Density = 2.116934 g / cm^3
# Si number density = 21.217633 Si / 1000 Ang^3
#
#
#
# Elastic Constant Matrix: (Units=GPa)
#
#
# Indices 1 2 3 4 5 6 
#
# 1 198.4325 20.2805 21.8767 0.0000 0.0000 0.0000
# 2 20.2805 106.5709 -10.8485 0.0000 0.0000 0.0000
# 3 21.8767 -10.8485 35.8025 0.0000 0.0000 0.0000
# 4 0.0000 0.0000 0.0000 15.9010 0.0000 0.0000
# 5 0.0000 0.0000 0.0000 0.0000 20.2903 0.0000
# 6 0.0000 0.0000 0.0000 0.0000 0.0000 2.5904
#
#
#
# Elastic Compliance Matrix: (Units=1/GPa)
#
#
# Indices 1 2 3 4 5 6 
#
# 1 0.005616 -0.001463 -0.003875 0.000000 0.000000 0.000000
# 2 -0.001463 0.010063 0.003943 0.000000 0.000000 0.000000
# 3 -0.003875 0.003943 0.031494 0.000000 0.000000 0.000000
# 4 0.000000 0.000000 0.000000 0.062889 0.000000 0.000000
# 5 0.000000 0.000000 0.000000 0.000000 0.049285 0.000000
# 6 0.000000 0.000000 0.000000 0.000000 0.000000 0.386042
#
#
# Mechanical properties :
#
#
# Convention : Reuss Voigt Hill
#
# Bulk Modulus (GPa) = 22.53096 44.82479 33.67787
# Shear Modulus (GPa) = 8.88141 28.38949 18.63545
#
# Velocity S-wave (km/s) = 2.04816 3.66186 2.96683
# Velocity P-wave (km/s) = 4.02930 6.24908 5.25767
#
# Compressibility (1/GPa) = 0.04438337
#
# Stress axis : x y z
#
# Youngs Moduli (GPa) = 178.05403 99.37092 31.75228
#
# Poissons Ratio (x) = 0.14540 0.12304
# Poissons Ratio (y) = 0.26054 -0.12521
# Poissons Ratio (z) = 0.68998 -0.39186
#
# Static dielectric constant tensor:
#      x y z
#    x 0.996480 0.000000 0.000000 
#    y 0.000000 1.788440 0.000000 
#    z 0.000000 0.000000 1.730590 
# 
# From -- ./inp_files/18456.got.cif
#   From: 2010.05.17/outbox.cif.g08.bks.cpg/sg51_10_cif.got.tgz:18456.got - 2010.06.03 11:52:47.
