data_PCOD9398676
_publ_section_title
;
Structure prediction by ZEFSAII (Michael W. Deem and Ramdas Pophale) SiO2 
 PCOD9398676
Probable space group: P M M A
;
_chemical_formula_sum "Si O2"
_cell_formula_units_Z 52
_cell_length_a 7.752572
_cell_length_b 17.067136
_cell_length_c 18.748795
_cell_angle_alpha 90.000000
_cell_angle_beta 90.000000
_cell_angle_gamma 90.000000
_cell_volume 2480.731824
_symmetry_space_group_name_H-M "P M M A"
_symmetry_group_IT_number 51
_symmetry_cell_setting 'orthorhombic'
loop_
_space_group_symop_operation_xyz
x,y,z
1/2-x,-y,z
1/2+x,-y,-z
-x,y,-z
-x,-y,-z
1/2+x,y,-z
1/2-x,y,z
x,-y,z
loop_
_atom_site_type_symbol
_atom_site_label
_atom_site_fract_x
_atom_site_fract_y
_atom_site_fract_z
Si Si1 0.948777 0.000000 0.818170
Si Si2 0.037589 0.829983 0.669251
Si Si3 0.042680 0.166592 0.835004
Si Si4 0.047886 0.588115 0.215215
Si Si5 0.957825 0.500000 0.417264
Si Si6 0.551655 0.337917 0.353599
Si Si7 0.446995 0.000000 0.656790
Si Si8 0.544400 0.680924 0.082326
O O1 0.988556 0.920031 0.858836
O O2 0.054466 0.000000 0.743819
O O3 0.750000 0.000000 0.796568
O O4 0.250000 0.830512 0.668339
O O5 0.983989 0.825960 0.752574
O O6 0.978370 0.748820 0.633179
O O7 0.978128 0.914191 0.638728
O O8 0.250000 0.169459 0.834187
O O9 0.978890 0.236943 0.884365
O O10 0.250000 0.590728 0.232845
O O11 0.982561 0.500000 0.226916
O O12 0.953189 0.647199 0.268441
O O13 0.025674 0.613619 0.133937
O O14 0.750000 0.500000 0.405097
O O15 0.026586 0.582006 0.385077
O O16 0.000000 0.500000 0.500000
O O17 0.750000 0.335360 0.378098
O O18 0.250000 0.000000 0.630784
O O19 0.750000 0.679848 0.089225
O O20 0.500000 0.672444 0.000000
#
# Coordination Sequence:
#
# PCOD9398676 Si02
#       8
#     4   8   8   8   4   8   4   8
#     4  10  18  26  43  71 100 129 166 217 263 316
#     4   8  13  25  48  74  99 129 172 215 261 313
#     4   9  17  32  51  69  95 133 170 213 268 327
#     4  11  23  37  55  80 107 136 172 218 267 324
#     4  10  22  36  56  82 117 150 181 222 262 318
#     4  10  18  33  56  82 106 141 185 221 261 315
#     4   8  14  26  42  67 104 137 165 211 265 318
#     4  11  23  39  57  75  99 134 177 228 279 329
#
# _framework density 20.961556000000002
#
# number of rings (size 3 to 8) (size 9 to 14) (size 15 to 20)
#    0.000    2.308    2.308    2.538    0.000    3.077 
#    0.000    0.385    0.000    0.000    0.000    0.538 
#    0.000    0.000    0.000    0.000    0.000    0.000 
#
# Total GULP energy -289960.622824 kJ/mol
# GULP energy per Si atom -5576.165824 kJ/mol
# Density = 2.091385 g / cm^3
# Si number density = 20.961556 Si / 1000 Ang^3
#
#
#
# Elastic Constant Matrix: (Units=GPa)
#
#
# Indices 1 2 3 4 5 6 
#
# 1 45.5534 2.8429 -5.3701 0.0000 0.0000 0.0000
# 2 2.8429 198.8968 29.8404 0.0000 0.0000 0.0000
# 3 -5.3701 29.8404 35.1851 0.0000 0.0000 0.0000
# 4 0.0000 0.0000 0.0000 10.7942 0.0000 0.0000
# 5 0.0000 0.0000 0.0000 0.0000 13.7494 0.0000
# 6 0.0000 0.0000 0.0000 0.0000 0.0000 -4.1265
#
#
#
# Elastic Compliance Matrix: (Units=1/GPa)
#
#
# Indices 1 2 3 4 5 6 
#
# 1 0.022513 -0.000959 0.004250 0.000000 0.000000 0.000000
# 2 -0.000959 0.005802 -0.005067 0.000000 0.000000 0.000000
# 3 0.004250 -0.005067 0.033367 0.000000 0.000000 0.000000
# 4 0.000000 0.000000 0.000000 0.092642 0.000000 0.000000
# 5 0.000000 0.000000 0.000000 0.000000 0.072731 0.000000
# 6 0.000000 0.000000 0.000000 0.000000 0.000000 -0.242336
#
#
# Mechanical properties :
#
#
# Convention : Reuss Voigt Hill
#
# Bulk Modulus (GPa) = 17.20322 37.14019 27.17170
# Shear Modulus (GPa) = 653.80392 20.90490 337.35441
#
# Velocity S-wave (km/s) = 17.68003 3.16143 12.69996
# Velocity P-wave (km/s) = 20.61559 5.57520 15.10108
#
# Compressibility (1/GPa) = 0.05812866
#
# Stress axis : x y z
#
# Youngs Moduli (GPa) = 44.41859 172.36595 29.96988
#
# Poissons Ratio (x) = 0.16536 -0.12736
# Poissons Ratio (y) = 0.04261 0.15185
# Poissons Ratio (z) = -0.18876 0.87334
#
# Static dielectric constant tensor:
#      x y z
#    x 1.804130 0.000000 0.000000 
#    y 0.000000 1.825860 0.000000 
#    z 0.000000 0.000000 1.719530 
# 
# From -- ./inp_files/27985.got.cif
#   From: 2010.05.17/outbox.cif.g08.bks.cpg/sg51_14_cif.got.tgz:27985.got - 2010.06.03 11:52:47.
