data_PCOD9398885
_publ_section_title
;
Structure prediction by ZEFSAII (Michael W. Deem and Ramdas Pophale) SiO2 
 PCOD9398885
Probable space group: P M M A
;
_chemical_formula_sum "Si O2"
_cell_formula_units_Z 40
_cell_length_a 25.531498
_cell_length_b 7.526541
_cell_length_c 10.792020
_cell_angle_alpha 90.000000
_cell_angle_beta 90.000000
_cell_angle_gamma 90.000000
_cell_volume 2073.836290
_symmetry_space_group_name_H-M "P M M A"
_symmetry_group_IT_number 51
_symmetry_cell_setting 'orthorhombic'
loop_
_space_group_symop_operation_xyz
x,y,z
1/2-x,-y,z
1/2+x,-y,-z
-x,y,-z
-x,-y,-z
1/2+x,y,-z
1/2-x,y,z
x,-y,z
loop_
_atom_site_type_symbol
_atom_site_label
_atom_site_fract_x
_atom_site_fract_y
_atom_site_fract_z
Si Si1 0.364131 0.209225 0.476901
Si Si2 0.526561 0.295465 0.621730
Si Si3 0.250000 0.216642 0.501232
Si Si4 0.025503 0.717613 0.872057
Si Si5 0.863678 0.285113 0.229370
Si Si6 0.250000 0.296062 0.790532
O O1 0.411736 0.293237 0.402706
O O2 0.305378 0.270882 0.443440
O O3 0.370535 0.237595 0.625259
O O4 0.367015 0.000000 0.453912
O O5 0.500000 0.211276 0.500000
O O6 0.507826 0.500000 0.624632
O O7 0.507849 0.221681 0.752614
O O8 0.250000 0.291479 0.640482
O O9 0.250000 0.000000 0.511153
O O10 0.025169 0.500000 0.875817
O O11 0.085482 0.772131 0.846820
O O12 0.000000 0.778585 0.000000
O O13 0.861429 0.500000 0.226071
O O14 0.807260 0.217527 0.180288
O O15 0.250000 0.500000 0.834597
#
# Coordination Sequence:
#
# PCOD9398885 Si02
#       6
#     8   8   4   8   8   4
#     4  10  18  28  45  68  93 119 150 186 228 269
#     4  10  18  30  47  67  91 120 151 184 221 264
#     4   8  16  28  40  61  92 120 144 180 226 272
#     4   9  17  29  46  65  89 122 153 181 221 274
#     4   9  15  27  44  65  90 115 148 185 226 268
#     4   8  14  22  40  65  86 110 142 186 226 262
#
# _framework density 19.287925999999999
#
# number of rings (size 3 to 8) (size 9 to 14) (size 15 to 20)
#    0.000    2.800    2.000    0.600    0.000    1.200 
#    0.000    0.000    0.000    3.600    0.000    4.200 
#    0.000    4.800    0.000    0.000    0.000    0.000 
#
# Total GULP energy -222842.296743 kJ/mol
# GULP energy per Si atom -5571.057419 kJ/mol
# Density = 1.924403 g / cm^3
# Si number density = 19.287926 Si / 1000 Ang^3
#
#
#
# Elastic Constant Matrix: (Units=GPa)
#
#
# Indices 1 2 3 4 5 6 
#
# 1 188.1949 -3.4143 82.9545 0.0000 0.0000 0.0000
# 2 -3.4143 49.5392 4.8130 0.0000 0.0000 0.0000
# 3 82.9545 4.8130 108.7161 0.0000 0.0000 0.0000
# 4 0.0000 0.0000 0.0000 13.3678 0.0000 0.0000
# 5 0.0000 0.0000 0.0000 0.0000 19.3205 0.0000
# 6 0.0000 0.0000 0.0000 0.0000 0.0000 1.7076
#
#
#
# Elastic Compliance Matrix: (Units=1/GPa)
#
#
# Indices 1 2 3 4 5 6 
#
# 1 0.008072 0.001160 -0.006211 0.000000 0.000000 0.000000
# 2 0.001160 0.020440 -0.001790 0.000000 0.000000 0.000000
# 3 -0.006211 -0.001790 0.014017 0.000000 0.000000 0.000000
# 4 0.000000 0.000000 0.000000 0.074807 0.000000 0.000000
# 5 0.000000 0.000000 0.000000 0.000000 0.051758 0.000000
# 6 0.000000 0.000000 0.000000 0.000000 0.000000 0.585620
#
#
# Mechanical properties :
#
#
# Convention : Reuss Voigt Hill
#
# Bulk Modulus (GPa) = 34.66571 57.23965 45.95268
# Shear Modulus (GPa) = 6.42664 24.35231 15.38948
#
# Velocity S-wave (km/s) = 1.82734 3.55712 2.82774
# Velocity P-wave (km/s) = 4.73962 6.82727 5.87689
#
# Compressibility (1/GPa) = 0.02884695
#
# Stress axis : x y z
#
# Youngs Moduli (GPa) = 123.87930 48.92405 71.34380
#
# Poissons Ratio (x) = -0.05674 0.44311
# Poissons Ratio (y) = -0.14367 0.12770
# Poissons Ratio (z) = 0.76940 0.08757
#
# Static dielectric constant tensor:
#      x y z
#    x 1.736570 0.000000 0.000000 
#    y 0.000000 1.704330 0.000000 
#    z 0.000000 0.000000 1.625270 
# 
# From -- ./inp_files/18942.got.cif
#   From: 2010.05.17/outbox.cif.g08.bks.cpg/sg51_10_cif.got.tgz:18942.got - 2010.06.03 11:52:47.
