data_PCOD9398776
_publ_section_title
;
Structure prediction by ZEFSAII (Michael W. Deem and Ramdas Pophale) SiO2 
 PCOD9398776
Probable space group: P M M A
;
_chemical_formula_sum "Si O2"
_cell_formula_units_Z 64
_cell_length_a 8.291628
_cell_length_b 22.439147
_cell_length_c 19.372302
_cell_angle_alpha 90.000000
_cell_angle_beta 90.000000
_cell_angle_gamma 90.000000
_cell_volume 3604.353547
_symmetry_space_group_name_H-M "P M M A"
_symmetry_group_IT_number 51
_symmetry_cell_setting 'orthorhombic'
loop_
_space_group_symop_operation_xyz
x,y,z
1/2-x,-y,z
1/2+x,-y,-z
-x,y,-z
-x,-y,-z
1/2+x,y,-z
1/2-x,y,z
x,-y,z
loop_
_atom_site_type_symbol
_atom_site_label
_atom_site_fract_x
_atom_site_fract_y
_atom_site_fract_z
Si Si1 0.445972 0.831192 0.319188
Si Si2 0.057323 0.390203 0.720764
Si Si3 0.057345 0.596607 0.425965
Si Si4 0.945717 0.264675 0.780155
Si Si5 0.941042 0.688908 0.926100
Si Si6 0.556937 0.732530 0.571773
Si Si7 0.444702 0.565493 0.871845
Si Si8 0.054850 0.068820 0.423422
O O1 0.250000 0.836040 0.316445
O O2 0.497689 0.800605 0.247283
O O3 0.492989 0.777365 0.369809
O O4 0.502179 0.890376 0.359191
O O5 0.250000 0.388421 0.717097
O O6 0.009680 0.423589 0.791499
O O7 0.995924 0.422109 0.650859
O O8 0.995804 0.322040 0.733344
O O9 0.250000 0.594908 0.427760
O O10 0.993490 0.665218 0.425098
O O11 0.000000 0.570858 0.500000
O O12 0.750000 0.265458 0.779023
O O13 0.005255 0.278217 0.857470
O O14 0.750000 0.694019 0.924638
O O15 0.987464 0.619863 0.915580
O O16 0.000000 0.710756 0.000000
O O17 0.500000 0.758775 0.500000
O O18 0.750000 0.728322 0.573968
O O19 0.250000 0.567958 0.875094
O O20 0.498640 0.500000 0.894068
O O21 0.250000 0.070503 0.423642
O O22 0.000000 0.089028 0.500000
O O23 0.002956 0.000000 0.415382
#
# Coordination Sequence:
#
# PCOD9398776 Si02
#       8
#     8   8   8   8   8   8   8   8
#     4   9  15  26  42  59  83 114 150 189 224 261
#     4  10  18  29  46  67  90 115 143 182 229 270
#     4  10  18  28  41  59  84 113 145 181 223 272
#     4   9  17  31  47  64  87 119 150 178 219 271
#     4  10  20  33  52  73  96 123 148 176 217 267
#     4   9  16  24  35  52  77 108 138 173 213 254
#     4   9  19  35  53  72  94 120 151 184 216 256
#     4   9  17  28  42  60  85 121 161 198 232 264
#
# _framework density 17.756304
#
# number of rings (size 3 to 8) (size 9 to 14) (size 15 to 20)
#    0.000    2.625    1.250    1.500    0.000    2.000 
#    0.000    0.625    0.000    0.375    0.000    0.000 
#    0.000    0.500    0.000    0.375    0.000    0.750 
#
# Total GULP energy -356355.707108 kJ/mol
# GULP energy per Si atom -5568.057924 kJ/mol
# Density = 1.771589 g / cm^3
# Si number density = 17.756304 Si / 1000 Ang^3
#
#
#
# Elastic Constant Matrix: (Units=GPa)
#
#
# Indices 1 2 3 4 5 6 
#
# 1 11.6281 3.6712 11.8910 0.0000 0.0000 0.0000
# 2 3.6712 77.2111 30.6979 0.0000 0.0000 0.0000
# 3 11.8910 30.6979 115.5267 0.0000 0.0000 0.0000
# 4 0.0000 0.0000 0.0000 9.3231 0.0000 0.0000
# 5 0.0000 0.0000 0.0000 0.0000 24.7618 0.0000
# 6 0.0000 0.0000 0.0000 0.0000 0.0000 8.5179
#
#
#
# Elastic Compliance Matrix: (Units=1/GPa)
#
#
# Indices 1 2 3 4 5 6 
#
# 1 0.096150 -0.000712 -0.009707 0.000000 0.000000 0.000000
# 2 -0.000712 0.014487 -0.003776 0.000000 0.000000 0.000000
# 3 -0.009707 -0.003776 0.010659 0.000000 0.000000 0.000000
# 4 0.000000 0.000000 0.000000 0.107261 0.000000 0.000000
# 5 0.000000 0.000000 0.000000 0.000000 0.040385 0.000000
# 6 0.000000 0.000000 0.000000 0.000000 0.000000 0.117399
#
#
# Mechanical properties :
#
#
# Convention : Reuss Voigt Hill
#
# Bulk Modulus (GPa) = 10.76379 32.98736 21.87558
# Shear Modulus (GPa) = 11.21831 19.06094 15.13962
#
# Velocity S-wave (km/s) = 2.51628 3.27995 2.92316
# Velocity P-wave (km/s) = 3.81016 5.74127 4.87235
#
# Compressibility (1/GPa) = 0.09290407
#
# Stress axis : x y z
#
# Youngs Moduli (GPa) = 10.40039 69.02885 93.82127
#
# Poissons Ratio (x) = 0.04916 0.91076
# Poissons Ratio (y) = 0.00741 0.35428
# Poissons Ratio (z) = 0.10096 0.26066
#
# Static dielectric constant tensor:
#      x y z
#    x 1.614790 0.000000 0.000000 
#    y 0.000000 1.631820 0.000000 
#    z 0.000000 0.000000 1.666170 
# 
# From -- ./inp_files/28653.got.cif
#   From: 2010.05.17/outbox.cif.g08.bks.cpg/sg51_15_cif.got.tgz:28653.got - 2010.06.03 11:52:47.
