data_PCOD9398364
_publ_section_title
;
Structure prediction by ZEFSAII (Michael W. Deem and Ramdas Pophale) SiO2 
 PCOD9398364
Probable space group: P M M A
;
_chemical_formula_sum "Si O2"
_cell_formula_units_Z 48
_cell_length_a 8.805547
_cell_length_b 21.422469
_cell_length_c 20.221382
_cell_angle_alpha 90.000000
_cell_angle_beta 90.000000
_cell_angle_gamma 90.000000
_cell_volume 3814.491891
_symmetry_space_group_name_H-M "P M M A"
_symmetry_group_IT_number 51
_symmetry_cell_setting 'orthorhombic'
loop_
_space_group_symop_operation_xyz
x,y,z
1/2-x,-y,z
1/2+x,-y,-z
-x,y,-z
-x,-y,-z
1/2+x,y,-z
1/2-x,y,z
x,-y,z
loop_
_atom_site_type_symbol
_atom_site_label
_atom_site_fract_x
_atom_site_fract_y
_atom_site_fract_z
Si Si1 0.431208 0.125582 0.426126
Si Si2 0.067594 0.500000 0.426384
Si Si3 0.432224 0.427209 0.794175
Si Si4 0.931374 0.000000 0.425150
Si Si5 0.928182 0.424665 0.931650
Si Si6 0.932931 0.381497 0.349035
Si Si7 0.931894 0.265423 0.574141
O O1 0.500000 0.128648 0.500000
O O2 0.250000 0.116251 0.429773
O O3 0.460973 0.195055 0.399149
O O4 0.507449 0.064545 0.394153
O O5 0.250000 0.500000 0.428366
O O6 0.000000 0.500000 0.500000
O O7 0.006232 0.439070 0.388607
O O8 0.250000 0.427077 0.799789
O O9 0.479655 0.500000 0.785084
O O10 0.499889 0.402610 0.862831
O O11 0.474048 0.390024 0.728134
O O12 0.000000 0.000000 0.500000
O O13 0.750000 0.000000 0.428475
O O14 0.750000 0.412749 0.932006
O O15 0.951843 0.500000 0.931341
O O16 0.000000 0.400947 0.000000
O O17 0.750000 0.385117 0.354818
O O18 0.993786 0.317878 0.380446
O O19 0.750000 0.273860 0.570130
O O20 0.000000 0.270545 0.500000
#
# Coordination Sequence:
#
# PCOD9398364 Si02
#       7
#     8   4   8   4   8   8   8
#     4   9  16  26  39  54  74  95 118 146 182 223
#     4  12  24  36  48  58  71  90 121 162 202 244
#     4   9  17  30  44  57  75  96 119 149 187 229
#     4  10  16  22  36  56  76  94 116 142 177 220
#     4   9  16  25  39  59  79  98 118 141 174 216
#     4  11  21  34  47  59  75  96 123 158 200 239
#     4  10  20  32  44  58  74  97 126 159 196 236
#
# _framework density 12.583589
#
# number of rings (size 3 to 8) (size 9 to 14) (size 15 to 20)
#    0.000    2.167    0.833    5.000    0.000    5.333 
#    0.000    0.000    0.000    0.000    0.000    0.000 
#    0.000    0.000    0.000    0.000    0.000    0.000 
#
# Total GULP energy -267454.711057 kJ/mol
# GULP energy per Si atom -5571.973147 kJ/mol
# Density = 1.255495 g / cm^3
# Si number density = 12.583589 Si / 1000 Ang^3
#
#
#
# Elastic Constant Matrix: (Units=GPa)
#
#
# Indices 1 2 3 4 5 6 
#
# 1 47.1907 40.2590 39.6501 0.0000 0.0000 0.0000
# 2 40.2590 93.4639 41.9165 0.0000 0.0000 0.0000
# 3 39.6501 41.9165 95.3385 0.0000 0.0000 0.0000
# 4 0.0000 0.0000 0.0000 0.0151 0.0000 0.0000
# 5 0.0000 0.0000 0.0000 0.0000 19.1332 0.0000
# 6 0.0000 0.0000 0.0000 0.0000 0.0000 15.7751
#
#
#
# Elastic Compliance Matrix: (Units=1/GPa)
#
#
# Indices 1 2 3 4 5 6 
#
# 1 0.042093 -0.012805 -0.011876 0.000000 0.000000 0.000000
# 2 -0.012805 0.017223 -0.002247 0.000000 0.000000 0.000000
# 3 -0.011876 -0.002247 0.016416 0.000000 0.000000 0.000000
# 4 0.000000 0.000000 0.000000 66.245252 0.000000 0.000000
# 5 0.000000 0.000000 0.000000 0.000000 0.052265 0.000000
# 6 0.000000 0.000000 0.000000 0.000000 0.000000 0.063391
#
#
# Mechanical properties :
#
#
# Convention : Reuss Voigt Hill
#
# Bulk Modulus (GPa) = 45.71241 53.29381 49.50311
# Shear Modulus (GPa) = 0.07519 14.59585 7.33552
#
# Velocity S-wave (km/s) = 0.24471 3.40944 2.41704
# Velocity P-wave (km/s) = 6.04034 7.61202 6.87126
#
# Compressibility (1/GPa) = 0.02187590
#
# Stress axis : x y z
#
# Youngs Moduli (GPa) = 23.75669 58.06312 60.91691
#
# Poissons Ratio (x) = 0.74351 0.72346
# Poissons Ratio (y) = 0.30421 0.13685
# Poissons Ratio (z) = 0.28214 0.13044
#
# Static dielectric constant tensor:
#      x y z
#    x 1.420620 0.000000 0.000000 
#    y 0.000000 1.430130 0.000000 
#    z 0.000000 0.000000 1.392940 
# 
# From -- ./inp_files/28143.got.cif
#   From: 2010.05.17/outbox.cif.g08.bks.cpg/sg51_15_cif.got.tgz:28143.got - 2010.06.03 11:52:47.
