data_PCOD9398789
_publ_section_title
;
Structure prediction by ZEFSAII (Michael W. Deem and Ramdas Pophale) SiO2 
 PCOD9398789
Probable space group: P M M A
;
_chemical_formula_sum "Si O2"
_cell_formula_units_Z 56
_cell_length_a 29.511568
_cell_length_b 7.931893
_cell_length_c 13.932532
_cell_angle_alpha 90.000000
_cell_angle_beta 90.000000
_cell_angle_gamma 90.000000
_cell_volume 3261.363310
_symmetry_space_group_name_H-M "P M M A"
_symmetry_group_IT_number 51
_symmetry_cell_setting 'orthorhombic'
loop_
_space_group_symop_operation_xyz
x,y,z
1/2-x,-y,z
1/2+x,-y,-z
-x,y,-z
-x,-y,-z
1/2+x,y,-z
1/2-x,y,z
x,-y,z
loop_
_atom_site_type_symbol
_atom_site_label
_atom_site_fract_x
_atom_site_fract_y
_atom_site_fract_z
Si Si1 0.982655 0.794626 0.397478
Si Si2 0.800854 0.204510 0.018097
Si Si3 0.300569 0.299389 0.758847
Si Si4 0.968860 0.204224 0.796910
Si Si5 0.942787 0.692037 0.092606
Si Si6 0.611524 0.805915 0.915209
Si Si7 0.396383 0.801597 0.715139
O O1 0.931033 0.749486 0.368832
O O2 0.000000 0.732544 0.500000
O O3 0.013770 0.739909 0.307571
O O4 0.984523 0.000000 0.399972
O O5 0.750000 0.255888 0.989648
O O6 0.807744 0.259189 0.128291
O O7 0.802855 0.000000 0.018301
O O8 0.840887 0.270174 0.949921
O O9 0.250000 0.235571 0.733880
O O10 0.300783 0.500000 0.747535
O O11 0.343245 0.227318 0.701495
O O12 0.920011 0.268430 0.831685
O O13 0.007303 0.255875 0.873380
O O14 0.967664 0.000000 0.796282
O O15 0.942912 0.500000 0.058743
O O16 0.912401 0.708533 0.188386
O O17 0.920289 0.801516 0.009652
O O18 0.620797 0.000000 0.888773
O O19 0.404256 0.000000 0.733072
#
# Coordination Sequence:
#
# PCOD9398789 Si02
#       7
#     8   8   8   8   8   8   8
#     4   8  15  29  48  67  85 108 144 187 227 269
#     4   9  17  28  42  59  82 116 153 181 208 250
#     4  10  19  29  42  63  91 120 150 183 217 253
#     4   9  18  30  44  62  84 112 146 181 219 267
#     4  11  20  28  40  60  88 119 147 178 214 254
#     4  10  18  28  42  60  85 116 147 178 212 255
#     4  10  18  29  46  66  88 118 151 182 220 267
#
# _framework density 17.170732000000001
#
# number of rings (size 3 to 8) (size 9 to 14) (size 15 to 20)
#    0.000    2.429    1.429    3.429    0.000    3.143 
#    0.000    0.000    0.000   10.714    0.000    1.000 
#    0.000    5.714    0.000    3.857    0.000    3.571 
#
# Total GULP energy -312149.247128 kJ/mol
# GULP energy per Si atom -5574.093699 kJ/mol
# Density = 1.713165 g / cm^3
# Si number density = 17.170732 Si / 1000 Ang^3
#
#
#
# Elastic Constant Matrix: (Units=GPa)
#
#
# Indices 1 2 3 4 5 6 
#
# 1 152.4596 3.3029 61.7269 0.0000 0.0000 0.0000
# 2 3.3029 28.4632 -0.1303 0.0000 0.0000 0.0000
# 3 61.7269 -0.1303 62.2382 0.0000 0.0000 0.0000
# 4 0.0000 0.0000 0.0000 -12.7100 0.0000 0.0000
# 5 0.0000 0.0000 0.0000 0.0000 20.3569 0.0000
# 6 0.0000 0.0000 0.0000 0.0000 0.0000 8.7431
#
#
#
# Elastic Compliance Matrix: (Units=1/GPa)
#
#
# Indices 1 2 3 4 5 6 
#
# 1 0.011010 -0.001328 -0.010922 0.000000 0.000000 0.000000
# 2 -0.001328 0.035294 0.001391 0.000000 0.000000 0.000000
# 3 -0.010922 0.001391 0.026903 0.000000 0.000000 0.000000
# 4 0.000000 0.000000 0.000000 -0.078678 0.000000 0.000000
# 5 0.000000 0.000000 0.000000 0.000000 0.049123 0.000000
# 6 0.000000 0.000000 0.000000 0.000000 0.000000 0.114375
#
#
# Mechanical properties :
#
#
# Convention : Reuss Voigt Hill
#
# Bulk Modulus (GPa) = 19.42213 41.44000 30.43107
# Shear Modulus (GPa) = 25.39257 15.16212 20.27735
#
# Velocity S-wave (km/s) = 3.84973 2.97479 3.44019
# Velocity P-wave (km/s) = 5.57640 5.99880 5.79146
#
# Compressibility (1/GPa) = 0.05148765
#
# Stress axis : x y z
#
# Youngs Moduli (GPa) = 90.82592 28.33380 37.17074
#
# Poissons Ratio (x) = 0.03762 0.40599
# Poissons Ratio (y) = 0.12058 -0.05169
# Poissons Ratio (z) = 0.99204 -0.03940
#
# Static dielectric constant tensor:
#      x y z
#    x 1.638940 0.000000 0.000000 
#    y 0.000000 1.607640 0.000000 
#    z 0.000000 0.000000 1.554760 
# 
# From -- ./inp_files/26524.got.cif
#   From: 2010.05.17/outbox.cif.g08.bks.cpg/sg51_14_cif.got.tgz:26524.got - 2010.06.03 11:52:47.
