data_PCOD9398584
_publ_section_title
;
Structure prediction by ZEFSAII (Michael W. Deem and Ramdas Pophale) SiO2 
 PCOD9398584
Probable space group: P M M A
;
_chemical_formula_sum "Si O2"
_cell_formula_units_Z 56
_cell_length_a 22.200326
_cell_length_b 7.468085
_cell_length_c 17.543447
_cell_angle_alpha 90.000000
_cell_angle_beta 90.000000
_cell_angle_gamma 90.000000
_cell_volume 2908.596876
_symmetry_space_group_name_H-M "P M M A"
_symmetry_group_IT_number 51
_symmetry_cell_setting 'orthorhombic'
loop_
_space_group_symop_operation_xyz
x,y,z
1/2-x,-y,z
1/2+x,-y,-z
-x,y,-z
-x,-y,-z
1/2+x,y,-z
1/2-x,y,z
x,-y,z
loop_
_atom_site_type_symbol
_atom_site_label
_atom_site_fract_x
_atom_site_fract_y
_atom_site_fract_z
Si Si1 0.622148 0.783860 0.304234
Si Si2 0.317478 0.707880 0.537903
Si Si3 0.941909 0.788276 0.547344
Si Si4 0.971355 0.781824 0.878122
Si Si5 0.681846 0.218974 0.147227
Si Si6 0.090230 0.782196 0.973587
Si Si7 0.516014 0.781307 0.706036
O O1 0.664554 0.726467 0.373339
O O2 0.645972 0.723991 0.222301
O O3 0.552805 0.728447 0.312956
O O4 0.622378 0.000000 0.305054
O O5 0.250000 0.786150 0.524620
O O6 0.313307 0.500000 0.519220
O O7 0.377044 0.771210 0.492670
O O8 0.000000 0.716000 0.500000
O O9 0.944135 0.720910 0.634441
O O10 0.953060 0.000000 0.552938
O O11 0.034415 0.732184 0.918557
O O12 0.967305 0.719339 0.791174
O O13 0.970613 0.000000 0.875814
O O14 0.921901 0.722987 0.940137
O O15 0.750000 0.278141 0.152123
O O16 0.649500 0.277118 0.069975
O O17 0.681055 0.000000 0.147823
O O18 0.090043 0.000000 0.975514
O O19 0.517197 0.000000 0.709616
#
# Coordination Sequence:
#
# PCOD9398584 Si02
#       7
#     8   8   8   8   8   8   8
#     4  10  17  29  48  70  95 123 155 192 236 286
#     4  11  24  38  50  68  97 130 162 198 241 292
#     4  10  19  33  53  75  96 124 161 201 244 289
#     4   8  12  19  33  53  82 118 148 178 219 267
#     4   9  15  21  33  57  88 120 152 186 224 270
#     4   8  12  18  30  51  82 119 151 174 210 266
#     4   9  15  25  43  67  94 118 151 197 236 279
#
# _framework density 19.253271000000002
#
# number of rings (size 3 to 8) (size 9 to 14) (size 15 to 20)
#    0.000    2.714    2.857    1.714    0.000    2.000 
#    0.000    0.000    0.000    0.857    0.000    4.000 
#    0.000    3.429    0.000    3.286    0.000    2.571 
#
# Total GULP energy -312153.254038 kJ/mol
# GULP energy per Si atom -5574.165251 kJ/mol
# Density = 1.920945 g / cm^3
# Si number density = 19.253271 Si / 1000 Ang^3
#
#
#
# Elastic Constant Matrix: (Units=GPa)
#
#
# Indices 1 2 3 4 5 6 
#
# 1 97.9249 -4.8180 65.8112 0.0000 0.0000 0.0000
# 2 -4.8180 49.6525 2.9461 0.0000 0.0000 0.0000
# 3 65.8112 2.9461 150.4451 0.0000 0.0000 0.0000
# 4 0.0000 0.0000 0.0000 -36.9102 0.0000 0.0000
# 5 0.0000 0.0000 0.0000 0.0000 24.1189 0.0000
# 6 0.0000 0.0000 0.0000 0.0000 0.0000 6.8489
#
#
#
# Elastic Compliance Matrix: (Units=1/GPa)
#
#
# Indices 1 2 3 4 5 6 
#
# 1 0.014623 0.001801 -0.006432 0.000000 0.000000 0.000000
# 2 0.001801 0.020385 -0.001187 0.000000 0.000000 0.000000
# 3 -0.006432 -0.001187 0.009484 0.000000 0.000000 0.000000
# 4 0.000000 0.000000 0.000000 -0.027093 0.000000 0.000000
# 5 0.000000 0.000000 0.000000 0.000000 0.041461 0.000000
# 6 0.000000 0.000000 0.000000 0.000000 0.000000 0.146009
#
#
# Mechanical properties :
#
#
# Convention : Reuss Voigt Hill
#
# Bulk Modulus (GPa) = 30.43631 47.32235 38.87933
# Shear Modulus (GPa) = 21.98209 14.41708 18.19959
#
# Velocity S-wave (km/s) = 3.38262 2.73941 3.07786
# Velocity P-wave (km/s) = 5.57664 5.88541 5.73310
#
# Compressibility (1/GPa) = 0.03285549
#
# Stress axis : x y z
#
# Youngs Moduli (GPa) = 68.38428 49.05545 105.44224
#
# Poissons Ratio (x) = -0.08833 0.67822
# Poissons Ratio (y) = -0.12313 0.12514
# Poissons Ratio (z) = 0.43985 0.05822
#
# Static dielectric constant tensor:
#      x y z
#    x 1.666070 0.000000 0.000000 
#    y 0.000000 1.748910 0.000000 
#    z 0.000000 0.000000 1.680350 
# 
# From -- ./inp_files/30755.got.cif
#   From: 2010.05.17/outbox.cif.g08.bks.cpg/sg51_16_cif.got.tgz:30755.got - 2010.06.03 11:52:47.
