data_PCOD9398142
_publ_section_title
;
Structure prediction by ZEFSAII (Michael W. Deem and Ramdas Pophale) SiO2 
 PCOD9398142
Probable space group: P B A N
;
_chemical_formula_sum "Si O2"
_cell_formula_units_Z 30
_cell_length_a 32.478456
_cell_length_b 7.712130
_cell_length_c 5.447674
_cell_angle_alpha 90.000000
_cell_angle_beta 90.000000
_cell_angle_gamma 90.000000
_cell_volume 1364.522896
_symmetry_space_group_name_H-M "P B A N"
_symmetry_group_IT_number 50
_space_group.IT_coordinate_system_code '2'
_symmetry_cell_setting 'orthorhombic'
loop_
_space_group_symop_operation_xyz
x,y,z
1/2-x,1/2-y,z
x,1/2-y,-z
1/2-x,y,-z
-x,-y,-z
1/2+x,1/2+y,-z
-x,1/2+y,z
1/2+x,-y,z
loop_
_atom_site_type_symbol
_atom_site_label
_atom_site_fract_x
_atom_site_fract_y
_atom_site_fract_z
Si Si1 0.427022 0.602453 0.190655
Si Si2 0.007026 0.750000 0.500000
Si Si3 0.547085 0.750000 0.000000
Si Si4 0.750000 0.750000 0.000000
Si Si5 0.853925 0.250000 0.500000
Si Si6 0.204640 0.065082 0.614171
O O1 0.459468 0.600847 0.420086
O O2 0.426878 0.424127 0.041185
O O3 0.383822 0.665179 0.297438
O O4 0.441164 0.750000 0.000000
O O5 0.979668 0.749477 0.747817
O O6 0.782332 0.882999 0.116405
O O7 0.825708 0.406692 0.592924
O O8 0.189954 0.250000 0.500000
O O9 0.250000 0.028273 0.500000
#
# Coordination Sequence:
#
# PCOD9398142 Si02
#       6
#     8   4   4   2   4   8
#     4  11  27  43  65 104 136 182 233 286 365 418
#     4  11  24  46  75 100 131 184 243 304 351 416
#     4  12  26  44  77  96 136 187 239 302 348 420
#     4   8  18  40  76 102 128 174 250 268 346 402
#     4  11  25  42  65  98 150 176 226 290 351 430
#     4   9  20  41  69 100 131 179 229 279 334 415
#
# _framework density 21.985706
#
# number of rings (size 3 to 8) (size 9 to 14) (size 15 to 20)
#    0.000    1.867    1.333    2.000    7.467    6.400 
#    0.000    6.667    0.000    0.000    0.000    0.000 
#    0.000    0.000    0.000    0.000    0.000    0.000 
#
# Total GULP energy -167080.627654 kJ/mol
# GULP energy per Si atom -5569.354255 kJ/mol
# Density = 2.193567 g / cm^3
# Si number density = 21.985706 Si / 1000 Ang^3
#
#
#
# Elastic Constant Matrix: (Units=GPa)
#
#
# Indices 1 2 3 4 5 6 
#
# 1 118.1087 99.1529 57.8538 0.0000 0.0000 0.0000
# 2 99.1529 215.8956 71.7792 0.0000 0.0000 0.0000
# 3 57.8538 71.7792 109.2114 0.0000 0.0000 0.0000
# 4 0.0000 0.0000 0.0000 56.9317 0.0000 0.0000
# 5 0.0000 0.0000 0.0000 0.0000 19.0514 0.0000
# 6 0.0000 0.0000 0.0000 0.0000 0.0000 14.2827
#
#
#
# Elastic Compliance Matrix: (Units=1/GPa)
#
#
# Indices 1 2 3 4 5 6 
#
# 1 0.015311 -0.005547 -0.004465 0.000000 0.000000 0.000000
# 2 -0.005547 0.007937 -0.002278 0.000000 0.000000 0.000000
# 3 -0.004465 -0.002278 0.013019 0.000000 0.000000 0.000000
# 4 0.000000 0.000000 0.000000 0.017565 0.000000 0.000000
# 5 0.000000 0.000000 0.000000 0.000000 0.052490 0.000000
# 6 0.000000 0.000000 0.000000 0.000000 0.000000 0.070015
#
#
# Mechanical properties :
#
#
# Convention : Reuss Voigt Hill
#
# Bulk Modulus (GPa) = 85.56809 100.08749 92.82779
# Shear Modulus (GPa) = 24.41274 32.34847 28.38061
#
# Velocity S-wave (km/s) = 3.33587 3.83997 3.59676
# Velocity P-wave (km/s) = 7.33769 8.07980 7.71767
#
# Compressibility (1/GPa) = 0.01168660
#
# Stress axis : x y z
#
# Youngs Moduli (GPa) = 65.31367 125.99469 76.81142
#
# Poissons Ratio (x) = 0.69892 0.34295
# Poissons Ratio (y) = 0.36231 0.17497
# Poissons Ratio (z) = 0.29161 0.28700
#
# Static dielectric constant tensor:
#      x y z
#    x 1.796210 0.000000 0.000000 
#    y 0.000000 1.860450 0.000000 
#    z 0.000000 0.000000 1.922710 
# 
# From -- ./inp_files/6956.got.cif
#   From: 2010.05.17/outbox.cif.g08.bks.cpg/sg50_4_cif.got.tgz:6956.got - 2010.06.03 11:33:33.
