data_PCOD9398527
_publ_section_title
;
Structure prediction by ZEFSAII (Michael W. Deem and Ramdas Pophale) SiO2 
 PCOD9398527
Probable space group: P M M A
;
_chemical_formula_sum "Si O2"
_cell_formula_units_Z 32
_cell_length_a 18.145550
_cell_length_b 8.591201
_cell_length_c 11.898891
_cell_angle_alpha 90.000000
_cell_angle_beta 90.000000
_cell_angle_gamma 90.000000
_cell_volume 1854.942717
_symmetry_space_group_name_H-M "P M M A"
_symmetry_group_IT_number 51
_symmetry_cell_setting 'orthorhombic'
loop_
_space_group_symop_operation_xyz
x,y,z
1/2-x,-y,z
1/2+x,-y,-z
-x,y,-z
-x,-y,-z
1/2+x,y,-z
1/2-x,y,z
x,-y,z
loop_
_atom_site_type_symbol
_atom_site_label
_atom_site_fract_x
_atom_site_fract_y
_atom_site_fract_z
Si Si1 0.890421 0.815015 0.948897
Si Si2 0.542510 0.314896 0.155056
Si Si3 0.017507 0.813991 0.371487
Si Si4 0.831272 0.313882 0.728248
O O1 0.835790 0.743197 0.857492
O O2 0.969442 0.768356 0.894526
O O3 0.883263 0.000000 0.954165
O O4 0.892276 0.743462 0.073883
O O5 0.534664 0.500000 0.144229
O O6 0.539651 0.265515 0.284759
O O7 0.099947 0.760361 0.337391
O O8 0.000000 0.774068 0.500000
O O9 0.012817 0.000000 0.357395
O O10 0.750000 0.274085 0.683065
O O11 0.840321 0.500000 0.726657
#
# Coordination Sequence:
#
# PCOD9398527 Si02
#       4
#     8   8   8   8
#     4  10  17  27  45  68  95 123 153 190 236 288
#     4  10  17  27  45  68  95 123 154 194 238 283
#     4  10  20  33  50  73 100 131 170 212 250 294
#     4  10  20  33  50  73 100 129 163 204 251 303
#
# _framework density 17.251207999999998
#
# number of rings (size 3 to 8) (size 9 to 14) (size 15 to 20)
#    0.000    2.000    0.000   10.500    0.000    4.000 
#    0.000    0.000    0.000    1.500    0.000    7.000 
#    0.000    0.000    0.000    0.000    0.000    0.000 
#
# Total GULP energy -178315.847764 kJ/mol
# GULP energy per Si atom -5572.370243 kJ/mol
# Density = 1.721194 g / cm^3
# Si number density = 17.251208 Si / 1000 Ang^3
#
#
#
# Elastic Constant Matrix: (Units=GPa)
#
#
# Indices 1 2 3 4 5 6 
#
# 1 54.4818 8.9386 33.6609 0.0000 0.0000 0.0000
# 2 8.9386 43.8271 28.1868 0.0000 0.0000 0.0000
# 3 33.6609 28.1868 126.7035 0.0000 0.0000 0.0000
# 4 0.0000 0.0000 0.0000-3461.9452 0.0000 0.0000
# 5 0.0000 0.0000 0.0000 0.0000 15.4157 0.0000
# 6 0.0000 0.0000 0.0000 0.0000 0.0000 6.8035
#
#
#
# Elastic Compliance Matrix: (Units=1/GPa)
#
#
# Indices 1 2 3 4 5 6 
#
# 1 0.021986 -0.000849 -0.005652 0.000000 0.000000 0.000000
# 2 -0.000849 0.026659 -0.005705 0.000000 0.000000 0.000000
# 3 -0.005652 -0.005705 0.010663 0.000000 0.000000 0.000000
# 4 0.000000 0.000000 0.000000 -0.000289 0.000000 0.000000
# 5 0.000000 0.000000 0.000000 0.000000 0.064869 0.000000
# 6 0.000000 0.000000 0.000000 0.000000 0.000000 0.146982
#
#
# Mechanical properties :
#
#
# Convention : Reuss Voigt Hill
#
# Bulk Modulus (GPa) = 28.65650 40.73165 34.69407
# Shear Modulus (GPa) = 16.29113 -677.66345 -330.68616
#
# Velocity S-wave (km/s) = 3.07636 -19.84121 -13.86019
# Velocity P-wave (km/s) = 5.40981 22.38830 15.36180
#
# Compressibility (1/GPa) = 0.03489610
#
# Stress axis : x y z
#
# Youngs Moduli (GPa) = 45.48321 37.51042 93.78057
#
# Poissons Ratio (x) = 0.03185 0.53006
# Poissons Ratio (y) = 0.03862 0.53503
# Poissons Ratio (z) = 0.25708 0.21400
#
# Static dielectric constant tensor:
#      x y z
#    x 1.758420 0.000000 0.000000 
#    y 0.000000 1.573720 0.000000 
#    z 0.000000 0.000000 1.637510 
# 
# From -- ./inp_files/16975.got.cif
#   From: 2010.05.17/outbox.cif.g08.bks.cpg/sg51_9_cif.got.tgz:16975.got - 2010.06.03 11:52:47.
