data_PCOD9398095
_publ_section_title
;
Structure prediction by ZEFSAII (Michael W. Deem and Ramdas Pophale) SiO2 
 PCOD9398095
Probable space group: P B A N
;
_chemical_formula_sum "Si O2"
_cell_formula_units_Z 58
_cell_length_a 9.419380
_cell_length_b 23.682627
_cell_length_c 11.789626
_cell_angle_alpha 90.000000
_cell_angle_beta 90.000000
_cell_angle_gamma 90.000000
_cell_volume 2629.978638
_symmetry_space_group_name_H-M "P B A N"
_symmetry_group_IT_number 50
_space_group.IT_coordinate_system_code '2'
_symmetry_cell_setting 'orthorhombic'
loop_
_space_group_symop_operation_xyz
x,y,z
1/2-x,1/2-y,z
x,1/2-y,-z
1/2-x,y,-z
-x,-y,-z
1/2+x,1/2+y,-z
-x,1/2+y,z
1/2+x,-y,z
loop_
_atom_site_type_symbol
_atom_site_label
_atom_site_fract_x
_atom_site_fract_y
_atom_site_fract_z
Si Si1 0.622644 0.117983 0.351125
Si Si2 0.750000 0.750000 0.500000
Si Si3 0.376572 0.185679 0.708054
Si Si4 0.048757 0.909259 0.598482
Si Si5 0.404107 0.725028 0.191568
Si Si6 0.436584 0.500361 0.256172
Si Si7 0.350617 0.160865 0.101998
Si Si8 0.824509 0.527367 0.886334
O O1 0.787062 0.102442 0.372913
O O2 0.537600 0.111121 0.468905
O O3 0.613109 0.179172 0.293851
O O4 0.568384 0.067563 0.272200
O O5 0.659768 0.787547 0.413485
O O6 0.451363 0.126918 0.682207
O O7 0.491992 0.224918 0.769272
O O8 0.234854 0.177804 0.783133
O O9 0.999766 0.972135 0.630630
O O10 0.250000 0.750000 0.161204
O O11 0.496070 0.690218 0.099852
O O12 0.542167 0.490297 0.151232
O O13 0.284400 0.477830 0.218671
O O14 0.360335 0.093134 0.094879
O O15 0.250000 0.180013 0.000000
O O16 0.750000 0.505743 0.000000
#
# Coordination Sequence:
#
# PCOD9398095 Si02
#       8
#     8   2   8   8   8   8   8   8
#     4  11  24  42  65 101 143 181 229 292 359 415
#     4  12  24  40  68 100 136 180 234 286 350 408
#     4  12  24  43  68 100 137 180 238 288 346 426
#     4  11  24  41  65 101 140 184 232 286 353 420
#     4  12  24  45  73 102 139 185 236 289 353 424
#     4  12  22  44  69  96 139 182 235 288 348 430
#     4  11  25  48  72 100 142 184 227 298 359 416
#     4  11  24  41  70 100 133 181 232 295 356 415
#
# _framework density 22.053412000000002
#
# number of rings (size 3 to 8) (size 9 to 14) (size 15 to 20)
#    0.000    0.552    6.897    1.655    0.000    1.103 
#    0.000    1.379    0.000    0.000    0.000    0.000 
#    0.000    0.000    0.000    0.000    0.000    0.000 
#
# Total GULP energy -324230.002254 kJ/mol
# GULP energy per Si atom -5590.172453 kJ/mol
# Density = 2.200322 g / cm^3
# Si number density = 22.053412 Si / 1000 Ang^3
#
#
#
# Elastic Constant Matrix: (Units=GPa)
#
#
# Indices 1 2 3 4 5 6 
#
# 1 88.9820 9.3773 7.6631 0.0000 0.0000 0.0000
# 2 9.3773 58.8741 -4.2890 0.0000 0.0000 0.0000
# 3 7.6631 -4.2890 63.7690 0.0000 0.0000 0.0000
# 4 0.0000 0.0000 0.0000 22.5289 0.0000 0.0000
# 5 0.0000 0.0000 0.0000 0.0000 27.0359 0.0000
# 6 0.0000 0.0000 0.0000 0.0000 0.0000 23.6721
#
#
#
# Elastic Compliance Matrix: (Units=1/GPa)
#
#
# Indices 1 2 3 4 5 6 
#
# 1 0.011575 -0.001955 -0.001522 0.000000 0.000000 0.000000
# 2 -0.001955 0.017399 0.001405 0.000000 0.000000 0.000000
# 3 -0.001522 0.001405 0.015959 0.000000 0.000000 0.000000
# 4 0.000000 0.000000 0.000000 0.044387 0.000000 0.000000
# 5 0.000000 0.000000 0.000000 0.000000 0.036988 0.000000
# 6 0.000000 0.000000 0.000000 0.000000 0.000000 0.042244
#
#
# Mechanical properties :
#
#
# Convention : Reuss Voigt Hill
#
# Bulk Modulus (GPa) = 24.51605 26.34753 25.43179
# Shear Modulus (GPa) = 26.83946 27.90564 27.37255
#
# Velocity S-wave (km/s) = 3.49237 3.56106 3.52688
# Velocity P-wave (km/s) = 5.23479 5.37413 5.30491
#
# Compressibility (1/GPa) = 0.04078960
#
# Stress axis : x y z
#
# Youngs Moduli (GPa) = 86.39072 57.47434 62.66030
#
# Poissons Ratio (x) = 0.11234 0.09540
# Poissons Ratio (y) = 0.16886 -0.08804
# Poissons Ratio (z) = 0.13153 -0.08076
#
# Static dielectric constant tensor:
#      x y z
#    x 1.809460 0.000000 0.000000 
#    y 0.000000 1.817230 0.000000 
#    z 0.000000 0.000000 1.830030 
# 
# From -- ./inp_files/19394.got.cif
#   From: 2010.05.17/outbox.cif.g08.bks.cpg/sg50_10_cif.got.tgz:19394.got - 2010.06.03 11:33:33.
