data_PCOD9398998
_publ_section_title
;
Structure prediction by ZEFSAII (Michael W. Deem and Ramdas Pophale) SiO2 
 PCOD9398998
Probable space group: P M M A
;
_chemical_formula_sum "Si O2"
_cell_formula_units_Z 64
_cell_length_a 8.637808
_cell_length_b 22.150421
_cell_length_c 19.270248
_cell_angle_alpha 90.000000
_cell_angle_beta 90.000000
_cell_angle_gamma 90.000000
_cell_volume 3686.997433
_symmetry_space_group_name_H-M "P M M A"
_symmetry_group_IT_number 51
_symmetry_cell_setting 'orthorhombic'
loop_
_space_group_symop_operation_xyz
x,y,z
1/2-x,-y,z
1/2+x,-y,-z
-x,y,-z
-x,-y,-z
1/2+x,y,-z
1/2-x,y,z
x,-y,z
loop_
_atom_site_type_symbol
_atom_site_label
_atom_site_fract_x
_atom_site_fract_y
_atom_site_fract_z
Si Si1 0.563987 0.433046 0.873050
Si Si2 0.562847 0.070174 0.575768
Si Si3 0.437773 0.736455 0.216309
Si Si4 0.932124 0.170389 0.680376
Si Si5 0.930238 0.742316 0.426987
Si Si6 0.427775 0.403523 0.573777
Si Si7 0.433113 0.690198 0.926213
Si Si8 0.564868 0.391072 0.719841
O O1 0.750000 0.424555 0.879719
O O2 0.523030 0.500000 0.897025
O O3 0.480176 0.379528 0.912895
O O4 0.528661 0.426677 0.790711
O O5 0.500000 0.088392 0.500000
O O6 0.750000 0.074404 0.573288
O O7 0.504806 0.112803 0.638343
O O8 0.520910 0.000000 0.586750
O O9 0.250000 0.735408 0.217339
O O10 0.493267 0.800010 0.248597
O O11 0.494672 0.725487 0.138795
O O12 0.489533 0.677655 0.261762
O O13 0.750000 0.159120 0.690238
O O14 0.961341 0.226199 0.628747
O O15 0.750000 0.759828 0.418382
O O16 0.937392 0.669824 0.425701
O O17 0.000000 0.762089 0.500000
O O18 0.500000 0.423411 0.500000
O O19 0.250000 0.421868 0.573831
O O20 0.501365 0.418669 0.648407
O O21 0.250000 0.696088 0.925559
O O22 0.500000 0.709651 0.000000
O O23 0.750000 0.388843 0.712416
#
# Coordination Sequence:
#
# PCOD9398998 Si02
#       8
#     8   8   8   8   8   8   8   8
#     4   9  19  36  56  77 100 128 161 194 231 277
#     4   9  18  31  45  63  91 131 177 218 254 290
#     4   9  18  32  49  70  96 125 157 192 238 291
#     4  10  18  29  46  65  90 124 161 204 247 288
#     4  10  19  27  37  57  86 117 152 192 237 284
#     4  10  19  28  40  59  85 116 149 189 235 283
#     4  11  22  36  55  77 104 133 159 188 228 278
#     4   9  16  29  48  67  91 120 149 190 238 286
#
# _framework density 17.358298000000001
#
# number of rings (size 3 to 8) (size 9 to 14) (size 15 to 20)
#    0.000    2.375    1.250    3.000    0.000    5.500 
#    0.000    0.000    0.000    0.375    0.000    0.000 
#    0.000    0.500    0.000    0.875    0.000    1.250 
#
# Total GULP energy -356726.178120 kJ/mol
# GULP energy per Si atom -5573.846533 kJ/mol
# Density = 1.731879 g / cm^3
# Si number density = 17.358298 Si / 1000 Ang^3
#
#
#
# Elastic Constant Matrix: (Units=GPa)
#
#
# Indices 1 2 3 4 5 6 
#
# 1 11.9966 5.8580 12.1020 0.0000 0.0000 0.0000
# 2 5.8580 72.9263 26.1134 0.0000 0.0000 0.0000
# 3 12.1020 26.1134 108.4888 0.0000 0.0000 0.0000
# 4 0.0000 0.0000 0.0000 11.1601 0.0000 0.0000
# 5 0.0000 0.0000 0.0000 0.0000 26.8922 0.0000
# 6 0.0000 0.0000 0.0000 0.0000 0.0000 28.6451
#
#
#
# Elastic Compliance Matrix: (Units=1/GPa)
#
#
# Indices 1 2 3 4 5 6 
#
# 1 0.095089 -0.004202 -0.009596 0.000000 0.000000 0.000000
# 2 -0.004202 0.015192 -0.003188 0.000000 0.000000 0.000000
# 3 -0.009596 -0.003188 0.011055 0.000000 0.000000 0.000000
# 4 0.000000 0.000000 0.000000 0.089605 0.000000 0.000000
# 5 0.000000 0.000000 0.000000 0.000000 0.037185 0.000000
# 6 0.000000 0.000000 0.000000 0.000000 0.000000 0.034910
#
#
# Mechanical properties :
#
#
# Convention : Reuss Voigt Hill
#
# Bulk Modulus (GPa) = 11.44636 31.28427 21.36532
# Shear Modulus (GPa) = 14.44548 23.29538 18.87043
#
# Velocity S-wave (km/s) = 2.88791 3.66735 3.30072
# Velocity P-wave (km/s) = 4.21052 5.99953 5.18280
#
# Compressibility (1/GPa) = 0.08736402
#
# Stress axis : x y z
#
# Youngs Moduli (GPa) = 10.51647 65.82612 90.45468
#
# Poissons Ratio (x) = 0.27662 0.86798
# Poissons Ratio (y) = 0.04419 0.28836
# Poissons Ratio (z) = 0.10091 0.20984
#
# Static dielectric constant tensor:
#      x y z
#    x 1.594880 0.000000 0.000000 
#    y 0.000000 1.617470 0.000000 
#    z 0.000000 0.000000 1.572290 
# 
# From -- ./inp_files/28635.got.cif
#   From: 2010.05.17/outbox.cif.g08.bks.cpg/sg51_15_cif.got.tgz:28635.got - 2010.06.03 11:52:47.
