data_PCOD9398767
_publ_section_title
;
Structure prediction by ZEFSAII (Michael W. Deem and Ramdas Pophale) SiO2 
 PCOD9398767
Probable space group: P M M A
;
_chemical_formula_sum "Si O2"
_cell_formula_units_Z 44
_cell_length_a 7.694679
_cell_length_b 13.211226
_cell_length_c 29.420803
_cell_angle_alpha 90.000000
_cell_angle_beta 90.000000
_cell_angle_gamma 90.000000
_cell_volume 2990.805365
_symmetry_space_group_name_H-M "P M M A"
_symmetry_group_IT_number 51
_symmetry_cell_setting 'orthorhombic'
loop_
_space_group_symop_operation_xyz
x,y,z
1/2-x,-y,z
1/2+x,-y,-z
-x,y,-z
-x,-y,-z
1/2+x,y,-z
1/2-x,y,z
x,-y,z
loop_
_atom_site_type_symbol
_atom_site_label
_atom_site_fract_x
_atom_site_fract_y
_atom_site_fract_z
Si Si1 0.545873 0.878285 0.707867
Si Si2 0.250000 0.122694 0.777999
Si Si3 0.962425 0.804513 0.608927
Si Si4 0.959004 0.385694 0.552112
Si Si5 0.446124 0.123193 0.050927
Si Si6 0.958733 0.000000 0.553058
Si Si7 0.750000 0.123627 0.118125
O O1 0.750000 0.857942 0.716697
O O2 0.420568 0.848908 0.749164
O O3 0.490810 0.824347 0.661143
O O4 0.530184 0.000000 0.700588
O O5 0.250000 0.158917 0.829897
O O6 0.250000 0.000000 0.779926
O O7 0.750000 0.804708 0.607857
O O8 0.022900 0.699870 0.586593
O O9 0.022390 0.899118 0.578357
O O10 0.750000 0.388987 0.556066
O O11 0.025463 0.500000 0.559889
O O12 0.000000 0.357454 0.500000
O O13 0.250000 0.155423 0.060559
O O14 0.582326 0.155528 0.089059
O O15 0.448869 0.000000 0.050564
O O16 0.500000 0.154572 0.000000
O O17 0.000000 0.000000 0.500000
O O18 0.750000 0.000000 0.557659
O O19 0.750000 0.000000 0.118876
#
# Coordination Sequence:
#
# PCOD9398767 Si02
#       7
#     8   4   8   8   8   4   4
#     4   9  16  29  44  55  72  99 126 161 204 241
#     4   9  18  28  38  56  75  93 129 167 198 250
#     4   9  16  28  43  55  74 100 125 151 195 242
#     4   9  17  29  43  58  78 101 123 150 189 240
#     4   9  14  20  31  45  63  90 121 154 197 242
#     4  10  18  28  38  56  80  96 116 152 188 233
#     4   9  16  24  32  46  70  91 117 159 199 239
#
# _framework density 14.711755999999999
#
# number of rings (size 3 to 8) (size 9 to 14) (size 15 to 20)
#    0.000    2.909    1.818    0.545    0.000    0.727 
#    3.273    3.636    0.000    0.000    0.000    0.000 
#    0.000    0.000    0.000    0.000    0.000    0.000 
#
# Total GULP energy -245115.728134 kJ/mol
# GULP energy per Si atom -5570.812003 kJ/mol
# Density = 1.467827 g / cm^3
# Si number density = 14.711756 Si / 1000 Ang^3
#
#
#
# Elastic Constant Matrix: (Units=GPa)
#
#
# Indices 1 2 3 4 5 6 
#
# 1 78.2791 20.6410 62.8390 0.0000 0.0000 0.0000
# 2 20.6410 40.3962 42.0765 0.0000 0.0000 0.0000
# 3 62.8390 42.0765 156.8146 0.0000 0.0000 0.0000
# 4 0.0000 0.0000 0.0000 7.4486 0.0000 0.0000
# 5 0.0000 0.0000 0.0000 0.0000 23.1735 0.0000
# 6 0.0000 0.0000 0.0000 0.0000 0.0000 0.9398
#
#
#
# Elastic Compliance Matrix: (Units=1/GPa)
#
#
# Indices 1 2 3 4 5 6 
#
# 1 0.019009 -0.002469 -0.006955 0.000000 0.000000 0.000000
# 2 -0.002469 0.034677 -0.008315 0.000000 0.000000 0.000000
# 3 -0.006955 -0.008315 0.011395 0.000000 0.000000 0.000000
# 4 0.000000 0.000000 0.000000 0.134254 0.000000 0.000000
# 5 0.000000 0.000000 0.000000 0.000000 0.043153 0.000000
# 6 0.000000 0.000000 0.000000 0.000000 0.000000 1.064112
#
#
# Mechanical properties :
#
#
# Convention : Reuss Voigt Hill
#
# Bulk Modulus (GPa) = 33.77977 58.51141 46.14559
# Shear Modulus (GPa) = 3.69837 16.30792 10.00314
#
# Velocity S-wave (km/s) = 1.58725 3.33302 2.61040
# Velocity P-wave (km/s) = 5.13518 7.39393 6.36554
#
# Compressibility (1/GPa) = 0.02960352
#
# Stress axis : x y z
#
# Youngs Moduli (GPa) = 52.60722 28.83717 87.75706
#
# Poissons Ratio (x) = 0.07119 0.61034
# Poissons Ratio (y) = 0.12987 0.72973
# Poissons Ratio (z) = 0.36587 0.23979
#
# Static dielectric constant tensor:
#      x y z
#    x 1.521860 0.000000 0.000000 
#    y 0.000000 1.468230 0.000000 
#    z 0.000000 0.000000 1.472850 
# 
# From -- ./inp_files/36336.got.cif
#   From: 2010.05.17/outbox.cif.g08.bks.cpg/sg51_19_cif.got.tgz:36336.got - 2010.06.03 11:52:47.
