data_PCOD9398091
_publ_section_title
;
Structure prediction by ZEFSAII (Michael W. Deem and Ramdas Pophale) SiO2 
 PCOD9398091
Probable space group: P B A N
;
_chemical_formula_sum "Si O2"
_cell_formula_units_Z 40
_cell_length_a 18.373482
_cell_length_b 14.766828
_cell_length_c 7.490915
_cell_angle_alpha 90.000000
_cell_angle_beta 90.000000
_cell_angle_gamma 90.000000
_cell_volume 2032.420439
_symmetry_space_group_name_H-M "P B A N"
_symmetry_group_IT_number 50
_space_group.IT_coordinate_system_code '2'
_symmetry_cell_setting 'orthorhombic'
loop_
_space_group_symop_operation_xyz
x,y,z
1/2-x,1/2-y,z
x,1/2-y,-z
1/2-x,y,-z
-x,-y,-z
1/2+x,1/2+y,-z
-x,1/2+y,z
1/2+x,-y,z
loop_
_atom_site_type_symbol
_atom_site_label
_atom_site_fract_x
_atom_site_fract_y
_atom_site_fract_z
Si Si1 0.580308 0.528066 0.702826
Si Si2 0.080308 0.471934 0.297174
Si Si3 0.663417 0.641308 1.000000
Si Si4 0.664466 0.349565 0.215426
Si Si5 0.335535 0.849565 0.784574
O O1 0.500000 0.500000 0.768807
O O2 0.573825 0.562824 0.500000
O O3 0.624451 0.434347 0.703245
O O4 0.622875 0.597087 0.830237
O O5 0.122875 0.402913 0.169763
O O6 0.124451 0.565653 0.296755
O O7 0.657188 0.750000 0.000000
O O8 0.750000 0.617890 0.000000
O O9 0.636857 0.250000 0.269369
O O10 0.750000 0.353477 0.257239
O O11 0.657731 0.355877 0.000000
#
# Coordination Sequence:
#
# PCOD9398091 Si02
#       5
#     8   8   8   8   8
#     4  11  24  41  62  91 126 162 202 253 314 373
#     4  11  24  41  62  91 126 162 202 253 314 373
#     4  11  25  44  65  89 121 167 220 265 304 354
#     4   9  18  34  59  90 120 151 190 240 301 365
#     4   9  18  34  59  90 120 151 190 240 301 365
#
# _framework density 19.680966999999999
#
# number of rings (size 3 to 8) (size 9 to 14) (size 15 to 20)
#    0.000    1.800    2.000    3.000    0.000    6.400 
#    0.000    8.000    0.000    0.000    0.000    0.000 
#    0.000    0.000    0.000    0.000    0.000    0.000 
#
# Total GULP energy -223438.326923 kJ/mol
# GULP energy per Si atom -5585.958173 kJ/mol
# Density = 1.963617 g / cm^3
# Si number density = 19.680967 Si / 1000 Ang^3
#
#
#
# Elastic Constant Matrix: (Units=GPa)
#
#
# Indices 1 2 3 4 5 6 
#
# 1 116.1219 59.1644 54.5251 0.0000 0.0000 0.0000
# 2 59.1644 111.0344 41.4464 0.0000 0.0000 0.0000
# 3 54.5251 41.4464 95.7467 0.0000 0.0000 0.0000
# 4 0.0000 0.0000 0.0000 -5.9912 0.0000 0.0000
# 5 0.0000 0.0000 0.0000 0.0000 31.5266 0.0000
# 6 0.0000 0.0000 0.0000 0.0000 0.0000 -19.4200
#
#
#
# Elastic Compliance Matrix: (Units=1/GPa)
#
#
# Indices 1 2 3 4 5 6 
#
# 1 0.013989 -0.005344 -0.005653 0.000000 0.000000 0.000000
# 2 -0.005344 0.012783 -0.002490 0.000000 0.000000 0.000000
# 3 -0.005653 -0.002490 0.014741 0.000000 0.000000 0.000000
# 4 0.000000 0.000000 0.000000 -0.166910 0.000000 0.000000
# 5 0.000000 0.000000 0.000000 0.000000 0.031719 0.000000
# 6 0.000000 0.000000 0.000000 0.000000 0.000000 -0.051493
#
#
# Mechanical properties :
#
#
# Convention : Reuss Voigt Hill
#
# Bulk Modulus (GPa) = 68.78011 70.35274 69.56642
# Shear Modulus (GPa) = -44.11105 12.40755 -15.85175
#
# Velocity S-wave (km/s) = -4.73938 2.51357 -2.84110
# Velocity P-wave (km/s) = 2.25265 6.65193 4.96602
#
# Compressibility (1/GPa) = 0.01453909
#
# Stress axis : x y z
#
# Youngs Moduli (GPa) = 71.48673 78.22760 67.83575
#
# Poissons Ratio (x) = 0.41802 0.38347
# Poissons Ratio (y) = 0.38200 0.16894
# Poissons Ratio (z) = 0.40411 0.19482
#
# Static dielectric constant tensor:
#      x y z
#    x 1.640800 0.000000 0.000000 
#    y 0.000000 1.662920 0.000000 
#    z 0.000000 0.000000 1.742970 
# 
# From -- ./inp_files/14056.got.cif
#   From: 2010.05.17/outbox.cif.g08.bks.cpg/sg50_8_cif.got.tgz:14056.got - 2010.06.03 11:33:33.
