data_PCOD9398953
_publ_section_title
;
Structure prediction by ZEFSAII (Michael W. Deem and Ramdas Pophale) SiO2 
 PCOD9398953
Probable space group: P M M A
;
_chemical_formula_sum "Si O2"
_cell_formula_units_Z 52
_cell_length_a 7.493414
_cell_length_b 24.054156
_cell_length_c 14.750123
_cell_angle_alpha 90.000000
_cell_angle_beta 90.000000
_cell_angle_gamma 90.000000
_cell_volume 2658.676473
_symmetry_space_group_name_H-M "P M M A"
_symmetry_group_IT_number 51
_symmetry_cell_setting 'orthorhombic'
loop_
_space_group_symop_operation_xyz
x,y,z
1/2-x,-y,z
1/2+x,-y,-z
-x,y,-z
-x,-y,-z
1/2+x,y,-z
1/2-x,y,z
x,-y,z
loop_
_atom_site_type_symbol
_atom_site_label
_atom_site_fract_x
_atom_site_fract_y
_atom_site_fract_z
Si Si1 0.963837 0.500000 0.607000
Si Si2 0.463861 0.937443 0.395002
Si Si3 0.468854 0.168766 0.286186
Si Si4 0.536670 0.652205 0.898467
Si Si5 0.036965 0.722209 0.393662
Si Si6 0.536783 0.220468 0.898567
Si Si7 0.968758 0.610797 0.707923
O O1 0.750000 0.500000 0.617100
O O2 0.030454 0.555741 0.656232
O O3 0.000000 0.500000 0.500000
O O4 0.500000 0.923078 0.500000
O O5 0.250000 0.939611 0.384742
O O6 0.530876 0.889017 0.329331
O O7 0.533254 0.000000 0.378630
O O8 0.250000 0.167526 0.287695
O O9 0.527645 0.221084 0.347353
O O10 0.526727 0.182414 0.183827
O O11 0.750000 0.655484 0.890198
O O12 0.467454 0.715915 0.891332
O O13 0.474488 0.616540 0.812741
O O14 0.500000 0.631491 0.000000
O O15 0.250000 0.722252 0.381050
O O16 0.971674 0.666563 0.344074
O O17 0.000000 0.720877 0.500000
O O18 0.750000 0.224142 0.888753
O O19 0.500000 0.200147 0.000000
O O20 0.750000 0.610080 0.706021
#
# Coordination Sequence:
#
# PCOD9398953 Si02
#       7
#     4   8   8   8   8   8   8
#     4  10  20  34  51  68  88 120 157 186 215 262
#     4   9  17  29  45  65  89 119 153 184 216 259
#     4   9  16  28  46  65  88 118 148 178 220 268
#     4   9  16  29  48  68  89 115 146 181 221 266
#     4  10  18  29  44  64  89 116 145 180 221 262
#     4   9  16  28  46  66  88 115 146 181 220 264
#     4   9  17  31  49  66  88 120 151 178 218 271
#
# _framework density 19.558606000000001
#
# number of rings (size 3 to 8) (size 9 to 14) (size 15 to 20)
#    0.000    2.769    1.538    0.923    0.000    0.000 
#    0.000    3.462    0.000    0.462    0.000    0.000 
#    0.000    0.000    0.000    0.000    0.000    0.000 
#
# Total GULP energy -290125.254826 kJ/mol
# GULP energy per Si atom -5579.331824 kJ/mol
# Density = 1.951409 g / cm^3
# Si number density = 19.558606 Si / 1000 Ang^3
#
#
#
# Elastic Constant Matrix: (Units=GPa)
#
#
# Indices 1 2 3 4 5 6 
#
# 1 52.0164 7.5037 -2.3506 0.0000 0.0000 0.0000
# 2 7.5037 141.9754 115.9288 0.0000 0.0000 0.0000
# 3 -2.3506 115.9288 211.3392 0.0000 0.0000 0.0000
# 4 0.0000 0.0000 0.0000 23.6396 0.0000 0.0000
# 5 0.0000 0.0000 0.0000 0.0000 23.1117 0.0000
# 6 0.0000 0.0000 0.0000 0.0000 0.0000 -3.1134
#
#
#
# Elastic Compliance Matrix: (Units=1/GPa)
#
#
# Indices 1 2 3 4 5 6 
#
# 1 0.019606 -0.002199 0.001425 0.000000 0.000000 0.000000
# 2 -0.002199 0.013005 -0.007158 0.000000 0.000000 0.000000
# 3 0.001425 -0.007158 0.008674 0.000000 0.000000 0.000000
# 4 0.000000 0.000000 0.000000 0.042302 0.000000 0.000000
# 5 0.000000 0.000000 0.000000 0.000000 0.043268 0.000000
# 6 0.000000 0.000000 0.000000 0.000000 0.000000 -0.321188
#
#
# Mechanical properties :
#
#
# Convention : Reuss Voigt Hill
#
# Bulk Modulus (GPa) = 39.34044 71.94386 55.64215
# Shear Modulus (GPa) = -29.41272 27.67751 -0.86760
#
# Velocity S-wave (km/s) = -3.88213 3.76587 -0.66675
# Velocity P-wave (km/s) = 0.25153 7.46811 5.28374
#
# Compressibility (1/GPa) = 0.02541914
#
# Stress axis : x y z
#
# Youngs Moduli (GPa) = 51.00388 76.89622 115.28626
#
# Poissons Ratio (x) = 0.16913 -0.16423
# Poissons Ratio (y) = 0.11218 0.82522
# Poissons Ratio (z) = -0.07266 0.55042
#
# Static dielectric constant tensor:
#      x y z
#    x 1.745450 0.000000 0.000000 
#    y 0.000000 1.672520 0.000000 
#    z 0.000000 0.000000 1.676730 
# 
# From -- ./inp_files/21554.got.cif
#   From: 2010.05.17/outbox.cif.g08.bks.cpg/sg51_11_cif.got.tgz:21554.got - 2010.06.03 11:52:47.
