data_PCOD9398618
_publ_section_title
;
Structure prediction by ZEFSAII (Michael W. Deem and Ramdas Pophale) SiO2 
 PCOD9398618
Probable space group: P M M A
;
_chemical_formula_sum "Si O2"
_cell_formula_units_Z 40
_cell_length_a 15.587913
_cell_length_b 14.402933
_cell_length_c 10.474205
_cell_angle_alpha 90.000000
_cell_angle_beta 90.000000
_cell_angle_gamma 90.000000
_cell_volume 2351.581220
_symmetry_space_group_name_H-M "P M M A"
_symmetry_group_IT_number 51
_symmetry_cell_setting 'orthorhombic'
loop_
_space_group_symop_operation_xyz
x,y,z
1/2-x,-y,z
1/2+x,-y,-z
-x,y,-z
-x,-y,-z
1/2+x,y,-z
1/2-x,y,z
x,-y,z
loop_
_atom_site_type_symbol
_atom_site_label
_atom_site_fract_x
_atom_site_fract_y
_atom_site_fract_z
Si Si1 0.512171 0.757695 0.359747
Si Si2 0.602143 0.392352 0.002503
Si Si3 0.650476 0.608069 0.298577
Si Si4 0.154245 0.743241 0.217127
Si Si5 0.471505 0.890265 0.145147
O O1 0.500000 0.799301 0.500000
O O2 0.584876 0.679788 0.361049
O O3 0.420580 0.714793 0.315698
O O4 0.528375 0.834059 0.248959
O O5 0.613770 0.500000 0.965324
O O6 0.636410 0.381533 0.145794
O O7 0.500000 0.372340 0.000000
O O8 0.647077 0.325251 0.902822
O O9 0.750000 0.626187 0.329075
O O10 0.631477 0.500000 0.329305
O O11 0.250000 0.744468 0.268548
O O12 0.121603 0.844280 0.169576
O O13 0.473293 0.000000 0.165873
O O14 0.500000 0.870884 0.000000
#
# Coordination Sequence:
#
# PCOD9398618 Si02
#       5
#     8   8   8   8   8
#     4  10  22  37  55  82 112 149 183 230 274 326
#     4  10  17  30  53  80 111 142 179 226 274 322
#     4  10  20  34  55  80 109 149 188 225 276 329
#     4  10  20  33  53  82 110 144 184 224 276 326
#     4   9  19  37  60  83 109 142 182 228 282 331
#
# _framework density 17.009831999999999
#
# number of rings (size 3 to 8) (size 9 to 14) (size 15 to 20)
#    1.200    1.000    2.000    2.400    0.000    3.200 
#    0.000    0.000    0.000    1.800    0.000    0.000 
#    0.000    0.000    0.000    0.000    0.000    0.000 
#
# Total GULP energy -222668.780372 kJ/mol
# GULP energy per Si atom -5566.719509 kJ/mol
# Density = 1.697112 g / cm^3
# Si number density = 17.009832 Si / 1000 Ang^3
#
#
#
# Elastic Constant Matrix: (Units=GPa)
#
#
# Indices 1 2 3 4 5 6 
#
# 1 93.1123 36.6373 14.9334 0.0000 0.0000 0.0000
# 2 36.6373 83.4414 36.5832 0.0000 0.0000 0.0000
# 3 14.9334 36.5832 75.2516 0.0000 0.0000 0.0000
# 4 0.0000 0.0000 0.0000 1.4007 0.0000 0.0000
# 5 0.0000 0.0000 0.0000 0.0000 0.2879 0.0000
# 6 0.0000 0.0000 0.0000 0.0000 0.0000 6.4112
#
#
#
# Elastic Compliance Matrix: (Units=1/GPa)
#
#
# Indices 1 2 3 4 5 6 
#
# 1 0.012986 -0.005811 0.000248 0.000000 0.000000 0.000000
# 2 -0.005811 0.017831 -0.007515 0.000000 0.000000 0.000000
# 3 0.000248 -0.007515 0.016893 0.000000 0.000000 0.000000
# 4 0.000000 0.000000 0.000000 0.713912 0.000000 0.000000
# 5 0.000000 0.000000 0.000000 0.000000 3.472831 0.000000
# 6 0.000000 0.000000 0.000000 0.000000 0.000000 0.155978
#
#
# Mechanical properties :
#
#
# Convention : Reuss Voigt Hill
#
# Bulk Modulus (GPa) = 46.39539 47.56811 46.98175
# Shear Modulus (GPa) = 1.13026 12.53006 6.83016
#
# Velocity S-wave (km/s) = 0.81604 2.71705 2.00602
# Velocity P-wave (km/s) = 5.31251 6.15377 5.74855
#
# Compressibility (1/GPa) = 0.02155387
#
# Stress axis : x y z
#
# Youngs Moduli (GPa) = 77.00412 56.08309 59.19580
#
# Poissons Ratio (x) = 0.32588 -0.01466
# Poissons Ratio (y) = 0.44744 0.44487
# Poissons Ratio (z) = -0.01908 0.42148
#
# Static dielectric constant tensor:
#      x y z
#    x 1.584170 0.000000 0.000000 
#    y 0.000000 1.565740 0.000000 
#    z 0.000000 0.000000 1.577700 
# 
# From -- ./inp_files/16287.got.cif
#   From: 2010.05.17/outbox.cif.g08.bks.cpg/sg51_9_cif.got.tgz:16287.got - 2010.06.03 11:52:47.
