data_PCOD9398322
_publ_section_title
;
Structure prediction by ZEFSAII (Michael W. Deem and Ramdas Pophale) SiO2 
 PCOD9398322
Probable space group: P B A N
;
_chemical_formula_sum "Si O2"
_cell_formula_units_Z 56
_cell_length_a 9.000000
_cell_length_b 21.000000
_cell_length_c 15.000000
_cell_angle_alpha 90.000000
_cell_angle_beta 90.000000
_cell_angle_gamma 90.000000
_cell_volume 2835.000000
_symmetry_space_group_name_H-M "P B A N"
_symmetry_group_IT_number 50
_space_group.IT_coordinate_system_code '2'
_symmetry_cell_setting 'orthorhombic'
loop_
_space_group_symop_operation_xyz
x,y,z
1/2-x,1/2-y,z
x,1/2-y,-z
1/2-x,y,-z
-x,-y,-z
1/2+x,1/2+y,-z
-x,1/2+y,z
1/2+x,-y,z
loop_
_atom_site_type_symbol
_atom_site_label
_atom_site_fract_x
_atom_site_fract_y
_atom_site_fract_z
Si Si1 0.679412 0.817149 0.902484
Si Si2 0.069670 0.825565 0.498831
Si Si3 0.043640 0.574176 0.351735
Si Si4 0.800400 0.431568 0.226377
Si Si5 0.679438 0.315569 0.902184
Si Si6 0.044503 0.070742 0.641123
Si Si7 0.712024 0.574205 0.770140
O O1 0.750000 0.750000 0.872435
O O2 0.500173 0.811887 0.907475
O O3 0.731046 0.872103 0.835619
O O4 0.750000 0.829575 0.000000
O O5 0.026810 0.750000 0.500000
O O6 0.250000 0.826991 0.500000
O O7 0.016229 0.866699 0.583897
O O8 0.008382 0.869986 0.418098
O O9 0.213530 0.576015 0.319661
O O10 0.016845 0.502523 0.390726
O O11 0.959121 0.580912 0.257575
O O12 0.775899 0.375381 0.157919
O O13 0.766336 0.502665 0.193122
O O14 0.968428 0.427821 0.261230
O O15 0.750000 0.250000 0.865147
O O16 0.750000 0.323095 0.000000
O O17 0.214872 0.077177 0.670895
#
# Coordination Sequence:
#
# PCOD9398322 Si02
#       7
#     8   8   8   8   8   8   8
#     4  11  24  42  61  89 128 163 199 251 305 360
#     4  11  23  38  60  90 121 156 203 251 298 355
#     4  10  22  38  63  88 119 161 199 245 303 363
#     4  10  21  40  65  89 120 157 206 251 295 362
#     4  11  24  41  63  91 121 164 208 245 296 368
#     4  10  20  42  60  86 123 158 202 246 301 363
#     4  10  23  40  63  92 119 157 201 253 309 354
#
# _framework density 19.753086
#
# number of rings (size 3 to 8) (size 9 to 14) (size 15 to 20)
#    0.000    1.571    2.857    2.143    4.000    3.429 
#    0.000    2.143    0.000    0.000    0.000    0.000 
#    0.000    0.000    0.000    0.000    0.000    0.000 
#
# Total GULP energy -312071.413730 kJ/mol
# GULP energy per Si atom -5572.703817 kJ/mol
# Density = 1.970813 g / cm^3
# Si number density = 19.753086 Si / 1000 Ang^3
#
#
#
# Elastic Constant Matrix: (Units=GPa)
#
#
# Indices 1 2 3 4 5 6 
#
# 1 60.5306 45.7293 18.5416 0.0000 0.0000 0.0000
# 2 45.7293 233.1587 92.7556 0.0000 0.0000 0.0000
# 3 18.5416 92.7556 64.8659 0.0000 0.0000 0.0000
# 4 0.0000 0.0000 0.0000 142.3490 0.0000 0.0000
# 5 0.0000 0.0000 0.0000 0.0000 25.7241 0.0000
# 6 0.0000 0.0000 0.0000 0.0000 0.0000 31.7114
#
#
#
# Elastic Compliance Matrix: (Units=1/GPa)
#
#
# Indices 1 2 3 4 5 6 
#
# 1 0.019396 -0.003708 -0.000242 0.000000 0.000000 0.000000
# 2 -0.003708 0.010657 -0.014179 0.000000 0.000000 0.000000
# 3 -0.000242 -0.014179 0.035761 0.000000 0.000000 0.000000
# 4 0.000000 0.000000 0.000000 0.007025 0.000000 0.000000
# 5 0.000000 0.000000 0.000000 0.000000 0.038874 0.000000
# 6 0.000000 0.000000 0.000000 0.000000 0.000000 0.031534
#
#
# Mechanical properties :
#
#
# Convention : Reuss Voigt Hill
#
# Bulk Modulus (GPa) = 33.83445 74.73422 54.28434
# Shear Modulus (GPa) = 26.40511 53.39216 39.89864
#
# Velocity S-wave (km/s) = 3.66014 5.20466 4.49917
# Velocity P-wave (km/s) = 5.91845 8.60432 7.38452
#
# Compressibility (1/GPa) = 0.02955568
#
# Stress axis : x y z
#
# Youngs Moduli (GPa) = 51.55737 93.83660 27.96331
#
# Poissons Ratio (x) = 0.34791 0.00678
# Poissons Ratio (y) = 0.19116 0.39649
# Poissons Ratio (z) = 0.01250 1.33051
#
# Static dielectric constant tensor:
#      x y z
#    x 1.699930 0.000000 0.000000 
#    y 0.000000 1.669870 0.000000 
#    z 0.000000 0.000000 1.682150 
# 
# From -- ./inp_files/25252.got.cif
#   From: 2010.05.17/outbox.ucp.g08.bks.cvg/sg50_13_cif.got.tgz:25252.got - 2010.06.11 16:26:39.
