data_PCOD9398710
_publ_section_title
;
Structure prediction by ZEFSAII (Michael W. Deem and Ramdas Pophale) SiO2 
 PCOD9398710
Probable space group: P M M A
;
_chemical_formula_sum "Si O2"
_cell_formula_units_Z 64
_cell_length_a 27.502264
_cell_length_b 8.955992
_cell_length_c 17.528261
_cell_angle_alpha 90.000000
_cell_angle_beta 90.000000
_cell_angle_gamma 90.000000
_cell_volume 4317.386955
_symmetry_space_group_name_H-M "P M M A"
_symmetry_group_IT_number 51
_symmetry_cell_setting 'orthorhombic'
loop_
_space_group_symop_operation_xyz
x,y,z
1/2-x,-y,z
1/2+x,-y,-z
-x,y,-z
-x,-y,-z
1/2+x,y,-z
1/2-x,y,z
x,-y,z
loop_
_atom_site_type_symbol
_atom_site_label
_atom_site_fract_x
_atom_site_fract_y
_atom_site_fract_z
Si Si1 0.194071 0.180095 0.409073
Si Si2 0.062133 0.678179 0.665967
Si Si3 0.882342 0.322449 0.478394
Si Si4 0.572553 0.323062 0.858921
Si Si5 0.032529 0.820610 0.822328
Si Si6 0.558434 0.171213 0.013117
Si Si7 0.122719 0.176970 0.275736
Si Si8 0.953115 0.325465 0.615541
O O1 0.250000 0.228234 0.412242
O O2 0.161817 0.244008 0.478066
O O3 0.167929 0.223414 0.329323
O O4 0.192347 0.000000 0.412564
O O5 0.067437 0.500000 0.679260
O O6 0.103528 0.728084 0.606531
O O7 0.057736 0.762469 0.745856
O O8 0.010161 0.698804 0.623928
O O9 0.873124 0.500000 0.475821
O O10 0.929582 0.301581 0.532816
O O11 0.568950 0.500000 0.853164
O O12 0.520993 0.252281 0.831290
O O13 0.614254 0.260827 0.803454
O O14 0.579800 0.271925 0.946250
O O15 0.062898 0.781518 0.898866
O O16 0.026709 0.000000 0.821446
O O17 0.575064 0.000000 0.003892
O O18 0.500000 0.171072 0.000000
O O19 0.075978 0.220005 0.326969
O O20 0.124666 0.000000 0.263005
O O21 0.943621 0.500000 0.636176
#
# Coordination Sequence:
#
# PCOD9398710 Si02
#       8
#     8   8   8   8   8   8   8   8
#     4   9  19  35  51  66  86 112 143 182 226 266
#     4  10  18  27  41  61  88 119 148 181 216 253
#     4   9  18  30  44  64  87 113 146 179 218 264
#     4  11  19  27  41  61  85 113 147 183 215 253
#     4  10  19  29  41  58  84 118 152 184 216 249
#     4   8  16  29  41  55  79 113 149 182 213 245
#     4  10  18  28  44  64  86 113 145 181 219 262
#     4   9  16  27  41  58  84 116 146 177 213 252
#
# _framework density 14.823781
#
# number of rings (size 3 to 8) (size 9 to 14) (size 15 to 20)
#    0.000    2.500    1.250    3.000    0.000    5.500 
#    0.000    0.000    0.000    3.750    0.000    0.000 
#    0.000    1.000    0.000    9.000    0.000    5.250 
#
# Total GULP energy -356564.995546 kJ/mol
# GULP energy per Si atom -5571.328055 kJ/mol
# Density = 1.479004 g / cm^3
# Si number density = 14.823781 Si / 1000 Ang^3
#
#
#
# Elastic Constant Matrix: (Units=GPa)
#
#
# Indices 1 2 3 4 5 6 
#
# 1 59.5657 29.7632 54.8245 0.0000 0.0000 0.0000
# 2 29.7632 49.0306 51.2005 0.0000 0.0000 0.0000
# 3 54.8245 51.2005 132.3047 0.0000 0.0000 0.0000
# 4 0.0000 0.0000 0.0000 23.5467 0.0000 0.0000
# 5 0.0000 0.0000 0.0000 0.0000 11.1855 0.0000
# 6 0.0000 0.0000 0.0000 0.0000 0.0000 11.7902
#
#
#
# Elastic Compliance Matrix: (Units=1/GPa)
#
#
# Indices 1 2 3 4 5 6 
#
# 1 0.029114 -0.008517 -0.008769 0.000000 0.000000 0.000000
# 2 -0.008517 0.036719 -0.010681 0.000000 0.000000 0.000000
# 3 -0.008769 -0.010681 0.015325 0.000000 0.000000 0.000000
# 4 0.000000 0.000000 0.000000 0.042469 0.000000 0.000000
# 5 0.000000 0.000000 0.000000 0.000000 0.089401 0.000000
# 6 0.000000 0.000000 0.000000 0.000000 0.000000 0.084817
#
#
# Mechanical properties :
#
#
# Convention : Reuss Voigt Hill
#
# Bulk Modulus (GPa) = 39.64107 56.94195 48.29151
# Shear Modulus (GPa) = 13.80509 16.31198 15.05853
#
# Velocity S-wave (km/s) = 3.05500 3.32082 3.19068
# Velocity P-wave (km/s) = 6.26447 7.29381 6.79865
#
# Compressibility (1/GPa) = 0.02522636
#
# Stress axis : x y z
#
# Youngs Moduli (GPa) = 34.34733 27.23415 65.25262
#
# Poissons Ratio (x) = 0.23195 0.57217
# Poissons Ratio (y) = 0.29253 0.69693
# Poissons Ratio (z) = 0.30117 0.29087
#
# Static dielectric constant tensor:
#      x y z
#    x 1.463120 0.000000 0.000000 
#    y 0.000000 1.498080 0.000000 
#    z 0.000000 0.000000 1.524430 
# 
# From -- ./inp_files/31010.got.cif
#   From: 2010.05.17/outbox.cif.g08.bks.cpg/sg51_16_cif.got.tgz:31010.got - 2010.06.03 11:52:47.
