data_PCOD9398464
_publ_section_title
;
Structure prediction by ZEFSAII (Michael W. Deem and Ramdas Pophale) SiO2 
 PCOD9398464
Probable space group: P M M A
;
_chemical_formula_sum "Si O2"
_cell_formula_units_Z 64
_cell_length_a 14.621506
_cell_length_b 7.922923
_cell_length_c 32.868235
_cell_angle_alpha 90.000000
_cell_angle_beta 90.000000
_cell_angle_gamma 90.000000
_cell_volume 3807.622859
_symmetry_space_group_name_H-M "P M M A"
_symmetry_group_IT_number 51
_symmetry_cell_setting 'orthorhombic'
loop_
_space_group_symop_operation_xyz
x,y,z
1/2-x,-y,z
1/2+x,-y,-z
-x,y,-z
-x,-y,-z
1/2+x,y,-z
1/2-x,y,z
x,-y,z
loop_
_atom_site_type_symbol
_atom_site_label
_atom_site_fract_x
_atom_site_fract_y
_atom_site_fract_z
Si Si1 0.360860 0.805205 0.770163
Si Si2 0.536963 0.703077 0.061613
Si Si3 0.969673 0.202126 0.395648
Si Si4 0.854513 0.706234 0.981080
Si Si5 0.143742 0.794565 0.527055
Si Si6 0.146288 0.206326 0.435908
Si Si7 0.645201 0.796660 0.141411
Si Si8 0.646715 0.697742 0.318918
O O1 0.250000 0.800496 0.771570
O O2 0.387867 0.732750 0.814221
O O3 0.386614 0.724337 0.727324
O O4 0.389835 0.000000 0.768044
O O5 0.535407 0.500000 0.060052
O O6 0.433597 0.759955 0.050757
O O7 0.578683 0.754352 0.104558
O O8 0.604995 0.758152 0.025121
O O9 0.911789 0.268328 0.434209
O O10 0.921012 0.237546 0.353289
O O11 0.073058 0.262775 0.402708
O O12 0.971693 0.000000 0.399628
O O13 0.750000 0.763813 0.974726
O O14 0.852423 0.500000 0.980610
O O15 0.250000 0.748824 0.531509
O O16 0.114665 0.743670 0.481533
O O17 0.138634 0.000000 0.527423
O O18 0.250000 0.264562 0.429672
O O19 0.149086 0.000000 0.435925
O O20 0.750000 0.736935 0.133602
O O21 0.649900 0.000000 0.144881
O O22 0.750000 0.773138 0.322672
O O23 0.654813 0.500000 0.325563
#
# Coordination Sequence:
#
# PCOD9398464 Si02
#       8
#     8   8   8   8   8   8   8   8
#     4   8  15  29  46  61  80 108 137 162 196 248
#     4   9  16  25  41  63  82 109 150 184 208 240
#     4  10  17  25  42  64  83 108 140 168 198 240
#     4   8  14  25  39  57  85 117 147 180 213 242
#     4   8  13  21  35  58  85 108 133 167 200 230
#     4   8  14  24  38  59  85 108 135 174 208 229
#     4   9  17  28  42  62  88 113 134 164 209 251
#     4  10  20  31  42  60  87 112 132 161 202 245
#
# _framework density 16.808388999999998
#
# number of rings (size 3 to 8) (size 9 to 14) (size 15 to 20)
#    0.000    3.250    0.000    3.750    0.000    4.000 
#    0.000    2.500    0.000    3.000    0.000    2.625 
#    0.000    1.000    0.000    0.000    0.000    0.000 
#
# Total GULP energy -356289.933164 kJ/mol
# GULP energy per Si atom -5567.030206 kJ/mol
# Density = 1.677013 g / cm^3
# Si number density = 16.808389 Si / 1000 Ang^3
#
#
#
# Elastic Constant Matrix: (Units=GPa)
#
#
# Indices 1 2 3 4 5 6 
#
# 1 109.4172 9.2916 85.4431 0.0000 0.0000 0.0000
# 2 9.2916 10.6079 4.2766 0.0000 0.0000 0.0000
# 3 85.4431 4.2766 137.6698 0.0000 0.0000 0.0000
# 4 0.0000 0.0000 0.0000 35.3763 0.0000 0.0000
# 5 0.0000 0.0000 0.0000 0.0000 25.8695 0.0000
# 6 0.0000 0.0000 0.0000 0.0000 0.0000 6.9327
#
#
#
# Elastic Compliance Matrix: (Units=1/GPa)
#
#
# Indices 1 2 3 4 5 6 
#
# 1 0.019164 -0.012143 -0.011516 0.000000 0.000000 0.000000
# 2 -0.012143 0.103159 0.004332 0.000000 0.000000 0.000000
# 3 -0.011516 0.004332 0.014277 0.000000 0.000000 0.000000
# 4 0.000000 0.000000 0.000000 0.028268 0.000000 0.000000
# 5 0.000000 0.000000 0.000000 0.000000 0.038656 0.000000
# 6 0.000000 0.000000 0.000000 0.000000 0.000000 0.144245
#
#
# Mechanical properties :
#
#
# Convention : Reuss Voigt Hill
#
# Bulk Modulus (GPa) = 10.20989 50.63528 30.42258
# Shear Modulus (GPa) = 11.93117 24.21461 18.07289
#
# Velocity S-wave (km/s) = 2.66716 3.79968 3.28263
# Velocity P-wave (km/s) = 3.94620 7.03139 5.70144
#
# Compressibility (1/GPa) = 0.09794429
#
# Stress axis : x y z
#
# Youngs Moduli (GPa) = 52.18219 9.69378 70.04393
#
# Poissons Ratio (x) = 0.11771 0.80666
# Poissons Ratio (y) = 0.63364 -0.30342
# Poissons Ratio (z) = 0.60095 -0.04199
#
# Static dielectric constant tensor:
#      x y z
#    x 1.582070 0.000000 0.000000 
#    y 0.000000 1.620590 0.000000 
#    z 0.000000 0.000000 1.573800 
# 
# From -- ./inp_files/37810.got.cif
#   From: 2010.05.17/outbox.cif.g08.bks.cpg/sg51_19_cif.got.tgz:37810.got - 2010.06.03 11:52:47.
