data_PCOD9398517
_publ_section_title
;
Structure prediction by ZEFSAII (Michael W. Deem and Ramdas Pophale) SiO2 
 PCOD9398517
Probable space group: P M M A
;
_chemical_formula_sum "Si O2"
_cell_formula_units_Z 64
_cell_length_a 8.615903
_cell_length_b 24.295184
_cell_length_c 19.809782
_cell_angle_alpha 90.000000
_cell_angle_beta 90.000000
_cell_angle_gamma 90.000000
_cell_volume 4146.681601
_symmetry_space_group_name_H-M "P M M A"
_symmetry_group_IT_number 51
_symmetry_cell_setting 'orthorhombic'
loop_
_space_group_symop_operation_xyz
x,y,z
1/2-x,-y,z
1/2+x,-y,-z
-x,y,-z
-x,-y,-z
1/2+x,y,-z
1/2-x,y,z
x,-y,z
loop_
_atom_site_type_symbol
_atom_site_label
_atom_site_fract_x
_atom_site_fract_y
_atom_site_fract_z
Si Si1 0.564386 0.936940 0.925815
Si Si2 0.063087 0.726433 0.925365
Si Si3 0.937215 0.562432 0.711315
Si Si4 0.436472 0.743108 0.571049
Si Si5 0.437512 0.163629 0.844937
Si Si6 0.437241 0.338073 0.795165
Si Si7 0.438588 0.772107 0.715950
Si Si8 0.563399 0.381367 0.571252
O O1 0.750000 0.935262 0.928294
O O2 0.504163 0.893013 0.872244
O O3 0.515495 0.000000 0.911265
O O4 0.500000 0.922441 0.000000
O O5 0.250000 0.726080 0.927397
O O6 0.016719 0.785864 0.894492
O O7 0.014625 0.680600 0.870335
O O8 0.000000 0.718308 0.000000
O O9 0.750000 0.562808 0.712716
O O10 0.990891 0.500000 0.722385
O O11 0.983884 0.583903 0.636828
O O12 0.996930 0.605605 0.766347
O O13 0.500000 0.764783 0.500000
O O14 0.250000 0.741567 0.568565
O O15 0.487474 0.775412 0.638305
O O16 0.497342 0.680485 0.578211
O O17 0.250000 0.160850 0.845615
O O18 0.488553 0.182059 0.769873
O O19 0.250000 0.340526 0.793827
O O20 0.484784 0.287356 0.746336
O O21 0.250000 0.772639 0.716652
O O22 0.500000 0.403590 0.500000
O O23 0.750000 0.378787 0.568297
#
# Coordination Sequence:
#
# PCOD9398517 Si02
#       8
#     8   8   8   8   8   8   8   8
#     4  10  20  32  45  64  93 129 164 194 222 254
#     4   9  18  30  47  70  94 115 140 178 221 264
#     4  10  21  34  46  63  87 111 139 181 225 262
#     4  10  17  27  44  64  89 119 148 178 216 262
#     4   9  17  30  47  68  93 121 154 188 221 259
#     4   9  17  32  49  65  85 112 144 175 213 266
#     4   8  15  28  46  65  89 118 145 181 225 263
#     4  10  19  30  44  62  85 113 145 179 215 257
#
# _framework density 15.434029000000001
#
# number of rings (size 3 to 8) (size 9 to 14) (size 15 to 20)
#    0.000    2.625    1.250    3.750    0.000    3.750 
#    0.000    3.125    0.000    0.375    0.000    0.000 
#    0.000    0.500    0.000    1.125    0.000    2.000 
#
# Total GULP energy -356685.612934 kJ/mol
# GULP energy per Si atom -5573.212702 kJ/mol
# Density = 1.539890 g / cm^3
# Si number density = 15.434029 Si / 1000 Ang^3
#
#
#
# Elastic Constant Matrix: (Units=GPa)
#
#
# Indices 1 2 3 4 5 6 
#
# 1 21.3028 19.3877 27.4787 0.0000 0.0000 0.0000
# 2 19.3877 89.8828 70.2940 0.0000 0.0000 0.0000
# 3 27.4787 70.2940 154.0759 0.0000 0.0000 0.0000
# 4 0.0000 0.0000 0.0000 25.0888 0.0000 0.0000
# 5 0.0000 0.0000 0.0000 0.0000 23.0333 0.0000
# 6 0.0000 0.0000 0.0000 0.0000 0.0000 20.6313
#
#
#
# Elastic Compliance Matrix: (Units=1/GPa)
#
#
# Indices 1 2 3 4 5 6 
#
# 1 0.064143 -0.007601 -0.007972 0.000000 0.000000 0.000000
# 2 -0.007601 0.018198 -0.006947 0.000000 0.000000 0.000000
# 3 -0.007972 -0.006947 0.011081 0.000000 0.000000 0.000000
# 4 0.000000 0.000000 0.000000 0.039858 0.000000 0.000000
# 5 0.000000 0.000000 0.000000 0.000000 0.043415 0.000000
# 6 0.000000 0.000000 0.000000 0.000000 0.000000 0.048470
#
#
# Mechanical properties :
#
#
# Convention : Reuss Voigt Hill
#
# Bulk Modulus (GPa) = 20.66852 55.50914 38.08883
# Shear Modulus (GPa) = 17.46216 23.62408 20.54312
#
# Velocity S-wave (km/s) = 3.36729 3.91660 3.65228
# Velocity P-wave (km/s) = 5.34217 7.51641 6.52055
#
# Compressibility (1/GPa) = 0.04838275
#
# Stress axis : x y z
#
# Youngs Moduli (GPa) = 15.59019 54.95086 90.24158
#
# Poissons Ratio (x) = 0.41770 0.71937
# Poissons Ratio (y) = 0.11851 0.62689
# Poissons Ratio (z) = 0.12428 0.38174
#
# Static dielectric constant tensor:
#      x y z
#    x 1.527550 0.000000 0.000000 
#    y 0.000000 1.494160 0.000000 
#    z 0.000000 0.000000 1.530130 
# 
# From -- ./inp_files/32651.got.cif
#   From: 2010.05.17/outbox.cif.g08.bks.cpg/sg51_17_cif.got.tgz:32651.got - 2010.06.03 11:52:47.
