data_PCOD9398467
_publ_section_title
;
Structure prediction by ZEFSAII (Michael W. Deem and Ramdas Pophale) SiO2 
 PCOD9398467
Probable space group: P M M A
;
_chemical_formula_sum "Si O2"
_cell_formula_units_Z 64
_cell_length_a 15.165428
_cell_length_b 8.171495
_cell_length_c 28.802973
_cell_angle_alpha 90.000000
_cell_angle_beta 90.000000
_cell_angle_gamma 90.000000
_cell_volume 3569.385936
_symmetry_space_group_name_H-M "P M M A"
_symmetry_group_IT_number 51
_symmetry_cell_setting 'orthorhombic'
loop_
_space_group_symop_operation_xyz
x,y,z
1/2-x,-y,z
1/2+x,-y,-z
-x,y,-z
-x,-y,-z
1/2+x,y,-z
1/2-x,y,z
x,-y,z
loop_
_atom_site_type_symbol
_atom_site_label
_atom_site_fract_x
_atom_site_fract_y
_atom_site_fract_z
Si Si1 0.350842 0.699261 0.468862
Si Si2 0.649512 0.302872 0.969174
Si Si3 0.849555 0.300146 0.425075
Si Si4 0.849605 0.194878 0.073090
Si Si5 0.650391 0.802431 0.804796
Si Si6 0.525211 0.694821 0.886552
Si Si7 0.472162 0.697483 0.384345
Si Si8 0.650915 0.802801 0.698257
O O1 0.250000 0.747977 0.458754
O O2 0.353450 0.500000 0.468624
O O3 0.371687 0.748315 0.521736
O O4 0.416260 0.756872 0.428977
O O5 0.750000 0.243959 0.960891
O O6 0.650587 0.500000 0.966305
O O7 0.582457 0.239986 0.930349
O O8 0.625127 0.257689 0.021709
O O9 0.750000 0.245360 0.414398
O O10 0.848054 0.500000 0.424781
O O11 0.927301 0.245873 0.391134
O O12 0.750000 0.256286 0.083162
O O13 0.925456 0.244581 0.108669
O O14 0.846164 0.000000 0.071099
O O15 0.750000 0.748738 0.818316
O O16 0.577325 0.741737 0.840270
O O17 0.635132 0.749853 0.751473
O O18 0.650055 0.000000 0.805412
O O19 0.523029 0.500000 0.890112
O O20 0.472739 0.500000 0.386108
O O21 0.422060 0.746919 0.337894
O O22 0.750000 0.746553 0.684623
O O23 0.652189 0.000000 0.698357
#
# Coordination Sequence:
#
# PCOD9398467 Si02
#       8
#     8   8   8   8   8   8   8   8
#     4   8  13  21  35  60  93 122 149 186 231 276
#     4   9  18  32  48  70 103 136 162 193 239 292
#     4   8  14  24  38  60  93 128 156 186 228 274
#     4  10  21  35  50  70  98 134 174 209 237 272
#     4   9  19  36  55  73  95 124 156 190 232 288
#     4  11  21  32  51  77 102 129 161 199 246 293
#     4  10  17  25  44  71  92 115 155 200 233 268
#     4   9  19  35  51  68  94 125 151 181 232 291
#
# _framework density 17.930256
#
# number of rings (size 3 to 8) (size 9 to 14) (size 15 to 20)
#    0.000    2.750    0.000    3.750    0.000    6.750 
#    0.000    2.500    0.000    2.625    0.000    5.250 
#    0.000    0.000    0.000    0.000    0.000    0.000 
#
# Total GULP energy -356910.631016 kJ/mol
# GULP energy per Si atom -5576.728610 kJ/mol
# Density = 1.788945 g / cm^3
# Si number density = 17.930256 Si / 1000 Ang^3
#
#
#
# Elastic Constant Matrix: (Units=GPa)
#
#
# Indices 1 2 3 4 5 6 
#
# 1 131.4999 10.0826 87.1837 0.0000 0.0000 0.0000
# 2 10.0826 7.6887 3.9333 0.0000 0.0000 0.0000
# 3 87.1837 3.9333 84.6948 0.0000 0.0000 0.0000
# 4 0.0000 0.0000 0.0000 24.4380 0.0000 0.0000
# 5 0.0000 0.0000 0.0000 0.0000 26.1410 0.0000
# 6 0.0000 0.0000 0.0000 0.0000 0.0000 18.0769
#
#
#
# Elastic Compliance Matrix: (Units=1/GPa)
#
#
# Indices 1 2 3 4 5 6 
#
# 1 0.027097 -0.021782 -0.026882 0.000000 0.000000 0.000000
# 2 -0.021782 0.150736 0.015422 0.000000 0.000000 0.000000
# 3 -0.026882 0.015422 0.038763 0.000000 0.000000 0.000000
# 4 0.000000 0.000000 0.000000 0.040920 0.000000 0.000000
# 5 0.000000 0.000000 0.000000 0.000000 0.038254 0.000000
# 6 0.000000 0.000000 0.000000 0.000000 0.000000 0.055319
#
#
# Mechanical properties :
#
#
# Convention : Reuss Voigt Hill
#
# Bulk Modulus (GPa) = 6.66168 47.36471 27.01320
# Shear Modulus (GPa) = 10.69264 21.91011 16.30137
#
# Velocity S-wave (km/s) = 2.44467 3.49945 3.01849
# Velocity P-wave (km/s) = 3.41935 6.54230 5.21985
#
# Compressibility (1/GPa) = 0.15011218
#
# Stress axis : x y z
#
# Youngs Moduli (GPa) = 36.90406 6.63410 25.79790
#
# Poissons Ratio (x) = 0.14451 0.69350
# Poissons Ratio (y) = 0.80385 -0.39786
# Poissons Ratio (z) = 0.99205 -0.10231
#
# Static dielectric constant tensor:
#      x y z
#    x 1.638580 0.000000 0.000000 
#    y 0.000000 1.638970 0.000000 
#    z 0.000000 0.000000 1.592550 
# 
# From -- ./inp_files/37795.got.cif
#   From: 2010.05.17/outbox.cif.g08.bks.cpg/sg51_19_cif.got.tgz:37795.got - 2010.06.03 11:52:47.
