data_PCOD9398429
_publ_section_title
;
Structure prediction by ZEFSAII (Michael W. Deem and Ramdas Pophale) SiO2 
 PCOD9398429
Probable space group: P M M A
;
_chemical_formula_sum "Si O2"
_cell_formula_units_Z 56
_cell_length_a 20.377816
_cell_length_b 9.144047
_cell_length_c 18.573728
_cell_angle_alpha 90.000000
_cell_angle_beta 90.000000
_cell_angle_gamma 90.000000
_cell_volume 3460.948743
_symmetry_space_group_name_H-M "P M M A"
_symmetry_group_IT_number 51
_symmetry_cell_setting 'orthorhombic'
loop_
_space_group_symop_operation_xyz
x,y,z
1/2-x,-y,z
1/2+x,-y,-z
-x,y,-z
-x,-y,-z
1/2+x,y,-z
1/2-x,y,z
x,-y,z
loop_
_atom_site_type_symbol
_atom_site_label
_atom_site_fract_x
_atom_site_fract_y
_atom_site_fract_z
Si Si1 0.052499 0.675509 0.343648
Si Si2 0.545089 0.672465 0.814655
Si Si3 0.609645 0.674029 0.216260
Si Si4 0.068173 0.824259 0.037764
Si Si5 0.326225 0.174242 0.918928
Si Si6 0.919870 0.331086 0.502479
Si Si7 0.588561 0.173727 0.360362
O O1 0.035610 0.500000 0.346052
O O2 0.077616 0.704773 0.263146
O O3 0.096079 0.704388 0.414271
O O4 0.986493 0.769551 0.352161
O O5 0.551804 0.500000 0.828489
O O6 0.467068 0.702647 0.804101
O O7 0.571390 0.759404 0.882627
O O8 0.617438 0.500000 0.222773
O O9 0.652476 0.740210 0.152354
O O10 0.623899 0.750843 0.292606
O O11 0.067230 0.000000 0.042797
O O12 0.127442 0.781194 0.985279
O O13 0.000000 0.777299 0.000000
O O14 0.250000 0.197882 0.935029
O O15 0.336594 0.000000 0.906826
O O16 0.903180 0.500000 0.487715
O O17 0.891507 0.231201 0.439411
O O18 0.000000 0.321570 0.500000
O O19 0.592269 0.000000 0.355835
#
# Coordination Sequence:
#
# PCOD9398429 Si02
#       7
#     8   8   8   8   8   8   8
#     4   8  15  26  37  54  83 118 151 185 228 273
#     4   9  17  28  44  66  89 117 154 193 230 271
#     4  10  19  31  46  64  88 118 155 191 228 274
#     4  10  19  31  48  69  92 118 153 191 232 283
#     4  10  21  36  51  68  93 122 151 190 239 282
#     4   8  13  23  36  50  78 117 151 182 222 270
#     4  10  17  23  36  58  84 114 151 188 223 266
#
# _framework density 16.180534999999999
#
# number of rings (size 3 to 8) (size 9 to 14) (size 15 to 20)
#    0.000    2.714    1.429    3.429    0.000    6.000 
#    0.000    0.000    0.000    0.000    0.000    0.000 
#    0.000    1.143    0.000    9.143    0.000    5.000 
#
# Total GULP energy -311799.173108 kJ/mol
# GULP energy per Si atom -5567.842377 kJ/mol
# Density = 1.614371 g / cm^3
# Si number density = 16.180535 Si / 1000 Ang^3
#
#
#
# Elastic Constant Matrix: (Units=GPa)
#
#
# Indices 1 2 3 4 5 6 
#
# 1 37.3964 29.3212 42.8236 0.0000 0.0000 0.0000
# 2 29.3212 54.3713 65.1369 0.0000 0.0000 0.0000
# 3 42.8236 65.1369 178.0500 0.0000 0.0000 0.0000
# 4 0.0000 0.0000 0.0000 23.5846 0.0000 0.0000
# 5 0.0000 0.0000 0.0000 0.0000 9.9074 0.0000
# 6 0.0000 0.0000 0.0000 0.0000 0.0000 9.3520
#
#
#
# Elastic Compliance Matrix: (Units=1/GPa)
#
#
# Indices 1 2 3 4 5 6 
#
# 1 0.047638 -0.021298 -0.003666 0.000000 0.000000 0.000000
# 2 -0.021298 0.042264 -0.010339 0.000000 0.000000 0.000000
# 3 -0.003666 -0.010339 0.010281 0.000000 0.000000 0.000000
# 4 0.000000 0.000000 0.000000 0.042401 0.000000 0.000000
# 5 0.000000 0.000000 0.000000 0.000000 0.100935 0.000000
# 6 0.000000 0.000000 0.000000 0.000000 0.000000 0.106929
#
#
# Mechanical properties :
#
#
# Convention : Reuss Voigt Hill
#
# Bulk Modulus (GPa) = 33.81151 60.48678 47.14915
# Shear Modulus (GPa) = 11.60333 17.40453 14.50393
#
# Velocity S-wave (km/s) = 2.68081 3.28326 2.99721
# Velocity P-wave (km/s) = 5.52486 7.19977 6.41719
#
# Compressibility (1/GPa) = 0.02957572
#
# Stress axis : x y z
#
# Youngs Moduli (GPa) = 20.99184 23.66089 97.27144
#
# Poissons Ratio (x) = 0.50393 0.35659
# Poissons Ratio (y) = 0.44709 1.00570
# Poissons Ratio (z) = 0.07695 0.24463
#
# Static dielectric constant tensor:
#      x y z
#    x 1.519970 0.000000 0.000000 
#    y 0.000000 1.536770 0.000000 
#    z 0.000000 0.000000 1.587110 
# 
# From -- ./inp_files/30411.got.cif
#   From: 2010.05.17/outbox.cif.g08.bks.cpg/sg51_16_cif.got.tgz:30411.got - 2010.06.03 11:52:47.
