data_PCOD9398766
_publ_section_title
;
Structure prediction by ZEFSAII (Michael W. Deem and Ramdas Pophale) SiO2 
 PCOD9398766
Probable space group: P M M A
;
_chemical_formula_sum "Si O2"
_cell_formula_units_Z 32
_cell_length_a 10.648214
_cell_length_b 18.745223
_cell_length_c 8.523666
_cell_angle_alpha 90.000000
_cell_angle_beta 90.000000
_cell_angle_gamma 90.000000
_cell_volume 1701.350549
_symmetry_space_group_name_H-M "P M M A"
_symmetry_group_IT_number 51
_symmetry_cell_setting 'orthorhombic'
loop_
_space_group_symop_operation_xyz
x,y,z
1/2-x,-y,z
1/2+x,-y,-z
-x,y,-z
-x,-y,-z
1/2+x,y,-z
1/2-x,y,z
x,-y,z
loop_
_atom_site_type_symbol
_atom_site_label
_atom_site_fract_x
_atom_site_fract_y
_atom_site_fract_z
Si Si1 0.981333 0.322628 0.809789
Si Si2 0.014734 0.166366 0.314383
Si Si3 0.750000 0.415626 0.841479
Si Si4 0.250000 0.166698 0.855144
Si Si5 0.750000 0.915313 0.817067
Si Si6 0.250000 0.664241 0.830571
O O1 0.874183 0.379022 0.772631
O O2 0.946484 0.243994 0.752495
O O3 0.118163 0.342871 0.742418
O O4 0.000000 0.320590 0.000000
O O5 0.878400 0.150509 0.238326
O O6 0.000000 0.170351 0.500000
O O7 0.123832 0.111513 0.268930
O O8 0.750000 0.500000 0.829014
O O9 0.750000 0.390238 0.024218
O O10 0.250000 0.252435 0.886779
O O11 0.250000 0.122954 0.014462
O O12 0.750000 0.000000 0.831979
#
# Coordination Sequence:
#
# PCOD9398766 Si02
#       6
#     8   8   4   4   4   4
#     4   9  17  32  53  77 106 141 187 234 278 332
#     4  11  22  39  63  89 115 147 193 247 291 332
#     4  10  18  27  46  78 112 144 181 230 282 330
#     4  10  21  40  62  85 114 151 199 243 283 337
#     4  12  25  40  60  86 118 156 190 225 285 359
#     4   8  16  29  48  73 102 135 180 236 276 312
#
# _framework density 18.808585999999998
#
# number of rings (size 3 to 8) (size 9 to 14) (size 15 to 20)
#    0.000    2.000    0.000    6.750    0.000    7.000 
#    0.000    1.250    0.000    0.750    0.000   15.750 
#    0.000    0.000    0.000    0.000    0.000    0.000 
#
# Total GULP energy -178579.781675 kJ/mol
# GULP energy per Si atom -5580.618177 kJ/mol
# Density = 1.876578 g / cm^3
# Si number density = 18.808586 Si / 1000 Ang^3
#
#
#
# Elastic Constant Matrix: (Units=GPa)
#
#
# Indices 1 2 3 4 5 6 
#
# 1 163.6867 97.3780 32.8437 0.0000 0.0000 0.0000
# 2 97.3780 130.4087 36.5355 0.0000 0.0000 0.0000
# 3 32.8437 36.5355 74.5211 0.0000 0.0000 0.0000
# 4 0.0000 0.0000 0.0000 -2.9386 0.0000 0.0000
# 5 0.0000 0.0000 0.0000 0.0000 17.2388 0.0000
# 6 0.0000 0.0000 0.0000 0.0000 0.0000 -3.1520
#
#
#
# Elastic Compliance Matrix: (Units=1/GPa)
#
#
# Indices 1 2 3 4 5 6 
#
# 1 0.011051 -0.007984 -0.000956 0.000000 0.000000 0.000000
# 2 -0.007984 0.014657 -0.003667 0.000000 0.000000 0.000000
# 3 -0.000956 -0.003667 0.015638 0.000000 0.000000 0.000000
# 4 0.000000 0.000000 0.000000 -0.340294 0.000000 0.000000
# 5 0.000000 0.000000 0.000000 0.000000 0.058009 0.000000
# 6 0.000000 0.000000 0.000000 0.000000 0.000000 -0.317258
#
#
# Mechanical properties :
#
#
# Convention : Reuss Voigt Hill
#
# Bulk Modulus (GPa) = 61.98936 78.01454 70.00195
# Shear Modulus (GPa) = -9.47677 15.68692 3.10507
#
# Velocity S-wave (km/s) = -2.24710 2.89109 1.28626
# Velocity P-wave (km/s) = 5.12805 7.26035 6.28529
#
# Compressibility (1/GPa) = 0.01613180
#
# Stress axis : x y z
#
# Youngs Moduli (GPa) = 90.49198 68.22554 63.94518
#
# Poissons Ratio (x) = 0.54470 0.06114
# Poissons Ratio (y) = 0.72247 0.23451
# Poissons Ratio (z) = 0.08652 0.25020
#
# Static dielectric constant tensor:
#      x y z
#    x 1.735680 0.000000 0.000000 
#    y 0.000000 1.607220 0.000000 
#    z 0.000000 0.000000 1.633880 
# 
# From -- ./inp_files/6775.got.cif
#   From: 2010.05.17/outbox.cif.g08.bks.cpg/sg51_4_cif.got.tgz:6775.got - 2010.06.03 11:52:47.
