data_PCOD9398420
_publ_section_title
;
Structure prediction by ZEFSAII (Michael W. Deem and Ramdas Pophale) SiO2 
 PCOD9398420
Probable space group: P M M A
;
_chemical_formula_sum "Si O2"
_cell_formula_units_Z 56
_cell_length_a 22.270749
_cell_length_b 8.654471
_cell_length_c 15.115033
_cell_angle_alpha 90.000000
_cell_angle_beta 90.000000
_cell_angle_gamma 90.000000
_cell_volume 2913.294909
_symmetry_space_group_name_H-M "P M M A"
_symmetry_group_IT_number 51
_symmetry_cell_setting 'orthorhombic'
loop_
_space_group_symop_operation_xyz
x,y,z
1/2-x,-y,z
1/2+x,-y,-z
-x,y,-z
-x,-y,-z
1/2+x,y,-z
1/2-x,y,z
x,-y,z
loop_
_atom_site_type_symbol
_atom_site_label
_atom_site_fract_x
_atom_site_fract_y
_atom_site_fract_z
Si Si1 0.630427 0.312540 0.868695
Si Si2 0.182064 0.186123 0.755131
Si Si3 0.072137 0.185143 0.633615
Si Si4 0.122022 0.684142 0.461124
Si Si5 0.950544 0.686848 0.712999
Si Si6 0.250000 0.686039 0.241800
Si Si7 0.320431 0.685602 0.948688
Si Si8 0.750000 0.817732 0.561627
O O1 0.627591 0.500000 0.872586
O O2 0.575077 0.260911 0.807940
O O3 0.691064 0.276276 0.814697
O O4 0.639167 0.258751 0.969263
O O5 0.250000 0.241146 0.735126
O O6 0.131549 0.238051 0.686720
O O7 0.166480 0.239856 0.854244
O O8 0.182965 0.000000 0.753319
O O9 0.077248 0.253073 0.535459
O O10 0.013524 0.242523 0.684651
O O11 0.071837 0.000000 0.628740
O O12 0.124532 0.500000 0.465139
O O13 0.097582 0.727118 0.363786
O O14 0.188300 0.750767 0.476839
O O15 0.955452 0.500000 0.713852
O O16 0.250000 0.500000 0.258490
O O17 0.250000 0.770562 0.335157
O O18 0.250000 0.716244 0.969742
O O19 0.326485 0.500000 0.940907
O O20 0.750000 0.000000 0.549805
#
# Coordination Sequence:
#
# PCOD9398420 Si02
#       8
#     8   8   8   8   8   4   8   4
#     4   9  16  30  56  85 114 148 185 227 280 330
#     4   9  20  39  58  77 108 147 183 228 289 345
#     4  11  24  40  59  81 110 149 191 239 291 339
#     4  11  23  40  62  85 112 151 194 233 279 336
#     4  10  21  38  59  82 113 153 191 228 275 340
#     4  10  16  32  56  79 114 155 188 225 274 332
#     4   9  16  29  55  87 112 138 181 236 284 329
#     4  12  24  36  54  87 124 151 182 233 284 328
#
# _framework density 19.222221000000001
#
# number of rings (size 3 to 8) (size 9 to 14) (size 15 to 20)
#    0.000    2.000    2.143    1.929    1.000    4.000 
#    0.000    2.143    0.000    4.286    0.000    0.000 
#    0.000    0.000    0.000    0.000    0.000    0.000 
#
# Total GULP energy -312679.204002 kJ/mol
# GULP energy per Si atom -5583.557214 kJ/mol
# Density = 1.917847 g / cm^3
# Si number density = 19.222221 Si / 1000 Ang^3
#
#
#
# Elastic Constant Matrix: (Units=GPa)
#
#
# Indices 1 2 3 4 5 6 
#
# 1 73.0433 22.1566 16.8331 0.0000 0.0000 0.0000
# 2 22.1566 18.8747 13.2239 0.0000 0.0000 0.0000
# 3 16.8331 13.2239 53.2856 0.0000 0.0000 0.0000
# 4 0.0000 0.0000 0.0000 55.4878 0.0000 0.0000
# 5 0.0000 0.0000 0.0000 0.0000 22.9660 0.0000
# 6 0.0000 0.0000 0.0000 0.0000 0.0000 24.9081
#
#
#
# Elastic Compliance Matrix: (Units=1/GPa)
#
#
# Indices 1 2 3 4 5 6 
#
# 1 0.021279 -0.024535 -0.000633 0.000000 0.000000 0.000000
# 2 -0.024535 0.092421 -0.015186 0.000000 0.000000 0.000000
# 3 -0.000633 -0.015186 0.022735 0.000000 0.000000 0.000000
# 4 0.000000 0.000000 0.000000 0.018022 0.000000 0.000000
# 5 0.000000 0.000000 0.000000 0.000000 0.043543 0.000000
# 6 0.000000 0.000000 0.000000 0.000000 0.000000 0.040148
#
#
# Mechanical properties :
#
#
# Convention : Reuss Voigt Hill
#
# Bulk Modulus (GPa) = 17.94432 27.73676 22.84054
# Shear Modulus (GPa) = 14.81784 26.87171 20.84478
#
# Velocity S-wave (km/s) = 2.77947 3.74297 3.29661
# Velocity P-wave (km/s) = 4.43351 5.75679 5.13793
#
# Compressibility (1/GPa) = 0.05572795
#
# Stress axis : x y z
#
# Youngs Moduli (GPa) = 46.99527 10.82002 43.98419
#
# Poissons Ratio (x) = 0.26547 0.02785
# Poissons Ratio (y) = 1.15303 0.66793
# Poissons Ratio (z) = 0.02976 0.16431
#
# Static dielectric constant tensor:
#      x y z
#    x 1.670420 0.000000 0.000000 
#    y 0.000000 1.653430 0.000000 
#    z 0.000000 0.000000 1.664190 
# 
# From -- ./inp_files/25859.got.cif
#   From: 2010.05.17/outbox.cif.g08.bks.cpg/sg51_13_cif.got.tgz:25859.got - 2010.06.03 11:52:47.
