data_PCOD9398688
_publ_section_title
;
Structure prediction by ZEFSAII (Michael W. Deem and Ramdas Pophale) SiO2 
 PCOD9398688
Probable space group: P M M A
;
_chemical_formula_sum "Si O2"
_cell_formula_units_Z 64
_cell_length_a 9.283564
_cell_length_b 18.791661
_cell_length_c 26.573694
_cell_angle_alpha 90.000000
_cell_angle_beta 90.000000
_cell_angle_gamma 90.000000
_cell_volume 4635.876253
_symmetry_space_group_name_H-M "P M M A"
_symmetry_group_IT_number 51
_symmetry_cell_setting 'orthorhombic'
loop_
_space_group_symop_operation_xyz
x,y,z
1/2-x,-y,z
1/2+x,-y,-z
-x,y,-z
-x,-y,-z
1/2+x,y,-z
1/2-x,y,z
x,-y,z
loop_
_atom_site_type_symbol
_atom_site_label
_atom_site_fract_x
_atom_site_fract_y
_atom_site_fract_z
Si Si1 0.415174 0.790867 0.796457
Si Si2 0.584058 0.586673 0.450096
Si Si3 0.414152 0.283264 0.906896
Si Si4 0.577228 0.417259 0.151647
Si Si5 0.079373 0.844808 0.049467
Si Si6 0.421666 0.082904 0.156497
Si Si7 0.421094 0.416180 0.349194
Si Si8 0.922591 0.659659 0.755939
O O1 0.250000 0.797370 0.779639
O O2 0.413043 0.752929 0.851445
O O3 0.490841 0.866119 0.806237
O O4 0.507163 0.737300 0.762402
O O5 0.500000 0.610443 0.500000
O O6 0.750000 0.608791 0.451478
O O7 0.580833 0.500000 0.450490
O O8 0.507166 0.608321 0.398361
O O9 0.250000 0.280575 0.926557
O O10 0.457497 0.364301 0.894691
O O11 0.518910 0.234369 0.939289
O O12 0.750000 0.409011 0.160624
O O13 0.547599 0.500000 0.142128
O O14 0.492016 0.389599 0.200526
O O15 0.250000 0.843528 0.041998
O O16 0.047782 0.891266 0.099300
O O17 0.000000 0.872703 0.000000
O O18 0.250000 0.092912 0.164141
O O19 0.456080 0.000000 0.162159
O O20 0.250000 0.410395 0.359049
O O21 0.452583 0.500000 0.340720
O O22 0.454470 0.373564 0.298514
O O23 0.750000 0.662718 0.762675
#
# Coordination Sequence:
#
# PCOD9398688 Si02
#       8
#     8   8   8   8   8   8   8   8
#     4   9  17  29  44  61  81 106 134 161 191 230
#     4   9  16  25  37  51  68  95 132 173 215 255
#     4   8  15  28  43  58  77 101 128 156 188 229
#     4   9  17  28  42  60  81 103 127 160 202 243
#     4  10  19  30  45  63  82 104 128 155 188 226
#     4   9  18  32  48  66  87 108 130 156 186 223
#     4   9  17  27  37  52  76 104 136 175 214 248
#     4  10  18  27  40  58  81 108 136 167 203 241
#
# _framework density 13.805372
#
# number of rings (size 3 to 8) (size 9 to 14) (size 15 to 20)
#    0.000    2.875    0.000    2.625    0.000    7.250 
#    0.000    1.250    0.000    0.375    0.000    0.000 
#    0.000    0.000    0.000    0.000    0.000    0.625 
#
# Total GULP energy -356487.007614 kJ/mol
# GULP energy per Si atom -5570.109494 kJ/mol
# Density = 1.377395 g / cm^3
# Si number density = 13.805372 Si / 1000 Ang^3
#
#
#
# Elastic Constant Matrix: (Units=GPa)
#
#
# Indices 1 2 3 4 5 6 
#
# 1 53.2351 34.2737 28.5974 0.0000 0.0000 0.0000
# 2 34.2737 87.1889 19.1288 0.0000 0.0000 0.0000
# 3 28.5974 19.1288 38.2406 0.0000 0.0000 0.0000
# 4 0.0000 0.0000 0.0000 9.9848 0.0000 0.0000
# 5 0.0000 0.0000 0.0000 0.0000 22.5999 0.0000
# 6 0.0000 0.0000 0.0000 0.0000 0.0000 17.8920
#
#
#
# Elastic Compliance Matrix: (Units=1/GPa)
#
#
# Indices 1 2 3 4 5 6 
#
# 1 0.037436 -0.009631 -0.023179 0.000000 0.000000 0.000000
# 2 -0.009631 0.015361 -0.000482 0.000000 0.000000 0.000000
# 3 -0.023179 -0.000482 0.043725 0.000000 0.000000 0.000000
# 4 0.000000 0.000000 0.000000 0.100152 0.000000 0.000000
# 5 0.000000 0.000000 0.000000 0.000000 0.044248 0.000000
# 6 0.000000 0.000000 0.000000 0.000000 0.000000 0.055891
#
#
# Mechanical properties :
#
#
# Convention : Reuss Voigt Hill
#
# Bulk Modulus (GPa) = 33.40005 38.07382 35.73693
# Shear Modulus (GPa) = 13.39137 16.53966 14.96552
#
# Velocity S-wave (km/s) = 3.11788 3.46506 3.29604
# Velocity P-wave (km/s) = 6.09980 6.60664 6.35827
#
# Compressibility (1/GPa) = 0.02994008
#
# Stress axis : x y z
#
# Youngs Moduli (GPa) = 26.71191 65.10042 22.87038
#
# Poissons Ratio (x) = 0.62698 0.53010
# Poissons Ratio (y) = 0.25726 0.01101
# Poissons Ratio (z) = 0.61914 0.03135
#
# Static dielectric constant tensor:
#      x y z
#    x 1.465010 0.000000 0.000000 
#    y 0.000000 1.450610 0.000000 
#    z 0.000000 0.000000 1.436320 
# 
# From -- ./inp_files/36474.got.cif
#   From: 2010.05.17/outbox.cif.g08.bks.cpg/sg51_19_cif.got.tgz:36474.got - 2010.06.03 11:52:47.
