data_PCOD9398764
_publ_section_title
;
Structure prediction by ZEFSAII (Michael W. Deem and Ramdas Pophale) SiO2 
 PCOD9398764
Probable space group: P M M A
;
_chemical_formula_sum "Si O2"
_cell_formula_units_Z 64
_cell_length_a 27.606677
_cell_length_b 12.768365
_cell_length_c 11.296654
_cell_angle_alpha 90.000000
_cell_angle_beta 90.000000
_cell_angle_gamma 90.000000
_cell_volume 3981.981612
_symmetry_space_group_name_H-M "P M M A"
_symmetry_group_IT_number 51
_symmetry_cell_setting 'orthorhombic'
loop_
_space_group_symop_operation_xyz
x,y,z
1/2-x,-y,z
1/2+x,-y,-z
-x,y,-z
-x,-y,-z
1/2+x,y,-z
1/2-x,y,z
x,-y,z
loop_
_atom_site_type_symbol
_atom_site_label
_atom_site_fract_x
_atom_site_fract_y
_atom_site_fract_z
Si Si1 0.632958 0.878707 0.587137
Si Si2 0.904542 0.122195 0.854464
Si Si3 0.387700 0.378737 0.700127
Si Si4 0.018945 0.117722 0.821970
Si Si5 0.195098 0.727659 0.560441
Si Si6 0.453255 0.204334 0.576049
Si Si7 0.389224 0.768156 0.915541
Si Si8 0.197184 0.878197 0.785392
O O1 0.617993 0.868565 0.723980
O O2 0.671548 0.790349 0.548850
O O3 0.586183 0.853505 0.505522
O O4 0.648292 0.000000 0.566503
O O5 0.962515 0.136668 0.844098
O O6 0.896097 0.000000 0.893876
O O7 0.884960 0.210356 0.944629
O O8 0.400740 0.500000 0.700552
O O9 0.339870 0.359033 0.619329
O O10 0.427324 0.303641 0.637792
O O11 0.381318 0.336040 0.835556
O O12 0.029523 0.130459 0.682808
O O13 0.056416 0.193893 0.885950
O O14 0.030240 0.000000 0.860983
O O15 0.250000 0.692480 0.537973
O O16 0.195775 0.814767 0.664036
O O17 0.500000 0.234526 0.500000
O O18 0.348954 0.844649 0.859992
O O19 0.250000 0.856105 0.842604
O O20 0.194522 0.000000 0.759891
#
# Coordination Sequence:
#
# PCOD9398764 Si02
#       8
#     8   8   8   8   8   8   8   8
#     4  10  19  29  45  73 108 139 163 189 228 289
#     4  10  19  29  44  69 102 138 170 194 226 283
#     4   9  20  35  52  73  90 116 162 214 265 299
#     4  10  18  27  45  71  98 131 169 202 238 284
#     4   9  18  32  51  74  97 122 154 196 247 297
#     4  10  18  30  48  70  98 131 161 204 246 293
#     4  10  19  31  47  65  94 128 166 209 246 285
#     4   9  16  27  45  68  93 120 151 189 237 292
#
# _framework density 16.072399000000001
#
# number of rings (size 3 to 8) (size 9 to 14) (size 15 to 20)
#    0.000    2.375    1.250    3.000    0.000    2.750 
#    0.000    0.625    0.000    9.750    0.000    0.000 
#    0.000    0.000    0.000    0.000    0.000    0.000 
#
# Total GULP energy -356323.232913 kJ/mol
# GULP energy per Si atom -5567.550514 kJ/mol
# Density = 1.603582 g / cm^3
# Si number density = 16.072399 Si / 1000 Ang^3
#
#
#
# Elastic Constant Matrix: (Units=GPa)
#
#
# Indices 1 2 3 4 5 6 
#
# 1 36.8179 -4.4871 0.2325 0.0000 0.0000 0.0000
# 2 -4.4871 54.7039 13.5969 0.0000 0.0000 0.0000
# 3 0.2325 13.5969 78.0186 0.0000 0.0000 0.0000
# 4 0.0000 0.0000 0.0000 12.3514 0.0000 0.0000
# 5 0.0000 0.0000 0.0000 0.0000 3.4655 0.0000
# 6 0.0000 0.0000 0.0000 0.0000 0.0000 0.5453
#
#
#
# Elastic Compliance Matrix: (Units=1/GPa)
#
#
# Indices 1 2 3 4 5 6 
#
# 1 0.027453 0.002375 -0.000496 0.000000 0.000000 0.000000
# 2 0.002375 0.019313 -0.003373 0.000000 0.000000 0.000000
# 3 -0.000496 -0.003373 0.013407 0.000000 0.000000 0.000000
# 4 0.000000 0.000000 0.000000 0.080962 0.000000 0.000000
# 5 0.000000 0.000000 0.000000 0.000000 0.288558 0.000000
# 6 0.000000 0.000000 0.000000 0.000000 0.000000 1.833931
#
#
# Mechanical properties :
#
#
# Convention : Reuss Voigt Hill
#
# Bulk Modulus (GPa) = 17.48674 20.91390 19.20032
# Shear Modulus (GPa) = 2.18754 13.95231 8.06993
#
# Velocity S-wave (km/s) = 1.16791 2.94954 2.24319
# Velocity P-wave (km/s) = 3.56683 4.96389 4.32218
#
# Compressibility (1/GPa) = 0.05718618
#
# Stress axis : x y z
#
# Youngs Moduli (GPa) = 36.42552 51.77749 74.58923
#
# Poissons Ratio (x) = -0.12297 0.03698
# Poissons Ratio (y) = -0.08651 0.25159
# Poissons Ratio (z) = 0.01806 0.17464
#
# Static dielectric constant tensor:
#      x y z
#    x 1.572340 0.000000 0.000000 
#    y 0.000000 1.513960 0.000000 
#    z 0.000000 0.000000 1.566350 
# 
# From -- ./inp_files/19215.got.cif
#   From: 2010.05.17/outbox.cif.g08.bks.cpg/sg51_10_cif.got.tgz:19215.got - 2010.06.03 11:52:47.
