data_PCOD9398543
_publ_section_title
;
Structure prediction by ZEFSAII (Michael W. Deem and Ramdas Pophale) SiO2 
 PCOD9398543
Probable space group: P M M A
;
_chemical_formula_sum "Si O2"
_cell_formula_units_Z 64
_cell_length_a 8.695996
_cell_length_b 14.958437
_cell_length_c 28.787313
_cell_angle_alpha 90.000000
_cell_angle_beta 90.000000
_cell_angle_gamma 90.000000
_cell_volume 3744.610734
_symmetry_space_group_name_H-M "P M M A"
_symmetry_group_IT_number 51
_symmetry_cell_setting 'orthorhombic'
loop_
_space_group_symop_operation_xyz
x,y,z
1/2-x,-y,z
1/2+x,-y,-z
-x,y,-z
-x,-y,-z
1/2+x,y,-z
1/2-x,y,z
x,-y,z
loop_
_atom_site_type_symbol
_atom_site_label
_atom_site_fract_x
_atom_site_fract_y
_atom_site_fract_z
Si Si1 0.934153 0.102680 0.948818
Si Si2 0.566708 0.894038 0.783973
Si Si3 0.063195 0.397948 0.278529
Si Si4 0.564389 0.396406 0.827328
Si Si5 0.063611 0.719673 0.366066
Si Si6 0.437323 0.899525 0.322770
Si Si7 0.431972 0.778263 0.866961
Si Si8 0.434119 0.602709 0.551129
O O1 0.750000 0.106872 0.950093
O O2 0.996313 0.170923 0.910852
O O3 0.978176 0.000000 0.936407
O O4 0.000000 0.120849 0.000000
O O5 0.750000 0.875985 0.787544
O O6 0.519417 0.877186 0.730540
O O7 0.481925 0.833952 0.821322
O O8 0.544359 0.000000 0.792904
O O9 0.250000 0.396186 0.278053
O O10 0.016021 0.500000 0.288306
O O11 0.015578 0.375316 0.226004
O O12 0.013646 0.333337 0.319586
O O13 0.750000 0.390597 0.829029
O O14 0.522991 0.500000 0.836774
O O15 0.493846 0.322191 0.860466
O O16 0.250000 0.716397 0.368356
O O17 0.015176 0.822102 0.357889
O O18 0.997412 0.670532 0.410718
O O19 0.250000 0.900983 0.322465
O O20 0.489995 0.000000 0.333624
O O21 0.250000 0.777646 0.871151
O O22 0.500000 0.621705 0.500000
O O23 0.250000 0.606695 0.549683
O O24 0.479567 0.500000 0.563124
#
# Coordination Sequence:
#
# PCOD9398543 Si02
#       8
#     8   8   8   8   8   8   8   8
#     4  10  21  38  59  81 105 132 164 205 252 302
#     4   9  17  31  51  73  99 134 176 216 248 284
#     4   8  14  25  44  71  98 125 162 204 243 287
#     4   9  18  34  54  73  97 134 179 220 251 285
#     4  10  17  27  49  75  98 127 161 198 241 291
#     4   8  15  28  47  72 100 131 169 209 244 280
#     4  12  23  32  48  75 107 140 171 206 251 304
#     4  10  21  36  52  71  96 123 152 191 240 293
#
# _framework density 17.091228000000001
#
# number of rings (size 3 to 8) (size 9 to 14) (size 15 to 20)
#    0.000    2.500    0.000    4.875    0.000    6.000 
#    0.000    2.500    0.000    2.625    0.000    0.000 
#    0.000    0.000    0.000    0.000    0.000    0.000 
#
# Total GULP energy -357072.970293 kJ/mol
# GULP energy per Si atom -5579.265161 kJ/mol
# Density = 1.705233 g / cm^3
# Si number density = 17.091228 Si / 1000 Ang^3
#
#
#
# Elastic Constant Matrix: (Units=GPa)
#
#
# Indices 1 2 3 4 5 6 
#
# 1 38.7810 45.5498 37.0772 0.0000 0.0000 0.0000
# 2 45.5498 131.2090 105.6560 0.0000 0.0000 0.0000
# 3 37.0772 105.6560 109.7956 0.0000 0.0000 0.0000
# 4 0.0000 0.0000 0.0000 31.8730 0.0000 0.0000
# 5 0.0000 0.0000 0.0000 0.0000 21.9977 0.0000
# 6 0.0000 0.0000 0.0000 0.0000 0.0000 14.4412
#
#
#
# Elastic Compliance Matrix: (Units=1/GPa)
#
#
# Indices 1 2 3 4 5 6 
#
# 1 0.043551 -0.014554 -0.000702 0.000000 0.000000 0.000000
# 2 -0.014554 0.038720 -0.032345 0.000000 0.000000 0.000000
# 3 -0.000702 -0.032345 0.040471 0.000000 0.000000 0.000000
# 4 0.000000 0.000000 0.000000 0.031375 0.000000 0.000000
# 5 0.000000 0.000000 0.000000 0.000000 0.045459 0.000000
# 6 0.000000 0.000000 0.000000 0.000000 0.000000 0.069246
#
#
# Mechanical properties :
#
#
# Convention : Reuss Voigt Hill
#
# Bulk Modulus (GPa) = 36.31143 72.92797 54.61970
# Shear Modulus (GPa) = 13.39755 19.76256 16.58005
#
# Velocity S-wave (km/s) = 2.80283 3.40413 3.11801
# Velocity P-wave (km/s) = 5.63616 7.62976 6.70744
#
# Compressibility (1/GPa) = 0.02753954
#
# Stress axis : x y z
#
# Youngs Moduli (GPa) = 22.96177 25.82653 24.70927
#
# Poissons Ratio (x) = 0.37587 0.01734
# Poissons Ratio (y) = 0.33418 0.79923
# Poissons Ratio (z) = 0.01611 0.83537
#
# Static dielectric constant tensor:
#      x y z
#    x 1.579430 0.000000 0.000000 
#    y 0.000000 1.592900 0.000000 
#    z 0.000000 0.000000 1.551940 
# 
# From -- ./inp_files/34894.got.cif
#   From: 2010.05.17/outbox.cif.g08.bks.cpg/sg51_18_cif.got.tgz:34894.got - 2010.06.03 11:52:47.
