data_PCOD9398927
_publ_section_title
;
Structure prediction by ZEFSAII (Michael W. Deem and Ramdas Pophale) SiO2 
 PCOD9398927
Probable space group: P M M A
;
_chemical_formula_sum "Si O2"
_cell_formula_units_Z 48
_cell_length_a 15.008921
_cell_length_b 9.033523
_cell_length_c 19.741614
_cell_angle_alpha 90.000000
_cell_angle_beta 90.000000
_cell_angle_gamma 90.000000
_cell_volume 2676.635800
_symmetry_space_group_name_H-M "P M M A"
_symmetry_group_IT_number 51
_symmetry_cell_setting 'orthorhombic'
loop_
_space_group_symop_operation_xyz
x,y,z
1/2-x,-y,z
1/2+x,-y,-z
-x,y,-z
-x,-y,-z
1/2+x,y,-z
1/2-x,y,z
x,-y,z
loop_
_atom_site_type_symbol
_atom_site_label
_atom_site_fract_x
_atom_site_fract_y
_atom_site_fract_z
Si Si1 0.750000 0.672317 0.063883
Si Si2 0.946593 0.176912 0.210534
Si Si3 0.445206 0.825617 0.570401
Si Si4 0.250000 0.179334 0.524003
Si Si5 0.750000 0.177749 0.211064
Si Si6 0.250000 0.178796 0.364831
Si Si7 0.932895 0.676184 0.682667
Si Si8 0.419544 0.170812 0.948233
O O1 0.750000 0.500000 0.076466
O O2 0.750000 0.758024 0.135452
O O3 0.839638 0.724936 0.028681
O O4 0.847511 0.218762 0.239303
O O5 0.945890 0.204690 0.129640
O O6 0.022536 0.266786 0.248164
O O7 0.958437 0.000000 0.220709
O O8 0.500000 0.817994 0.500000
O O9 0.343258 0.775397 0.558117
O O10 0.498532 0.731197 0.624875
O O11 0.444334 0.000000 0.590907
O O12 0.250000 0.220481 0.444729
O O13 0.250000 0.000000 0.525647
O O14 0.750000 0.000000 0.207839
O O15 0.338803 0.245038 0.331714
O O16 0.250000 0.000000 0.360507
O O17 0.922915 0.500000 0.681558
O O18 0.388175 0.000000 0.947708
O O19 0.500000 0.183095 0.000000
#
# Coordination Sequence:
#
# PCOD9398927 Si02
#       8
#     4   8   8   4   4   4   8   8
#     4  10  18  28  48  80 114 146 177 216 278 345
#     4   9  18  35  58  83 110 146 188 231 277 329
#     4  10  19  36  60  83 107 141 189 234 272 321
#     4   9  18  34  60  88 107 134 185 239 275 316
#     4   8  16  33  57  79 104 141 189 232 268 316
#     4  11  21  41  65  81 101 143 195 233 271 329
#     4  12  25  38  54  83 118 149 181 226 284 336
#     4   9  18  35  59  83 108 143 192 241 278 321
#
# _framework density 17.932960000000001
#
# number of rings (size 3 to 8) (size 9 to 14) (size 15 to 20)
#    0.000    2.167    1.667    3.500    0.000    4.000 
#    0.000    4.583    0.000    2.000    0.000    0.000 
#    0.000    0.000    0.000    0.000    0.000    0.000 
#
# Total GULP energy -267723.913150 kJ/mol
# GULP energy per Si atom -5577.581524 kJ/mol
# Density = 1.789214 g / cm^3
# Si number density = 17.932960 Si / 1000 Ang^3
#
#
#
# Elastic Constant Matrix: (Units=GPa)
#
#
# Indices 1 2 3 4 5 6 
#
# 1 155.0306 51.2164 44.2656 0.0000 0.0000 0.0000
# 2 51.2164 34.0934 31.0967 0.0000 0.0000 0.0000
# 3 44.2656 31.0967 55.4400 0.0000 0.0000 0.0000
# 4 0.0000 0.0000 0.0000 -8.0062 0.0000 0.0000
# 5 0.0000 0.0000 0.0000 0.0000 23.3193 0.0000
# 6 0.0000 0.0000 0.0000 0.0000 0.0000 -0.6636
#
#
#
# Elastic Compliance Matrix: (Units=1/GPa)
#
#
# Indices 1 2 3 4 5 6 
#
# 1 0.012842 -0.020351 0.001162 0.000000 0.000000 0.000000
# 2 -0.020351 0.092307 -0.035527 0.000000 0.000000 0.000000
# 3 0.001162 -0.035527 0.037037 0.000000 0.000000 0.000000
# 4 0.000000 0.000000 0.000000 -0.124903 0.000000 0.000000
# 5 0.000000 0.000000 0.000000 0.000000 0.042883 0.000000
# 6 0.000000 0.000000 0.000000 0.000000 0.000000 -1.506929
#
#
# Mechanical properties :
#
#
# Convention : Reuss Voigt Hill
#
# Bulk Modulus (GPa) = 30.53062 55.30238 42.91650
# Shear Modulus (GPa) = -3.76957 10.79559 3.51301
#
# Velocity S-wave (km/s) = -1.45141 2.45622 1.40115
# Velocity P-wave (km/s) = 3.77532 6.24095 5.15764
#
# Compressibility (1/GPa) = 0.03275401
#
# Stress axis : x y z
#
# Youngs Moduli (GPa) = 77.86995 10.83340 26.99981
#
# Poissons Ratio (x) = 0.22047 -0.03136
# Poissons Ratio (y) = 1.58473 0.95921
# Poissons Ratio (z) = -0.09045 0.38487
#
# Static dielectric constant tensor:
#      x y z
#    x 1.640890 0.000000 0.000000 
#    y 0.000000 1.592860 0.000000 
#    z 0.000000 0.000000 1.621480 
# 
# From -- ./inp_files/29710.got.cif
#   From: 2010.05.17/outbox.cif.g08.bks.cpg/sg51_15_cif.got.tgz:29710.got - 2010.06.03 11:52:47.
