data_PCOD9398536
_publ_section_title
;
Structure prediction by ZEFSAII (Michael W. Deem and Ramdas Pophale) SiO2 
 PCOD9398536
Probable space group: P M M A
;
_chemical_formula_sum "Si O2"
_cell_formula_units_Z 64
_cell_length_a 18.383994
_cell_length_b 9.153474
_cell_length_c 22.173944
_cell_angle_alpha 90.000000
_cell_angle_beta 90.000000
_cell_angle_gamma 90.000000
_cell_volume 3731.373890
_symmetry_space_group_name_H-M "P M M A"
_symmetry_group_IT_number 51
_symmetry_cell_setting 'orthorhombic'
loop_
_space_group_symop_operation_xyz
x,y,z
1/2-x,-y,z
1/2+x,-y,-z
-x,y,-z
-x,-y,-z
1/2+x,y,-z
1/2-x,y,z
x,-y,z
loop_
_atom_site_type_symbol
_atom_site_label
_atom_site_fract_x
_atom_site_fract_y
_atom_site_fract_z
Si Si1 0.964923 0.324317 0.935950
Si Si2 0.092075 0.826385 0.616163
Si Si3 0.166138 0.173654 0.129297
Si Si4 0.332621 0.175846 0.739898
Si Si5 0.048002 0.329337 0.815363
Si Si6 0.581912 0.173379 0.628937
Si Si7 0.892653 0.327230 0.752385
Si Si8 0.088329 0.668439 0.494127
O O1 0.952365 0.500000 0.934318
O O2 0.890565 0.243864 0.917742
O O3 0.021313 0.289847 0.882209
O O4 0.000000 0.286053 0.000000
O O5 0.136833 0.778167 0.674561
O O6 0.114442 0.742847 0.555690
O O7 0.006016 0.803903 0.629120
O O8 0.102081 0.000000 0.607003
O O9 0.250000 0.196867 0.111812
O O10 0.151702 0.249325 0.194149
O O11 0.152984 0.000000 0.134556
O O12 0.250000 0.224483 0.748316
O O13 0.386408 0.236091 0.790158
O O14 0.334575 0.000000 0.740716
O O15 0.067641 0.500000 0.814675
O O16 0.976959 0.311190 0.773101
O O17 0.614800 0.251913 0.687512
O O18 0.608127 0.243261 0.566088
O O19 0.595069 0.000000 0.630679
O O20 0.876203 0.500000 0.750029
O O21 0.110554 0.500000 0.489381
O O22 0.000000 0.672004 0.500000
#
# Coordination Sequence:
#
# PCOD9398536 Si02
#       8
#     8   8   8   8   8   8   8   8
#     4   9  19  37  60  85 111 142 180 218 258 306
#     4   9  17  29  44  64  92 127 167 213 263 316
#     4  10  21  36  55  82 114 144 177 216 259 311
#     4  10  20  33  49  70  98 135 176 216 261 313
#     4   9  18  32  51  75 102 131 167 213 257 302
#     4  10  17  27  46  71  98 129 165 212 267 317
#     4  10  19  31  51  77 104 136 173 215 263 312
#     4   9  17  27  41  64  93 124 159 207 262 315
#
# _framework density 17.151859999999999
#
# number of rings (size 3 to 8) (size 9 to 14) (size 15 to 20)
#    0.000    2.500    1.250    2.250    0.000    6.000 
#    0.000    0.625    0.000    4.500    0.000    1.750 
#    0.000    0.000    0.000    0.000    0.000    0.000 
#
# Total GULP energy -356930.053401 kJ/mol
# GULP energy per Si atom -5577.032084 kJ/mol
# Density = 1.711282 g / cm^3
# Si number density = 17.151860 Si / 1000 Ang^3
#
#
#
# Elastic Constant Matrix: (Units=GPa)
#
#
# Indices 1 2 3 4 5 6 
#
# 1 75.7468 48.5377 51.8314 0.0000 0.0000 0.0000
# 2 48.5377 72.7540 66.8205 0.0000 0.0000 0.0000
# 3 51.8314 66.8205 145.9769 0.0000 0.0000 0.0000
# 4 0.0000 0.0000 0.0000 30.2950 0.0000 0.0000
# 5 0.0000 0.0000 0.0000 0.0000 12.9363 0.0000
# 6 0.0000 0.0000 0.0000 0.0000 0.0000 15.8220
#
#
#
# Elastic Compliance Matrix: (Units=1/GPa)
#
#
# Indices 1 2 3 4 5 6 
#
# 1 0.023395 -0.013766 -0.002005 0.000000 0.000000 0.000000
# 2 -0.013766 0.031816 -0.009676 0.000000 0.000000 0.000000
# 3 -0.002005 -0.009676 0.011991 0.000000 0.000000 0.000000
# 4 0.000000 0.000000 0.000000 0.033009 0.000000 0.000000
# 5 0.000000 0.000000 0.000000 0.000000 0.077302 0.000000
# 6 0.000000 0.000000 0.000000 0.000000 0.000000 0.063203
#
#
# Mechanical properties :
#
#
# Convention : Reuss Voigt Hill
#
# Bulk Modulus (GPa) = 61.32025 69.87297 65.59661
# Shear Modulus (GPa) = 16.83236 20.29653 18.56445
#
# Velocity S-wave (km/s) = 3.13609 3.44371 3.29349
# Velocity P-wave (km/s) = 6.99588 7.52585 7.26570
#
# Compressibility (1/GPa) = 0.01630783
#
# Stress axis : x y z
#
# Youngs Moduli (GPa) = 42.74339 31.43114 83.39313
#
# Poissons Ratio (x) = 0.43269 0.16724
# Poissons Ratio (y) = 0.58842 0.80687
# Poissons Ratio (z) = 0.08572 0.30411
#
# Static dielectric constant tensor:
#      x y z
#    x 1.569120 0.000000 0.000000 
#    y 0.000000 1.575200 0.000000 
#    z 0.000000 0.000000 1.565110 
# 
# From -- ./inp_files/33835.got.cif
#   From: 2010.05.17/outbox.cif.g08.bks.cpg/sg51_17_cif.got.tgz:33835.got - 2010.06.03 11:52:47.
