data_PCOD9398575
_publ_section_title
;
Structure prediction by ZEFSAII (Michael W. Deem and Ramdas Pophale) SiO2 
 PCOD9398575
Probable space group: P M M A
;
_chemical_formula_sum "Si O2"
_cell_formula_units_Z 24
_cell_length_a 5.541913
_cell_length_b 14.412584
_cell_length_c 14.686960
_cell_angle_alpha 90.000000
_cell_angle_beta 90.000000
_cell_angle_gamma 90.000000
_cell_volume 1173.095766
_symmetry_space_group_name_H-M "P M M A"
_symmetry_group_IT_number 51
_symmetry_cell_setting 'orthorhombic'
loop_
_space_group_symop_operation_xyz
x,y,z
1/2-x,-y,z
1/2+x,-y,-z
-x,y,-z
-x,-y,-z
1/2+x,y,-z
1/2-x,y,z
x,-y,z
loop_
_atom_site_type_symbol
_atom_site_label
_atom_site_fract_x
_atom_site_fract_y
_atom_site_fract_z
Si Si1 0.250000 0.702710 0.634889
Si Si2 0.750000 0.000000 0.241428
Si Si3 0.250000 0.000000 0.055646
Si Si4 0.750000 0.212133 0.165638
Si Si5 0.750000 0.000000 0.642666
Si Si6 0.750000 0.202556 0.624989
Si Si7 0.750000 0.500000 0.442363
Si Si8 0.750000 0.193877 0.848191
O O1 0.250000 0.731649 0.740476
O O2 0.502186 0.746131 0.599939
O O3 0.250000 0.594004 0.615950
O O4 0.750000 0.900069 0.188772
O O5 0.502758 0.000000 0.300394
O O6 0.250000 0.089395 0.117960
O O7 0.500000 0.000000 0.000000
O O8 0.500394 0.234851 0.117974
O O9 0.750000 0.097220 0.590109
O O10 0.750000 0.195889 0.737195
O O11 0.500000 0.500000 0.500000
#
# Coordination Sequence:
#
# PCOD9398575 Si02
#       8
#     4   2   2   4   2   4   2   4
#     4  10  20  35  54  79 105 129 177 221 262 318
#     4  12  14  23  40  76 104 121 152 196 272 320
#     4  12  23  31  38  62 108 165 197 210 234 302
#     4  10  17  28  50  75  96 126 170 237 275 292
#     4  12  15  24  42  78 108 120 151 194 272 322
#     4  10  18  31  53  82 102 132 172 237 277 296
#     4  12  26  44  62  82 108 150 176 198 260 356
#     4  10  17  29  42  61  93 136 184 220 255 292
#
# _framework density 20.458684999999999
#
# number of rings (size 3 to 8) (size 9 to 14) (size 15 to 20)
#    0.000    1.333    6.667    3.500    0.000    0.000 
#    0.000    0.000    0.000    0.000    0.000   19.833 
#    0.000    0.000    0.000  240.000    0.000    0.000 
#
# Total GULP energy -133960.698534 kJ/mol
# GULP energy per Si atom -5581.695772 kJ/mol
# Density = 2.041212 g / cm^3
# Si number density = 20.458685 Si / 1000 Ang^3
#
#
#
# Elastic Constant Matrix: (Units=GPa)
#
#
# Indices 1 2 3 4 5 6 
#
# 1 264.2105 61.3747 29.3552 0.0000 0.0000 0.0000
# 2 61.3747 139.4103 19.8817 0.0000 0.0000 0.0000
# 3 29.3552 19.8817 60.5445 0.0000 0.0000 0.0000
# 4 0.0000 0.0000 0.0000 2.4520 0.0000 0.0000
# 5 0.0000 0.0000 0.0000 0.0000 140.1547 0.0000
# 6 0.0000 0.0000 0.0000 0.0000 0.0000 24.2069
#
#
#
# Elastic Compliance Matrix: (Units=1/GPa)
#
#
# Indices 1 2 3 4 5 6 
#
# 1 0.004351 -0.001694 -0.001553 0.000000 0.000000 0.000000
# 2 -0.001694 0.008185 -0.001866 0.000000 0.000000 0.000000
# 3 -0.001553 -0.001866 0.017883 0.000000 0.000000 0.000000
# 4 0.000000 0.000000 0.000000 0.407822 0.000000 0.000000
# 5 0.000000 0.000000 0.000000 0.000000 0.007135 0.000000
# 6 0.000000 0.000000 0.000000 0.000000 0.000000 0.041310
#
#
# Mechanical properties :
#
#
# Convention : Reuss Voigt Hill
#
# Bulk Modulus (GPa) = 49.52630 76.15427 62.84029
# Shear Modulus (GPa) = 9.92764 56.93299 33.43031
#
# Velocity S-wave (km/s) = 2.20524 5.28097 4.04671
# Velocity P-wave (km/s) = 5.54478 8.63071 7.25375
#
# Compressibility (1/GPa) = 0.02019129
#
# Stress axis : x y z
#
# Youngs Moduli (GPa) = 229.83545 122.17451 55.91955
#
# Poissons Ratio (x) = 0.20696 0.08686
# Poissons Ratio (y) = 0.38933 0.10437
# Poissons Ratio (z) = 0.35700 0.22804
#
# Static dielectric constant tensor:
#      x y z
#    x 1.852840 0.000000 0.000000 
#    y 0.000000 1.684420 0.000000 
#    z 0.000000 0.000000 1.758160 
# 
# From -- ./inp_files/31031.got.cif
#   From: 2010.05.17/outbox.cif.g08.bks.cpg/sg51_16_cif.got.tgz:31031.got - 2010.06.03 11:52:47.
