data_PCOD9398313
_publ_section_title
;
Structure prediction by ZEFSAII (Michael W. Deem and Ramdas Pophale) SiO2 
 PCOD9398313
Probable space group: P B A N
;
_chemical_formula_sum "Si O2"
_cell_formula_units_Z 54
_cell_length_a 6.000000
_cell_length_b 30.000000
_cell_length_c 15.000000
_cell_angle_alpha 90.000000
_cell_angle_beta 90.000000
_cell_angle_gamma 90.000000
_cell_volume 2700.000000
_symmetry_space_group_name_H-M "P B A N"
_symmetry_group_IT_number 50
_space_group.IT_coordinate_system_code '2'
_symmetry_cell_setting 'orthorhombic'
loop_
_space_group_symop_operation_xyz
x,y,z
1/2-x,1/2-y,z
x,1/2-y,-z
1/2-x,y,-z
-x,-y,-z
1/2+x,1/2+y,-z
-x,1/2+y,z
1/2+x,-y,z
loop_
_atom_site_type_symbol
_atom_site_label
_atom_site_fract_x
_atom_site_fract_y
_atom_site_fract_z
Si Si1 0.250000 0.250000 0.000000
Si Si2 0.532572 0.333284 0.369195
Si Si3 0.439228 0.475525 0.269129
Si Si4 0.922992 0.180173 0.756998
Si Si5 0.000135 0.074422 0.458033
Si Si6 0.812694 0.618718 0.197988
Si Si7 0.250000 0.250000 0.672247
Si Si8 0.912418 0.318683 0.916696
O O1 0.414250 0.219862 0.941407
O O2 0.785549 0.327173 0.334667
O O3 0.515305 0.371879 0.442571
O O4 0.417629 0.356689 0.283900
O O5 0.403490 0.286133 0.381290
O O6 0.696445 0.496907 0.258193
O O7 0.469985 0.454126 0.367557
O O8 0.381571 0.432672 0.207104
O O9 0.746598 0.192645 0.833286
O O10 0.056905 0.136114 0.791845
O O11 0.091928 0.219901 0.734774
O O12 0.750000 0.062542 0.500000
O O13 0.250000 0.067350 0.500000
O O14 0.933190 0.640048 0.112818
O O15 0.750000 0.326996 0.000000
#
# Coordination Sequence:
#
# PCOD9398313 Si02
#       8
#     2   8   8   8   8   8   4   8
#     4  12  26  38  52 102 134 180 208 272 314 382
#     4   9  21  36  60  84 119 170 215 267 314 384
#     4  11  25  43  73 104 131 162 216 275 331 405
#     4  10  21  37  61  86 121 169 220 271 321 381
#     4  11  25  42  67  94 136 173 205 258 344 413
#     4   9  22  39  62  90 125 168 213 262 328 388
#     4  10  20  35  59  87 117 160 232 276 307 362
#     4  11  24  38  58  89 138 172 217 263 326 388
#
# _framework density 20.0
#
# number of rings (size 3 to 8) (size 9 to 14) (size 15 to 20)
#    0.000    1.778    0.000    2.444   12.444   16.000 
#    0.000    0.370    0.000    0.889    0.000    0.000 
#    0.000    0.000    0.000    0.000    0.000    0.000 
#
# Total GULP energy -300815.079106 kJ/mol
# GULP energy per Si atom -5570.649613 kJ/mol
# Density = 1.995448 g / cm^3
# Si number density = 20.000000 Si / 1000 Ang^3
#
#
#
# Elastic Constant Matrix: (Units=GPa)
#
#
# Indices 1 2 3 4 5 6 
#
# 1 164.8098 58.5397 27.4602 0.0000 0.0000 0.0000
# 2 58.5397 124.7712 19.0457 0.0000 0.0000 0.0000
# 3 27.4602 19.0457 28.6684 0.0000 0.0000 0.0000
# 4 0.0000 0.0000 0.0000 31.6333 0.0000 0.0000
# 5 0.0000 0.0000 0.0000 0.0000 29.3934 0.0000
# 6 0.0000 0.0000 0.0000 0.0000 0.0000 33.0557
#
#
#
# Elastic Compliance Matrix: (Units=1/GPa)
#
#
# Indices 1 2 3 4 5 6 
#
# 1 0.008063 -0.002898 -0.005798 0.000000 0.000000 0.000000
# 2 -0.002898 0.009961 -0.003842 0.000000 0.000000 0.000000
# 3 -0.005798 -0.003842 0.042987 0.000000 0.000000 0.000000
# 4 0.000000 0.000000 0.000000 0.031612 0.000000 0.000000
# 5 0.000000 0.000000 0.000000 0.000000 0.034021 0.000000
# 6 0.000000 0.000000 0.000000 0.000000 0.000000 0.030252
#
#
# Mechanical properties :
#
#
# Convention : Reuss Voigt Hill
#
# Bulk Modulus (GPa) = 27.82713 58.70453 43.26583
# Shear Modulus (GPa) = 25.77984 33.03007 29.40496
#
# Velocity S-wave (km/s) = 3.59415 4.06828 3.83854
# Velocity P-wave (km/s) = 5.58280 7.17522 6.42851
#
# Compressibility (1/GPa) = 0.03593615
#
# Stress axis : x y z
#
# Youngs Moduli (GPa) = 124.02376 100.39454 23.26269
#
# Poissons Ratio (x) = 0.29094 0.13488
# Poissons Ratio (y) = 0.35941 0.08936
# Poissons Ratio (z) = 0.71908 0.38567
#
# Static dielectric constant tensor:
#      x y z
#    x 1.780630 0.000000 0.000000 
#    y 0.000000 1.744000 0.000000 
#    z 0.000000 0.000000 1.737450 
# 
# From -- ./inp_files/24231.got.cif
#   From: 2010.05.17/outbox.ucp.g08.bks.cvg/sg50_13_cif.got.tgz:24231.got - 2010.06.11 16:26:39.
