data_PCOD9398609
_publ_section_title
;
Structure prediction by ZEFSAII (Michael W. Deem and Ramdas Pophale) SiO2 
 PCOD9398609
Probable space group: P M M A
;
_chemical_formula_sum "Si O2"
_cell_formula_units_Z 40
_cell_length_a 16.008789
_cell_length_b 14.768398
_cell_length_c 8.083568
_cell_angle_alpha 90.000000
_cell_angle_beta 90.000000
_cell_angle_gamma 90.000000
_cell_volume 1911.150834
_symmetry_space_group_name_H-M "P M M A"
_symmetry_group_IT_number 51
_symmetry_cell_setting 'orthorhombic'
loop_
_space_group_symop_operation_xyz
x,y,z
1/2-x,-y,z
1/2+x,-y,-z
-x,y,-z
-x,-y,-z
1/2+x,y,-z
1/2-x,y,z
x,-y,z
loop_
_atom_site_type_symbol
_atom_site_label
_atom_site_fract_x
_atom_site_fract_y
_atom_site_fract_z
Si Si1 0.084258 0.103594 0.109755
Si Si2 0.102366 0.605196 0.988925
Si Si3 0.399956 0.714418 0.304489
Si Si4 0.903431 0.289635 0.334092
Si Si5 0.845023 0.900410 0.234864
O O1 0.100831 0.180840 0.244218
O O2 0.079352 0.000000 0.172224
O O3 0.152506 0.107095 0.964160
O O4 0.000000 0.122472 0.000000
O O5 0.124467 0.500000 0.984246
O O6 0.131728 0.656966 0.823707
O O7 0.134022 0.655608 0.152924
O O8 0.000000 0.611044 0.000000
O O9 0.497953 0.690155 0.327373
O O10 0.364330 0.693804 0.485799
O O11 0.895330 0.182487 0.306662
O O12 0.750000 0.894500 0.292726
O O13 0.879078 0.000000 0.276098
#
# Coordination Sequence:
#
# PCOD9398609 Si02
#       5
#     8   8   8   8   8
#     4  10  17  30  52  75 102 136 175 218 261 308
#     4   9  17  31  50  76 110 138 166 215 270 310
#     4  10  18  30  51  80 105 131 174 218 259 303
#     4  10  19  31  51  77 105 137 172 211 258 312
#     4  10  20  34  52  75 107 144 175 209 260 316
#
# _framework density 20.929798000000002
#
# number of rings (size 3 to 8) (size 9 to 14) (size 15 to 20)
#    0.000    2.200    4.000    0.600    0.000    1.600 
#    0.000    7.000    0.000    3.000    0.000    0.000 
#    0.000    0.000    0.000    0.000    0.000    0.000 
#
# Total GULP energy -222957.409310 kJ/mol
# GULP energy per Si atom -5573.935233 kJ/mol
# Density = 2.088216 g / cm^3
# Si number density = 20.929798 Si / 1000 Ang^3
#
#
#
# Elastic Constant Matrix: (Units=GPa)
#
#
# Indices 1 2 3 4 5 6 
#
# 1 21.6787 -5.3351 -6.5315 0.0000 0.0000 0.0000
# 2 -5.3351 125.3034 93.3415 0.0000 0.0000 0.0000
# 3 -6.5315 93.3415 181.7981 0.0000 0.0000 0.0000
# 4 0.0000 0.0000 0.0000 -1.7445 0.0000 0.0000
# 5 0.0000 0.0000 0.0000 0.0000 -0.3639 0.0000
# 6 0.0000 0.0000 0.0000 0.0000 0.0000 -26.5237
#
#
#
# Elastic Compliance Matrix: (Units=1/GPa)
#
#
# Indices 1 2 3 4 5 6 
#
# 1 0.046744 0.001197 0.001065 0.000000 0.000000 0.000000
# 2 0.001197 0.012954 -0.006608 0.000000 0.000000 0.000000
# 3 0.001065 -0.006608 0.008932 0.000000 0.000000 0.000000
# 4 0.000000 0.000000 0.000000 -0.573231 0.000000 0.000000
# 5 0.000000 0.000000 0.000000 0.000000 -2.748252 0.000000
# 6 0.000000 0.000000 0.000000 0.000000 0.000000 -0.037702
#
#
# Mechanical properties :
#
#
# Convention : Reuss Voigt Hill
#
# Bulk Modulus (GPa) = 16.68423 54.63665 35.66044
# Shear Modulus (GPa) = -1.53286 10.76060 4.61387
#
# Velocity S-wave (km/s) = -0.85672 2.26990 1.48635
# Velocity P-wave (km/s) = 2.64768 5.74729 4.47446
#
# Compressibility (1/GPa) = 0.05993685
#
# Stress axis : x y z
#
# Youngs Moduli (GPa) = 21.39331 77.19548 111.96095
#
# Poissons Ratio (x) = -0.09241 -0.11921
# Poissons Ratio (y) = -0.02561 0.73985
# Poissons Ratio (z) = -0.02278 0.51011
#
# Static dielectric constant tensor:
#      x y z
#    x 1.750390 0.000000 0.000000 
#    y 0.000000 1.731060 0.000000 
#    z 0.000000 0.000000 1.793010 
# 
# From -- ./inp_files/10767.got.cif
#   From: 2010.05.17/outbox.cif.g08.bks.cpg/sg51_6_cif.got.tgz:10767.got - 2010.06.03 11:52:47.
