data_PCOD9398726
_publ_section_title
;
Structure prediction by ZEFSAII (Michael W. Deem and Ramdas Pophale) SiO2 
 PCOD9398726
Probable space group: P M M A
;
_chemical_formula_sum "Si O2"
_cell_formula_units_Z 48
_cell_length_a 8.738572
_cell_length_b 24.938811
_cell_length_c 13.937096
_cell_angle_alpha 90.000000
_cell_angle_beta 90.000000
_cell_angle_gamma 90.000000
_cell_volume 3037.305694
_symmetry_space_group_name_H-M "P M M A"
_symmetry_group_IT_number 51
_symmetry_cell_setting 'orthorhombic'
loop_
_space_group_symop_operation_xyz
x,y,z
1/2-x,-y,z
1/2+x,-y,-z
-x,y,-z
-x,-y,-z
1/2+x,y,-z
1/2-x,y,z
x,-y,z
loop_
_atom_site_type_symbol
_atom_site_label
_atom_site_fract_x
_atom_site_fract_y
_atom_site_fract_z
Si Si1 0.934871 0.439702 0.790770
Si Si2 0.066671 0.941417 0.608192
Si Si3 0.065434 0.281359 0.301446
Si Si4 0.933449 0.666601 0.897544
Si Si5 0.432326 0.614004 0.603338
Si Si6 0.933246 0.168330 0.607497
O O1 0.750000 0.437187 0.783057
O O2 0.978810 0.500000 0.818159
O O3 0.982438 0.393409 0.865224
O O4 0.003692 0.423651 0.687928
O O5 0.250000 0.937016 0.603564
O O6 0.000000 0.942439 0.500000
O O7 0.997873 0.887068 0.651125
O O8 0.028379 0.000000 0.651448
O O9 0.250000 0.287886 0.310169
O O10 0.023068 0.295444 0.191854
O O11 0.025728 0.221507 0.333506
O O12 0.987734 0.326090 0.368184
O O13 0.750000 0.667007 0.904008
O O14 0.000000 0.681404 0.000000
O O15 0.500000 0.599604 0.500000
O O16 0.250000 0.611920 0.600967
O O17 0.750000 0.164542 0.601185
O O18 0.000000 0.174038 0.500000
#
# Coordination Sequence:
#
# PCOD9398726 Si02
#       6
#     8   8   8   8   8   8
#     4   9  19  36  53  68  90 118 146 179 218 260
#     4   9  16  25  37  55  83 119 155 188 219 252
#     4   9  19  34  48  65  91 119 149 186 224 264
#     4   9  18  33  51  70  91 114 141 176 222 271
#     4  11  21  32  48  68  91 120 151 183 219 260
#     4  10  18  27  42  63  88 120 154 187 220 254
#
# _framework density 15.803481
#
# number of rings (size 3 to 8) (size 9 to 14) (size 15 to 20)
#    0.000    2.500    0.000    5.000    0.000    7.333 
#    0.000    0.000    0.000    0.000    0.000    0.000 
#    0.000    0.667    0.000    1.500    0.000    3.000 
#
# Total GULP energy -267555.013476 kJ/mol
# GULP energy per Si atom -5574.062781 kJ/mol
# Density = 1.576751 g / cm^3
# Si number density = 15.803481 Si / 1000 Ang^3
#
#
#
# Elastic Constant Matrix: (Units=GPa)
#
#
# Indices 1 2 3 4 5 6 
#
# 1 30.4201 25.1328 10.1896 0.0000 0.0000 0.0000
# 2 25.1328 117.4378 17.9829 0.0000 0.0000 0.0000
# 3 10.1896 17.9829 57.5801 0.0000 0.0000 0.0000
# 4 0.0000 0.0000 0.0000 6.0368 0.0000 0.0000
# 5 0.0000 0.0000 0.0000 0.0000 21.0883 0.0000
# 6 0.0000 0.0000 0.0000 0.0000 0.0000 44.6366
#
#
#
# Elastic Compliance Matrix: (Units=1/GPa)
#
#
# Indices 1 2 3 4 5 6 
#
# 1 0.041139 -0.008075 -0.004758 0.000000 0.000000 0.000000
# 2 -0.008075 0.010528 -0.001859 0.000000 0.000000 0.000000
# 3 -0.004758 -0.001859 0.018790 0.000000 0.000000 0.000000
# 4 0.000000 0.000000 0.000000 0.165650 0.000000 0.000000
# 5 0.000000 0.000000 0.000000 0.000000 0.047420 0.000000
# 6 0.000000 0.000000 0.000000 0.000000 0.000000 0.022403
#
#
# Mechanical properties :
#
#
# Convention : Reuss Voigt Hill
#
# Bulk Modulus (GPa) = 24.34777 34.67205 29.50991
# Shear Modulus (GPa) = 14.32645 24.49452 19.41049
#
# Velocity S-wave (km/s) = 3.01414 3.94120 3.50843
# Velocity P-wave (km/s) = 5.24914 6.53436 5.92669
#
# Compressibility (1/GPa) = 0.04107152
#
# Stress axis : x y z
#
# Youngs Moduli (GPa) = 24.30804 94.98459 53.22067
#
# Poissons Ratio (x) = 0.76704 0.25322
# Poissons Ratio (y) = 0.19630 0.09893
# Poissons Ratio (z) = 0.11566 0.17657
#
# Static dielectric constant tensor:
#      x y z
#    x 1.533090 0.000000 0.000000 
#    y 0.000000 1.565530 0.000000 
#    z 0.000000 0.000000 1.494980 
# 
# From -- ./inp_files/14539.got.cif
#   From: 2010.05.17/outbox.cif.g08.bks.cpg/sg51_8_cif.got.tgz:14539.got - 2010.06.03 11:52:47.
