data_PCOD9398346
_publ_section_title
;
Structure prediction by ZEFSAII (Michael W. Deem and Ramdas Pophale) SiO2 
 PCOD9398346
Probable space group: P M M A
;
_chemical_formula_sum "Si O2"
_cell_formula_units_Z 40
_cell_length_a 26.968151
_cell_length_b 9.758033
_cell_length_c 7.157528
_cell_angle_alpha 90.000000
_cell_angle_beta 90.000000
_cell_angle_gamma 90.000000
_cell_volume 1883.547207
_symmetry_space_group_name_H-M "P M M A"
_symmetry_group_IT_number 51
_symmetry_cell_setting 'orthorhombic'
loop_
_space_group_symop_operation_xyz
x,y,z
1/2-x,-y,z
1/2+x,-y,-z
-x,y,-z
-x,-y,-z
1/2+x,y,-z
1/2-x,y,z
x,-y,z
loop_
_atom_site_type_symbol
_atom_site_label
_atom_site_fract_x
_atom_site_fract_y
_atom_site_fract_z
Si Si1 0.642606 0.153971 0.983744
Si Si2 0.556074 0.661117 0.059242
Si Si3 0.445753 0.844417 0.588896
Si Si4 0.838678 0.847536 0.437805
Si Si5 0.250000 0.163637 0.996259
Si Si6 0.250000 0.664048 0.613335
O O1 0.598821 0.259561 0.948074
O O2 0.651999 0.154629 0.210849
O O3 0.627875 0.000000 0.932591
O O4 0.697286 0.183930 0.903102
O O5 0.564534 0.500000 0.051298
O O6 0.558325 0.721752 0.266114
O O7 0.500000 0.691516 0.000000
O O8 0.500000 0.834494 0.500000
O O9 0.393883 0.834964 0.476205
O O10 0.444101 0.000000 0.672942
O O11 0.799455 0.729132 0.476438
O O12 0.818969 0.000000 0.481544
O O13 0.250000 0.000000 0.939460
O O14 0.250000 0.268362 0.821728
O O15 0.250000 0.500000 0.616787
#
# Coordination Sequence:
#
# PCOD9398346 Si02
#       6
#     8   8   8   8   4   4
#     4   8  14  25  41  59  81 111 144 179 218 258
#     4  10  20  31  43  64  94 123 150 180 215 259
#     4   9  18  32  49  68  88 113 149 188 223 262
#     4   8  14  25  39  56  82 111 136 171 219 260
#     4   8  14  24  36  54  81 108 135 172 220 262
#     4  10  16  20  32  56  83 110 141 172 204 252
#
# _framework density 21.236526999999999
#
# number of rings (size 3 to 8) (size 9 to 14) (size 15 to 20)
#    0.000    3.200    0.000    3.900    0.000    9.200 
#    0.000    0.000    0.000    0.000    0.000    1.400 
#    0.000    3.200    0.000    0.000    0.000    0.000 
#
# Total GULP energy -222790.673340 kJ/mol
# GULP energy per Si atom -5569.766833 kJ/mol
# Density = 2.118819 g / cm^3
# Si number density = 21.236527 Si / 1000 Ang^3
#
#
#
# Elastic Constant Matrix: (Units=GPa)
#
#
# Indices 1 2 3 4 5 6 
#
# 1 196.6193 147.0163 0.7540 0.0000 0.0000 0.0000
# 2 147.0163 66.7885 10.9318 0.0000 0.0000 0.0000
# 3 0.7540 10.9318 33.0530 0.0000 0.0000 0.0000
# 4 0.0000 0.0000 0.0000 5.1563 0.0000 0.0000
# 5 0.0000 0.0000 0.0000 0.0000 7.4103 0.0000
# 6 0.0000 0.0000 0.0000 0.0000 0.0000 38.1404
#
#
#
# Elastic Compliance Matrix: (Units=1/GPa)
#
#
# Indices 1 2 3 4 5 6 
#
# 1 -0.006926 0.016092 -0.005164 0.000000 0.000000 0.000000
# 2 0.016092 -0.021556 0.006762 0.000000 0.000000 0.000000
# 3 -0.005164 0.006762 0.028136 0.000000 0.000000 0.000000
# 4 0.000000 0.000000 0.000000 0.193936 0.000000 0.000000
# 5 0.000000 0.000000 0.000000 0.000000 0.134948 0.000000
# 6 0.000000 0.000000 0.000000 0.000000 0.000000 0.026219
#
#
# Mechanical properties :
#
#
# Convention : Reuss Voigt Hill
#
# Bulk Modulus (GPa) = 28.54430 68.20720 48.37575
# Shear Modulus (GPa) = 15.10327 19.32532 17.21430
#
# Velocity S-wave (km/s) = 2.66971 3.01990 2.85019
# Velocity P-wave (km/s) = 4.79307 6.65938 5.80176
#
# Compressibility (1/GPa) = 0.03503326
#
# Stress axis : x y z
#
# Youngs Moduli (GPa) = -144.37468 -46.39106 35.54200
#
# Poissons Ratio (x) = 0.74652 0.18354
# Poissons Ratio (y) = 2.32325 -0.24034
# Poissons Ratio (z) = -0.74557 0.31371
#
# Static dielectric constant tensor:
#      x y z
#    x 1.867520 0.000000 0.000000 
#    y 0.000000 1.693210 0.000000 
#    z 0.000000 0.000000 1.920340 
# 
# From -- ./inp_files/12222.got.cif
#   From: 2010.05.17/outbox.cif.g08.bks.cpg/sg51_7_cif.got.tgz:12222.got - 2010.06.03 11:52:47.
