data_PCOD9398344
_publ_section_title
;
Structure prediction by ZEFSAII (Michael W. Deem and Ramdas Pophale) SiO2 
 PCOD9398344
Probable space group: P M M A
;
_chemical_formula_sum "Si O2"
_cell_formula_units_Z 40
_cell_length_a 8.618610
_cell_length_b 28.057885
_cell_length_c 7.844659
_cell_angle_alpha 90.000000
_cell_angle_beta 90.000000
_cell_angle_gamma 90.000000
_cell_volume 1896.995190
_symmetry_space_group_name_H-M "P M M A"
_symmetry_group_IT_number 51
_symmetry_cell_setting 'orthorhombic'
loop_
_space_group_symop_operation_xyz
x,y,z
1/2-x,-y,z
1/2+x,-y,-z
-x,y,-z
-x,-y,-z
1/2+x,y,-z
1/2-x,y,z
x,-y,z
loop_
_atom_site_type_symbol
_atom_site_label
_atom_site_fract_x
_atom_site_fract_y
_atom_site_fract_z
Si Si1 0.935791 0.701352 0.694713
Si Si2 0.936139 0.902873 0.190475
Si Si3 0.436158 0.597587 0.305345
Si Si4 0.935503 0.202097 0.310021
Si Si5 0.934965 0.000000 0.804336
Si Si6 0.065408 0.500000 0.694987
O O1 0.750000 0.704780 0.687511
O O2 0.977710 0.649495 0.770914
O O3 0.000000 0.699807 0.500000
O O4 0.000894 0.749766 0.777492
O O5 0.750000 0.905962 0.195098
O O6 0.984659 0.850427 0.251111
O O7 0.004741 0.950561 0.276419
O O8 0.000000 0.904557 0.000000
O O9 0.500000 0.598740 0.500000
O O10 0.250000 0.593662 0.310741
O O11 0.505346 0.549500 0.225844
O O12 0.750000 0.204082 0.306381
O O13 0.000000 0.204845 0.500000
O O14 0.750000 0.000000 0.810673
O O15 0.000000 0.000000 0.000000
O O16 0.250000 0.500000 0.688647
O O17 0.000000 0.500000 0.500000
#
# Coordination Sequence:
#
# PCOD9398344 Si02
#       6
#     8   8   8   8   4   4
#     4   9  16  25  39  56  77 108 144 180 220 265
#     4  10  20  34  52  74  97 123 154 189 227 270
#     4   9  15  22  31  45  66  95 132 173 214 258
#     4  10  20  32  48  69  94 123 155 190 229 271
#     4  10  18  30  51  74  95 122 152 186 226 270
#     4  10  16  20  28  42  62  92 129 172 217 258
#
# _framework density 21.085979999999999
#
# number of rings (size 3 to 8) (size 9 to 14) (size 15 to 20)
#    0.000    2.400    0.000    7.800    0.000    5.600 
#    0.000    0.500    0.000    0.000    0.000    0.000 
#    0.000    0.000    0.000    0.900    0.000   12.800 
#
# Total GULP energy -222861.302681 kJ/mol
# GULP energy per Si atom -5571.532567 kJ/mol
# Density = 2.103799 g / cm^3
# Si number density = 21.085980 Si / 1000 Ang^3
#
#
#
# Elastic Constant Matrix: (Units=GPa)
#
#
# Indices 1 2 3 4 5 6 
#
# 1 89.6528 79.2396 0.2892 0.0000 0.0000 0.0000
# 2 79.2396 304.1830 21.8255 0.0000 0.0000 0.0000
# 3 0.2892 21.8255 17.1557 0.0000 0.0000 0.0000
# 4 0.0000 0.0000 0.0000 27.1108 0.0000 0.0000
# 5 0.0000 0.0000 0.0000 0.0000 4.8796 0.0000
# 6 0.0000 0.0000 0.0000 0.0000 0.0000 41.1251
#
#
#
# Elastic Compliance Matrix: (Units=1/GPa)
#
#
# Indices 1 2 3 4 5 6 
#
# 1 0.014894 -0.004250 0.005155 0.000000 0.000000 0.000000
# 2 -0.004250 0.004830 -0.006073 0.000000 0.000000 0.000000
# 3 0.005155 -0.006073 0.065930 0.000000 0.000000 0.000000
# 4 0.000000 0.000000 0.000000 0.036886 0.000000 0.000000
# 5 0.000000 0.000000 0.000000 0.000000 0.204936 0.000000
# 6 0.000000 0.000000 0.000000 0.000000 0.000000 0.024316
#
#
# Mechanical properties :
#
#
# Convention : Reuss Voigt Hill
#
# Bulk Modulus (GPa) = 13.27707 68.18890 40.73298
# Shear Modulus (GPa) = 12.91212 35.26556 24.08884
#
# Velocity S-wave (km/s) = 2.47727 4.09401 3.38362
# Velocity P-wave (km/s) = 3.80694 7.39977 5.88428
#
# Compressibility (1/GPa) = 0.07531780
#
# Stress axis : x y z
#
# Youngs Moduli (GPa) = 67.14300 207.02579 15.16771
#
# Poissons Ratio (x) = 0.87979 -0.07820
# Poissons Ratio (y) = 0.28534 0.09212
# Poissons Ratio (z) = -0.34615 1.25737
#
# Static dielectric constant tensor:
#      x y z
#    x 1.699850 0.000000 0.000000 
#    y 0.000000 1.935570 0.000000 
#    z 0.000000 0.000000 1.743400 
# 
# From -- ./inp_files/14524.got.cif
#   From: 2010.05.17/outbox.cif.g08.bks.cpg/sg51_8_cif.got.tgz:14524.got - 2010.06.03 11:52:47.
