data_PCOD9398642
_publ_section_title
;
Structure prediction by ZEFSAII (Michael W. Deem and Ramdas Pophale) SiO2 
 PCOD9398642
Probable space group: P M M A
;
_chemical_formula_sum "Si O2"
_cell_formula_units_Z 64
_cell_length_a 23.090721
_cell_length_b 14.977094
_cell_length_c 9.227546
_cell_angle_alpha 90.000000
_cell_angle_beta 90.000000
_cell_angle_gamma 90.000000
_cell_volume 3191.179756
_symmetry_space_group_name_H-M "P M M A"
_symmetry_group_IT_number 51
_symmetry_cell_setting 'orthorhombic'
loop_
_space_group_symop_operation_xyz
x,y,z
1/2-x,-y,z
1/2+x,-y,-z
-x,y,-z
-x,-y,-z
1/2+x,y,-z
1/2-x,y,z
x,-y,z
loop_
_atom_site_type_symbol
_atom_site_label
_atom_site_fract_x
_atom_site_fract_y
_atom_site_fract_z
Si Si1 0.026566 0.394451 0.838934
Si Si2 0.315912 0.597137 0.124875
Si Si3 0.405291 0.100804 0.742976
Si Si4 0.510582 0.225046 0.672458
Si Si5 0.340194 0.335224 0.832951
Si Si6 0.141189 0.225207 0.255554
Si Si7 0.315230 0.224523 0.576156
Si Si8 0.815713 0.142650 0.024923
O O1 0.024430 0.500000 0.802156
O O2 0.996106 0.326743 0.728095
O O3 0.092336 0.358703 0.839552
O O4 0.000000 0.384215 0.000000
O O5 0.250000 0.612322 0.176000
O O6 0.336544 0.500000 0.173635
O O7 0.314024 0.597959 0.949858
O O8 0.355448 0.677496 0.179642
O O9 0.462635 0.161855 0.748747
O O10 0.361855 0.153514 0.635492
O O11 0.418539 0.000000 0.695227
O O12 0.368460 0.095989 0.891917
O O13 0.500000 0.220013 0.500000
O O14 0.575487 0.197410 0.713135
O O15 0.320580 0.241087 0.903320
O O16 0.323863 0.317023 0.666184
O O17 0.173895 0.234735 0.406954
O O18 0.171346 0.157395 0.144001
O O19 0.250000 0.193027 0.603788
O O20 0.750000 0.109217 0.047065
#
# Coordination Sequence:
#
# PCOD9398642 Si02
#       8
#     8   8   8   8   8   8   8   8
#     4  11  22  36  61  93 126 168 217 263 312 372
#     4  10  20  35  57  89 127 169 219 270 320 379
#     4  11  24  44  69  96 124 167 215 261 320 386
#     4  12  24  44  63  92 133 175 217 262 318 378
#     4  10  17  34  55  85 123 160 207 253 306 371
#     4  11  22  39  64  90 131 172 211 259 327 385
#     4  11  21  39  66  94 124 163 208 260 326 387
#     4  10  20  38  66  96 126 164 207 261 325 387
#
# _framework density 20.055278999999999
#
# number of rings (size 3 to 8) (size 9 to 14) (size 15 to 20)
#    0.000    1.250    3.750    6.000    0.000    3.000 
#    0.000    4.375    0.000    4.500    0.000    0.000 
#    0.000    0.000    0.000    0.000    0.000    0.000 
#
# Total GULP energy -356827.459127 kJ/mol
# GULP energy per Si atom -5575.429049 kJ/mol
# Density = 2.000963 g / cm^3
# Si number density = 20.055279 Si / 1000 Ang^3
#
#
#
# Elastic Constant Matrix: (Units=GPa)
#
#
# Indices 1 2 3 4 5 6 
#
# 1 111.6578 21.7318 22.5486 0.0000 0.0000 0.0000
# 2 21.7318 88.1689 16.5549 0.0000 0.0000 0.0000
# 3 22.5486 16.5549 115.0440 0.0000 0.0000 0.0000
# 4 0.0000 0.0000 0.0000 10.9604 0.0000 0.0000
# 5 0.0000 0.0000 0.0000 0.0000 31.6424 0.0000
# 6 0.0000 0.0000 0.0000 0.0000 0.0000 17.9547
#
#
#
# Elastic Compliance Matrix: (Units=1/GPa)
#
#
# Indices 1 2 3 4 5 6 
#
# 1 0.009685 -0.002087 -0.001598 0.000000 0.000000 0.000000
# 2 -0.002087 0.012107 -0.001333 0.000000 0.000000 0.000000
# 3 -0.001598 -0.001333 0.009197 0.000000 0.000000 0.000000
# 4 0.000000 0.000000 0.000000 0.091238 0.000000 0.000000
# 5 0.000000 0.000000 0.000000 0.000000 0.031603 0.000000
# 6 0.000000 0.000000 0.000000 0.000000 0.000000 0.055696
#
#
# Mechanical properties :
#
#
# Convention : Reuss Voigt Hill
#
# Bulk Modulus (GPa) = 47.72665 48.50459 48.11562
# Shear Modulus (GPa) = 22.07061 29.04718 25.55890
#
# Velocity S-wave (km/s) = 3.32096 3.80986 3.57378
# Velocity P-wave (km/s) = 6.20921 6.60237 6.40880
#
# Compressibility (1/GPa) = 0.02095266
#
# Stress axis : x y z
#
# Youngs Moduli (GPa) = 103.25433 82.59958 108.72704
#
# Poissons Ratio (x) = 0.17239 0.17373
# Poissons Ratio (y) = 0.21550 0.14494
# Poissons Ratio (z) = 0.16499 0.11011
#
# Static dielectric constant tensor:
#      x y z
#    x 1.730110 0.000000 0.000000 
#    y 0.000000 1.721080 0.000000 
#    z 0.000000 0.000000 1.740830 
# 
# From -- ./inp_files/11902.got.cif
#   From: 2010.05.17/outbox.cif.g08.bks.cpg/sg51_6_cif.got.tgz:11902.got - 2010.06.03 11:52:47.
