data_PCOD9398414
_publ_section_title
;
Structure prediction by ZEFSAII (Michael W. Deem and Ramdas Pophale) SiO2 
 PCOD9398414
Probable space group: P M M A
;
_chemical_formula_sum "Si O2"
_cell_formula_units_Z 56
_cell_length_a 21.983586
_cell_length_b 8.756840
_cell_length_c 15.088657
_cell_angle_alpha 90.000000
_cell_angle_beta 90.000000
_cell_angle_gamma 90.000000
_cell_volume 2904.668249
_symmetry_space_group_name_H-M "P M M A"
_symmetry_group_IT_number 51
_symmetry_cell_setting 'orthorhombic'
loop_
_space_group_symop_operation_xyz
x,y,z
1/2-x,-y,z
1/2+x,-y,-z
-x,y,-z
-x,-y,-z
1/2+x,y,-z
1/2-x,y,z
x,-y,z
loop_
_atom_site_type_symbol
_atom_site_label
_atom_site_fract_x
_atom_site_fract_y
_atom_site_fract_z
Si Si1 0.627336 0.315255 0.873168
Si Si2 0.178404 0.316781 0.744707
Si Si3 0.072945 0.180368 0.629246
Si Si4 0.121278 0.681668 0.457727
Si Si5 0.953924 0.684201 0.716477
Si Si6 0.250000 0.317391 0.236341
Si Si7 0.320154 0.685997 0.947143
Si Si8 0.750000 0.819570 0.568614
O O1 0.621949 0.500000 0.877205
O O2 0.572340 0.261774 0.810953
O O3 0.690061 0.284389 0.820868
O O4 0.636482 0.259761 0.973632
O O5 0.250000 0.287881 0.729696
O O6 0.168966 0.500000 0.735984
O O7 0.134591 0.229893 0.678672
O O8 0.164118 0.271675 0.846653
O O9 0.076294 0.254821 0.532169
O O10 0.016730 0.243577 0.685793
O O11 0.068704 0.000000 0.620719
O O12 0.125015 0.500000 0.465256
O O13 0.095682 0.718666 0.360080
O O14 0.188115 0.750796 0.470569
O O15 0.960697 0.500000 0.718944
O O16 0.250000 0.500000 0.256645
O O17 0.250000 0.227754 0.327924
O O18 0.250000 0.732019 0.964688
O O19 0.320146 0.500000 0.948881
O O20 0.750000 0.000000 0.558145
#
# Coordination Sequence:
#
# PCOD9398414 Si02
#       8
#     8   8   8   8   8   4   8   4
#     4   9  15  27  54  89 119 146 184 234 285 333
#     4   9  19  37  61  87 112 143 187 241 292 340
#     4  12  26  41  58  80 112 153 193 238 289 342
#     4  11  23  41  64  86 112 149 193 239 284 335
#     4  10  21  38  60  85 113 151 194 233 278 339
#     4  10  16  30  54  83 118 155 190 229 278 332
#     4   8  13  25  52  89 119 140 177 238 295 334
#     4  12  24  36  54  87 126 155 184 229 280 336
#
# _framework density 19.279309999999999
#
# number of rings (size 3 to 8) (size 9 to 14) (size 15 to 20)
#    0.000    2.000    2.143    3.643    1.000    3.143 
#    0.000    0.714    0.000    6.000    0.000    0.000 
#    0.000    0.000    0.000    0.000    0.000    0.000 
#
# Total GULP energy -312691.412770 kJ/mol
# GULP energy per Si atom -5583.775228 kJ/mol
# Density = 1.923543 g / cm^3
# Si number density = 19.279310 Si / 1000 Ang^3
#
#
#
# Elastic Constant Matrix: (Units=GPa)
#
#
# Indices 1 2 3 4 5 6 
#
# 1 50.6001 23.8192 6.2955 0.0000 0.0000 0.0000
# 2 23.8192 28.3947 19.3566 0.0000 0.0000 0.0000
# 3 6.2955 19.3566 59.9526 0.0000 0.0000 0.0000
# 4 0.0000 0.0000 0.0000 -8.5331 0.0000 0.0000
# 5 0.0000 0.0000 0.0000 0.0000 17.0314 0.0000
# 6 0.0000 0.0000 0.0000 0.0000 0.0000 -69.1272
#
#
#
# Elastic Compliance Matrix: (Units=1/GPa)
#
#
# Indices 1 2 3 4 5 6 
#
# 1 0.035082 -0.034514 0.007459 0.000000 0.000000 0.000000
# 2 -0.034514 0.079112 -0.021918 0.000000 0.000000 0.000000
# 3 0.007459 -0.021918 0.022973 0.000000 0.000000 0.000000
# 4 0.000000 0.000000 0.000000 -0.117190 0.000000 0.000000
# 5 0.000000 0.000000 0.000000 0.000000 0.058715 0.000000
# 6 0.000000 0.000000 0.000000 0.000000 0.000000 -0.014466
#
#
# Mechanical properties :
#
#
# Convention : Reuss Voigt Hill
#
# Bulk Modulus (GPa) = 25.49622 26.43222 25.96422
# Shear Modulus (GPa) = 28.53156 -6.16072 11.18542
#
# Velocity S-wave (km/s) = 3.85113 -1.78954 2.41130
# Velocity P-wave (km/s) = 5.74702 3.07733 4.60968
#
# Compressibility (1/GPa) = 0.03922150
#
# Stress axis : x y z
#
# Youngs Moduli (GPa) = 28.50500 12.64033 43.52891
#
# Poissons Ratio (x) = 0.43627 -0.32470
# Poissons Ratio (y) = 0.98381 0.95408
# Poissons Ratio (z) = -0.21263 0.27705
#
# Static dielectric constant tensor:
#      x y z
#    x 1.663520 0.000000 0.000000 
#    y 0.000000 1.644320 0.000000 
#    z 0.000000 0.000000 1.691740 
# 
# From -- ./inp_files/25860.got.cif
#   From: 2010.05.17/outbox.cif.g08.bks.cpg/sg51_13_cif.got.tgz:25860.got - 2010.06.03 11:52:47.
