data_PCOD9398781
_publ_section_title
;
Structure prediction by ZEFSAII (Michael W. Deem and Ramdas Pophale) SiO2 
 PCOD9398781
Probable space group: P M M A
;
_chemical_formula_sum "Si O2"
_cell_formula_units_Z 64
_cell_length_a 27.566495
_cell_length_b 8.929634
_cell_length_c 17.525203
_cell_angle_alpha 90.000000
_cell_angle_beta 90.000000
_cell_angle_gamma 90.000000
_cell_volume 4313.981381
_symmetry_space_group_name_H-M "P M M A"
_symmetry_group_IT_number 51
_symmetry_cell_setting 'orthorhombic'
loop_
_space_group_symop_operation_xyz
x,y,z
1/2-x,-y,z
1/2+x,-y,-z
-x,y,-z
-x,-y,-z
1/2+x,y,-z
1/2-x,y,z
x,-y,z
loop_
_atom_site_type_symbol
_atom_site_label
_atom_site_fract_x
_atom_site_fract_y
_atom_site_fract_z
Si Si1 0.455358 0.677835 0.401072
Si Si2 0.561663 0.321725 0.335812
Si Si3 0.609705 0.820557 0.472641
Si Si4 0.035026 0.178563 0.823717
Si Si5 0.804760 0.818536 0.585743
Si Si6 0.379447 0.180144 0.287653
Si Si7 0.442757 0.327755 0.978179
Si Si8 0.423880 0.178689 0.132507
O O1 0.450639 0.500000 0.414003
O O2 0.510330 0.710104 0.377791
O O3 0.434377 0.763975 0.473943
O O4 0.421642 0.732508 0.331769
O O5 0.567707 0.500000 0.331965
O O6 0.602422 0.248952 0.389437
O O7 0.556521 0.254507 0.251505
O O8 0.658316 0.772289 0.518407
O O9 0.608971 0.000000 0.468744
O O10 0.061343 0.234484 0.900527
O O11 0.977674 0.217745 0.834600
O O12 0.037952 0.000000 0.816909
O O13 0.750000 0.761488 0.579071
O O14 0.830461 0.781975 0.666534
O O15 0.802944 0.000000 0.582419
O O16 0.385009 0.213642 0.198379
O O17 0.387508 0.000000 0.296584
O O18 0.429390 0.500000 0.965445
O O19 0.500000 0.322556 0.000000
O O20 0.416719 0.260207 0.052264
O O21 0.424326 0.000000 0.119326
#
# Coordination Sequence:
#
# PCOD9398781 Si02
#       8
#     8   8   8   8   8   8   8   8
#     4  10  19  29  41  58  84 114 143 177 216 253
#     4  11  21  30  41  59  86 115 145 180 217 255
#     4  10  20  31  45  62  81 109 145 179 215 260
#     4  10  18  28  42  58  82 115 149 182 213 247
#     4   8  15  29  48  67  86 108 138 179 222 259
#     4   9  16  27  44  65  86 112 146 180 214 256
#     4   9  17  27  39  56  81 113 148 179 209 246
#     4   9  16  26  40  59  83 111 146 181 210 246
#
# _framework density 14.835483
#
# number of rings (size 3 to 8) (size 9 to 14) (size 15 to 20)
#    0.000    2.500    1.250    3.000    0.000    5.500 
#    0.000    0.000    0.000    9.375    0.000    0.000 
#    0.000    1.000    0.000    8.500    0.000    2.375 
#
# Total GULP energy -356594.299009 kJ/mol
# GULP energy per Si atom -5571.785922 kJ/mol
# Density = 1.480172 g / cm^3
# Si number density = 14.835483 Si / 1000 Ang^3
#
#
#
# Elastic Constant Matrix: (Units=GPa)
#
#
# Indices 1 2 3 4 5 6 
#
# 1 59.0185 24.6956 49.2868 0.0000 0.0000 0.0000
# 2 24.6956 31.4619 43.2477 0.0000 0.0000 0.0000
# 3 49.2868 43.2477 126.4123 0.0000 0.0000 0.0000
# 4 0.0000 0.0000 0.0000 19.3436 0.0000 0.0000
# 5 0.0000 0.0000 0.0000 0.0000 9.3860 0.0000
# 6 0.0000 0.0000 0.0000 0.0000 0.0000 6.2067
#
#
#
# Elastic Compliance Matrix: (Units=1/GPa)
#
#
# Indices 1 2 3 4 5 6 
#
# 1 0.027686 -0.013013 -0.006342 0.000000 0.000000 0.000000
# 2 -0.013013 0.066119 -0.017546 0.000000 0.000000 0.000000
# 3 -0.006342 -0.017546 0.016386 0.000000 0.000000 0.000000
# 4 0.000000 0.000000 0.000000 0.051697 0.000000 0.000000
# 5 0.000000 0.000000 0.000000 0.000000 0.106541 0.000000
# 6 0.000000 0.000000 0.000000 0.000000 0.000000 0.161115
#
#
# Mechanical properties :
#
#
# Convention : Reuss Voigt Hill
#
# Bulk Modulus (GPa) = 27.48280 50.15032 38.81656
# Shear Modulus (GPa) = 9.69975 13.63143 11.66559
#
# Velocity S-wave (km/s) = 2.55977 3.03453 2.80720
# Velocity P-wave (km/s) = 5.22511 6.79378 6.06042
#
# Compressibility (1/GPa) = 0.03638639
#
# Stress axis : x y z
#
# Youngs Moduli (GPa) = 36.11987 15.12432 61.02647
#
# Poissons Ratio (x) = 0.19682 0.38704
# Poissons Ratio (y) = 0.47004 1.07080
# Poissons Ratio (z) = 0.22908 0.26538
#
# Static dielectric constant tensor:
#      x y z
#    x 1.476200 0.000000 0.000000 
#    y 0.000000 1.493490 0.000000 
#    z 0.000000 0.000000 1.505500 
# 
# From -- ./inp_files/26604.got.cif
#   From: 2010.05.17/outbox.cif.g08.bks.cpg/sg51_14_cif.got.tgz:26604.got - 2010.06.03 11:52:47.
