data_PCOD9398108
_publ_section_title
;
Structure prediction by ZEFSAII (Michael W. Deem and Ramdas Pophale) SiO2 
 PCOD9398108
Probable space group: P B A N
;
_chemical_formula_sum "Si O2"
_cell_formula_units_Z 48
_cell_length_a 14.296282
_cell_length_b 22.706025
_cell_length_c 7.041429
_cell_angle_alpha 90.000000
_cell_angle_beta 90.000000
_cell_angle_gamma 90.000000
_cell_volume 2285.730495
_symmetry_space_group_name_H-M "P B A N"
_symmetry_group_IT_number 50
_space_group.IT_coordinate_system_code '2'
_symmetry_cell_setting 'orthorhombic'
loop_
_space_group_symop_operation_xyz
x,y,z
1/2-x,1/2-y,z
x,1/2-y,-z
1/2-x,y,-z
-x,-y,-z
1/2+x,1/2+y,-z
-x,1/2+y,z
1/2+x,-y,z
loop_
_atom_site_type_symbol
_atom_site_label
_atom_site_fract_x
_atom_site_fract_y
_atom_site_fract_z
Si Si1 0.907835 0.566272 0.628997
Si Si2 0.664266 0.310775 0.883896
Si Si3 0.335734 0.189225 0.883896
Si Si4 0.092165 0.933728 0.628997
Si Si5 0.750000 0.842345 0.500000
Si Si6 0.250000 0.842345 0.500000
Si Si7 1.000000 0.107646 1.000000
O O1 0.872877 0.500000 0.590457
O O2 0.830134 0.615151 0.586230
O O3 1.000000 0.575716 0.500000
O O4 0.943020 0.571440 0.844945
O O5 0.700325 0.306287 0.668890
O O6 0.573155 0.350403 0.892176
O O7 0.647289 0.250000 0.000000
O O8 0.750000 0.339829 0.000000
O O9 0.299675 0.193713 0.668890
O O10 0.352711 0.250000 0.000000
O O11 0.250000 0.160171 0.000000
O O12 0.426845 0.149597 0.892176
O O13 0.169866 0.884849 0.586231
O O14 0.056980 0.928560 0.844945
#
# Coordination Sequence:
#
# PCOD9398108 Si02
#       7
#     8   8   8   8   4   4   8
#     4  11  24  42  69 103 137 177 222 274 336 398
#     4  11  25  43  69  97 133 175 227 273 337 393
#     4  11  25  43  69  97 133 175 227 273 337 393
#     4  11  24  42  69 103 137 177 222 274 336 398
#     4  12  23  47  70  98 138 176 220 286 328 398
#     4  12  23  47  70  98 138 176 220 286 328 398
#     4  12  22  46  68 100 136 178 220 278 328 402
#
# _framework density 20.999851
#
# number of rings (size 3 to 8) (size 9 to 14) (size 15 to 20)
#    0.000    0.667    6.667    1.500    0.000    2.667 
#    0.000    1.667    0.000    0.000    0.000    0.000 
#    0.000    0.000    0.000    0.000    0.000    0.000 
#
# Total GULP energy -268198.914820 kJ/mol
# GULP energy per Si atom -5587.477392 kJ/mol
# Density = 2.095205 g / cm^3
# Si number density = 20.999851 Si / 1000 Ang^3
#
#
#
# Elastic Constant Matrix: (Units=GPa)
#
#
# Indices 1 2 3 4 5 6 
#
# 1 66.8926 27.7133 14.2597 0.0000 0.0000 0.0000
# 2 27.7133 89.8928 31.7849 0.0000 0.0000 0.0000
# 3 14.2597 31.7849 140.9500 0.0000 0.0000 0.0000
# 4 0.0000 0.0000 0.0000 2.5405 0.0000 0.0000
# 5 0.0000 0.0000 0.0000 0.0000 46.2167 0.0000
# 6 0.0000 0.0000 0.0000 0.0000 0.0000 16.3437
#
#
#
# Elastic Compliance Matrix: (Units=1/GPa)
#
#
# Indices 1 2 3 4 5 6 
#
# 1 0.017183 -0.005089 -0.000591 0.000000 0.000000 0.000000
# 2 -0.005089 0.013595 -0.002551 0.000000 0.000000 0.000000
# 3 -0.000591 -0.002551 0.007730 0.000000 0.000000 0.000000
# 4 0.000000 0.000000 0.000000 0.393631 0.000000 0.000000
# 5 0.000000 0.000000 0.000000 0.000000 0.021637 0.000000
# 6 0.000000 0.000000 0.000000 0.000000 0.000000 0.061186
#
#
# Mechanical properties :
#
#
# Convention : Reuss Voigt Hill
#
# Bulk Modulus (GPa) = 45.35683 49.47236 47.41460
# Shear Modulus (GPa) = 9.28036 27.95201 18.61619
#
# Velocity S-wave (km/s) = 2.10448 3.65232 2.98063
# Velocity P-wave (km/s) = 5.24887 6.43394 5.87138
#
# Compressibility (1/GPa) = 0.02204739
#
# Stress axis : x y z
#
# Youngs Moduli (GPa) = 58.19537 73.55578 129.37033
#
# Poissons Ratio (x) = 0.37430 0.07645
# Poissons Ratio (y) = 0.29613 0.33002
# Poissons Ratio (z) = 0.03439 0.18764
#
# Static dielectric constant tensor:
#      x y z
#    x 1.720430 0.000000 0.000000 
#    y 0.000000 1.757340 0.000000 
#    z 0.000000 0.000000 1.784940 
# 
# From -- ./inp_files/3616.got.cif
#   From: 2010.05.17/outbox.cif.g08.bks.cpg/sg50_2_cif.got.tgz:3616.got - 2010.06.03 11:33:33.
