data_PCOD9398796
_publ_section_title
;
Structure prediction by ZEFSAII (Michael W. Deem and Ramdas Pophale) SiO2 
 PCOD9398796
Probable space group: P M M A
;
_chemical_formula_sum "Si O2"
_cell_formula_units_Z 64
_cell_length_a 30.965827
_cell_length_b 7.713394
_cell_length_c 14.658315
_cell_angle_alpha 90.000000
_cell_angle_beta 90.000000
_cell_angle_gamma 90.000000
_cell_volume 3501.162346
_symmetry_space_group_name_H-M "P M M A"
_symmetry_group_IT_number 51
_symmetry_cell_setting 'orthorhombic'
loop_
_space_group_symop_operation_xyz
x,y,z
1/2-x,-y,z
1/2+x,-y,-z
-x,y,-z
-x,-y,-z
1/2+x,y,-z
1/2-x,y,z
x,-y,z
loop_
_atom_site_type_symbol
_atom_site_label
_atom_site_fract_x
_atom_site_fract_y
_atom_site_fract_z
Si Si1 0.084615 0.789981 0.680397
Si Si2 0.081709 0.197293 0.294509
Si Si3 0.122230 0.297525 0.115471
Si Si4 0.496534 0.704435 0.807234
Si Si5 0.139190 0.789296 0.840326
Si Si6 0.550176 0.212496 0.512142
Si Si7 0.058512 0.296435 0.969210
Si Si8 0.202062 0.206653 0.991343
O O1 0.043937 0.725432 0.739359
O O2 0.127459 0.738165 0.736871
O O3 0.077341 0.734390 0.576688
O O4 0.082665 0.000000 0.680993
O O5 0.115635 0.274029 0.222822
O O6 0.071269 0.275789 0.393510
O O7 0.036266 0.204609 0.241023
O O8 0.095044 0.000000 0.309409
O O9 0.121165 0.500000 0.095408
O O10 0.080293 0.221866 0.060977
O O11 0.166563 0.234054 0.070508
O O12 0.507173 0.500000 0.815283
O O13 0.481128 0.770932 0.906997
O O14 0.099191 0.722230 0.900568
O O15 0.181220 0.729359 0.895716
O O16 0.138428 0.000000 0.843668
O O17 0.500000 0.266016 0.500000
O O18 0.549326 0.000000 0.516078
O O19 0.049073 0.500000 0.982914
O O20 0.250000 0.277078 0.009222
O O21 0.205677 0.000000 0.982352
#
# Coordination Sequence:
#
# PCOD9398796 Si02
#       8
#     8   8   8   8   8   8   8   8
#     4   9  15  27  45  63  86 118 155 192 229 271
#     4  11  21  32  45  61  86 121 161 200 236 271
#     4  10  20  34  48  65  91 119 152 190 226 269
#     4  10  18  28  42  62  86 116 154 192 233 272
#     4   8  14  24  43  69  91 113 144 180 216 261
#     4   9  16  28  45  63  84 117 162 203 236 270
#     4   8  16  29  43  58  84 120 149 180 225 272
#     4   9  17  31  51  75 100 120 139 170 218 276
#
# _framework density 18.279644000000001
#
# number of rings (size 3 to 8) (size 9 to 14) (size 15 to 20)
#    0.000    2.750    1.250    1.125    0.000    1.750 
#    0.000    4.375    0.000    0.000    0.000    0.875 
#    0.000    5.000    0.000    0.250    0.000    0.375 
#
# Total GULP energy -356479.569792 kJ/mol
# GULP energy per Si atom -5569.993278 kJ/mol
# Density = 1.823804 g / cm^3
# Si number density = 18.279644 Si / 1000 Ang^3
#
#
#
# Elastic Constant Matrix: (Units=GPa)
#
#
# Indices 1 2 3 4 5 6 
#
# 1 94.0476 4.2125 53.1278 0.0000 0.0000 0.0000
# 2 4.2125 30.0474 3.3970 0.0000 0.0000 0.0000
# 3 53.1278 3.3970 164.0147 0.0000 0.0000 0.0000
# 4 0.0000 0.0000 0.0000 -0.9493 0.0000 0.0000
# 5 0.0000 0.0000 0.0000 0.0000 13.2749 0.0000
# 6 0.0000 0.0000 0.0000 0.0000 0.0000 28.2046
#
#
#
# Elastic Compliance Matrix: (Units=1/GPa)
#
#
# Indices 1 2 3 4 5 6 
#
# 1 0.013069 -0.001357 -0.004205 0.000000 0.000000 0.000000
# 2 -0.001357 0.033500 -0.000254 0.000000 0.000000 0.000000
# 3 -0.004205 -0.000254 0.007464 0.000000 0.000000 0.000000
# 4 0.000000 0.000000 0.000000 -1.053439 0.000000 0.000000
# 5 0.000000 0.000000 0.000000 0.000000 0.075330 0.000000
# 6 0.000000 0.000000 0.000000 0.000000 0.000000 0.035455
#
#
# Mechanical properties :
#
#
# Convention : Reuss Voigt Hill
#
# Bulk Modulus (GPa) = 23.58458 45.50936 34.54697
# Shear Modulus (GPa) = -5.79472 23.26422 8.73475
#
# Velocity S-wave (km/s) = -1.78239 3.57134 2.18833
# Velocity P-wave (km/s) = 2.94859 6.47736 5.03242
#
# Compressibility (1/GPa) = 0.04240059
#
# Stress axis : x y z
#
# Youngs Moduli (GPa) = 76.51532 29.85096 133.96791
#
# Poissons Ratio (x) = 0.04050 0.56338
# Poissons Ratio (y) = 0.10382 0.03407
# Poissons Ratio (z) = 0.32177 0.00759
#
# Static dielectric constant tensor:
#      x y z
#    x 1.638040 0.000000 0.000000 
#    y 0.000000 1.680150 0.000000 
#    z 0.000000 0.000000 1.684920 
# 
# From -- ./inp_files/26694.got.cif
#   From: 2010.05.17/outbox.cif.g08.bks.cpg/sg51_14_cif.got.tgz:26694.got - 2010.06.03 11:52:47.
