data_PCOD9398120
_publ_section_title
;
Structure prediction by ZEFSAII (Michael W. Deem and Ramdas Pophale) SiO2 
 PCOD9398120
Probable space group: P B A N
;
_chemical_formula_sum "Si O2"
_cell_formula_units_Z 28
_cell_length_a 11.877697
_cell_length_b 5.090528
_cell_length_c 21.280566
_cell_angle_alpha 90.000000
_cell_angle_beta 90.000000
_cell_angle_gamma 90.000000
_cell_volume 1286.702804
_symmetry_space_group_name_H-M "P B A N"
_symmetry_group_IT_number 50
_space_group.IT_coordinate_system_code '2'
_symmetry_cell_setting 'orthorhombic'
loop_
_space_group_symop_operation_xyz
x,y,z
1/2-x,1/2-y,z
x,1/2-y,-z
1/2-x,y,-z
-x,-y,-z
1/2+x,1/2+y,-z
-x,1/2+y,z
1/2+x,-y,z
loop_
_atom_site_type_symbol
_atom_site_label
_atom_site_fract_x
_atom_site_fract_y
_atom_site_fract_z
Si Si1 0.916879 0.405858 0.808141
Si Si2 0.250000 0.250000 0.388067
Si Si3 0.750000 0.750000 0.889220
Si Si4 0.421943 0.250000 0.000000
Si Si5 0.750000 0.250000 0.698768
Si Si6 0.423346 0.250000 0.500000
O O1 0.809115 0.519204 0.848338
O O2 0.855145 0.344364 0.741871
O O3 0.010455 0.637729 0.817703
O O4 0.274743 0.500341 0.344712
O O5 0.351612 0.221658 0.436734
O O6 0.652247 0.688328 0.938793
O O7 0.500000 0.500000 0.000000
O O8 0.500000 0.500000 0.500000
#
# Coordination Sequence:
#
# PCOD9398120 Si02
#       6
#     8   4   4   4   4   4
#     4  12  26  44  69 101 139 187 235 289 357 424
#     4  11  25  44  68 102 139 179 234 292 350 421
#     4  11  25  46  72 102 143 181 234 296 354 427
#     4  11  26  45  72 104 136 183 234 291 358 426
#     4  12  26  45  68 101 142 184 238 296 348 422
#     4  11  24  43  70 100 136 181 228 289 358 420
#
# _framework density 21.761047000000001
#
# number of rings (size 3 to 8) (size 9 to 14) (size 15 to 20)
#    0.000    0.571    0.000    7.714    0.000   16.000 
#    0.000    0.000    0.000    0.000    0.000    0.000 
#    0.000    0.000    0.000    0.000    0.000    0.000 
#
# Total GULP energy -156159.668651 kJ/mol
# GULP energy per Si atom -5577.131023 kJ/mol
# Density = 2.171152 g / cm^3
# Si number density = 21.761047 Si / 1000 Ang^3
#
#
#
# Elastic Constant Matrix: (Units=GPa)
#
#
# Indices 1 2 3 4 5 6 
#
# 1 144.2444 92.5190 80.4109 0.0000 0.0000 0.0000
# 2 92.5190 205.8160 76.1886 0.0000 0.0000 0.0000
# 3 80.4109 76.1886 157.0345 0.0000 0.0000 0.0000
# 4 0.0000 0.0000 0.0000 30.1413 0.0000 0.0000
# 5 0.0000 0.0000 0.0000 0.0000 -30.5276 0.0000
# 6 0.0000 0.0000 0.0000 0.0000 0.0000 35.4443
#
#
#
# Elastic Compliance Matrix: (Units=1/GPa)
#
#
# Indices 1 2 3 4 5 6 
#
# 1 0.011612 -0.003680 -0.004161 0.000000 0.000000 0.000000
# 2 -0.003680 0.007088 -0.001555 0.000000 0.000000 0.000000
# 3 -0.004161 -0.001555 0.009253 0.000000 0.000000 0.000000
# 4 0.000000 0.000000 0.000000 0.033177 0.000000 0.000000
# 5 0.000000 0.000000 0.000000 0.000000 -0.032757 0.000000
# 6 0.000000 0.000000 0.000000 0.000000 0.000000 0.028213
#
#
# Mechanical properties :
#
#
# Convention : Reuss Voigt Hill
#
# Bulk Modulus (GPa) = 109.13680 111.70355 110.42017
# Shear Modulus (GPa) = 63.74914 24.21003 43.97959
#
# Velocity S-wave (km/s) = 5.41836 3.33909 4.50046
# Velocity P-wave (km/s) = 9.45548 8.14306 8.82370
#
# Compressibility (1/GPa) = 0.00916281
#
# Stress axis : x y z
#
# Youngs Moduli (GPa) = 86.11420 141.07513 108.07269
#
# Poissons Ratio (x) = 0.51913 0.44968
# Poissons Ratio (y) = 0.31688 0.16803
# Poissons Ratio (z) = 0.35832 0.21935
#
# Static dielectric constant tensor:
#      x y z
#    x 2.056860 0.000000 0.000000 
#    y 0.000000 1.789830 0.000000 
#    z 0.000000 0.000000 1.799340 
# 
# From -- ./inp_files/30789.got.cif
#   From: 2010.05.17/outbox.cif.g08.bks.cpg/sg50_16_cif.got.tgz:30789.got - 2010.06.03 11:33:33.
