data_PCOD9398577
_publ_section_title
;
Structure prediction by ZEFSAII (Michael W. Deem and Ramdas Pophale) SiO2 
 PCOD9398577
Probable space group: P M M A
;
_chemical_formula_sum "Si O2"
_cell_formula_units_Z 52
_cell_length_a 27.581298
_cell_length_b 9.430051
_cell_length_c 11.218461
_cell_angle_alpha 90.000000
_cell_angle_beta 90.000000
_cell_angle_gamma 90.000000
_cell_volume 2917.843702
_symmetry_space_group_name_H-M "P M M A"
_symmetry_group_IT_number 51
_symmetry_cell_setting 'orthorhombic'
loop_
_space_group_symop_operation_xyz
x,y,z
1/2-x,-y,z
1/2+x,-y,-z
-x,y,-z
-x,-y,-z
1/2+x,y,-z
1/2-x,y,z
x,-y,z
loop_
_atom_site_type_symbol
_atom_site_label
_atom_site_fract_x
_atom_site_fract_y
_atom_site_fract_z
Si Si1 0.606953 0.332354 0.403312
Si Si2 0.000000 0.215384 0.000000
Si Si3 0.193432 0.166918 0.695356
Si Si4 0.195655 0.828425 0.973956
Si Si5 0.097431 0.827683 0.106719
Si Si6 0.931880 0.162620 0.625316
Si Si7 0.463385 0.154251 0.738517
O O1 0.608716 0.500000 0.406212
O O2 0.659134 0.262327 0.384188
O O3 0.583396 0.268639 0.522678
O O4 0.574037 0.275571 0.294016
O O5 0.018959 0.151564 0.874778
O O6 0.946822 0.263252 0.950166
O O7 0.250000 0.183996 0.666756
O O8 0.187266 0.206149 0.834995
O O9 0.181546 0.000000 0.683111
O O10 0.250000 0.777639 0.008371
O O11 0.197275 0.000000 0.980097
O O12 0.149202 0.786812 0.051886
O O13 0.095285 0.812338 0.249113
O O14 0.088544 0.000000 0.082920
O O15 0.988685 0.172370 0.658427
O O16 0.922447 0.000000 0.587842
O O17 0.441299 0.000000 0.711968
#
# Coordination Sequence:
#
# PCOD9398577 Si02
#       7
#     8   4   8   8   8   8   8
#     4  12  24  35  50  72 102 142 178 210 254 304
#     4  10  17  28  51  82 105 126 161 212 269 310
#     4   9  18  34  57  81 102 127 164 212 260 305
#     4   8  14  26  48  79 107 126 150 195 255 310
#     4   9  15  25  45  73 103 129 158 203 256 305
#     4   9  19  34  51  73 101 135 175 215 250 290
#     4  10  19  33  55  79 103 132 169 213 258 305
#
# _framework density 17.821379
#
# number of rings (size 3 to 8) (size 9 to 14) (size 15 to 20)
#    0.000    2.462    0.000    6.000    0.000    4.000 
#    0.000    1.154    0.000    8.308    0.000    0.000 
#    0.000    0.000    0.000    0.000    0.000    0.000 
#
# Total GULP energy -289471.778765 kJ/mol
# GULP energy per Si atom -5566.764976 kJ/mol
# Density = 1.778082 g / cm^3
# Si number density = 17.821379 Si / 1000 Ang^3
#
#
#
# Elastic Constant Matrix: (Units=GPa)
#
#
# Indices 1 2 3 4 5 6 
#
# 1 91.1204 42.4552 45.1871 0.0000 0.0000 0.0000
# 2 42.4552 77.7205 38.8131 0.0000 0.0000 0.0000
# 3 45.1871 38.8131 74.7652 0.0000 0.0000 0.0000
# 4 0.0000 0.0000 0.0000 -7.3367 0.0000 0.0000
# 5 0.0000 0.0000 0.0000 0.0000 28.7169 0.0000
# 6 0.0000 0.0000 0.0000 0.0000 0.0000 -1.1385
#
#
#
# Elastic Compliance Matrix: (Units=1/GPa)
#
#
# Indices 1 2 3 4 5 6 
#
# 1 0.017379 -0.005735 -0.007527 0.000000 0.000000 0.000000
# 2 -0.005735 0.019262 -0.006534 0.000000 0.000000 0.000000
# 3 -0.007527 -0.006534 0.021316 0.000000 0.000000 0.000000
# 4 0.000000 0.000000 0.000000 -0.136301 0.000000 0.000000
# 5 0.000000 0.000000 0.000000 0.000000 0.034823 0.000000
# 6 0.000000 0.000000 0.000000 0.000000 0.000000 -0.878351
#
#
# Mechanical properties :
#
#
# Convention : Reuss Voigt Hill
#
# Bulk Modulus (GPa) = 54.44454 55.16854 54.80654
# Shear Modulus (GPa) = -5.70672 11.85839 3.07583
#
# Velocity S-wave (km/s) = -1.79140 2.58234 1.31517
# Velocity P-wave (km/s) = 5.13202 6.31782 5.75554
#
# Compressibility (1/GPa) = 0.01836731
#
# Stress axis : x y z
#
# Youngs Moduli (GPa) = 57.54133 51.91567 46.91317
#
# Poissons Ratio (x) = 0.29771 0.35309
# Poissons Ratio (y) = 0.32997 0.30651
# Poissons Ratio (z) = 0.43309 0.33920
#
# Static dielectric constant tensor:
#      x y z
#    x 1.634440 0.000000 0.000000 
#    y 0.000000 1.591190 0.000000 
#    z 0.000000 0.000000 1.611590 
# 
# From -- ./inp_files/19057.got.cif
#   From: 2010.05.17/outbox.cif.g08.bks.cpg/sg51_10_cif.got.tgz:19057.got - 2010.06.03 11:52:47.
