data_PCOD9398299
_publ_section_title
;
Structure prediction by ZEFSAII (Michael W. Deem and Ramdas Pophale) SiO2 
 PCOD9398299
Probable space group: P B A N
;
_chemical_formula_sum "Si O2"
_cell_formula_units_Z 26
_cell_length_a 9.387312
_cell_length_b 9.886440
_cell_length_c 9.924971
_cell_angle_alpha 90.000000
_cell_angle_beta 90.000000
_cell_angle_gamma 90.000000
_cell_volume 921.107745
_symmetry_space_group_name_H-M "P B A N"
_symmetry_group_IT_number 50
_space_group.IT_coordinate_system_code '2'
_symmetry_cell_setting 'orthorhombic'
loop_
_space_group_symop_operation_xyz
x,y,z
1/2-x,1/2-y,z
x,1/2-y,-z
1/2-x,y,-z
-x,-y,-z
1/2+x,1/2+y,-z
-x,1/2+y,z
1/2+x,-y,z
loop_
_atom_site_type_symbol
_atom_site_label
_atom_site_fract_x
_atom_site_fract_y
_atom_site_fract_z
Si Si1 0.892843 0.593988 0.085166
Si Si2 0.250000 0.750000 0.500000
Si Si3 0.975509 0.228898 0.299949
Si Si4 0.198628 0.046441 0.652611
O O1 0.815520 0.544588 0.226229
O O2 0.992365 0.716105 0.141078
O O3 0.750000 0.616399 0.000000
O O4 0.000000 0.500000 0.000000
O O5 0.140588 0.690655 0.611326
O O6 0.114363 0.188427 0.658337
O O7 0.913949 0.077390 0.328520
O O8 0.250000 0.038435 0.500000
#
# Coordination Sequence:
#
# PCOD9398299 Si02
#       4
#     8   2   8   8
#     4  12  28  58  91 131 186 257 314 401 482 583
#     4  12  28  52  94 144 188 252 308 402 484 576
#     4  12  29  53  91 132 191 247 318 395 481 576
#     4  12  29  59  93 140 191 253 326 401 489 582
#
# _framework density 28.226883000000001
#
# number of rings (size 3 to 8) (size 9 to 14) (size 15 to 20)
#    0.000    0.000    4.615    2.769    4.308    6.154 
#    8.308    3.077    6.769    0.000    0.000    0.000 
#    0.000    0.000    0.000    0.000    0.000    0.000 
#
# Total GULP energy -144838.257498 kJ/mol
# GULP energy per Si atom -5570.702211 kJ/mol
# Density = 2.816264 g / cm^3
# Si number density = 28.226883 Si / 1000 Ang^3
#
#
#
# Elastic Constant Matrix: (Units=GPa)
#
#
# Indices 1 2 3 4 5 6 
#
# 1 237.4907 84.1205 142.1211 0.0000 0.0000 0.0000
# 2 84.1205 143.4120 90.5951 0.0000 0.0000 0.0000
# 3 142.1211 90.5951 306.4330 0.0000 0.0000 0.0000
# 4 0.0000 0.0000 0.0000 50.7984 0.0000 0.0000
# 5 0.0000 0.0000 0.0000 0.0000 48.0149 0.0000
# 6 0.0000 0.0000 0.0000 0.0000 0.0000 30.2563
#
#
#
# Elastic Compliance Matrix: (Units=1/GPa)
#
#
# Indices 1 2 3 4 5 6 
#
# 1 0.006395 -0.002309 -0.002283 0.000000 0.000000 0.000000
# 2 -0.002309 0.009408 -0.001711 0.000000 0.000000 0.000000
# 3 -0.002283 -0.001711 0.004828 0.000000 0.000000 0.000000
# 4 0.000000 0.000000 0.000000 0.019686 0.000000 0.000000
# 5 0.000000 0.000000 0.000000 0.000000 0.020827 0.000000
# 6 0.000000 0.000000 0.000000 0.000000 0.000000 0.033051
#
#
# Mechanical properties :
#
#
# Convention : Reuss Voigt Hill
#
# Bulk Modulus (GPa) = 124.60290 146.77880 135.69085
# Shear Modulus (GPa) = 45.67284 50.51386 48.09335
#
# Velocity S-wave (km/s) = 4.02688 4.23492 4.13221
# Velocity P-wave (km/s) = 8.11543 8.71924 8.42275
#
# Compressibility (1/GPa) = 0.00802550
#
# Stress axis : x y z
#
# Youngs Moduli (GPa) = 156.37660 106.29627 207.12101
#
# Poissons Ratio (x) = 0.24539 0.47293
# Poissons Ratio (y) = 0.36100 0.35431
# Poissons Ratio (z) = 0.35706 0.18183
#
# Static dielectric constant tensor:
#      x y z
#    x 2.217890 0.000000 0.000000 
#    y 0.000000 2.645420 0.000000 
#    z 0.000000 0.000000 2.193870 
# 
# From -- ./inp_files/8896.got.cif
#   From: 2010.05.17/outbox.cif.g08.bks.cpg/sg50_5_cif.got.tgz:8896.got - 2010.06.03 11:33:33.
