data_PCOD9398397
_publ_section_title
;
Structure prediction by ZEFSAII (Michael W. Deem and Ramdas Pophale) SiO2 
 PCOD9398397
Probable space group: P M M A
;
_chemical_formula_sum "Si O2"
_cell_formula_units_Z 30
_cell_length_a 5.534915
_cell_length_b 14.202043
_cell_length_c 16.522969
_cell_angle_alpha 90.000000
_cell_angle_beta 90.000000
_cell_angle_gamma 90.000000
_cell_volume 1298.822690
_symmetry_space_group_name_H-M "P M M A"
_symmetry_group_IT_number 51
_symmetry_cell_setting 'orthorhombic'
loop_
_space_group_symop_operation_xyz
x,y,z
1/2-x,-y,z
1/2+x,-y,-z
-x,y,-z
-x,-y,-z
1/2+x,y,-z
1/2-x,y,z
x,-y,z
loop_
_atom_site_type_symbol
_atom_site_label
_atom_site_fract_x
_atom_site_fract_y
_atom_site_fract_z
Si Si1 0.250000 0.631433 0.461598
Si Si2 0.250000 0.114380 0.044069
Si Si3 0.750000 0.638244 0.195584
Si Si4 0.750000 0.852233 0.768329
Si Si5 0.250000 0.366052 0.275308
Si Si6 0.750000 0.842028 0.281095
Si Si7 0.250000 0.842334 0.526736
Si Si8 0.250000 0.500000 0.949871
O O1 0.500000 0.598904 0.500000
O O2 0.250000 0.608600 0.368159
O O3 0.250000 0.744332 0.476510
O O4 0.250000 0.152353 0.134975
O O5 0.250000 0.000000 0.048130
O O6 0.500000 0.142720 0.000000
O O7 0.498805 0.603729 0.234145
O O8 0.750000 0.749858 0.220682
O O9 0.750000 0.594656 0.105994
O O10 0.750000 0.747703 0.730453
O O11 0.497837 0.894409 0.739245
O O12 0.750000 0.819380 0.377051
O O13 0.500000 0.890069 0.500000
O O14 0.500000 0.500000 0.000000
#
# Coordination Sequence:
#
# PCOD9398397 Si02
#       8
#     4   4   4   4   4   4   4   2
#     4  10  16  25  44  74 106 135 162 195 240 284
#     4  10  21  37  54  73  99 133 171 207 249 305
#     4  10  20  37  55  73  99 131 162 211 258 297
#     4  10  18  32  51  74 105 132 161 208 253 301
#     4  10  19  33  52  80 107 131 167 205 252 298
#     4  10  19  32  50  79 108 131 166 206 252 297
#     4  10  16  25  43  71 105 136 162 195 241 285
#     4  12  26  44  60  76  94 124 174 214 250 310
#
# _framework density 23.097842
#
# number of rings (size 3 to 8) (size 9 to 14) (size 15 to 20)
#    0.000    1.867    0.000    9.600    0.000    0.000 
#    0.000   16.000    0.000    0.000    0.000   34.533 
#    0.000   39.467    0.000    0.000    0.000    0.000 
#
# Total GULP energy -167511.369244 kJ/mol
# GULP energy per Si atom -5583.712308 kJ/mol
# Density = 2.304527 g / cm^3
# Si number density = 23.097842 Si / 1000 Ang^3
#
#
#
# Elastic Constant Matrix: (Units=GPa)
#
#
# Indices 1 2 3 4 5 6 
#
# 1 302.9737 21.1663 97.1738 0.0000 0.0000 0.0000
# 2 21.1663 101.1377 16.8145 0.0000 0.0000 0.0000
# 3 97.1738 16.8145 184.5819 0.0000 0.0000 0.0000
# 4 0.0000 0.0000 0.0000 249.0798 0.0000 0.0000
# 5 0.0000 0.0000 0.0000 0.0000 56.4149 0.0000
# 6 0.0000 0.0000 0.0000 0.0000 0.0000 -40.2395
#
#
#
# Elastic Compliance Matrix: (Units=1/GPa)
#
#
# Indices 1 2 3 4 5 6 
#
# 1 0.003995 -0.000494 -0.002058 0.000000 0.000000 0.000000
# 2 -0.000494 0.010101 -0.000660 0.000000 0.000000 0.000000
# 3 -0.002058 -0.000660 0.006561 0.000000 0.000000 0.000000
# 4 0.000000 0.000000 0.000000 0.004015 0.000000 0.000000
# 5 0.000000 0.000000 0.000000 0.000000 0.017726 0.000000
# 6 0.000000 0.000000 0.000000 0.000000 0.000000 -0.024851
#
#
# Mechanical properties :
#
#
# Convention : Reuss Voigt Hill
#
# Bulk Modulus (GPa) = 70.26120 95.44470 82.85295
# Shear Modulus (GPa) = 174.12092 83.28694 128.70393
#
# Velocity S-wave (km/s) = 8.69182 6.01137 7.47276
# Velocity P-wave (km/s) = 11.45492 9.46540 10.50736
#
# Compressibility (1/GPa) = 0.01423261
#
# Stress axis : x y z
#
# Youngs Moduli (GPa) = 250.29378 99.00376 152.40642
#
# Poissons Ratio (x) = 0.04890 0.31371
# Poissons Ratio (y) = 0.12363 0.10060
# Poissons Ratio (z) = 0.51519 0.06535
#
# Static dielectric constant tensor:
#      x y z
#    x 2.143680 0.000000 0.000000 
#    y 0.000000 1.884250 0.000000 
#    z 0.000000 0.000000 1.799150 
# 
# From -- ./inp_files/19798.got.cif
#   From: 2010.05.17/outbox.cif.g08.bks.cpg/sg51_10_cif.got.tgz:19798.got - 2010.06.03 11:52:47.
