data_PCOD9398905
_publ_section_title
;
Structure prediction by ZEFSAII (Michael W. Deem and Ramdas Pophale) SiO2 
 PCOD9398905
Probable space group: P M M A
;
_chemical_formula_sum "Si O2"
_cell_formula_units_Z 64
_cell_length_a 19.898932
_cell_length_b 8.737080
_cell_length_c 20.854790
_cell_angle_alpha 90.000000
_cell_angle_beta 90.000000
_cell_angle_gamma 90.000000
_cell_volume 3625.783775
_symmetry_space_group_name_H-M "P M M A"
_symmetry_group_IT_number 51
_symmetry_cell_setting 'orthorhombic'
loop_
_space_group_symop_operation_xyz
x,y,z
1/2-x,-y,z
1/2+x,-y,-z
-x,y,-z
-x,-y,-z
1/2+x,y,-z
1/2-x,y,z
x,-y,z
loop_
_atom_site_type_symbol
_atom_site_label
_atom_site_fract_x
_atom_site_fract_y
_atom_site_fract_z
Si Si1 0.827662 0.685359 0.594224
Si Si2 0.950502 0.314503 0.849936
Si Si3 0.673425 0.816212 0.244145
Si Si4 0.429603 0.682983 0.654451
Si Si5 0.580706 0.322425 0.987144
Si Si6 0.596315 0.181154 0.118591
Si Si7 0.424167 0.686087 0.292910
Si Si8 0.923117 0.183226 0.484127
O O1 0.750000 0.734004 0.590970
O O2 0.829237 0.500000 0.592185
O O3 0.864173 0.734559 0.660290
O O4 0.871943 0.747111 0.535527
O O5 0.950893 0.500000 0.851380
O O6 0.911399 0.263889 0.914371
O O7 0.922398 0.263145 0.781187
O O8 0.027295 0.260134 0.857857
O O9 0.750000 0.772084 0.257048
O O10 0.621966 0.732938 0.290879
O O11 0.652760 0.782753 0.170923
O O12 0.667103 0.000000 0.253095
O O13 0.430243 0.500000 0.647560
O O14 0.504638 0.732748 0.675787
O O15 0.409552 0.758442 0.587399
O O16 0.600850 0.500000 0.990074
O O17 0.500000 0.316432 0.000000
O O18 0.612408 0.234378 0.046645
O O19 0.584786 0.000000 0.118280
O O20 0.423904 0.500000 0.291567
O O21 0.000000 0.229921 0.500000
O O22 0.919191 0.000000 0.486733
#
# Coordination Sequence:
#
# PCOD9398905 Si02
#       8
#     8   8   8   8   8   8   8   8
#     4  10  21  38  60  85 111 141 178 218 263 316
#     4   9  16  29  48  72 102 135 168 207 262 315
#     4  10  22  38  52  71 105 145 181 221 272 326
#     4  11  21  35  59  83 105 135 177 226 269 312
#     4   8  15  26  43  67  98 133 165 203 256 312
#     4  10  18  28  46  70  98 131 173 219 261 306
#     4   9  17  31  54  81 107 136 170 216 265 310
#     4  11  23  38  58  83 112 145 179 216 263 316
#
# _framework density 17.651357000000001
#
# number of rings (size 3 to 8) (size 9 to 14) (size 15 to 20)
#    0.000    2.250    2.500    1.875    0.000    4.250 
#    0.000    0.625    0.000    0.750    0.000    1.750 
#    0.000    0.000    0.000    0.000    0.000    0.000 
#
# Total GULP energy -356896.753224 kJ/mol
# GULP energy per Si atom -5576.511769 kJ/mol
# Density = 1.761118 g / cm^3
# Si number density = 17.651357 Si / 1000 Ang^3
#
#
#
# Elastic Constant Matrix: (Units=GPa)
#
#
# Indices 1 2 3 4 5 6 
#
# 1 102.0891 23.3970 58.5676 0.0000 0.0000 0.0000
# 2 23.3970 14.3676 24.4361 0.0000 0.0000 0.0000
# 3 58.5676 24.4361 162.5021 0.0000 0.0000 0.0000
# 4 0.0000 0.0000 0.0000 20.8284 0.0000 0.0000
# 5 0.0000 0.0000 0.0000 0.0000 19.9344 0.0000
# 6 0.0000 0.0000 0.0000 0.0000 0.0000 17.0289
#
#
#
# Elastic Compliance Matrix: (Units=1/GPa)
#
#
# Indices 1 2 3 4 5 6 
#
# 1 0.016374 -0.022341 -0.002542 0.000000 0.000000 0.000000
# 2 -0.022341 0.124000 -0.010595 0.000000 0.000000 0.000000
# 3 -0.002542 -0.010595 0.008663 0.000000 0.000000 0.000000
# 4 0.000000 0.000000 0.000000 0.048011 0.000000 0.000000
# 5 0.000000 0.000000 0.000000 0.000000 0.050164 0.000000
# 6 0.000000 0.000000 0.000000 0.000000 0.000000 0.058724
#
#
# Mechanical properties :
#
#
# Convention : Reuss Voigt Hill
#
# Bulk Modulus (GPa) = 12.80689 54.64002 33.72345
# Shear Modulus (GPa) = 12.40947 23.06224 17.73585
#
# Velocity S-wave (km/s) = 2.65435 3.61853 3.17328
# Velocity P-wave (km/s) = 4.08232 6.96281 5.70728
#
# Compressibility (1/GPa) = 0.07808299
#
# Stress axis : x y z
#
# Youngs Moduli (GPa) = 61.07375 8.06449 115.43332
#
# Poissons Ratio (x) = 0.18017 0.29341
# Poissons Ratio (y) = 1.36443 1.22297
# Poissons Ratio (z) = 0.15524 0.08544
#
# Static dielectric constant tensor:
#      x y z
#    x 1.578320 0.000000 0.000000 
#    y 0.000000 1.596040 0.000000 
#    z 0.000000 0.000000 1.624250 
# 
# From -- ./inp_files/34109.got.cif
#   From: 2010.05.17/outbox.cif.g08.bks.cpg/sg51_18_cif.got.tgz:34109.got - 2010.06.03 11:52:47.
