data_PCOD9398337
_publ_section_title
;
Structure prediction by ZEFSAII (Michael W. Deem and Ramdas Pophale) SiO2 
 PCOD9398337
Probable space group: P M M A
;
_chemical_formula_sum "Si O2"
_cell_formula_units_Z 52
_cell_length_a 27.010189
_cell_length_b 11.600284
_cell_length_c 8.881734
_cell_angle_alpha 90.000000
_cell_angle_beta 90.000000
_cell_angle_gamma 90.000000
_cell_volume 2782.876973
_symmetry_space_group_name_H-M "P M M A"
_symmetry_group_IT_number 51
_symmetry_cell_setting 'orthorhombic'
loop_
_space_group_symop_operation_xyz
x,y,z
1/2-x,-y,z
1/2+x,-y,-z
-x,y,-z
-x,-y,-z
1/2+x,y,-z
1/2-x,y,z
x,-y,z
loop_
_atom_site_type_symbol
_atom_site_label
_atom_site_fract_x
_atom_site_fract_y
_atom_site_fract_z
Si Si1 0.193767 0.726537 0.180875
Si Si2 0.103862 0.745895 0.656412
Si Si3 0.307432 0.362217 0.838758
Si Si4 0.022036 0.500000 0.327260
Si Si5 0.195460 0.500000 0.384607
Si Si6 0.606215 0.136998 0.668923
Si Si7 0.501240 0.753599 0.684912
Si Si8 0.899595 0.500000 0.464870
O O1 0.250000 0.773072 0.203021
O O2 0.188962 0.613713 0.285670
O O3 0.149863 0.811512 0.228215
O O4 0.190080 0.682010 0.010564
O O5 0.153297 0.717353 0.748887
O O6 0.113861 0.811852 0.500309
O O7 0.085497 0.617117 0.612579
O O8 0.053640 0.797232 0.731168
O O9 0.250000 0.349121 0.787975
O O10 0.319402 0.500000 0.838886
O O11 0.009331 0.377575 0.257201
O O12 0.080264 0.500000 0.365065
O O13 0.000000 0.500000 0.500000
O O14 0.250000 0.500000 0.447282
O O15 0.158589 0.500000 0.521369
O O16 0.551251 0.177162 0.721445
O O17 0.608154 0.000000 0.664078
O O18 0.500000 0.754218 0.500000
#
# Coordination Sequence:
#
# PCOD9398337 Si02
#       8
#     8   8   8   4   4   8   8   4
#     4  10  20  38  59  81 112 149 187 231 279 334
#     4  11  20  32  55  87 119 145 179 228 286 340
#     4  10  21  36  58  88 121 149 176 217 285 358
#     4  10  12  24  44  73 106 140 170 211 272 335
#     4  10  18  29  53  84 110 140 178 229 286 335
#     4  11  23  38  58  82 109 150 202 241 270 314
#     4   9  17  30  51  79 114 147 178 226 282 338
#     4  12  16  27  51  85 116 143 171 226 287 341
#
# _framework density 18.685699
#
# number of rings (size 3 to 8) (size 9 to 14) (size 15 to 20)
#    0.000    1.692    7.692    0.000    0.000    4.308 
#    0.000    1.538    0.000    2.769    0.000    0.000 
#    0.000    0.000    0.000    0.000    0.000    0.000 
#
# Total GULP energy -289578.817120 kJ/mol
# GULP energy per Si atom -5568.823406 kJ/mol
# Density = 1.864317 g / cm^3
# Si number density = 18.685699 Si / 1000 Ang^3
#
#
#
# Elastic Constant Matrix: (Units=GPa)
#
#
# Indices 1 2 3 4 5 6 
#
# 1 168.0501 58.8741 48.9105 0.0000 0.0000 0.0000
# 2 58.8741 90.5591 25.2665 0.0000 0.0000 0.0000
# 3 48.9105 25.2665 42.2063 0.0000 0.0000 0.0000
# 4 0.0000 0.0000 0.0000 6.7257 0.0000 0.0000
# 5 0.0000 0.0000 0.0000 0.0000 14.2764 0.0000
# 6 0.0000 0.0000 0.0000 0.0000 0.0000 18.2535
#
#
#
# Elastic Compliance Matrix: (Units=1/GPa)
#
#
# Indices 1 2 3 4 5 6 
#
# 1 0.010024 -0.003933 -0.009262 0.000000 0.000000 0.000000
# 2 -0.003933 0.014800 -0.004302 0.000000 0.000000 0.000000
# 3 -0.009262 -0.004302 0.037002 0.000000 0.000000 0.000000
# 4 0.000000 0.000000 0.000000 0.148684 0.000000 0.000000
# 5 0.000000 0.000000 0.000000 0.000000 0.070045 0.000000
# 6 0.000000 0.000000 0.000000 0.000000 0.000000 0.054784
#
#
# Mechanical properties :
#
#
# Convention : Reuss Voigt Hill
#
# Bulk Modulus (GPa) = 37.26961 62.99086 50.13024
# Shear Modulus (GPa) = 13.18298 19.03542 16.10920
#
# Velocity S-wave (km/s) = 2.65903 3.19520 2.93936
# Velocity P-wave (km/s) = 5.42366 6.88450 6.19727
#
# Compressibility (1/GPa) = 0.02683151
#
# Stress axis : x y z
#
# Youngs Moduli (GPa) = 99.76008 67.56949 27.02562
#
# Poissons Ratio (x) = 0.26573 0.25031
# Poissons Ratio (y) = 0.39232 0.11627
# Poissons Ratio (z) = 0.92398 0.29071
#
# Static dielectric constant tensor:
#      x y z
#    x 1.783440 0.000000 0.000000 
#    y 0.000000 1.634600 0.000000 
#    z 0.000000 0.000000 1.648090 
# 
# From -- ./inp_files/12403.got.cif
#   From: 2010.05.17/outbox.cif.g08.bks.cpg/sg51_7_cif.got.tgz:12403.got - 2010.06.03 11:52:47.
