data_PCOD9398256
_publ_section_title
;
Structure prediction by ZEFSAII (Michael W. Deem and Ramdas Pophale) SiO2 
 PCOD9398256
Probable space group: P B A N
;
_chemical_formula_sum "Si O2"
_cell_formula_units_Z 54
_cell_length_a 10.970548
_cell_length_b 14.729038
_cell_length_c 14.458427
_cell_angle_alpha 90.000000
_cell_angle_beta 90.000000
_cell_angle_gamma 90.000000
_cell_volume 2336.273867
_symmetry_space_group_name_H-M "P B A N"
_symmetry_group_IT_number 50
_space_group.IT_coordinate_system_code '2'
_symmetry_cell_setting 'orthorhombic'
loop_
_space_group_symop_operation_xyz
x,y,z
1/2-x,1/2-y,z
x,1/2-y,-z
1/2-x,y,-z
-x,-y,-z
1/2+x,1/2+y,-z
-x,1/2+y,z
1/2+x,-y,z
loop_
_atom_site_type_symbol
_atom_site_label
_atom_site_fract_x
_atom_site_fract_y
_atom_site_fract_z
Si Si1 0.600103 0.496488 0.642379
Si Si2 0.916371 0.337977 0.063055
Si Si3 0.499947 0.389144 0.192098
Si Si4 0.766539 0.346900 0.246555
Si Si5 0.500000 0.500000 0.000000
Si Si6 0.125756 0.196447 0.820548
Si Si7 0.849236 0.595285 0.622837
Si Si8 0.250000 0.250000 0.500000
O O1 0.570020 0.567344 0.722827
O O2 0.648284 0.406106 0.690248
O O3 0.723796 0.540563 0.601404
O O4 0.469139 0.465303 0.600234
O O5 0.833777 0.328584 0.150815
O O6 0.887048 0.430137 0.012268
O O7 0.057810 0.358828 0.096640
O O8 0.912160 0.250000 0.000000
O O9 0.641109 0.395216 0.220663
O O10 0.465134 0.282533 0.190024
O O11 0.466460 0.443018 0.099313
O O12 0.750000 0.250000 0.293684
O O13 0.250000 0.250000 0.843602
O O14 0.141118 0.132541 0.730254
O O15 0.835212 0.686621 0.563185
#
# Coordination Sequence:
#
# PCOD9398256 Si02
#       8
#     8   8   8   8   4   8   8   2
#     4  12  24  44  77 111 143 189 245 300 359 452
#     4  12  25  43  58  95 136 190 246 308 366 419
#     4  12  23  41  65 101 135 192 249 305 367 425
#     4  12  23  41  68  93 136 187 247 301 365 421
#     4  12  24  40  54  88 138 184 248 314 362 420
#     4  12  23  44  69  95 137 187 236 295 364 443
#     4  12  25  48  80 113 150 187 239 297 378 456
#     4  12  28  52  84 114 152 196 224 298 380 464
#
# _framework density 23.113728999999999
#
# number of rings (size 3 to 8) (size 9 to 14) (size 15 to 20)
#    0.000    0.000    9.630    0.000    0.000    2.963 
#    2.667    0.000    0.000    0.889    0.000    0.000 
#    0.000    0.000    0.000    0.000    0.000    0.000 
#
# Total GULP energy -300681.733833 kJ/mol
# GULP energy per Si atom -5568.180256 kJ/mol
# Density = 2.306112 g / cm^3
# Si number density = 23.113729 Si / 1000 Ang^3
#
#
#
# Elastic Constant Matrix: (Units=GPa)
#
#
# Indices 1 2 3 4 5 6 
#
# 1 162.5829 26.2160 38.8757 0.0000 0.0000 0.0000
# 2 26.2160 82.1872 10.2179 0.0000 0.0000 0.0000
# 3 38.8757 10.2179 71.5345 0.0000 0.0000 0.0000
# 4 0.0000 0.0000 0.0000 28.5036 0.0000 0.0000
# 5 0.0000 0.0000 0.0000 0.0000 -83.1798 0.0000
# 6 0.0000 0.0000 0.0000 0.0000 0.0000 -9.0653
#
#
#
# Elastic Compliance Matrix: (Units=1/GPa)
#
#
# Indices 1 2 3 4 5 6 
#
# 1 0.007344 -0.001880 -0.003723 0.000000 0.000000 0.000000
# 2 -0.001880 0.012868 -0.000817 0.000000 0.000000 0.000000
# 3 -0.003723 -0.000817 0.016119 0.000000 0.000000 0.000000
# 4 0.000000 0.000000 0.000000 0.035083 0.000000 0.000000
# 5 0.000000 0.000000 0.000000 0.000000 -0.012022 0.000000
# 6 0.000000 0.000000 0.000000 0.000000 0.000000 -0.110310
#
#
# Mechanical properties :
#
#
# Convention : Reuss Voigt Hill
#
# Bulk Modulus (GPa) = 42.56486 51.88044 47.22265
# Shear Modulus (GPa) = -165.29547 3.31801 -80.98873
#
# Velocity S-wave (km/s) = -8.46577 1.19943 -5.92582
# Velocity P-wave (km/s) = 8.78086 4.94091 5.13278
#
# Compressibility (1/GPa) = 0.02349356
#
# Stress axis : x y z
#
# Youngs Moduli (GPa) = 136.16683 77.70935 62.03877
#
# Poissons Ratio (x) = 0.14607 0.23094
# Poissons Ratio (y) = 0.25596 0.05066
# Poissons Ratio (z) = 0.50689 0.06345
#
# Static dielectric constant tensor:
#      x y z
#    x 1.959790 0.000000 0.000000 
#    y 0.000000 1.651700 0.000000 
#    z 0.000000 0.000000 1.914830 
# 
# From -- ./inp_files/25978.got.cif
#   From: 2010.05.17/outbox.cif.g08.bks.cpg/sg50_13_cif.got.tgz:25978.got - 2010.06.03 11:33:33.
