data_PCOD9398336
_publ_section_title
;
Structure prediction by ZEFSAII (Michael W. Deem and Ramdas Pophale) SiO2 
 PCOD9398336
Probable space group: P B A N
;
_chemical_formula_sum "Si O2"
_cell_formula_units_Z 48
_cell_length_a 9.000000
_cell_length_b 30.000000
_cell_length_c 9.000000
_cell_angle_alpha 90.000000
_cell_angle_beta 90.000000
_cell_angle_gamma 90.000000
_cell_volume 2430.000000
_symmetry_space_group_name_H-M "P B A N"
_symmetry_group_IT_number 50
_space_group.IT_coordinate_system_code '2'
_symmetry_cell_setting 'orthorhombic'
loop_
_space_group_symop_operation_xyz
x,y,z
1/2-x,1/2-y,z
x,1/2-y,-z
1/2-x,y,-z
-x,-y,-z
1/2+x,1/2+y,-z
-x,1/2+y,z
1/2+x,-y,z
loop_
_atom_site_type_symbol
_atom_site_label
_atom_site_fract_x
_atom_site_fract_y
_atom_site_fract_z
Si Si1 0.927427 0.256347 0.321659
Si Si2 0.088286 0.170593 0.188716
Si Si3 0.616217 0.517457 0.881180
Si Si4 0.956282 0.412685 0.654123
Si Si5 0.609396 0.426438 0.690255
Si Si6 0.443756 0.343535 0.839078
O O1 0.750000 0.250000 0.296344
O O2 0.952583 0.250000 0.500000
O O3 0.026353 0.218960 0.237037
O O4 0.974077 0.304448 0.254516
O O5 0.267110 0.164204 0.187927
O O6 0.023948 0.135543 0.308697
O O7 0.035395 0.160654 0.018386
O O8 0.545567 0.555136 0.771299
O O9 0.633065 0.474561 0.770566
O O10 0.750000 0.530451 0.000000
O O11 0.500000 0.500000 0.000000
O O12 0.779595 0.409416 0.684961
O O13 0.958341 0.428028 0.479236
O O14 0.506948 0.391408 0.782111
#
# Coordination Sequence:
#
# PCOD9398336 Si02
#       6
#     8   8   8   8   8   8
#     4  11  24  43  66  96 133 173 217 270 331 398
#     4  11  25  42  66  98 132 171 221 273 331 395
#     4  12  25  44  69  96 133 175 224 277 335 395
#     4  11  25  44  68  96 133 175 223 275 334 402
#     4  11  25  45  66  97 133 176 222 274 336 401
#     4  11  25  42  67  97 133 171 220 275 330 394
#
# _framework density 19.753086
#
# number of rings (size 3 to 8) (size 9 to 14) (size 15 to 20)
#    0.000    0.833    1.667    4.500    4.667   10.000 
#    0.000    0.000    0.000    0.000    0.000    0.000 
#    0.000    0.000    0.000    0.000    0.000    0.000 
#
# Total GULP energy -267986.664910 kJ/mol
# GULP energy per Si atom -5583.055519 kJ/mol
# Density = 1.970813 g / cm^3
# Si number density = 19.753086 Si / 1000 Ang^3
#
#
#
# Elastic Constant Matrix: (Units=GPa)
#
#
# Indices 1 2 3 4 5 6 
#
# 1 100.8951 13.9629 36.8471 0.0000 0.0000 0.0000
# 2 13.9629 88.7602 15.9865 0.0000 0.0000 0.0000
# 3 36.8471 15.9865 136.7099 0.0000 0.0000 0.0000
# 4 0.0000 0.0000 0.0000 44.3898 0.0000 0.0000
# 5 0.0000 0.0000 0.0000 0.0000 44.4320 0.0000
# 6 0.0000 0.0000 0.0000 0.0000 0.0000 39.8820
#
#
#
# Elastic Compliance Matrix: (Units=1/GPa)
#
#
# Indices 1 2 3 4 5 6 
#
# 1 0.011125 -0.001236 -0.002854 0.000000 0.000000 0.000000
# 2 -0.001236 0.011646 -0.001029 0.000000 0.000000 0.000000
# 3 -0.002854 -0.001029 0.008204 0.000000 0.000000 0.000000
# 4 0.000000 0.000000 0.000000 0.022528 0.000000 0.000000
# 5 0.000000 0.000000 0.000000 0.000000 0.022506 0.000000
# 6 0.000000 0.000000 0.000000 0.000000 0.000000 0.025074
#
#
# Mechanical properties :
#
#
# Convention : Reuss Voigt Hill
#
# Bulk Modulus (GPa) = 48.22135 51.10647 49.66391
# Shear Modulus (GPa) = 42.28954 43.04532 42.66743
#
# Velocity S-wave (km/s) = 4.63201 4.67322 4.65266
# Velocity P-wave (km/s) = 7.28509 7.41940 7.35255
#
# Compressibility (1/GPa) = 0.02073770
#
# Stress axis : x y z
#
# Youngs Moduli (GPa) = 89.89115 85.86614 121.88811
#
# Poissons Ratio (x) = 0.10613 0.34785
# Poissons Ratio (y) = 0.11111 0.12539
# Poissons Ratio (z) = 0.25654 0.08833
#
# Static dielectric constant tensor:
#      x y z
#    x 1.731250 0.000000 0.000000 
#    y 0.000000 1.844660 0.000000 
#    z 0.000000 0.000000 1.708580 
# 
# From -- ./inp_files/10103.got.cif
#   From: 2010.05.17/outbox.ucp.g08.bks.cvg/sg50_6_cif.got.tgz:10103.got - 2010.06.11 16:26:39.
