data_PCOD9398457
_publ_section_title
;
Structure prediction by ZEFSAII (Michael W. Deem and Ramdas Pophale) SiO2 
 PCOD9398457
Probable space group: P M M A
;
_chemical_formula_sum "Si O2"
_cell_formula_units_Z 64
_cell_length_a 25.920641
_cell_length_b 7.632654
_cell_length_c 17.989321
_cell_angle_alpha 90.000000
_cell_angle_beta 90.000000
_cell_angle_gamma 90.000000
_cell_volume 3559.066347
_symmetry_space_group_name_H-M "P M M A"
_symmetry_group_IT_number 51
_symmetry_cell_setting 'orthorhombic'
loop_
_space_group_symop_operation_xyz
x,y,z
1/2-x,-y,z
1/2+x,-y,-z
-x,y,-z
-x,-y,-z
1/2+x,y,-z
1/2-x,y,z
x,-y,z
loop_
_atom_site_type_symbol
_atom_site_label
_atom_site_fract_x
_atom_site_fract_y
_atom_site_fract_z
Si Si1 0.495878 0.204129 0.917779
Si Si2 0.066014 0.296823 0.339613
Si Si3 0.308800 0.213732 0.915905
Si Si4 0.097506 0.785280 0.815361
Si Si5 0.940229 0.288457 0.500627
Si Si6 0.446159 0.206971 0.660782
Si Si7 0.808947 0.211701 0.915009
Si Si8 0.407291 0.294157 0.179116
O O1 0.450877 0.275719 0.865189
O O2 0.549932 0.213254 0.875072
O O3 0.481755 0.000000 0.928194
O O4 0.500000 0.283277 0.000000
O O5 0.082123 0.500000 0.340367
O O6 0.081810 0.222907 0.420596
O O7 0.087019 0.219879 0.262651
O O8 0.003420 0.289992 0.337147
O O9 0.250000 0.268800 0.901039
O O10 0.350297 0.272740 0.855676
O O11 0.309103 0.000000 0.915865
O O12 0.322543 0.267045 0.000451
O O13 0.087140 0.730277 0.730746
O O14 0.098204 0.000000 0.814805
O O15 0.940159 0.500000 0.503322
O O16 0.920284 0.236933 0.419552
O O17 0.000000 0.228971 0.500000
O O18 0.454993 0.000000 0.669538
O O19 0.750000 0.268055 0.899897
O O20 0.851208 0.272720 0.856543
O O21 0.809394 0.000000 0.914432
O O22 0.419959 0.500000 0.182696
#
# Coordination Sequence:
#
# PCOD9398457 Si02
#       8
#     8   8   8   8   8   8   8   8
#     4  10  19  31  46  62  88 126 158 183 220 274
#     4   9  18  31  43  59  87 122 152 179 216 271
#     4   8  14  27  47  67  86 113 152 191 222 259
#     4   9  16  25  39  64  92 116 145 184 224 262
#     4   8  15  28  43  57  81 117 152 179 213 265
#     4  10  17  25  40  64  92 116 144 184 226 265
#     4   9  18  33  52  70  88 116 156 195 229 269
#     4  11  21  31  46  68  94 120 150 190 232 272
#
# _framework density 17.982246
#
# number of rings (size 3 to 8) (size 9 to 14) (size 15 to 20)
#    0.000    2.750    1.250    3.000    0.000    5.250 
#    0.000    0.000    0.000    0.750    0.000    0.875 
#    0.000    3.000    0.000    0.000    0.000    0.000 
#
# Total GULP energy -356632.845557 kJ/mol
# GULP energy per Si atom -5572.388212 kJ/mol
# Density = 1.794132 g / cm^3
# Si number density = 17.982246 Si / 1000 Ang^3
#
#
#
# Elastic Constant Matrix: (Units=GPa)
#
#
# Indices 1 2 3 4 5 6 
#
# 1 68.4085 -9.1473 70.8750 0.0000 0.0000 0.0000
# 2 -9.1473 31.7332 0.8025 0.0000 0.0000 0.0000
# 3 70.8750 0.8025 204.2229 0.0000 0.0000 0.0000
# 4 0.0000 0.0000 0.0000 12.4552 0.0000 0.0000
# 5 0.0000 0.0000 0.0000 0.0000 17.9537 0.0000
# 6 0.0000 0.0000 0.0000 0.0000 0.0000 38.6951
#
#
#
# Elastic Compliance Matrix: (Units=1/GPa)
#
#
# Indices 1 2 3 4 5 6 
#
# 1 0.024383 0.007243 -0.008491 0.000000 0.000000 0.000000
# 2 0.007243 0.033668 -0.002646 0.000000 0.000000 0.000000
# 3 -0.008491 -0.002646 0.007854 0.000000 0.000000 0.000000
# 4 0.000000 0.000000 0.000000 0.080287 0.000000 0.000000
# 5 0.000000 0.000000 0.000000 0.000000 0.055699 0.000000
# 6 0.000000 0.000000 0.000000 0.000000 0.000000 0.025843
#
#
# Mechanical properties :
#
#
# Convention : Reuss Voigt Hill
#
# Bulk Modulus (GPa) = 17.20639 47.71391 32.46015
# Shear Modulus (GPa) = 19.61604 29.94310 24.77957
#
# Velocity S-wave (km/s) = 3.30639 4.08505 3.71617
# Velocity P-wave (km/s) = 4.91586 6.98868 6.04183
#
# Compressibility (1/GPa) = 0.05811795
#
# Stress axis : x y z
#
# Youngs Moduli (GPa) = 41.01149 29.70216 127.32905
#
# Poissons Ratio (x) = -0.21514 1.08111
# Poissons Ratio (y) = -0.29706 0.33693
# Poissons Ratio (z) = 0.34821 0.07860
#
# Static dielectric constant tensor:
#      x y z
#    x 1.572630 0.000000 0.000000 
#    y 0.000000 1.695590 0.000000 
#    z 0.000000 0.000000 1.670170 
# 
# From -- ./inp_files/30824.got.cif
#   From: 2010.05.17/outbox.cif.g08.bks.cpg/sg51_16_cif.got.tgz:30824.got - 2010.06.03 11:52:47.
