data_PCOD9398434
_publ_section_title
;
Structure prediction by ZEFSAII (Michael W. Deem and Ramdas Pophale) SiO2 
 PCOD9398434
Probable space group: P M M A
;
_chemical_formula_sum "Si O2"
_cell_formula_units_Z 64
_cell_length_a 23.236964
_cell_length_b 9.274028
_cell_length_c 20.656699
_cell_angle_alpha 90.000000
_cell_angle_beta 90.000000
_cell_angle_gamma 90.000000
_cell_volume 4451.523897
_symmetry_space_group_name_H-M "P M M A"
_symmetry_group_IT_number 51
_symmetry_cell_setting 'orthorhombic'
loop_
_space_group_symop_operation_xyz
x,y,z
1/2-x,-y,z
1/2+x,-y,-z
-x,y,-z
-x,-y,-z
1/2+x,y,-z
1/2-x,y,z
x,-y,z
loop_
_atom_site_type_symbol
_atom_site_label
_atom_site_fract_x
_atom_site_fract_y
_atom_site_fract_z
Si Si1 0.028037 0.329548 0.649896
Si Si2 0.021781 0.828451 0.784528
Si Si3 0.433942 0.833608 0.525813
Si Si4 0.396931 0.329851 0.401559
Si Si5 0.551080 0.669284 0.089783
Si Si6 0.818068 0.172318 0.701883
Si Si7 0.389220 0.829096 0.173462
Si Si8 0.583723 0.668000 0.951395
O O1 0.040246 0.500000 0.652778
O O2 0.036919 0.252795 0.718495
O O3 0.063870 0.251744 0.593243
O O4 0.960569 0.313294 0.630205
O O5 0.055780 0.763532 0.845880
O O6 0.953748 0.802150 0.799150
O O7 0.029846 0.000000 0.778762
O O8 0.500000 0.834634 0.500000
O O9 0.398803 0.750772 0.470426
O O10 0.416035 0.000000 0.533350
O O11 0.386611 0.500000 0.409706
O O12 0.351316 0.257255 0.353903
O O13 0.563427 0.500000 0.102112
O O14 0.483771 0.676565 0.068801
O O15 0.586104 0.718232 0.026036
O O16 0.750000 0.196085 0.699698
O O17 0.844600 0.216363 0.771248
O O18 0.829070 0.000000 0.694550
O O19 0.383274 0.752601 0.104394
O O20 0.383896 0.000000 0.163827
O O21 0.599603 0.500000 0.950226
#
# Coordination Sequence:
#
# PCOD9398434 Si02
#       8
#     8   8   8   8   8   8   8   8
#     4  10  18  27  40  59  82 108 136 167 204 245
#     4  10  17  24  37  56  79 106 136 168 201 237
#     4   9  17  28  43  60  79 103 132 166 202 245
#     4  10  19  30  44  60  79 103 134 173 211 249
#     4   8  14  24  35  51  74 100 130 161 194 235
#     4  10  20  33  46  59  79 108 141 177 216 253
#     4   9  17  27  39  55  74  99 134 173 208 242
#     4   8  14  24  38  52  70  98 130 162 198 239
#
# _framework density 14.377098
#
# number of rings (size 3 to 8) (size 9 to 14) (size 15 to 20)
#    0.000    2.750    1.250    2.250    0.000    4.250 
#    0.000    2.500    0.000    0.000    0.000    0.000 
#    0.000    0.000    0.000    1.125    0.000   19.250 
#
# Total GULP energy -356412.561959 kJ/mol
# GULP energy per Si atom -5568.946281 kJ/mol
# Density = 1.434438 g / cm^3
# Si number density = 14.377098 Si / 1000 Ang^3
#
#
#
# Elastic Constant Matrix: (Units=GPa)
#
#
# Indices 1 2 3 4 5 6 
#
# 1 32.3060 31.0680 36.6814 0.0000 0.0000 0.0000
# 2 31.0680 85.9089 91.8784 0.0000 0.0000 0.0000
# 3 36.6814 91.8784 166.6769 0.0000 0.0000 0.0000
# 4 0.0000 0.0000 0.0000 31.9051 0.0000 0.0000
# 5 0.0000 0.0000 0.0000 0.0000 9.1948 0.0000
# 6 0.0000 0.0000 0.0000 0.0000 0.0000 10.8649
#
#
#
# Elastic Compliance Matrix: (Units=1/GPa)
#
#
# Indices 1 2 3 4 5 6 
#
# 1 0.047856 -0.014722 -0.002416 0.000000 0.000000 0.000000
# 2 -0.014722 0.032888 -0.014889 0.000000 0.000000 0.000000
# 3 -0.002416 -0.014889 0.014739 0.000000 0.000000 0.000000
# 4 0.000000 0.000000 0.000000 0.031343 0.000000 0.000000
# 5 0.000000 0.000000 0.000000 0.000000 0.108757 0.000000
# 6 0.000000 0.000000 0.000000 0.000000 0.000000 0.092040
#
#
# Mechanical properties :
#
#
# Convention : Reuss Voigt Hill
#
# Bulk Modulus (GPa) = 31.81962 67.12749 49.47356
# Shear Modulus (GPa) = 12.43305 18.74389 15.58847
#
# Velocity S-wave (km/s) = 2.94391 3.61464 3.29638
# Velocity P-wave (km/s) = 5.80824 8.01329 6.99816
#
# Compressibility (1/GPa) = 0.03142715
#
# Stress axis : x y z
#
# Youngs Moduli (GPa) = 20.89617 30.40614 67.84785
#
# Poissons Ratio (x) = 0.44764 0.16395
# Poissons Ratio (y) = 0.30764 1.01020
# Poissons Ratio (z) = 0.05049 0.45272
#
# Static dielectric constant tensor:
#      x y z
#    x 1.439220 0.000000 0.000000 
#    y 0.000000 1.478560 0.000000 
#    z 0.000000 0.000000 1.481890 
# 
# From -- ./inp_files/34099.got.cif
#   From: 2010.05.17/outbox.cif.g08.bks.cpg/sg51_18_cif.got.tgz:34099.got - 2010.06.03 11:52:47.
