data_PCOD9398923
_publ_section_title
;
Structure prediction by ZEFSAII (Michael W. Deem and Ramdas Pophale) SiO2 
 PCOD9398923
Probable space group: P M M A
;
_chemical_formula_sum "Si O2"
_cell_formula_units_Z 56
_cell_length_a 15.157913
_cell_length_b 7.543611
_cell_length_c 24.261891
_cell_angle_alpha 90.000000
_cell_angle_beta 90.000000
_cell_angle_gamma 90.000000
_cell_volume 2774.235613
_symmetry_space_group_name_H-M "P M M A"
_symmetry_group_IT_number 51
_symmetry_cell_setting 'orthorhombic'
loop_
_space_group_symop_operation_xyz
x,y,z
1/2-x,-y,z
1/2+x,-y,-z
-x,y,-z
-x,-y,-z
1/2+x,y,-z
1/2-x,y,z
x,-y,z
loop_
_atom_site_type_symbol
_atom_site_label
_atom_site_fract_x
_atom_site_fract_y
_atom_site_fract_z
Si Si1 0.057196 0.292083 0.052145
Si Si2 0.852672 0.782678 0.263057
Si Si3 0.528943 0.205844 0.363411
Si Si4 0.577102 0.786441 0.145668
Si Si5 0.250000 0.214320 0.922379
Si Si6 0.348918 0.212828 0.407710
Si Si7 0.349681 0.711417 0.536249
Si Si8 0.750000 0.299623 0.952682
O O1 0.070882 0.500000 0.038863
O O2 0.155132 0.214331 0.060082
O O3 0.003712 0.277878 0.108794
O O4 0.000000 0.219084 0.000000
O O5 0.750000 0.725832 0.262162
O O6 0.906187 0.720185 0.316688
O O7 0.905459 0.727891 0.208128
O O8 0.849675 0.000000 0.263253
O O9 0.431306 0.283349 0.372577
O O10 0.579908 0.213339 0.421471
O O11 0.516193 0.000000 0.348462
O O12 0.664060 0.736388 0.111639
O O13 0.571822 0.000000 0.146662
O O14 0.250000 0.000000 0.929552
O O15 0.250000 0.303020 0.981207
O O16 0.250000 0.280575 0.395421
O O17 0.366947 0.247464 0.472347
O O18 0.346738 0.000000 0.401115
O O19 0.250000 0.775267 0.548999
O O20 0.351123 0.500000 0.542548
O O21 0.750000 0.500000 0.929040
#
# Coordination Sequence:
#
# PCOD9398923 Si02
#       8
#     8   8   8   8   4   8   8   4
#     4  10  20  33  51  74 100 130 164 200 243 290
#     4   9  17  31  51  74  99 128 161 197 241 291
#     4  10  19  31  51  74  96 128 166 201 240 286
#     4  10  19  32  51  74 101 131 164 200 240 289
#     4  10  18  28  48  76 102 130 162 199 240 285
#     4   9  18  32  49  70  96 127 165 204 239 282
#     4  10  20  32  47  71 103 132 157 194 247 298
#     4  10  20  34  50  72 102 132 160 197 244 293
#
# _framework density 20.185742000000001
#
# number of rings (size 3 to 8) (size 9 to 14) (size 15 to 20)
#    0.000    2.286    2.143    1.286    0.000    4.571 
#    0.000    0.714    1.571    0.857    0.000    0.000 
#    0.000    0.000    0.000    0.000    0.000    0.000 
#
# Total GULP energy -312452.353135 kJ/mol
# GULP energy per Si atom -5579.506306 kJ/mol
# Density = 2.013980 g / cm^3
# Si number density = 20.185742 Si / 1000 Ang^3
#
#
#
# Elastic Constant Matrix: (Units=GPa)
#
#
# Indices 1 2 3 4 5 6 
#
# 1 185.7234 5.6895 84.4441 0.0000 0.0000 0.0000
# 2 5.6895 46.7803 0.6812 0.0000 0.0000 0.0000
# 3 84.4441 0.6812 85.9861 0.0000 0.0000 0.0000
# 4 0.0000 0.0000 0.0000 32.2090 0.0000 0.0000
# 5 0.0000 0.0000 0.0000 0.0000 27.7927 0.0000
# 6 0.0000 0.0000 0.0000 0.0000 0.0000 -27.0656
#
#
#
# Elastic Compliance Matrix: (Units=1/GPa)
#
#
# Indices 1 2 3 4 5 6 
#
# 1 0.009779 -0.001050 -0.009596 0.000000 0.000000 0.000000
# 2 -0.001050 0.021492 0.000861 0.000000 0.000000 0.000000
# 3 -0.009596 0.000861 0.021047 0.000000 0.000000 0.000000
# 4 0.000000 0.000000 0.000000 0.031047 0.000000 0.000000
# 5 0.000000 0.000000 0.000000 0.000000 0.035981 0.000000
# 6 0.000000 0.000000 0.000000 0.000000 0.000000 -0.036947
#
#
# Mechanical properties :
#
#
# Convention : Reuss Voigt Hill
#
# Bulk Modulus (GPa) = 30.53616 55.56880 43.05248
# Shear Modulus (GPa) = 44.29319 21.76556 33.02938
#
# Velocity S-wave (km/s) = 4.68940 3.28726 4.04947
# Velocity P-wave (km/s) = 6.66941 6.48048 6.57562
#
# Compressibility (1/GPa) = 0.03274806
#
# Stress axis : x y z
#
# Youngs Moduli (GPa) = 102.25482 46.52974 47.51341
#
# Poissons Ratio (x) = 0.04884 0.45593
# Poissons Ratio (y) = 0.10733 -0.04089
# Poissons Ratio (z) = 0.98122 -0.04004
#
# Static dielectric constant tensor:
#      x y z
#    x 1.754320 0.000000 0.000000 
#    y 0.000000 1.777670 0.000000 
#    z 0.000000 0.000000 1.674510 
# 
# From -- ./inp_files/33593.got.cif
#   From: 2010.05.17/outbox.cif.g08.bks.cpg/sg51_17_cif.got.tgz:33593.got - 2010.06.03 11:52:47.
