data_PCOD9398140
_publ_section_title
;
Structure prediction by ZEFSAII (Michael W. Deem and Ramdas Pophale) SiO2 
 PCOD9398140
Probable space group: P B A N
;
_chemical_formula_sum "Si O2"
_cell_formula_units_Z 36
_cell_length_a 8.285871
_cell_length_b 23.679214
_cell_length_c 8.211409
_cell_angle_alpha 90.000000
_cell_angle_beta 90.000000
_cell_angle_gamma 90.000000
_cell_volume 1611.102362
_symmetry_space_group_name_H-M "P B A N"
_symmetry_group_IT_number 50
_space_group.IT_coordinate_system_code '2'
_symmetry_cell_setting 'orthorhombic'
loop_
_space_group_symop_operation_xyz
x,y,z
1/2-x,1/2-y,z
x,1/2-y,-z
1/2-x,y,-z
-x,-y,-z
1/2+x,1/2+y,-z
-x,1/2+y,z
1/2+x,-y,z
loop_
_atom_site_type_symbol
_atom_site_label
_atom_site_fract_x
_atom_site_fract_y
_atom_site_fract_z
Si Si1 0.998405 0.455643 0.851488
Si Si2 0.853515 0.840466 0.761869
Si Si3 0.250000 0.250000 0.000000
Si Si4 0.327522 0.549654 0.324728
Si Si5 0.495405 0.162202 0.403301
Si Si6 0.750000 0.250000 0.500000
O O1 0.814519 0.442579 0.806143
O O2 0.103778 0.398605 0.856313
O O3 0.075487 0.492920 0.708452
O O4 0.000000 0.500000 0.000000
O O5 0.863464 0.789702 0.889236
O O6 0.674271 0.830706 0.687568
O O7 0.962506 0.841379 0.598589
O O8 0.250000 0.545506 0.500000
O O9 0.438420 0.604215 0.331178
O O10 0.631164 0.210519 0.393051
#
# Coordination Sequence:
#
# PCOD9398140 Si02
#       6
#     8   8   2   8   8   2
#     4  12  27  45  72 111 160 200 247 312 393 464
#     4  11  26  48  72 108 146 200 252 311 384 457
#     4  12  28  46  72 106 152 194 244 308 400 470
#     4  12  24  44  72 111 143 195 254 314 370 447
#     4  11  24  45  77 105 143 192 264 319 364 455
#     4  12  20  42  72 106 136 186 244 320 384 426
#
# _framework density 22.344949
#
# number of rings (size 3 to 8) (size 9 to 14) (size 15 to 20)
#    0.000    0.444    3.333    4.000    9.333    1.778 
#    0.000    0.000    0.000    2.667    0.000    0.000 
#    0.000    0.000    0.000    0.000    0.000    0.000 
#
# Total GULP energy -201351.775688 kJ/mol
# GULP energy per Si atom -5593.104880 kJ/mol
# Density = 2.229409 g / cm^3
# Si number density = 22.344949 Si / 1000 Ang^3
#
#
#
# Elastic Constant Matrix: (Units=GPa)
#
#
# Indices 1 2 3 4 5 6 
#
# 1 103.0466 46.9537 22.0425 0.0000 0.0000 0.0000
# 2 46.9537 169.7276 28.2643 0.0000 0.0000 0.0000
# 3 22.0425 28.2643 79.0174 0.0000 0.0000 0.0000
# 4 0.0000 0.0000 0.0000 36.6929 0.0000 0.0000
# 5 0.0000 0.0000 0.0000 0.0000 12.1323 0.0000
# 6 0.0000 0.0000 0.0000 0.0000 0.0000 38.8487
#
#
#
# Elastic Compliance Matrix: (Units=1/GPa)
#
#
# Indices 1 2 3 4 5 6 
#
# 1 0.011450 -0.002803 -0.002192 0.000000 0.000000 0.000000
# 2 -0.002803 0.006951 -0.001705 0.000000 0.000000 0.000000
# 3 -0.002192 -0.001705 0.013877 0.000000 0.000000 0.000000
# 4 0.000000 0.000000 0.000000 0.027253 0.000000 0.000000
# 5 0.000000 0.000000 0.000000 0.000000 0.082424 0.000000
# 6 0.000000 0.000000 0.000000 0.000000 0.000000 0.025741
#
#
# Mechanical properties :
#
#
# Convention : Reuss Voigt Hill
#
# Bulk Modulus (GPa) = 52.96580 60.70140 56.83360
# Shear Modulus (GPa) = 26.68275 34.50352 30.59313
#
# Velocity S-wave (km/s) = 3.45937 3.93381 3.70419
# Velocity P-wave (km/s) = 6.30170 6.91792 6.61699
#
# Compressibility (1/GPa) = 0.01888011
#
# Stress axis : x y z
#
# Youngs Moduli (GPa) = 87.33479 143.86479 72.06424
#
# Poissons Ratio (x) = 0.40320 0.15794
# Poissons Ratio (y) = 0.24477 0.12284
# Poissons Ratio (z) = 0.19140 0.24522
#
# Static dielectric constant tensor:
#      x y z
#    x 1.856090 0.000000 0.000000 
#    y 0.000000 1.794840 0.000000 
#    z 0.000000 0.000000 1.936210 
# 
# From -- ./inp_files/9315.got.cif
#   From: 2010.05.17/outbox.cif.g08.bks.cpg/sg50_5_cif.got.tgz:9315.got - 2010.06.03 11:33:33.
