data_PCOD9398603
_publ_section_title
;
Structure prediction by ZEFSAII (Michael W. Deem and Ramdas Pophale) SiO2 
 PCOD9398603
Probable space group: P M M A
;
_chemical_formula_sum "Si O2"
_cell_formula_units_Z 42
_cell_length_a 15.558331
_cell_length_b 16.096878
_cell_length_c 7.197948
_cell_angle_alpha 90.000000
_cell_angle_beta 90.000000
_cell_angle_gamma 90.000000
_cell_volume 1802.658099
_symmetry_space_group_name_H-M "P M M A"
_symmetry_group_IT_number 51
_symmetry_cell_setting 'orthorhombic'
loop_
_space_group_symop_operation_xyz
x,y,z
1/2-x,-y,z
1/2+x,-y,-z
-x,y,-z
-x,-y,-z
1/2+x,y,-z
1/2-x,y,z
x,-y,z
loop_
_atom_site_type_symbol
_atom_site_label
_atom_site_fract_x
_atom_site_fract_y
_atom_site_fract_z
Si Si1 0.250000 0.906972 0.536184
Si Si2 0.100604 0.613580 0.496296
Si Si3 0.406190 0.799989 0.528334
Si Si4 0.098509 0.777131 0.966061
Si Si5 0.250000 0.098323 0.989380
Si Si6 0.750000 0.500000 0.649613
Si Si7 0.852427 0.592685 0.068552
O O1 0.332939 0.860216 0.465231
O O2 0.250000 0.905707 0.762032
O O3 0.250000 0.000000 0.474218
O O4 0.097491 0.709764 0.437989
O O5 0.172500 0.570072 0.372009
O O6 0.133050 0.599038 0.708313
O O7 0.000000 0.587648 0.500000
O O8 0.500000 0.836405 0.500000
O O9 0.390254 0.781392 0.744153
O O10 0.167158 0.844283 0.040569
O O11 0.111463 0.679003 0.012967
O O12 0.000000 0.800612 0.000000
O O13 0.250000 0.000000 0.046235
O O14 0.750000 0.591080 0.033989
O O15 0.885388 0.500000 0.012295
#
# Coordination Sequence:
#
# PCOD9398603 Si02
#       7
#     4   8   8   8   4   2   8
#     4   9  17  31  55  79 101 134 175 212 252 308
#     4  10  18  27  44  73 102 134 176 219 257 299
#     4   9  19  34  52  75 105 136 172 210 258 308
#     4  10  20  34  55  82 105 136 176 219 262 309
#     4   9  18  35  57  79 105 136 174 219 260 316
#     4  12  16  24  42  68  98 132 170 222 250 294
#     4  10  17  30  51  75 100 139 182 217 249 307
#
# _framework density 23.298928
#
# number of rings (size 3 to 8) (size 9 to 14) (size 15 to 20)
#    0.000    2.286    2.857    0.857    2.667    1.143 
#    0.000    0.952    0.000    4.571    0.000    0.000 
#    0.000    0.000    0.000    0.000    0.000    0.000 
#
# Total GULP energy -234072.427071 kJ/mol
# GULP energy per Si atom -5573.153026 kJ/mol
# Density = 2.324590 g / cm^3
# Si number density = 23.298928 Si / 1000 Ang^3
#
#
#
# Elastic Constant Matrix: (Units=GPa)
#
#
# Indices 1 2 3 4 5 6 
#
# 1 220.4348 126.3690 -2.2973 0.0000 0.0000 0.0000
# 2 126.3690 209.4732 14.3086 0.0000 0.0000 0.0000
# 3 -2.2973 14.3086 91.2490 0.0000 0.0000 0.0000
# 4 0.0000 0.0000 0.0000 -3.8898 0.0000 0.0000
# 5 0.0000 0.0000 0.0000 0.0000 11.8327 0.0000
# 6 0.0000 0.0000 0.0000 0.0000 0.0000 30.1118
#
#
#
# Elastic Compliance Matrix: (Units=1/GPa)
#
#
# Indices 1 2 3 4 5 6 
#
# 1 0.006999 -0.004280 0.000847 0.000000 0.000000 0.000000
# 2 -0.004280 0.007443 -0.001275 0.000000 0.000000 0.000000
# 3 0.000847 -0.001275 0.011180 0.000000 0.000000 0.000000
# 4 0.000000 0.000000 0.000000 -0.257084 0.000000 0.000000
# 5 0.000000 0.000000 0.000000 0.000000 0.084511 0.000000
# 6 0.000000 0.000000 0.000000 0.000000 0.000000 0.033210
#
#
# Mechanical properties :
#
#
# Convention : Reuss Voigt Hill
#
# Bulk Modulus (GPa) = 61.70187 88.65750 75.17969
# Shear Modulus (GPa) = -50.54447 33.12940 -8.70754
#
# Velocity S-wave (km/s) = -4.66272 3.77494 -1.93531
# Velocity P-wave (km/s) = 1.56455 7.55877 5.22911
#
# Compressibility (1/GPa) = 0.01620696
#
# Stress axis : x y z
#
# Youngs Moduli (GPa) = 142.87693 134.35301 89.44327
#
# Poissons Ratio (x) = 0.57506 -0.07579
# Poissons Ratio (y) = 0.61154 0.11403
# Poissons Ratio (z) = -0.12107 0.17129
#
# Static dielectric constant tensor:
#      x y z
#    x 1.816120 0.000000 0.000000 
#    y 0.000000 1.863670 0.000000 
#    z 0.000000 0.000000 1.967020 
# 
# From -- ./inp_files/15449.got.cif
#   From: 2010.05.17/outbox.cif.g08.bks.cpg/sg51_8_cif.got.tgz:15449.got - 2010.06.03 11:52:47.
