data_PCOD9398039
_publ_section_title
;
Structure prediction by ZEFSAII (Michael W. Deem and Ramdas Pophale) SiO2 
 PCOD9398039
Probable space group: P B A N
;
_chemical_formula_sum "Si O2"
_cell_formula_units_Z 48
_cell_length_a 8.369379
_cell_length_b 15.586154
_cell_length_c 15.784284
_cell_angle_alpha 90.000000
_cell_angle_beta 90.000000
_cell_angle_gamma 90.000000
_cell_volume 2059.003498
_symmetry_space_group_name_H-M "P B A N"
_symmetry_group_IT_number 50
_space_group.IT_coordinate_system_code '2'
_symmetry_cell_setting 'orthorhombic'
loop_
_space_group_symop_operation_xyz
x,y,z
1/2-x,1/2-y,z
x,1/2-y,-z
1/2-x,y,-z
-x,-y,-z
1/2+x,1/2+y,-z
-x,1/2+y,z
1/2+x,-y,z
loop_
_atom_site_type_symbol
_atom_site_label
_atom_site_fract_x
_atom_site_fract_y
_atom_site_fract_z
Si Si1 0.922634 0.612120 0.670719
Si Si2 0.055861 0.402367 0.999135
Si Si3 0.797835 0.069374 0.326490
Si Si4 0.570451 0.270040 0.400835
Si Si5 0.896743 0.804205 0.161256
Si Si6 0.873376 0.172446 0.163458
O O1 0.828076 0.527811 0.644713
O O2 0.864003 0.626611 0.767380
O O3 0.109887 0.587338 0.662886
O O4 0.929444 0.705595 0.627461
O O5 0.961641 0.360871 0.920490
O O6 0.250000 0.401041 0.000000
O O7 0.014325 0.350951 0.084557
O O8 0.000000 0.500000 0.000000
O O9 0.924263 0.129400 0.377934
O O10 0.824270 0.096576 0.226846
O O11 0.750000 0.250000 0.362737
O O12 0.582066 0.250000 0.500000
O O13 0.750000 0.750000 0.125071
O O14 0.994408 0.730536 0.209842
O O15 0.750000 0.250000 0.145258
#
# Coordination Sequence:
#
# PCOD9398039 Si02
#       6
#     8   8   8   8   8   8
#     4  11  24  41  68 100 135 174 222 274 338 402
#     4  12  29  45  63  97 135 176 229 285 342 406
#     4  11  23  42  66 101 132 174 224 276 335 406
#     4   9  19  41  67  95 134 176 219 273 333 403
#     4  12  25  44  68  93 129 173 223 277 338 395
#     4  12  24  45  70  94 128 173 230 280 335 402
#
# _framework density 23.312249000000001
#
# number of rings (size 3 to 8) (size 9 to 14) (size 15 to 20)
#    0.000    0.833    5.000    2.000    4.667    4.000 
#    0.000    0.000    0.000    3.500    0.000    0.000 
#    0.000    0.000    0.000    0.000    0.000    0.000 
#
# Total GULP energy -267365.111153 kJ/mol
# GULP energy per Si atom -5570.106482 kJ/mol
# Density = 2.325919 g / cm^3
# Si number density = 23.312249 Si / 1000 Ang^3
#
#
#
# Elastic Constant Matrix: (Units=GPa)
#
#
# Indices 1 2 3 4 5 6 
#
# 1 57.9922 22.7054 8.4272 0.0000 0.0000 0.0000
# 2 22.7054 103.5241 16.8558 0.0000 0.0000 0.0000
# 3 8.4272 16.8558 71.2744 0.0000 0.0000 0.0000
# 4 0.0000 0.0000 0.0000 12.0183 0.0000 0.0000
# 5 0.0000 0.0000 0.0000 0.0000 9.6917 0.0000
# 6 0.0000 0.0000 0.0000 0.0000 0.0000 43.7633
#
#
#
# Elastic Compliance Matrix: (Units=1/GPa)
#
#
# Indices 1 2 3 4 5 6 
#
# 1 0.018980 -0.003950 -0.001310 0.000000 0.000000 0.000000
# 2 -0.003950 0.010868 -0.002103 0.000000 0.000000 0.000000
# 3 -0.001310 -0.002103 0.014683 0.000000 0.000000 0.000000
# 4 0.000000 0.000000 0.000000 0.083207 0.000000 0.000000
# 5 0.000000 0.000000 0.000000 0.000000 0.103181 0.000000
# 6 0.000000 0.000000 0.000000 0.000000 0.000000 0.022850
#
#
# Mechanical properties :
#
#
# Convention : Reuss Voigt Hill
#
# Bulk Modulus (GPa) = 33.55100 36.52972 35.04036
# Shear Modulus (GPa) = 17.95781 25.41481 21.68631
#
# Velocity S-wave (km/s) = 2.77847 3.30539 3.05332
# Velocity P-wave (km/s) = 4.97156 5.50193 5.24346
#
# Compressibility (1/GPa) = 0.02980537
#
# Stress axis : x y z
#
# Youngs Moduli (GPa) = 52.68586 92.01081 68.10787
#
# Poissons Ratio (x) = 0.36340 0.08923
# Poissons Ratio (y) = 0.20809 0.14325
# Poissons Ratio (z) = 0.06902 0.19352
#
# Static dielectric constant tensor:
#      x y z
#    x 2.000970 0.000000 0.000000 
#    y 0.000000 1.960440 0.000000 
#    z 0.000000 0.000000 1.947240 
# 
# From -- ./inp_files/28712.got.cif
#   From: 2010.05.17/outbox.cif.g08.bks.cpg/sg50_15_cif.got.tgz:28712.got - 2010.06.03 11:33:33.
