data_PCOD9398191
_publ_section_title
;
Structure prediction by ZEFSAII (Michael W. Deem and Ramdas Pophale) SiO2 
 PCOD9398191
Probable space group: P B A N
;
_chemical_formula_sum "Si O2"
_cell_formula_units_Z 24
_cell_length_a 8.421641
_cell_length_b 14.661480
_cell_length_c 7.453045
_cell_angle_alpha 90.000000
_cell_angle_beta 90.000000
_cell_angle_gamma 90.000000
_cell_volume 920.255200
_symmetry_space_group_name_H-M "P B A N"
_symmetry_group_IT_number 50
_space_group.IT_coordinate_system_code '2'
_symmetry_cell_setting 'orthorhombic'
loop_
_space_group_symop_operation_xyz
x,y,z
1/2-x,1/2-y,z
x,1/2-y,-z
1/2-x,y,-z
-x,-y,-z
1/2+x,1/2+y,-z
-x,1/2+y,z
1/2+x,-y,z
loop_
_atom_site_type_symbol
_atom_site_label
_atom_site_fract_x
_atom_site_fract_y
_atom_site_fract_z
Si Si1 0.077465 0.774313 0.212033
Si Si2 0.543755 0.970442 0.699240
Si Si3 0.850536 0.623468 0.182389
O O1 0.250000 0.750000 0.286611
O O2 0.050599 0.879817 0.246183
O O3 0.224345 0.437277 0.288821
O O4 0.927550 0.712650 0.273429
O O5 0.500000 0.000000 0.500000
O O6 0.501117 0.055082 0.828952
O O7 0.078618 0.750000 0.000000
O O8 0.750000 0.643559 0.000000
#
# Coordination Sequence:
#
# PCOD9398191 Si02
#       3
#     8   8   8
#     4  11  25  46  79 115 152 206 276 339 408 499
#     4  12  27  46  74 116 164 210 267 343 422 480
#     4  12  25  47  79 114 158 214 280 333 407 504
#
# _framework density 26.079719999999998
#
# number of rings (size 3 to 8) (size 9 to 14) (size 15 to 20)
#    0.000    0.333    3.333    5.000    4.667    1.333 
#    0.000    5.000    0.000    0.000    0.000    0.000 
#    0.000    0.000    0.000    0.000    0.000    0.000 
#
# Total GULP energy -134397.967360 kJ/mol
# GULP energy per Si atom -5599.915307 kJ/mol
# Density = 2.602036 g / cm^3
# Si number density = 26.079720 Si / 1000 Ang^3
#
#
#
# Elastic Constant Matrix: (Units=GPa)
#
#
# Indices 1 2 3 4 5 6 
#
# 1 155.9243 42.0881 21.7873 0.0000 0.0000 0.0000
# 2 42.0881 198.2432 44.4261 0.0000 0.0000 0.0000
# 3 21.7873 44.4261 109.4676 0.0000 0.0000 0.0000
# 4 0.0000 0.0000 0.0000 24.0198 0.0000 0.0000
# 5 0.0000 0.0000 0.0000 0.0000 23.2937 0.0000
# 6 0.0000 0.0000 0.0000 0.0000 0.0000 68.9945
#
#
#
# Elastic Compliance Matrix: (Units=1/GPa)
#
#
# Indices 1 2 3 4 5 6 
#
# 1 0.006875 -0.001268 -0.000854 0.000000 0.000000 0.000000
# 2 -0.001268 0.005783 -0.002095 0.000000 0.000000 0.000000
# 3 -0.000854 -0.002095 0.010155 0.000000 0.000000 0.000000
# 4 0.000000 0.000000 0.000000 0.041632 0.000000 0.000000
# 5 0.000000 0.000000 0.000000 0.000000 0.042930 0.000000
# 6 0.000000 0.000000 0.000000 0.000000 0.000000 0.014494
#
#
# Mechanical properties :
#
#
# Convention : Reuss Voigt Hill
#
# Bulk Modulus (GPa) = 69.54027 75.58200 72.56113
# Shear Modulus (GPa) = 37.01085 46.95052 41.98068
#
# Velocity S-wave (km/s) = 3.77124 4.24756 4.01647
# Velocity P-wave (km/s) = 6.75910 7.28696 7.02798
#
# Compressibility (1/GPa) = 0.01438016
#
# Stress axis : x y z
#
# Youngs Moduli (GPa) = 145.45477 172.92200 98.47325
#
# Poissons Ratio (x) = 0.21932 0.08406
# Poissons Ratio (y) = 0.18448 0.20625
# Poissons Ratio (z) = 0.12416 0.36219
#
# Static dielectric constant tensor:
#      x y z
#    x 2.200020 0.000000 0.000000 
#    y 0.000000 2.032390 0.000000 
#    z 0.000000 0.000000 2.152720 
# 
# From -- ./inp_files/19674.got.cif
#   From: 2010.05.17/outbox.cif.g08.bks.cpg/sg50_10_cif.got.tgz:19674.got - 2010.06.03 11:33:33.
