data_PCOD9398851
_publ_section_title
;
Structure prediction by ZEFSAII (Michael W. Deem and Ramdas Pophale) SiO2 
 PCOD9398851
Probable space group: P M M A
;
_chemical_formula_sum "Si O2"
_cell_formula_units_Z 56
_cell_length_a 19.208417
_cell_length_b 7.463680
_cell_length_c 18.249444
_cell_angle_alpha 90.000000
_cell_angle_beta 90.000000
_cell_angle_gamma 90.000000
_cell_volume 2616.340259
_symmetry_space_group_name_H-M "P M M A"
_symmetry_group_IT_number 51
_symmetry_cell_setting 'orthorhombic'
loop_
_space_group_symop_operation_xyz
x,y,z
1/2-x,-y,z
1/2+x,-y,-z
-x,y,-z
-x,-y,-z
1/2+x,y,-z
1/2-x,y,z
x,-y,z
loop_
_atom_site_type_symbol
_atom_site_label
_atom_site_fract_x
_atom_site_fract_y
_atom_site_fract_z
Si Si1 0.432856 0.205666 0.909456
Si Si2 0.902912 0.711324 0.360941
Si Si3 0.827502 0.717130 0.217441
Si Si4 0.921892 0.784658 0.518936
Si Si5 0.438634 0.205703 0.325156
Si Si6 0.074574 0.219260 0.160781
Si Si7 0.328708 0.218589 0.033231
O O1 0.384523 0.210154 0.837875
O O2 0.506739 0.283141 0.884520
O O3 0.446920 0.000000 0.931090
O O4 0.385324 0.283993 0.973998
O O5 0.913273 0.500000 0.352112
O O6 0.848250 0.769884 0.299796
O O7 0.880690 0.743745 0.444783
O O8 0.978383 0.794507 0.342416
O O9 0.750000 0.776586 0.197917
O O10 0.829242 0.500000 0.213024
O O11 0.904569 0.716578 0.600375
O O12 0.000000 0.718600 0.500000
O O13 0.925012 0.000000 0.524420
O O14 0.426874 0.284692 0.244619
O O15 0.414757 0.000000 0.320048
O O16 0.142298 0.264322 0.113522
O O17 0.069192 0.000000 0.163451
O O18 0.250000 0.280310 0.019495
O O19 0.327548 0.000000 0.028119
#
# Coordination Sequence:
#
# PCOD9398851 Si02
#       7
#     8   8   8   8   8   8   8
#     4  10  18  30  50  73  94 119 159 203 237 277
#     4  10  18  28  44  65  90 119 155 193 230 274
#     4  10  21  34  46  64  95 131 160 192 241 294
#     4   8  15  26  42  63  90 119 147 183 228 274
#     4   9  16  28  45  67  92 121 152 186 231 278
#     4   9  16  27  46  69  96 127 156 191 238 282
#     4   9  17  28  44  71 101 124 153 195 239 282
#
# _framework density 21.403945
#
# number of rings (size 3 to 8) (size 9 to 14) (size 15 to 20)
#    0.000    2.714    1.429    2.143    0.000    5.714 
#    0.000    0.000    0.000    3.429    0.000    2.000 
#    0.000    0.000    0.000    0.000    0.000    0.000 
#
# Total GULP energy -312263.160485 kJ/mol
# GULP energy per Si atom -5576.127866 kJ/mol
# Density = 2.135523 g / cm^3
# Si number density = 21.403945 Si / 1000 Ang^3
#
#
#
# Elastic Constant Matrix: (Units=GPa)
#
#
# Indices 1 2 3 4 5 6 
#
# 1 37.3818 -0.7957 38.0531 0.0000 0.0000 0.0000
# 2 -0.7957 63.5174 6.7253 0.0000 0.0000 0.0000
# 3 38.0531 6.7253 164.1896 0.0000 0.0000 0.0000
# 4 0.0000 0.0000 0.0000 -24.8178 0.0000 0.0000
# 5 0.0000 0.0000 0.0000 0.0000 -0.1795 0.0000
# 6 0.0000 0.0000 0.0000 0.0000 0.0000 -1.2514
#
#
#
# Elastic Compliance Matrix: (Units=1/GPa)
#
#
# Indices 1 2 3 4 5 6 
#
# 1 0.035119 0.001307 -0.008193 0.000000 0.000000 0.000000
# 2 0.001307 0.015861 -0.000953 0.000000 0.000000 0.000000
# 3 -0.008193 -0.000953 0.008028 0.000000 0.000000 0.000000
# 4 0.000000 0.000000 0.000000 -0.040294 0.000000 0.000000
# 5 0.000000 0.000000 0.000000 0.000000 -5.572108 0.000000
# 6 0.000000 0.000000 0.000000 0.000000 0.000000 -0.799121
#
#
# Mechanical properties :
#
#
# Convention : Reuss Voigt Hill
#
# Bulk Modulus (GPa) = 23.07770 39.22823 31.15297
# Shear Modulus (GPa) = -0.79084 9.49068 4.34992
#
# Velocity S-wave (km/s) = -0.60851 2.10801 1.42713
# Velocity P-wave (km/s) = 3.21118 4.92872 4.15957
#
# Compressibility (1/GPa) = 0.04333188
#
# Stress axis : x y z
#
# Youngs Moduli (GPa) = 28.47486 63.04788 124.55906
#
# Poissons Ratio (x) = -0.08243 1.02048
# Poissons Ratio (y) = -0.03723 0.11866
# Poissons Ratio (z) = 0.23329 0.06006
#
# Static dielectric constant tensor:
#      x y z
#    x 1.719870 0.000000 0.000000 
#    y 0.000000 1.825460 0.000000 
#    z 0.000000 0.000000 1.830380 
# 
# From -- ./inp_files/30482.got.cif
#   From: 2010.05.17/outbox.cif.g08.bks.cpg/sg51_16_cif.got.tgz:30482.got - 2010.06.03 11:52:47.
