data_PCOD9398166
_publ_section_title
;
Structure prediction by ZEFSAII (Michael W. Deem and Ramdas Pophale) SiO2 
 PCOD9398166
Probable space group: P B A N
;
_chemical_formula_sum "Si O2"
_cell_formula_units_Z 32
_cell_length_a 9.563974
_cell_length_b 9.794056
_cell_length_c 14.251940
_cell_angle_alpha 90.000000
_cell_angle_beta 90.000000
_cell_angle_gamma 90.000000
_cell_volume 1334.980601
_symmetry_space_group_name_H-M "P B A N"
_symmetry_group_IT_number 50
_space_group.IT_coordinate_system_code '2'
_symmetry_cell_setting 'orthorhombic'
loop_
_space_group_symop_operation_xyz
x,y,z
1/2-x,1/2-y,z
x,1/2-y,-z
1/2-x,y,-z
-x,-y,-z
1/2+x,1/2+y,-z
-x,1/2+y,z
1/2+x,-y,z
loop_
_atom_site_type_symbol
_atom_site_label
_atom_site_fract_x
_atom_site_fract_y
_atom_site_fract_z
Si Si1 0.516273 0.750000 0.000000
Si Si2 0.750000 0.541635 0.000000
Si Si3 0.573470 0.665389 0.597249
Si Si4 0.820409 0.121065 0.159423
Si Si5 0.374373 0.059511 0.334832
O O1 0.430266 0.817840 0.084631
O O2 0.622378 0.633078 0.034116
O O3 0.709814 0.451058 0.910782
O O4 0.580649 0.750000 0.500000
O O5 0.455451 0.550374 0.601191
O O6 0.552901 0.791841 0.669256
O O7 0.719310 0.592398 0.625382
O O8 0.750000 0.250000 0.209061
O O9 0.870160 0.012830 0.234601
#
# Coordination Sequence:
#
# PCOD9398166 Si02
#       5
#     4   4   8   8   8
#     4  11  25  42  70  98 143 203 254 318 374 457
#     4  11  25  42  70  96 147 207 246 320 382 448
#     4  11  27  55  78 116 159 200 259 321 407 472
#     4  12  26  45  69 108 150 197 265 312 384 449
#     4  11  28  45  82 114 153 204 259 328 377 483
#
# _framework density 23.970385
#
# number of rings (size 3 to 8) (size 9 to 14) (size 15 to 20)
#    0.000    0.750    2.500    3.000   10.500    2.000 
#    0.000    2.500    0.000    0.000    0.000    0.000 
#    0.000    0.000    0.000    0.000    0.000    0.000 
#
# Total GULP energy -178972.650074 kJ/mol
# GULP energy per Si atom -5592.895315 kJ/mol
# Density = 2.391583 g / cm^3
# Si number density = 23.970385 Si / 1000 Ang^3
#
#
#
# Elastic Constant Matrix: (Units=GPa)
#
#
# Indices 1 2 3 4 5 6 
#
# 1 97.4228 84.1598 53.8914 0.0000 0.0000 0.0000
# 2 84.1598 204.7784 67.9780 0.0000 0.0000 0.0000
# 3 53.8914 67.9780 129.4679 0.0000 0.0000 0.0000
# 4 0.0000 0.0000 0.0000 55.9098 0.0000 0.0000
# 5 0.0000 0.0000 0.0000 0.0000 27.8167 0.0000
# 6 0.0000 0.0000 0.0000 0.0000 0.0000 47.4628
#
#
#
# Elastic Compliance Matrix: (Units=1/GPa)
#
#
# Indices 1 2 3 4 5 6 
#
# 1 0.017689 -0.005844 -0.004294 0.000000 0.000000 0.000000
# 2 -0.005844 0.007845 -0.001686 0.000000 0.000000 0.000000
# 3 -0.004294 -0.001686 0.010397 0.000000 0.000000 0.000000
# 4 0.000000 0.000000 0.000000 0.017886 0.000000 0.000000
# 5 0.000000 0.000000 0.000000 0.000000 0.035950 0.000000
# 6 0.000000 0.000000 0.000000 0.000000 0.000000 0.021069
#
#
# Mechanical properties :
#
#
# Convention : Reuss Voigt Hill
#
# Bulk Modulus (GPa) = 81.42932 93.74749 87.58841
# Shear Modulus (GPa) = 36.08059 41.28051 38.68055
#
# Velocity S-wave (km/s) = 3.88392 4.15438 4.02142
# Velocity P-wave (km/s) = 7.35919 7.88710 7.62772
#
# Compressibility (1/GPa) = 0.01228059
#
# Stress axis : x y z
#
# Youngs Moduli (GPa) = 56.53372 127.47057 96.18181
#
# Poissons Ratio (x) = 0.74495 0.41305
# Poissons Ratio (y) = 0.33039 0.16220
# Poissons Ratio (z) = 0.24278 0.21497
#
# Static dielectric constant tensor:
#      x y z
#    x 1.926720 0.000000 0.000000 
#    y 0.000000 1.983510 0.000000 
#    z 0.000000 0.000000 1.955760 
# 
# From -- ./inp_files/25616.got.cif
#   From: 2010.05.17/outbox.cif.g08.bks.cpg/sg50_13_cif.got.tgz:25616.got - 2010.06.03 11:33:33.
