data_PCOD9398555
_publ_section_title
;
Structure prediction by ZEFSAII (Michael W. Deem and Ramdas Pophale) SiO2 
 PCOD9398555
Probable space group: P M M A
;
_chemical_formula_sum "Si O2"
_cell_formula_units_Z 64
_cell_length_a 29.563578
_cell_length_b 7.575325
_cell_length_c 16.298055
_cell_angle_alpha 90.000000
_cell_angle_beta 90.000000
_cell_angle_gamma 90.000000
_cell_volume 3650.009908
_symmetry_space_group_name_H-M "P M M A"
_symmetry_group_IT_number 51
_symmetry_cell_setting 'orthorhombic'
loop_
_space_group_symop_operation_xyz
x,y,z
1/2-x,-y,z
1/2+x,-y,-z
-x,y,-z
-x,-y,-z
1/2+x,y,-z
1/2-x,y,z
x,-y,z
loop_
_atom_site_type_symbol
_atom_site_label
_atom_site_fract_x
_atom_site_fract_y
_atom_site_fract_z
Si Si1 0.647211 0.790181 0.346628
Si Si2 0.449310 0.287911 0.592631
Si Si3 0.697841 0.213688 0.510140
Si Si4 0.302776 0.284092 0.171708
Si Si5 0.697972 0.711720 0.008004
Si Si6 0.801741 0.210848 0.186638
Si Si7 0.641389 0.709279 0.673281
Si Si8 0.550112 0.283974 0.596587
O O1 0.593692 0.763361 0.354180
O O2 0.671495 0.721017 0.429145
O O3 0.669389 0.719884 0.263109
O O4 0.655149 0.000000 0.347147
O O5 0.450659 0.500000 0.590414
O O6 0.499279 0.228183 0.619766
O O7 0.442177 0.229049 0.498167
O O8 0.750000 0.272291 0.510006
O O9 0.672154 0.267798 0.592628
O O10 0.697821 0.000000 0.508441
O O11 0.250000 0.232161 0.180964
O O12 0.302808 0.500000 0.173720
O O13 0.333063 0.219072 0.246855
O O14 0.319675 0.229256 0.080919
O O15 0.750000 0.776689 0.011357
O O16 0.699126 0.500000 0.004951
O O17 0.677725 0.757947 0.096221
O O18 0.750000 0.280926 0.189135
O O19 0.798713 0.000000 0.195363
O O20 0.636175 0.500000 0.686961
O O21 0.591539 0.779752 0.651811
O O22 0.550891 0.500000 0.597096
#
# Coordination Sequence:
#
# PCOD9398555 Si02
#       8
#     8   8   8   8   8   8   8   8
#     4  10  19  30  43  61  84 112 144 175 208 247
#     4   9  16  29  45  61  83 110 140 177 218 253
#     4  10  20  31  40  55  86 121 144 167 204 244
#     4   8  14  24  40  63  88 110 134 169 209 244
#     4   8  14  26  42  60  83 108 134 169 211 247
#     4   9  17  29  44  61  83 112 143 173 207 250
#     4  10  17  28  46  65  83 111 148 176 201 246
#     4   8  15  27  44  63  84 109 138 177 219 249
#
# _framework density 17.534198
#
# number of rings (size 3 to 8) (size 9 to 14) (size 15 to 20)
#    0.000    3.000    1.250    2.250    0.000    2.750 
#    0.000    2.500    0.000    4.500    0.000    0.875 
#    0.000    7.000    0.000    0.000    0.000    0.000 
#
# Total GULP energy -356593.041688 kJ/mol
# GULP energy per Si atom -5571.766276 kJ/mol
# Density = 1.749429 g / cm^3
# Si number density = 17.534198 Si / 1000 Ang^3
#
#
#
# Elastic Constant Matrix: (Units=GPa)
#
#
# Indices 1 2 3 4 5 6 
#
# 1 113.8819 -1.7338 84.0183 0.0000 0.0000 0.0000
# 2 -1.7338 35.9826 2.4183 0.0000 0.0000 0.0000
# 3 84.0183 2.4183 168.6317 0.0000 0.0000 0.0000
# 4 0.0000 0.0000 0.0000 14.6278 0.0000 0.0000
# 5 0.0000 0.0000 0.0000 0.0000 10.0116 0.0000
# 6 0.0000 0.0000 0.0000 0.0000 0.0000 11.5334
#
#
#
# Elastic Compliance Matrix: (Units=1/GPa)
#
#
# Indices 1 2 3 4 5 6 
#
# 1 0.013931 0.001139 -0.006957 0.000000 0.000000 0.000000
# 2 0.001139 0.027911 -0.000968 0.000000 0.000000 0.000000
# 3 -0.006957 -0.000968 0.009410 0.000000 0.000000 0.000000
# 4 0.000000 0.000000 0.000000 0.068363 0.000000 0.000000
# 5 0.000000 0.000000 0.000000 0.000000 0.099884 0.000000
# 6 0.000000 0.000000 0.000000 0.000000 0.000000 0.086704
#
#
# Mechanical properties :
#
#
# Convention : Reuss Voigt Hill
#
# Bulk Modulus (GPa) = 26.53905 54.21134 40.37519
# Shear Modulus (GPa) = 15.04498 22.82079 18.93288
#
# Velocity S-wave (km/s) = 2.93240 3.61155 3.28955
# Velocity P-wave (km/s) = 5.16079 6.95526 6.12411
#
# Compressibility (1/GPa) = 0.03768033
#
# Stress axis : x y z
#
# Youngs Moduli (GPa) = 71.78072 35.82802 106.26547
#
# Poissons Ratio (x) = -0.04080 0.73933
# Poissons Ratio (y) = -0.08175 0.10283
# Poissons Ratio (z) = 0.49941 0.03467
#
# Static dielectric constant tensor:
#      x y z
#    x 1.592910 0.000000 0.000000 
#    y 0.000000 1.656450 0.000000 
#    z 0.000000 0.000000 1.612900 
# 
# From -- ./inp_files/26711.got.cif
#   From: 2010.05.17/outbox.cif.g08.bks.cpg/sg51_14_cif.got.tgz:26711.got - 2010.06.03 11:52:47.
