data_PCOD9398722
_publ_section_title
;
Structure prediction by ZEFSAII (Michael W. Deem and Ramdas Pophale) SiO2 
 PCOD9398722
Probable space group: P M M A
;
_chemical_formula_sum "Si O2"
_cell_formula_units_Z 60
_cell_length_a 8.510472
_cell_length_b 24.951855
_cell_length_c 19.227212
_cell_angle_alpha 90.000000
_cell_angle_beta 90.000000
_cell_angle_gamma 90.000000
_cell_volume 4082.938140
_symmetry_space_group_name_H-M "P M M A"
_symmetry_group_IT_number 51
_symmetry_cell_setting 'orthorhombic'
loop_
_space_group_symop_operation_xyz
x,y,z
1/2-x,-y,z
1/2+x,-y,-z
-x,y,-z
-x,-y,-z
1/2+x,y,-z
1/2-x,y,z
x,-y,z
loop_
_atom_site_type_symbol
_atom_site_label
_atom_site_fract_x
_atom_site_fract_y
_atom_site_fract_z
Si Si1 0.560452 0.000000 0.420900
Si Si2 0.938261 0.670855 0.079159
Si Si3 0.439362 0.776381 0.839375
Si Si4 0.437950 0.835447 0.288614
Si Si5 0.061661 0.441731 0.079423
Si Si6 0.560620 0.058761 0.792431
Si Si7 0.938398 0.881857 0.421441
Si Si8 0.438350 0.116165 0.922170
O O1 0.500000 0.000000 0.500000
O O2 0.506858 0.941509 0.395086
O O3 0.750000 0.000000 0.418672
O O4 0.750000 0.670958 0.076000
O O5 0.991636 0.720932 0.125751
O O6 0.994212 0.613530 0.108783
O O7 0.000000 0.676671 0.000000
O O8 0.250000 0.776157 0.836055
O O9 0.504103 0.788935 0.762753
O O10 0.486346 0.826309 0.888931
O O11 0.250000 0.835671 0.289485
O O12 0.497046 0.890766 0.252271
O O13 0.500676 0.838347 0.366827
O O14 0.250000 0.438449 0.078403
O O15 0.016881 0.500000 0.110305
O O16 0.000000 0.442508 0.000000
O O17 0.750000 0.058874 0.789205
O O18 0.507959 0.071447 0.870888
O O19 0.503794 0.000000 0.769817
O O20 0.750000 0.881604 0.422907
O O21 0.000000 0.874672 0.500000
O O22 0.250000 0.113234 0.921322
O O23 0.500000 0.111479 0.000000
#
# Coordination Sequence:
#
# PCOD9398722 Si02
#       8
#     4   8   8   8   8   8   8   8
#     4   8  16  28  42  62  84 106 127 152 187 228
#     4  10  18  27  42  62  83 110 144 182 221 255
#     4   9  19  33  45  60  82 107 137 172 209 250
#     4  10  20  32  48  66  83 107 133 164 206 247
#     4   9  16  25  37  55  81 111 142 177 215 252
#     4   9  19  34  47  60  78 100 127 159 198 247
#     4  10  19  32  48  67  89 110 134 162 195 240
#     4  10  19  31  46  61  77  98 126 164 207 249
#
# _framework density 14.6953
#
# number of rings (size 3 to 8) (size 9 to 14) (size 15 to 20)
#    0.000    2.533    0.000    3.200    0.933    4.000 
#    0.000    0.000    0.000    0.000    0.000    0.000 
#    0.000    0.000    0.000    0.000    0.000    0.667 
#
# Total GULP energy -334327.536339 kJ/mol
# GULP energy per Si atom -5572.125606 kJ/mol
# Density = 1.466185 g / cm^3
# Si number density = 14.695300 Si / 1000 Ang^3
#
#
#
# Elastic Constant Matrix: (Units=GPa)
#
#
# Indices 1 2 3 4 5 6 
#
# 1 20.4478 18.3680 8.2067 0.0000 0.0000 0.0000
# 2 18.3680 94.3625 29.4026 0.0000 0.0000 0.0000
# 3 8.2067 29.4026 72.0843 0.0000 0.0000 0.0000
# 4 0.0000 0.0000 0.0000 12.3551 0.0000 0.0000
# 5 0.0000 0.0000 0.0000 0.0000 17.2623 0.0000
# 6 0.0000 0.0000 0.0000 0.0000 0.0000 18.5956
#
#
#
# Elastic Compliance Matrix: (Units=1/GPa)
#
#
# Indices 1 2 3 4 5 6 
#
# 1 0.059615 -0.010871 -0.002353 0.000000 0.000000 0.000000
# 2 -0.010871 0.014123 -0.004523 0.000000 0.000000 0.000000
# 3 -0.002353 -0.004523 0.015985 0.000000 0.000000 0.000000
# 4 0.000000 0.000000 0.000000 0.080938 0.000000 0.000000
# 5 0.000000 0.000000 0.000000 0.000000 0.057930 0.000000
# 6 0.000000 0.000000 0.000000 0.000000 0.000000 0.053776
#
#
# Mechanical properties :
#
#
# Convention : Reuss Voigt Hill
#
# Bulk Modulus (GPa) = 18.44029 33.20548 25.82288
# Shear Modulus (GPa) = 14.88375 18.37042 16.62709
#
# Velocity S-wave (km/s) = 3.18594 3.53949 3.36736
# Velocity P-wave (km/s) = 5.10973 6.27288 5.72094
#
# Compressibility (1/GPa) = 0.05422910
#
# Stress axis : x y z
#
# Youngs Moduli (GPa) = 16.77442 70.80737 62.55712
#
# Poissons Ratio (x) = 0.76975 0.14719
# Poissons Ratio (y) = 0.18236 0.28294
# Poissons Ratio (z) = 0.03947 0.32026
#
# Static dielectric constant tensor:
#      x y z
#    x 1.491240 0.000000 0.000000 
#    y 0.000000 1.515910 0.000000 
#    z 0.000000 0.000000 1.474020 
# 
# From -- ./inp_files/28583.got.cif
#   From: 2010.05.17/outbox.cif.g08.bks.cpg/sg51_15_cif.got.tgz:28583.got - 2010.06.03 11:52:47.
