data_PCOD9398929
_publ_section_title
;
Structure prediction by ZEFSAII (Michael W. Deem and Ramdas Pophale) SiO2 
 PCOD9398929
Probable space group: P M M A
;
_chemical_formula_sum "Si O2"
_cell_formula_units_Z 40
_cell_length_a 26.594247
_cell_length_b 9.197359
_cell_length_c 9.194182
_cell_angle_alpha 90.000000
_cell_angle_beta 90.000000
_cell_angle_gamma 90.000000
_cell_volume 2248.867836
_symmetry_space_group_name_H-M "P M M A"
_symmetry_group_IT_number 51
_symmetry_cell_setting 'orthorhombic'
loop_
_space_group_symop_operation_xyz
x,y,z
1/2-x,-y,z
1/2+x,-y,-z
-x,y,-z
-x,-y,-z
1/2+x,y,-z
1/2-x,y,z
x,-y,z
loop_
_atom_site_type_symbol
_atom_site_label
_atom_site_fract_x
_atom_site_fract_y
_atom_site_fract_z
Si Si1 0.250000 0.172830 0.089461
Si Si2 0.450075 0.826462 0.591405
Si Si3 0.750000 0.672059 0.600331
Si Si4 0.360904 0.671108 0.425067
Si Si5 0.350955 0.327169 0.079316
Si Si6 0.951783 0.325579 0.097784
O O1 0.250000 0.228181 0.256994
O O2 0.301657 0.240412 0.029058
O O3 0.250000 0.000000 0.080177
O O4 0.500000 0.788461 0.500000
O O5 0.401533 0.765655 0.507654
O O6 0.453245 0.754620 0.749260
O O7 0.447319 0.000000 0.603640
O O8 0.750000 0.500000 0.645818
O O9 0.696717 0.696169 0.523091
O O10 0.372434 0.500000 0.444884
O O11 0.360874 0.700663 0.251207
O O12 0.341157 0.500000 0.066429
O O13 0.400560 0.291027 0.988451
O O14 0.953011 0.500000 0.121050
O O15 0.000000 0.287136 0.000000
#
# Coordination Sequence:
#
# PCOD9398929 Si02
#       6
#     4   8   4   8   8   8
#     4  10  18  28  49  80 111 144 178 210 252 312
#     4  11  24  38  52  76 111 145 174 211 264 320
#     4   8  16  32  53  78 107 138 176 222 266 304
#     4   9  17  33  58  82 105 137 178 221 261 307
#     4   9  18  34  56  81 108 138 175 221 267 307
#     4  10  21  38  60  82 102 132 178 225 266 312
#
# _framework density 17.786728
#
# number of rings (size 3 to 8) (size 9 to 14) (size 15 to 20)
#    0.000    2.400    0.000    3.900    0.000    7.600 
#    0.000    1.000    0.000    2.400    0.000    0.000 
#    0.000    0.000    0.000    0.000    0.000    0.000 
#
# Total GULP energy -223156.714853 kJ/mol
# GULP energy per Si atom -5578.917871 kJ/mol
# Density = 1.774624 g / cm^3
# Si number density = 17.786728 Si / 1000 Ang^3
#
#
#
# Elastic Constant Matrix: (Units=GPa)
#
#
# Indices 1 2 3 4 5 6 
#
# 1 202.4998 88.1880 87.3137 0.0000 0.0000 0.0000
# 2 88.1880 59.8350 55.3666 0.0000 0.0000 0.0000
# 3 87.3137 55.3666 90.4839 0.0000 0.0000 0.0000
# 4 0.0000 0.0000 0.0000 14.9994 0.0000 0.0000
# 5 0.0000 0.0000 0.0000 0.0000 25.6406 0.0000
# 6 0.0000 0.0000 0.0000 0.0000 0.0000 11.6843
#
#
#
# Elastic Compliance Matrix: (Units=1/GPa)
#
#
# Indices 1 2 3 4 5 6 
#
# 1 0.013948 -0.018680 -0.002030 0.000000 0.000000 0.000000
# 2 -0.018680 0.063542 -0.020856 0.000000 0.000000 0.000000
# 3 -0.002030 -0.020856 0.025772 0.000000 0.000000 0.000000
# 4 0.000000 0.000000 0.000000 0.066669 0.000000 0.000000
# 5 0.000000 0.000000 0.000000 0.000000 0.039001 0.000000
# 6 0.000000 0.000000 0.000000 0.000000 0.000000 0.085585
#
#
# Mechanical properties :
#
#
# Convention : Reuss Voigt Hill
#
# Bulk Modulus (GPa) = 49.67230 90.50613 70.08921
# Shear Modulus (GPa) = 13.00868 18.59488 15.80178
#
# Velocity S-wave (km/s) = 2.70732 3.23683 2.98384
# Velocity P-wave (km/s) = 6.14492 8.06002 7.16673
#
# Compressibility (1/GPa) = 0.02013195
#
# Stress axis : x y z
#
# Youngs Moduli (GPa) = 71.69264 15.73751 38.80216
#
# Poissons Ratio (x) = 0.29398 0.07875
# Poissons Ratio (y) = 1.33921 0.80925
# Poissons Ratio (z) = 0.14551 0.32822
#
# Static dielectric constant tensor:
#      x y z
#    x 1.624360 0.000000 0.000000 
#    y 0.000000 1.585330 0.000000 
#    z 0.000000 0.000000 1.583730 
# 
# From -- ./inp_files/12192.got.cif
#   From: 2010.05.17/outbox.cif.g08.bks.cpg/sg51_7_cif.got.tgz:12192.got - 2010.06.03 11:52:47.
