data_PCOD9398288
_publ_section_title
;
Structure prediction by ZEFSAII (Michael W. Deem and Ramdas Pophale) SiO2 
 PCOD9398288
Probable space group: P B A N
;
_chemical_formula_sum "Si O2"
_cell_formula_units_Z 26
_cell_length_a 14.960463
_cell_length_b 14.013984
_cell_length_c 4.793899
_cell_angle_alpha 90.000000
_cell_angle_beta 90.000000
_cell_angle_gamma 90.000000
_cell_volume 1005.068198
_symmetry_space_group_name_H-M "P B A N"
_symmetry_group_IT_number 50
_space_group.IT_coordinate_system_code '2'
_symmetry_cell_setting 'orthorhombic'
loop_
_space_group_symop_operation_xyz
x,y,z
1/2-x,1/2-y,z
x,1/2-y,-z
1/2-x,y,-z
-x,-y,-z
1/2+x,1/2+y,-z
-x,1/2+y,z
1/2+x,-y,z
loop_
_atom_site_type_symbol
_atom_site_label
_atom_site_fract_x
_atom_site_fract_y
_atom_site_fract_z
Si Si1 0.419257 0.144363 0.430696
Si Si2 0.750000 0.250000 0.500000
Si Si3 0.353738 0.464344 0.074866
Si Si4 0.911017 0.341421 0.814114
O O1 0.383798 0.250000 0.500000
O O2 0.404314 0.115597 0.112138
O O3 0.518222 0.142586 0.565719
O O4 0.366748 0.064542 0.606400
O O5 0.815331 0.314422 0.683751
O O6 0.397628 0.564543 0.995930
O O7 0.250000 0.464663 0.000000
O O8 0.937981 0.250000 0.000000
#
# Coordination Sequence:
#
# PCOD9398288 Si02
#       4
#     8   2   8   8
#     4  12  27  50  77 110 154 205 257 318 382 456
#     4  12  26  44  84 106 164 192 258 336 410 464
#     4  12  28  48  79 112 153 205 260 314 382 462
#     4  12  27  49  76 118 155 200 257 329 406 464
#
# _framework density 25.868893
#
# number of rings (size 3 to 8) (size 9 to 14) (size 15 to 20)
#    0.000    0.000    1.538    7.846    8.615    3.692 
#    0.000    0.000    0.000    0.000    0.000    0.000 
#    0.000    0.000    0.000    0.000    0.000    0.000 
#
# Total GULP energy -146175.632149 kJ/mol
# GULP energy per Si atom -5622.139698 kJ/mol
# Density = 2.581001 g / cm^3
# Si number density = 25.868893 Si / 1000 Ang^3
#
#
#
# Elastic Constant Matrix: (Units=GPa)
#
#
# Indices 1 2 3 4 5 6 
#
# 1 136.1761 12.9709 7.8051 0.0000 0.0000 0.0000
# 2 12.9709 158.9000 9.2227 0.0000 0.0000 0.0000
# 3 7.8051 9.2227 87.1353 0.0000 0.0000 0.0000
# 4 0.0000 0.0000 0.0000 48.5879 0.0000 0.0000
# 5 0.0000 0.0000 0.0000 0.0000 43.3834 0.0000
# 6 0.0000 0.0000 0.0000 0.0000 0.0000 32.6585
#
#
#
# Elastic Compliance Matrix: (Units=1/GPa)
#
#
# Indices 1 2 3 4 5 6 
#
# 1 0.007433 -0.000572 -0.000605 0.000000 0.000000 0.000000
# 2 -0.000572 0.006376 -0.000624 0.000000 0.000000 0.000000
# 3 -0.000605 -0.000624 0.011597 0.000000 0.000000 0.000000
# 4 0.000000 0.000000 0.000000 0.020581 0.000000 0.000000
# 5 0.000000 0.000000 0.000000 0.000000 0.023050 0.000000
# 6 0.000000 0.000000 0.000000 0.000000 0.000000 0.030620
#
#
# Mechanical properties :
#
#
# Convention : Reuss Voigt Hill
#
# Bulk Modulus (GPa) = 45.86258 49.13432 47.49845
# Shear Modulus (GPa) = 45.23823 48.40678 46.82251
#
# Velocity S-wave (km/s) = 4.18634 4.33047 4.25902
# Velocity P-wave (km/s) = 6.41363 6.63617 6.52585
#
# Compressibility (1/GPa) = 0.02180427
#
# Stress axis : x y z
#
# Youngs Moduli (GPa) = 134.54297 156.83508 86.23188
#
# Poissons Ratio (x) = 0.08964 0.05219
# Poissons Ratio (y) = 0.07690 0.05378
# Poissons Ratio (z) = 0.08144 0.09781
#
# Static dielectric constant tensor:
#      x y z
#    x 2.016390 0.000000 0.000000 
#    y 0.000000 1.995620 0.000000 
#    z 0.000000 0.000000 1.973730 
# 
# From -- ./inp_files/2773.got.cif
#   From: 2010.05.17/outbox.cif.g08.bks.cpg/sg50_2_cif.got.tgz:2773.got - 2010.06.03 11:33:33.
