data_PCOD9398711
_publ_section_title
;
Structure prediction by ZEFSAII (Michael W. Deem and Ramdas Pophale) SiO2 
 PCOD9398711
Probable space group: P M M A
;
_chemical_formula_sum "Si O2"
_cell_formula_units_Z 56
_cell_length_a 8.943872
_cell_length_b 22.024528
_cell_length_c 18.839609
_cell_angle_alpha 90.000000
_cell_angle_beta 90.000000
_cell_angle_gamma 90.000000
_cell_volume 3711.112076
_symmetry_space_group_name_H-M "P M M A"
_symmetry_group_IT_number 51
_symmetry_cell_setting 'orthorhombic'
loop_
_space_group_symop_operation_xyz
x,y,z
1/2-x,-y,z
1/2+x,-y,-z
-x,y,-z
-x,-y,-z
1/2+x,y,-z
1/2-x,y,z
x,-y,z
loop_
_atom_site_type_symbol
_atom_site_label
_atom_site_fract_x
_atom_site_fract_y
_atom_site_fract_z
Si Si1 0.930496 0.569093 0.077317
Si Si2 0.930761 0.178745 0.577347
Si Si3 0.070968 0.315699 0.834414
Si Si4 0.077441 0.872550 0.203449
Si Si5 0.927766 0.069864 0.334453
Si Si6 0.578865 0.745943 0.708082
Si Si7 0.429668 0.805468 0.922306
O O1 0.750000 0.572367 0.071590
O O2 0.969830 0.500000 0.098337
O O3 0.980730 0.621036 0.131695
O O4 0.000000 0.580573 0.000000
O O5 0.750000 0.176919 0.575448
O O6 0.976412 0.233433 0.630729
O O7 0.000000 0.185794 0.500000
O O8 0.990961 0.116748 0.613028
O O9 0.250000 0.316419 0.831213
O O10 0.029504 0.259663 0.886573
O O11 0.010492 0.300825 0.756381
O O12 0.250000 0.890355 0.192496
O O13 0.077594 0.809118 0.247518
O O14 0.991623 0.918149 0.255507
O O15 0.995097 0.856682 0.130301
O O16 0.750000 0.081827 0.335015
O O17 0.953456 0.000000 0.354735
O O18 0.750000 0.725665 0.702105
O O19 0.250000 0.809299 0.925350
O O20 0.500000 0.809591 0.000000
#
# Coordination Sequence:
#
# PCOD9398711 Si02
#       7
#     8   8   8   8   8   8   8
#     4   9  17  28  40  57  85 120 156 190 222 256
#     4  10  20  33  49  69  93 119 144 172 211 255
#     4   9  17  27  41  61  84 114 149 183 218 256
#     4   9  17  30  46  63  84 110 141 177 218 260
#     4  10  20  33  49  68  89 115 146 176 207 248
#     4   8  16  29  44  63  85 110 140 175 213 254
#     4  10  18  27  41  62  86 110 141 181 224 267
#
# _framework density 15.089817
#
# number of rings (size 3 to 8) (size 9 to 14) (size 15 to 20)
#    0.000    2.714    0.000    3.000    0.000    6.571 
#    0.000    0.000    0.000    0.429    0.000    0.000 
#    0.000    0.571    0.000    1.286    0.000    2.000 
#
# Total GULP energy -311971.391482 kJ/mol
# GULP energy per Si atom -5570.917705 kJ/mol
# Density = 1.505547 g / cm^3
# Si number density = 15.089817 Si / 1000 Ang^3
#
#
#
# Elastic Constant Matrix: (Units=GPa)
#
#
# Indices 1 2 3 4 5 6 
#
# 1 42.4904 21.9035 42.8128 0.0000 0.0000 0.0000
# 2 21.9035 53.4956 48.5423 0.0000 0.0000 0.0000
# 3 42.8128 48.5423 136.2425 0.0000 0.0000 0.0000
# 4 0.0000 0.0000 0.0000 19.4631 0.0000 0.0000
# 5 0.0000 0.0000 0.0000 0.0000 28.8893 0.0000
# 6 0.0000 0.0000 0.0000 0.0000 0.0000 15.7447
#
#
#
# Elastic Compliance Matrix: (Units=1/GPa)
#
#
# Indices 1 2 3 4 5 6 
#
# 1 0.035951 -0.006604 -0.008944 0.000000 0.000000 0.000000
# 2 -0.006604 0.028837 -0.008199 0.000000 0.000000 0.000000
# 3 -0.008944 -0.008199 0.013072 0.000000 0.000000 0.000000
# 4 0.000000 0.000000 0.000000 0.051379 0.000000 0.000000
# 5 0.000000 0.000000 0.000000 0.000000 0.034615 0.000000
# 6 0.000000 0.000000 0.000000 0.000000 0.000000 0.063514
#
#
# Mechanical properties :
#
#
# Convention : Reuss Voigt Hill
#
# Bulk Modulus (GPa) = 32.93239 50.97172 41.95205
# Shear Modulus (GPa) = 17.54480 20.75075 19.14778
#
# Velocity S-wave (km/s) = 3.41353 3.71232 3.56606
# Velocity P-wave (km/s) = 6.11619 7.22685 6.69459
#
# Compressibility (1/GPa) = 0.03036524
#
# Stress axis : x y z
#
# Youngs Moduli (GPa) = 27.81545 34.67749 76.49999
#
# Poissons Ratio (x) = 0.22900 0.68425
# Poissons Ratio (y) = 0.18369 0.62725
# Poissons Ratio (z) = 0.24879 0.28433
#
# Static dielectric constant tensor:
#      x y z
#    x 1.510570 0.000000 0.000000 
#    y 0.000000 1.496760 0.000000 
#    z 0.000000 0.000000 1.494130 
# 
# From -- ./inp_files/28228.got.cif
#   From: 2010.05.17/outbox.cif.g08.bks.cpg/sg51_15_cif.got.tgz:28228.got - 2010.06.03 11:52:47.
