data_PCOD9398754
_publ_section_title
;
Structure prediction by ZEFSAII (Michael W. Deem and Ramdas Pophale) SiO2 
 PCOD9398754
Probable space group: P M M A
;
_chemical_formula_sum "Si O2"
_cell_formula_units_Z 64
_cell_length_a 20.226842
_cell_length_b 7.352214
_cell_length_c 19.944920
_cell_angle_alpha 90.000000
_cell_angle_beta 90.000000
_cell_angle_gamma 90.000000
_cell_volume 2966.050358
_symmetry_space_group_name_H-M "P M M A"
_symmetry_group_IT_number 51
_symmetry_cell_setting 'orthorhombic'
loop_
_space_group_symop_operation_xyz
x,y,z
1/2-x,-y,z
1/2+x,-y,-z
-x,y,-z
-x,-y,-z
1/2+x,y,-z
1/2-x,y,z
x,-y,z
loop_
_atom_site_type_symbol
_atom_site_label
_atom_site_fract_x
_atom_site_fract_y
_atom_site_fract_z
Si Si1 0.325093 0.778830 0.238883
Si Si2 0.970573 0.788471 0.432085
Si Si3 0.678103 0.718900 0.406949
Si Si4 0.951250 0.795483 0.172820
Si Si5 0.322205 0.280598 0.749681
Si Si6 0.538294 0.222637 0.705185
Si Si7 0.426194 0.787574 0.972141
Si Si8 0.674035 0.778835 0.914834
O O1 0.250000 0.720173 0.255234
O O2 0.384842 0.724795 0.287749
O O3 0.340422 0.722471 0.161904
O O4 0.324224 0.000000 0.238918
O O5 0.891271 0.780348 0.436454
O O6 0.999731 0.714718 0.361673
O O7 0.000000 0.706775 0.500000
O O8 0.009615 0.000000 0.569137
O O9 0.750000 0.780688 0.433734
O O10 0.678147 0.500000 0.410156
O O11 0.675542 0.769936 0.328483
O O12 0.882569 0.804070 0.212044
O O13 0.001757 0.714602 0.226773
O O14 0.933284 0.706822 0.102069
O O15 0.977132 0.000000 0.157368
O O16 0.250000 0.230218 0.776535
O O17 0.328066 0.500000 0.753030
O O18 0.534398 0.000000 0.706221
O O19 0.406074 0.000000 0.962989
O O20 0.500000 0.782358 0.000000
O O21 0.375994 0.713308 0.027928
O O22 0.750000 0.729412 0.929687
O O23 0.670382 0.000000 0.913865
#
# Coordination Sequence:
#
# PCOD9398754 Si02
#       8
#     8   8   8   8   8   8   8   8
#     4   8  13  22  38  57  79 115 156 189 228 278
#     4  10  20  33  49  73 105 134 157 192 246 297
#     4   9  18  34  55  75  96 127 167 204 236 279
#     4  10  18  27  44  68  92 122 156 194 240 283
#     4   9  18  32  48  67  93 123 156 196 238 280
#     4   9  16  27  41  61  90 119 153 193 228 274
#     4   9  16  24  35  56  87 119 149 185 232 281
#     4   8  13  21  32  48  75 110 145 182 224 269
#
# _framework density 21.577515999999999
#
# number of rings (size 3 to 8) (size 9 to 14) (size 15 to 20)
#    0.000    3.000    1.250    2.250    0.000    4.250 
#    0.000    3.125    0.000    2.625    0.000    0.000 
#    0.000    1.500    0.000    0.250    0.000    1.625 
#
# Total GULP energy -356863.356604 kJ/mol
# GULP energy per Si atom -5575.989947 kJ/mol
# Density = 2.152840 g / cm^3
# Si number density = 21.577516 Si / 1000 Ang^3
#
#
#
# Elastic Constant Matrix: (Units=GPa)
#
#
# Indices 1 2 3 4 5 6 
#
# 1 140.8478 -1.5048 65.5599 0.0000 0.0000 0.0000
# 2 -1.5048 75.8194 2.4977 0.0000 0.0000 0.0000
# 3 65.5599 2.4977 73.7351 0.0000 0.0000 0.0000
# 4 0.0000 0.0000 0.0000 -17.3995 0.0000 0.0000
# 5 0.0000 0.0000 0.0000 0.0000 32.0887 0.0000
# 6 0.0000 0.0000 0.0000 0.0000 0.0000 14.2594
#
#
#
# Elastic Compliance Matrix: (Units=1/GPa)
#
#
# Indices 1 2 3 4 5 6 
#
# 1 0.012140 0.000597 -0.010814 0.000000 0.000000 0.000000
# 2 0.000597 0.013233 -0.000979 0.000000 0.000000 0.000000
# 3 -0.010814 -0.000979 0.023210 0.000000 0.000000 0.000000
# 4 0.000000 0.000000 0.000000 -0.057473 0.000000 0.000000
# 5 0.000000 0.000000 0.000000 0.000000 0.031164 0.000000
# 6 0.000000 0.000000 0.000000 0.000000 0.000000 0.070129
#
#
# Mechanical properties :
#
#
# Convention : Reuss Voigt Hill
#
# Bulk Modulus (GPa) = 38.18071 47.05643 42.61857
# Shear Modulus (GPa) = 40.47724 20.71302 30.59513
#
# Velocity S-wave (km/s) = 4.33586 3.10164 3.76961
# Velocity P-wave (km/s) = 6.54212 5.88917 6.22422
#
# Compressibility (1/GPa) = 0.02619124
#
# Stress axis : x y z
#
# Youngs Moduli (GPa) = 82.37347 75.56667 43.08427
#
# Poissons Ratio (x) = -0.04513 0.46592
# Poissons Ratio (y) = -0.04919 0.04219
# Poissons Ratio (z) = 0.89079 0.07400
#
# Static dielectric constant tensor:
#      x y z
#    x 1.784130 0.000000 0.000000 
#    y 0.000000 1.852790 0.000000 
#    z 0.000000 0.000000 1.771700 
# 
# From -- ./inp_files/30321.got.cif
#   From: 2010.05.17/outbox.cif.g08.bks.cpg/sg51_16_cif.got.tgz:30321.got - 2010.06.03 11:52:47.
