data_PCOD9398739
_publ_section_title
;
Structure prediction by ZEFSAII (Michael W. Deem and Ramdas Pophale) SiO2 
 PCOD9398739
Probable space group: P M M A
;
_chemical_formula_sum "Si O2"
_cell_formula_units_Z 64
_cell_length_a 26.347262
_cell_length_b 7.875460
_cell_length_c 17.688250
_cell_angle_alpha 90.000000
_cell_angle_beta 90.000000
_cell_angle_gamma 90.000000
_cell_volume 3670.255414
_symmetry_space_group_name_H-M "P M M A"
_symmetry_group_IT_number 51
_symmetry_cell_setting 'orthorhombic'
loop_
_space_group_symop_operation_xyz
x,y,z
1/2-x,-y,z
1/2+x,-y,-z
-x,y,-z
-x,-y,-z
1/2+x,y,-z
1/2-x,y,z
x,-y,z
loop_
_atom_site_type_symbol
_atom_site_label
_atom_site_fract_x
_atom_site_fract_y
_atom_site_fract_z
Si Si1 0.446334 0.201829 0.663534
Si Si2 0.407461 0.801903 0.172938
Si Si3 0.993020 0.301963 0.085271
Si Si4 0.307086 0.792821 0.090632
Si Si5 0.192618 0.792484 0.916548
Si Si6 0.436152 0.301143 0.336532
Si Si7 0.398690 0.198853 0.815917
Si Si8 0.440836 0.705099 0.500736
O O1 0.502538 0.282397 0.665775
O O2 0.413955 0.269571 0.734031
O O3 0.421382 0.233812 0.581707
O O4 0.453911 0.000000 0.673032
O O5 0.454835 0.714238 0.131729
O O6 0.353426 0.736133 0.142942
O O7 0.413469 0.785365 0.262823
O O8 0.411221 0.000000 0.152229
O O9 0.979002 0.500000 0.079713
O O10 0.947999 0.213188 0.130871
O O11 0.000000 0.235206 0.000000
O O12 0.250000 0.736302 0.111282
O O13 0.306229 0.000000 0.092628
O O14 0.317122 0.742416 0.003580
O O15 0.250000 0.741878 0.896479
O O16 0.149544 0.728033 0.860085
O O17 0.191264 0.000000 0.916386
O O18 0.424072 0.500000 0.331566
O O19 0.419319 0.237213 0.419754
O O20 0.387543 0.000000 0.803810
O O21 0.500000 0.759270 0.500000
O O22 0.439735 0.500000 0.500748
#
# Coordination Sequence:
#
# PCOD9398739 Si02
#       8
#     8   8   8   8   8   8   8   8
#     4  10  18  27  42  67  95 121 152 191 230 270
#     4  11  20  30  48  71  93 120 153 192 235 275
#     4  11  23  34  44  62  92 129 160 185 223 276
#     4   8  15  28  46  68  91 116 151 194 236 275
#     4   8  14  27  47  68  90 118 153 193 233 271
#     4  10  19  31  45  63  92 125 156 187 224 277
#     4  10  19  30  46  70  95 120 153 191 230 273
#     4   8  16  29  44  61  85 122 157 184 223 272
#
# _framework density 17.437477999999999
#
# number of rings (size 3 to 8) (size 9 to 14) (size 15 to 20)
#    0.000    2.500    1.250    3.750    0.000    5.250 
#    0.000    0.000    0.000    1.875    0.000    6.125 
#    0.000    5.000    0.000    0.000    0.000    0.000 
#
# Total GULP energy -356728.443927 kJ/mol
# GULP energy per Si atom -5573.881936 kJ/mol
# Density = 1.739779 g / cm^3
# Si number density = 17.437478 Si / 1000 Ang^3
#
#
#
# Elastic Constant Matrix: (Units=GPa)
#
#
# Indices 1 2 3 4 5 6 
#
# 1 90.7359 -8.8903 65.0591 0.0000 0.0000 0.0000
# 2 -8.8903 16.0766 -7.3132 0.0000 0.0000 0.0000
# 3 65.0591 -7.3132 147.5047 0.0000 0.0000 0.0000
# 4 0.0000 0.0000 0.0000 25.8018 0.0000 0.0000
# 5 0.0000 0.0000 0.0000 0.0000 17.7029 0.0000
# 6 0.0000 0.0000 0.0000 0.0000 0.0000 31.1388
#
#
#
# Elastic Compliance Matrix: (Units=1/GPa)
#
#
# Indices 1 2 3 4 5 6 
#
# 1 0.016667 0.006008 -0.007053 0.000000 0.000000 0.000000
# 2 0.006008 0.065803 0.000612 0.000000 0.000000 0.000000
# 3 -0.007053 0.000612 0.009921 0.000000 0.000000 0.000000
# 4 0.000000 0.000000 0.000000 0.038757 0.000000 0.000000
# 5 0.000000 0.000000 0.000000 0.000000 0.056488 0.000000
# 6 0.000000 0.000000 0.000000 0.000000 0.000000 0.032114
#
#
# Mechanical properties :
#
#
# Convention : Reuss Voigt Hill
#
# Bulk Modulus (GPa) = 10.92586 39.11426 25.02006
# Shear Modulus (GPa) = 19.91044 28.62612 24.26828
#
# Velocity S-wave (km/s) = 3.38275 4.05612 3.73464
# Velocity P-wave (km/s) = 4.64076 6.66453 5.74250
#
# Compressibility (1/GPa) = 0.09152597
#
# Stress axis : x y z
#
# Youngs Moduli (GPa) = 59.99854 15.19679 100.79827
#
# Poissons Ratio (x) = -0.09131 0.71097
# Poissons Ratio (y) = -0.36049 -0.06174
# Poissons Ratio (z) = 0.42319 -0.00931
#
# Static dielectric constant tensor:
#      x y z
#    x 1.569870 0.000000 0.000000 
#    y 0.000000 1.629430 0.000000 
#    z 0.000000 0.000000 1.629070 
# 
# From -- ./inp_files/30913.got.cif
#   From: 2010.05.17/outbox.cif.g08.bks.cpg/sg51_16_cif.got.tgz:30913.got - 2010.06.03 11:52:47.
