data_PCOD9398449
_publ_section_title
;
Structure prediction by ZEFSAII (Michael W. Deem and Ramdas Pophale) SiO2 
 PCOD9398449
Probable space group: P M M A
;
_chemical_formula_sum "Si O2"
_cell_formula_units_Z 40
_cell_length_a 8.615282
_cell_length_b 27.172165
_cell_length_c 9.446839
_cell_angle_alpha 90.000000
_cell_angle_beta 90.000000
_cell_angle_gamma 90.000000
_cell_volume 2211.465938
_symmetry_space_group_name_H-M "P M M A"
_symmetry_group_IT_number 51
_symmetry_cell_setting 'orthorhombic'
loop_
_space_group_symop_operation_xyz
x,y,z
1/2-x,-y,z
1/2+x,-y,-z
-x,y,-z
-x,-y,-z
1/2+x,y,-z
1/2-x,y,z
x,-y,z
loop_
_atom_site_type_symbol
_atom_site_label
_atom_site_fract_x
_atom_site_fract_y
_atom_site_fract_z
Si Si1 0.937358 0.352058 0.657788
Si Si2 0.936429 0.257159 0.840289
Si Si3 0.062525 0.555555 0.157628
Si Si4 0.934953 0.154614 0.161281
Si Si5 0.064020 0.053798 0.161205
O O1 0.750000 0.352768 0.654154
O O2 0.983681 0.304102 0.747860
O O3 0.990465 0.401711 0.737103
O O4 0.000000 0.349709 0.500000
O O5 0.750000 0.254325 0.846677
O O6 0.001135 0.205809 0.778251
O O7 0.000000 0.262840 0.000000
O O8 0.250000 0.556700 0.152592
O O9 0.015058 0.500000 0.199511
O O10 0.000000 0.564778 0.000000
O O11 0.750000 0.155119 0.157340
O O12 0.994050 0.103368 0.227518
O O13 0.000000 0.154559 0.000000
O O14 0.250000 0.058248 0.155839
O O15 0.024718 0.000000 0.224425
O O16 0.000000 0.052423 0.000000
#
# Coordination Sequence:
#
# PCOD9398449 Si02
#       5
#     8   8   8   8   8
#     4  10  22  36  51  73 101 132 164 202 246 292
#     4  10  19  32  49  69  93 123 162 204 245 290
#     4   9  18  34  55  79 105 132 165 203 242 287
#     4  10  17  25  39  59  84 116 154 195 239 286
#     4   9  15  22  33  51  79 115 151 188 233 284
#
# _framework density 18.08755
#
# number of rings (size 3 to 8) (size 9 to 14) (size 15 to 20)
#    0.000    2.400    0.000    6.000    0.000    4.000 
#    0.000    0.000    0.000    0.000    0.000    0.000 
#    0.000    0.800    0.000    2.600    0.000    9.800 
#
# Total GULP energy -222965.809260 kJ/mol
# GULP energy per Si atom -5574.145232 kJ/mol
# Density = 1.804638 g / cm^3
# Si number density = 18.087550 Si / 1000 Ang^3
#
#
#
# Elastic Constant Matrix: (Units=GPa)
#
#
# Indices 1 2 3 4 5 6 
#
# 1 63.5077 54.2538 19.7413 0.0000 0.0000 0.0000
# 2 54.2538 218.2687 80.6340 0.0000 0.0000 0.0000
# 3 19.7413 80.6340 56.1162 0.0000 0.0000 0.0000
# 4 0.0000 0.0000 0.0000 -3.0245 0.0000 0.0000
# 5 0.0000 0.0000 0.0000 0.0000 20.0451 0.0000
# 6 0.0000 0.0000 0.0000 0.0000 0.0000 22.5237
#
#
#
# Elastic Compliance Matrix: (Units=1/GPa)
#
#
# Indices 1 2 3 4 5 6 
#
# 1 0.019993 -0.005054 0.000229 0.000000 0.000000 0.000000
# 2 -0.005054 0.011043 -0.014090 0.000000 0.000000 0.000000
# 3 0.000229 -0.014090 0.037985 0.000000 0.000000 0.000000
# 4 0.000000 0.000000 0.000000 -0.330638 0.000000 0.000000
# 5 0.000000 0.000000 0.000000 0.000000 0.049888 0.000000
# 6 0.000000 0.000000 0.000000 0.000000 0.000000 0.044398
#
#
# Mechanical properties :
#
#
# Convention : Reuss Voigt Hill
#
# Bulk Modulus (GPa) = 32.06047 71.90564 51.98306
# Shear Modulus (GPa) = -41.97919 20.12644 -10.92638
#
# Velocity S-wave (km/s) = -4.82279 3.33937 -2.46048
# Velocity P-wave (km/s) = 3.63988 7.39656 4.55304
#
# Compressibility (1/GPa) = 0.03119106
#
# Stress axis : x y z
#
# Youngs Moduli (GPa) = 50.01876 90.55701 26.32618
#
# Poissons Ratio (x) = 0.45767 -0.00603
# Poissons Ratio (y) = 0.25279 0.37092
# Poissons Ratio (z) = -0.01145 1.27590
#
# Static dielectric constant tensor:
#      x y z
#    x 1.609650 0.000000 0.000000 
#    y 0.000000 1.697870 0.000000 
#    z 0.000000 0.000000 1.567150 
# 
# From -- ./inp_files/5482.got.cif
#   From: 2010.05.17/outbox.cif.g08.bks.cpg/sg51_3_cif.got.tgz:5482.got - 2010.06.03 11:52:47.
