data_PCOD9398697
_publ_section_title
;
Structure prediction by ZEFSAII (Michael W. Deem and Ramdas Pophale) SiO2 
 PCOD9398697
Probable space group: P M M A
;
_chemical_formula_sum "Si O2"
_cell_formula_units_Z 52
_cell_length_a 8.594969
_cell_length_b 27.952719
_cell_length_c 13.987150
_cell_angle_alpha 90.000000
_cell_angle_beta 90.000000
_cell_angle_gamma 90.000000
_cell_volume 3360.451298
_symmetry_space_group_name_H-M "P M M A"
_symmetry_group_IT_number 51
_symmetry_cell_setting 'orthorhombic'
loop_
_space_group_symop_operation_xyz
x,y,z
1/2-x,-y,z
1/2+x,-y,-z
-x,y,-z
-x,-y,-z
1/2+x,y,-z
1/2-x,y,z
x,-y,z
loop_
_atom_site_type_symbol
_atom_site_label
_atom_site_fract_x
_atom_site_fract_y
_atom_site_fract_z
Si Si1 0.436234 0.199027 0.710495
Si Si2 0.936182 0.898457 0.394845
Si Si3 0.561687 0.500000 0.609137
Si Si4 0.063525 0.850664 0.104633
Si Si5 0.062253 0.053190 0.208315
Si Si6 0.562998 0.707869 0.608443
Si Si7 0.437767 0.397038 0.391472
O O1 0.250000 0.200284 0.714475
O O2 0.481666 0.155166 0.639826
O O3 0.502259 0.185052 0.813984
O O4 0.499407 0.248676 0.670512
O O5 0.750000 0.901381 0.395289
O O6 0.000000 0.908132 0.500000
O O7 0.002240 0.933558 0.313842
O O8 0.750000 0.500000 0.606875
O O9 0.500000 0.500000 0.500000
O O10 0.512264 0.448446 0.651891
O O11 0.250000 0.849630 0.103908
O O12 0.011140 0.903881 0.138685
O O13 0.000000 0.840029 0.000000
O O14 0.250000 0.053782 0.210171
O O15 0.010372 0.000000 0.180191
O O16 0.500000 0.712223 0.500000
O O17 0.750000 0.710157 0.605405
O O18 0.515138 0.655065 0.647378
O O19 0.500000 0.397252 0.500000
O O20 0.250000 0.397105 0.393570
#
# Coordination Sequence:
#
# PCOD9398697 Si02
#       7
#     8   8   4   8   8   8   8
#     4  10  20  33  48  66  87 113 146 182 219 259
#     4  10  20  32  47  66  88 116 148 179 212 251
#     4   8  12  20  32  46  68 102 143 184 219 250
#     4  10  20  35  54  73  92 113 138 170 210 257
#     4   9  19  35  52  70  92 116 142 172 206 246
#     4  10  18  27  40  61  88 118 151 186 223 261
#     4   8  14  22  33  50  74 106 145 184 219 254
#
# _framework density 15.474112
#
# number of rings (size 3 to 8) (size 9 to 14) (size 15 to 20)
#    0.000    2.615    0.000    2.308    0.000    5.231 
#    0.000    0.000    0.000    0.000    0.000    0.000 
#    0.000    0.000    0.000    0.692    0.000    7.000 
#
# Total GULP energy -289639.113885 kJ/mol
# GULP energy per Si atom -5569.982959 kJ/mol
# Density = 1.543889 g / cm^3
# Si number density = 15.474112 Si / 1000 Ang^3
#
#
#
# Elastic Constant Matrix: (Units=GPa)
#
#
# Indices 1 2 3 4 5 6 
#
# 1 22.9368 21.4074 12.5236 0.0000 0.0000 0.0000
# 2 21.4074 133.8716 29.4196 0.0000 0.0000 0.0000
# 3 12.5236 29.4196 61.8075 0.0000 0.0000 0.0000
# 4 0.0000 0.0000 0.0000 11.1643 0.0000 0.0000
# 5 0.0000 0.0000 0.0000 0.0000 18.1062 0.0000
# 6 0.0000 0.0000 0.0000 0.0000 0.0000 12.7111
#
#
#
# Elastic Compliance Matrix: (Units=1/GPa)
#
#
# Indices 1 2 3 4 5 6 
#
# 1 0.054322 -0.007000 -0.007675 0.000000 0.000000 0.000000
# 2 -0.007000 0.009245 -0.002982 0.000000 0.000000 0.000000
# 3 -0.007675 -0.002982 0.019154 0.000000 0.000000 0.000000
# 4 0.000000 0.000000 0.000000 0.089571 0.000000 0.000000
# 5 0.000000 0.000000 0.000000 0.000000 0.055230 0.000000
# 6 0.000000 0.000000 0.000000 0.000000 0.000000 0.078671
#
#
# Mechanical properties :
#
#
# Convention : Reuss Voigt Hill
#
# Bulk Modulus (GPa) = 21.09416 38.36857 29.73136
# Shear Modulus (GPa) = 13.99352 18.74734 16.37043
#
# Velocity S-wave (km/s) = 3.01045 3.48448 3.25610
# Velocity P-wave (km/s) = 5.07398 6.40609 5.77855
#
# Compressibility (1/GPa) = 0.04740648
#
# Stress axis : x y z
#
# Youngs Moduli (GPa) = 18.40876 108.17234 52.20911
#
# Poissons Ratio (x) = 0.75720 0.40071
# Poissons Ratio (y) = 0.12886 0.15568
# Poissons Ratio (z) = 0.14129 0.32256
#
# Static dielectric constant tensor:
#      x y z
#    x 1.538380 0.000000 0.000000 
#    y 0.000000 1.572920 0.000000 
#    z 0.000000 0.000000 1.467040 
# 
# From -- ./inp_files/14607.got.cif
#   From: 2010.05.17/outbox.cif.g08.bks.cpg/sg51_8_cif.got.tgz:14607.got - 2010.06.03 11:52:47.
