data_PCOD9398968
_publ_section_title
;
Structure prediction by ZEFSAII (Michael W. Deem and Ramdas Pophale) SiO2 
 PCOD9398968
Probable space group: P M M A
;
_chemical_formula_sum "Si O2"
_cell_formula_units_Z 64
_cell_length_a 9.433214
_cell_length_b 22.027102
_cell_length_c 18.782795
_cell_angle_alpha 90.000000
_cell_angle_beta 90.000000
_cell_angle_gamma 90.000000
_cell_volume 3902.808735
_symmetry_space_group_name_H-M "P M M A"
_symmetry_group_IT_number 51
_symmetry_cell_setting 'orthorhombic'
loop_
_space_group_symop_operation_xyz
x,y,z
1/2-x,-y,z
1/2+x,-y,-z
-x,y,-z
-x,-y,-z
1/2+x,y,-z
1/2-x,y,z
x,-y,z
loop_
_atom_site_type_symbol
_atom_site_label
_atom_site_fract_x
_atom_site_fract_y
_atom_site_fract_z
Si Si1 0.415818 0.432772 0.852916
Si Si2 0.581287 0.070288 0.572520
Si Si3 0.414016 0.736862 0.204720
Si Si4 0.915640 0.179817 0.673527
Si Si5 0.908468 0.746780 0.433925
Si Si6 0.414225 0.399589 0.570822
Si Si7 0.418136 0.691958 0.928131
Si Si8 0.581959 0.390920 0.716448
O O1 0.250000 0.426117 0.831031
O O2 0.434578 0.500000 0.883297
O O3 0.445530 0.378678 0.907544
O O4 0.513643 0.425030 0.783690
O O5 0.500000 0.087733 0.500000
O O6 0.750000 0.073623 0.559002
O O7 0.551599 0.114480 0.639303
O O8 0.545175 0.000000 0.588140
O O9 0.250000 0.731184 0.180897
O O10 0.431563 0.801250 0.244410
O O11 0.519029 0.727751 0.139367
O O12 0.435101 0.680336 0.260314
O O13 0.750000 0.192853 0.656463
O O14 0.017360 0.226279 0.634051
O O15 0.750000 0.769349 0.440732
O O16 0.907318 0.673916 0.433718
O O17 0.000000 0.767634 0.500000
O O18 0.500000 0.420292 0.500000
O O19 0.250000 0.421243 0.572478
O O20 0.499762 0.409589 0.644329
O O21 0.250000 0.700659 0.935324
O O22 0.500000 0.707453 0.000000
O O23 0.750000 0.402004 0.708360
#
# Coordination Sequence:
#
# PCOD9398968 Si02
#       8
#     8   8   8   8   8   8   8   8
#     4   9  19  35  53  73  97 126 159 191 224 267
#     4   9  18  31  45  62  89 129 174 214 250 286
#     4   9  18  31  47  68  94 123 154 190 234 283
#     4  10  18  29  45  64  90 122 159 203 244 283
#     4  10  19  27  38  58  86 117 151 190 234 281
#     4  10  19  29  42  61  87 118 151 189 234 284
#     4  10  20  34  53  75 101 130 156 184 223 273
#     4  10  18  30  48  68  93 121 152 194 239 284
#
# _framework density 16.398447000000001
#
# number of rings (size 3 to 8) (size 9 to 14) (size 15 to 20)
#    0.000    2.375    1.250    1.875    0.000    4.500 
#    0.000    0.000    0.000    0.375    0.000    0.000 
#    0.000    0.500    0.000    0.875    0.000    1.250 
#
# Total GULP energy -356630.722346 kJ/mol
# GULP energy per Si atom -5572.355037 kJ/mol
# Density = 1.636112 g / cm^3
# Si number density = 16.398447 Si / 1000 Ang^3
#
#
#
# Elastic Constant Matrix: (Units=GPa)
#
#
# Indices 1 2 3 4 5 6 
#
# 1 79.6972 19.7531 54.7509 0.0000 0.0000 0.0000
# 2 19.7531 57.8640 12.0285 0.0000 0.0000 0.0000
# 3 54.7509 12.0285 70.5369 0.0000 0.0000 0.0000
# 4 0.0000 0.0000 0.0000 9.3989 0.0000 0.0000
# 5 0.0000 0.0000 0.0000 0.0000 28.3730 0.0000
# 6 0.0000 0.0000 0.0000 0.0000 0.0000 14.3282
#
#
#
# Elastic Compliance Matrix: (Units=1/GPa)
#
#
# Indices 1 2 3 4 5 6 
#
# 1 0.028364 -0.005294 -0.021114 0.000000 0.000000 0.000000
# 2 -0.005294 0.018905 0.000885 0.000000 0.000000 0.000000
# 3 -0.021114 0.000885 0.030415 0.000000 0.000000 0.000000
# 4 0.000000 0.000000 0.000000 0.106395 0.000000 0.000000
# 5 0.000000 0.000000 0.000000 0.000000 0.035245 0.000000
# 6 0.000000 0.000000 0.000000 0.000000 0.000000 0.069793
#
#
# Mechanical properties :
#
#
# Convention : Reuss Voigt Hill
#
# Bulk Modulus (GPa) = 37.53845 42.35143 39.94494
# Shear Modulus (GPa) = 14.32496 18.52439 16.42467
#
# Velocity S-wave (km/s) = 2.95880 3.36466 3.16824
# Velocity P-wave (km/s) = 5.88335 6.40134 6.14780
#
# Compressibility (1/GPa) = 0.02663935
#
# Stress axis : x y z
#
# Youngs Moduli (GPa) = 35.25537 52.89593 32.87895
#
# Poissons Ratio (x) = 0.28002 0.69420
# Poissons Ratio (y) = 0.18663 -0.02910
# Poissons Ratio (z) = 0.74438 -0.04682
#
# Static dielectric constant tensor:
#      x y z
#    x 1.551570 0.000000 0.000000 
#    y 0.000000 1.579490 0.000000 
#    z 0.000000 0.000000 1.538500 
# 
# From -- ./inp_files/28633.got.cif
#   From: 2010.05.17/outbox.cif.g08.bks.cpg/sg51_15_cif.got.tgz:28633.got - 2010.06.03 11:52:47.
