data_PCOD9398658
_publ_section_title
;
Structure prediction by ZEFSAII (Michael W. Deem and Ramdas Pophale) SiO2 
 PCOD9398658
Probable space group: P M M A
;
_chemical_formula_sum "Si O2"
_cell_formula_units_Z 64
_cell_length_a 27.269639
_cell_length_b 9.028840
_cell_length_c 18.790347
_cell_angle_alpha 90.000000
_cell_angle_beta 90.000000
_cell_angle_gamma 90.000000
_cell_volume 4626.431603
_symmetry_space_group_name_H-M "P M M A"
_symmetry_group_IT_number 51
_symmetry_cell_setting 'orthorhombic'
loop_
_space_group_symop_operation_xyz
x,y,z
1/2-x,-y,z
1/2+x,-y,-z
-x,y,-z
-x,-y,-z
1/2+x,y,-z
1/2-x,y,z
x,-y,z
loop_
_atom_site_type_symbol
_atom_site_label
_atom_site_fract_x
_atom_site_fract_y
_atom_site_fract_z
Si Si1 0.949105 0.329634 0.044818
Si Si2 0.603750 0.177054 0.919038
Si Si3 0.193066 0.321792 0.161691
Si Si4 0.600395 0.679796 0.588118
Si Si5 0.548960 0.670904 0.450525
Si Si6 0.504921 0.822363 0.832884
Si Si7 0.991735 0.177032 0.667673
Si Si8 0.694973 0.679997 0.673756
O O1 0.934451 0.500000 0.053996
O O2 0.963593 0.254140 0.118976
O O3 0.910680 0.242606 0.995844
O O4 0.000000 0.326726 0.000000
O O5 0.653490 0.244451 0.888014
O O6 0.558305 0.216189 0.866055
O O7 0.606613 0.000000 0.922541
O O8 0.250000 0.286562 0.145277
O O9 0.187696 0.500000 0.157030
O O10 0.184240 0.278228 0.244347
O O11 0.596382 0.500000 0.591439
O O12 0.590782 0.721067 0.505746
O O13 0.557175 0.748394 0.635760
O O14 0.652258 0.726989 0.620610
O O15 0.500000 0.673599 0.500000
O O16 0.557191 0.500000 0.429747
O O17 0.536185 0.767494 0.382114
O O18 0.502381 0.781208 0.750172
O O19 0.499872 0.000000 0.839084
O O20 0.987268 0.000000 0.662974
O O21 0.750000 0.730551 0.655615
O O22 0.695654 0.500000 0.672839
#
# Coordination Sequence:
#
# PCOD9398658 Si02
#       8
#     8   8   8   8   8   8   8   8
#     4   9  17  28  42  59  77 100 131 162 192 231
#     4  10  18  28  42  57  78 107 133 160 195 234
#     4   9  17  28  41  58  80 104 133 169 199 224
#     4   9  16  26  40  56  76 103 133 164 196 231
#     4   8  15  26  37  52  75 101 129 161 196 231
#     4   9  18  29  39  56  81 105 130 161 197 233
#     4  10  18  26  38  56  78 104 133 162 192 231
#     4   8  14  25  41  59  77 100 132 167 199 228
#
# _framework density 13.833556
#
# number of rings (size 3 to 8) (size 9 to 14) (size 15 to 20)
#    0.000    3.000    0.000    3.375    0.000    5.500 
#    0.000    0.000    0.000    1.125    0.000    0.000 
#    0.000    1.000    0.000    9.250    0.000    2.500 
#
# Total GULP energy -356340.479085 kJ/mol
# GULP energy per Si atom -5567.819986 kJ/mol
# Density = 1.380207 g / cm^3
# Si number density = 13.833556 Si / 1000 Ang^3
#
#
#
# Elastic Constant Matrix: (Units=GPa)
#
#
# Indices 1 2 3 4 5 6 
#
# 1 88.3295 31.0618 58.1842 0.0000 0.0000 0.0000
# 2 31.0618 33.3181 41.1605 0.0000 0.0000 0.0000
# 3 58.1842 41.1605 108.0772 0.0000 0.0000 0.0000
# 4 0.0000 0.0000 0.0000 21.9604 0.0000 0.0000
# 5 0.0000 0.0000 0.0000 0.0000 27.3512 0.0000
# 6 0.0000 0.0000 0.0000 0.0000 0.0000 13.0269
#
#
#
# Elastic Compliance Matrix: (Units=1/GPa)
#
#
# Indices 1 2 3 4 5 6 
#
# 1 0.019043 -0.009609 -0.006592 0.000000 0.000000 0.000000
# 2 -0.009609 0.061531 -0.018260 0.000000 0.000000 0.000000
# 3 -0.006592 -0.018260 0.019756 0.000000 0.000000 0.000000
# 4 0.000000 0.000000 0.000000 0.045536 0.000000 0.000000
# 5 0.000000 0.000000 0.000000 0.000000 0.036562 0.000000
# 6 0.000000 0.000000 0.000000 0.000000 0.000000 0.076764
#
#
# Mechanical properties :
#
#
# Convention : Reuss Voigt Hill
#
# Bulk Modulus (GPa) = 31.84129 54.50423 43.17276
# Shear Modulus (GPa) = 14.76737 19.08892 16.92815
#
# Velocity S-wave (km/s) = 3.27081 3.71873 3.50194
# Velocity P-wave (km/s) = 6.10997 7.61079 6.90130
#
# Compressibility (1/GPa) = 0.03140576
#
# Stress axis : x y z
#
# Youngs Moduli (GPa) = 52.51309 16.25200 50.61766
#
# Poissons Ratio (x) = 0.15617 0.33368
# Poissons Ratio (y) = 0.50462 0.92430
# Poissons Ratio (z) = 0.34618 0.29677
#
# Static dielectric constant tensor:
#      x y z
#    x 1.446490 0.000000 0.000000 
#    y 0.000000 1.462300 0.000000 
#    z 0.000000 0.000000 1.451480 
# 
# From -- ./inp_files/30974.got.cif
#   From: 2010.05.17/outbox.cif.g08.bks.cpg/sg51_16_cif.got.tgz:30974.got - 2010.06.03 11:52:47.
