data_PCOD9398127
_publ_section_title
;
Structure prediction by ZEFSAII (Michael W. Deem and Ramdas Pophale) SiO2 
 PCOD9398127
Probable space group: P B A N
;
_chemical_formula_sum "Si O2"
_cell_formula_units_Z 56
_cell_length_a 14.478668
_cell_length_b 13.979134
_cell_length_c 12.030463
_cell_angle_alpha 90.000000
_cell_angle_beta 90.000000
_cell_angle_gamma 90.000000
_cell_volume 2434.956569
_symmetry_space_group_name_H-M "P B A N"
_symmetry_group_IT_number 50
_space_group.IT_coordinate_system_code '2'
_symmetry_cell_setting 'orthorhombic'
loop_
_space_group_symop_operation_xyz
x,y,z
1/2-x,1/2-y,z
x,1/2-y,-z
1/2-x,y,-z
-x,-y,-z
1/2+x,1/2+y,-z
-x,1/2+y,z
1/2+x,-y,z
loop_
_atom_site_type_symbol
_atom_site_label
_atom_site_fract_x
_atom_site_fract_y
_atom_site_fract_z
Si Si1 0.908306 0.599470 0.592933
Si Si2 0.222858 0.978671 0.702537
Si Si3 0.420989 0.463132 0.338328
Si Si4 0.352110 0.542885 0.947724
Si Si5 0.529618 0.851623 0.950374
Si Si6 0.840521 0.297136 0.618714
Si Si7 0.527725 0.738547 0.727348
O O1 0.813863 0.579384 0.659123
O O2 0.902971 0.575361 0.463140
O O3 0.933088 0.707818 0.619923
O O4 0.988824 0.530091 0.645744
O O5 0.333086 0.978023 0.705897
O O6 0.171861 0.951041 0.816533
O O7 0.184138 0.907456 0.608286
O O8 0.431898 0.368768 0.260502
O O9 0.399376 0.438813 0.967475
O O10 0.250000 0.552296 0.000000
O O11 0.430229 0.615476 0.997198
O O12 0.529039 0.818754 0.822373
O O13 0.559478 0.750000 0.000000
O O14 0.750000 0.250000 0.668457
O O15 0.858446 0.250000 0.500000
O O16 0.922721 0.282149 0.700142
#
# Coordination Sequence:
#
# PCOD9398127 Si02
#       7
#     8   8   8   8   8   8   8
#     4  11  24  44  68 106 147 197 241 294 367 444
#     4  12  25  46  70 107 146 195 239 307 372 434
#     4  11  26  41  74 102 152 194 241 295 369 452
#     4  11  28  50  76 107 145 191 250 315 386 441
#     4  11  27  50  77 106 143 191 256 312 369 453
#     4  11  25  40  71 108 144 184 248 296 357 438
#     4  12  24  46  72 104 145 193 241 306 369 431
#
# _framework density 22.998356999999999
#
# number of rings (size 3 to 8) (size 9 to 14) (size 15 to 20)
#    0.000    0.714    2.857    3.429   12.000    1.143 
#    0.000    1.429    0.000    0.000    0.000    0.000 
#    0.000    0.000    0.000    0.000    0.000    0.000 
#
# Total GULP energy -312864.252545 kJ/mol
# GULP energy per Si atom -5586.861653 kJ/mol
# Density = 2.294601 g / cm^3
# Si number density = 22.998357 Si / 1000 Ang^3
#
#
#
# Elastic Constant Matrix: (Units=GPa)
#
#
# Indices 1 2 3 4 5 6 
#
# 1 76.2985 -5.7673 7.7143 0.0000 0.0000 0.0000
# 2 -5.7673 81.4346 13.4849 0.0000 0.0000 0.0000
# 3 7.7143 13.4849 93.5144 0.0000 0.0000 0.0000
# 4 0.0000 0.0000 0.0000 38.7474 0.0000 0.0000
# 5 0.0000 0.0000 0.0000 0.0000 8.2562 0.0000
# 6 0.0000 0.0000 0.0000 0.0000 0.0000 31.7518
#
#
#
# Elastic Compliance Matrix: (Units=1/GPa)
#
#
# Indices 1 2 3 4 5 6 
#
# 1 0.013321 0.001153 -0.001265 0.000000 0.000000 0.000000
# 2 0.001153 0.012680 -0.001924 0.000000 0.000000 0.000000
# 3 -0.001265 -0.001924 0.011075 0.000000 0.000000 0.000000
# 4 0.000000 0.000000 0.000000 0.025808 0.000000 0.000000
# 5 0.000000 0.000000 0.000000 0.000000 0.121121 0.000000
# 6 0.000000 0.000000 0.000000 0.000000 0.000000 0.031494
#
#
# Mechanical properties :
#
#
# Convention : Reuss Voigt Hill
#
# Bulk Modulus (GPa) = 30.29832 31.34569 30.82201
# Shear Modulus (GPa) = 21.68507 31.47213 26.57860
#
# Velocity S-wave (km/s) = 3.07399 3.70327 3.40321
# Velocity P-wave (km/s) = 5.07956 5.65197 5.37339
#
# Compressibility (1/GPa) = 0.03300513
#
# Stress axis : x y z
#
# Youngs Moduli (GPa) = 75.06669 78.86452 90.29112
#
# Poissons Ratio (x) = -0.09093 0.11423
# Poissons Ratio (y) = -0.08655 0.17368
# Poissons Ratio (z) = 0.09497 0.15170
#
# Static dielectric constant tensor:
#      x y z
#    x 1.962450 0.000000 0.000000 
#    y 0.000000 1.972270 0.000000 
#    z 0.000000 0.000000 1.907690 
# 
# From -- ./inp_files/21145.got.cif
#   From: 2010.05.17/outbox.cif.g08.bks.cpg/sg50_11_cif.got.tgz:21145.got - 2010.06.03 11:33:33.
