data_PCOD9398619
_publ_section_title
;
Structure prediction by ZEFSAII (Michael W. Deem and Ramdas Pophale) SiO2 
 PCOD9398619
Probable space group: P M M A
;
_chemical_formula_sum "Si O2"
_cell_formula_units_Z 64
_cell_length_a 15.295816
_cell_length_b 20.641167
_cell_length_c 10.369610
_cell_angle_alpha 90.000000
_cell_angle_beta 90.000000
_cell_angle_gamma 90.000000
_cell_volume 3273.929485
_symmetry_space_group_name_H-M "P M M A"
_symmetry_group_IT_number 51
_symmetry_cell_setting 'orthorhombic'
loop_
_space_group_symop_operation_xyz
x,y,z
1/2-x,-y,z
1/2+x,-y,-z
-x,y,-z
-x,-y,-z
1/2+x,y,-z
1/2-x,y,z
x,-y,z
loop_
_atom_site_type_symbol
_atom_site_label
_atom_site_fract_x
_atom_site_fract_y
_atom_site_fract_z
Si Si1 0.601905 0.342251 0.532513
Si Si2 0.352660 0.572177 0.699720
Si Si3 0.352832 0.163893 0.244587
Si Si4 0.855984 0.309426 0.810577
Si Si5 0.642815 0.321063 0.099615
Si Si6 0.896716 0.802963 0.480798
Si Si7 0.144928 0.178640 0.809816
Si Si8 0.357270 0.926193 0.018241
O O1 0.500000 0.341672 0.500000
O O2 0.641095 0.397372 0.442446
O O3 0.615088 0.348759 0.685017
O O4 0.638987 0.270949 0.493579
O O5 0.250000 0.567086 0.730681
O O6 0.391140 0.500000 0.706704
O O7 0.389409 0.624670 0.800809
O O8 0.250000 0.167957 0.216540
O O9 0.388740 0.235224 0.208886
O O10 0.363193 0.156319 0.397454
O O11 0.386488 0.107709 0.151739
O O12 0.750000 0.308352 0.808349
O O13 0.883198 0.332895 0.951668
O O14 0.750000 0.320307 0.103381
O O15 0.613610 0.249435 0.143476
O O16 0.877190 0.829600 0.339949
O O17 0.000000 0.798770 0.500000
O O18 0.250000 0.179999 0.820996
O O19 0.114147 0.121280 0.902898
O O20 0.250000 0.927795 0.016843
O O21 0.386952 0.000000 0.005819
#
# Coordination Sequence:
#
# PCOD9398619 Si02
#       8
#     8   8   8   8   8   8   8   8
#     4  10  20  33  50  73 105 136 169 212 258 304
#     4  10  20  34  53  76 103 137 173 209 254 307
#     4   9  16  29  50  75 100 130 165 207 259 308
#     4   9  16  29  52  78 100 126 168 215 255 300
#     4   9  16  29  51  77 100 126 166 214 257 298
#     4  10  20  32  49  74 105 132 171 218 255 298
#     4  10  17  30  54  79 100 131 170 213 261 303
#     4   9  17  30  51  80 108 130 163 214 265 311
#
# _framework density 19.548375
#
# number of rings (size 3 to 8) (size 9 to 14) (size 15 to 20)
#    0.000    2.500    2.500    0.750    0.000    1.250 
#    0.000    2.500    0.000    8.250    0.000    0.000 
#    0.000    0.000    0.000    0.000    0.000    0.000 
#
# Total GULP energy -357002.482479 kJ/mol
# GULP energy per Si atom -5578.163789 kJ/mol
# Density = 1.950388 g / cm^3
# Si number density = 19.548375 Si / 1000 Ang^3
#
#
#
# Elastic Constant Matrix: (Units=GPa)
#
#
# Indices 1 2 3 4 5 6 
#
# 1 25.8005 7.4065 2.3267 0.0000 0.0000 0.0000
# 2 7.4065 139.1672 100.8089 0.0000 0.0000 0.0000
# 3 2.3267 100.8089 183.3051 0.0000 0.0000 0.0000
# 4 0.0000 0.0000 0.0000 0.7811 0.0000 0.0000
# 5 0.0000 0.0000 0.0000 0.0000 -6.4244 0.0000
# 6 0.0000 0.0000 0.0000 0.0000 0.0000 -8.6959
#
#
#
# Elastic Compliance Matrix: (Units=1/GPa)
#
#
# Indices 1 2 3 4 5 6 
#
# 1 0.039490 -0.002890 0.001088 0.000000 0.000000 0.000000
# 2 -0.002890 0.012155 -0.006648 0.000000 0.000000 0.000000
# 3 0.001088 -0.006648 0.009098 0.000000 0.000000 0.000000
# 4 0.000000 0.000000 0.000000 1.280247 0.000000 0.000000
# 5 0.000000 0.000000 0.000000 0.000000 -0.155657 0.000000
# 6 0.000000 0.000000 0.000000 0.000000 0.000000 -0.114996
#
#
# Mechanical properties :
#
#
# Convention : Reuss Voigt Hill
#
# Bulk Modulus (GPa) = 22.80838 63.26190 43.03514
# Shear Modulus (GPa) = 4.53782 12.98087 8.75934
#
# Velocity S-wave (km/s) = 1.52524 2.57969 2.11910
# Velocity P-wave (km/s) = 3.84640 6.42690 5.29622
#
# Compressibility (1/GPa) = 0.04384353
#
# Stress axis : x y z
#
# Youngs Moduli (GPa) = 25.32258 82.27055 109.91852
#
# Poissons Ratio (x) = 0.23774 -0.11959
# Poissons Ratio (y) = 0.07318 0.73074
# Poissons Ratio (z) = -0.02755 0.54693
#
# Static dielectric constant tensor:
#      x y z
#    x 1.740870 0.000000 0.000000 
#    y 0.000000 1.680550 0.000000 
#    z 0.000000 0.000000 1.688930 
# 
# From -- ./inp_files/10033.got.cif
#   From: 2010.05.17/outbox.cif.g08.bks.cpg/sg51_6_cif.got.tgz:10033.got - 2010.06.03 11:52:47.
