data_PCOD9398960
_publ_section_title
;
Structure prediction by ZEFSAII (Michael W. Deem and Ramdas Pophale) SiO2 
 PCOD9398960
Probable space group: P M M A
;
_chemical_formula_sum "Si O2"
_cell_formula_units_Z 64
_cell_length_a 18.714167
_cell_length_b 9.226934
_cell_length_c 26.700340
_cell_angle_alpha 90.000000
_cell_angle_beta 90.000000
_cell_angle_gamma 90.000000
_cell_volume 4610.464756
_symmetry_space_group_name_H-M "P M M A"
_symmetry_group_IT_number 51
_symmetry_cell_setting 'orthorhombic'
loop_
_space_group_symop_operation_xyz
x,y,z
1/2-x,-y,z
1/2+x,-y,-z
-x,y,-z
-x,-y,-z
1/2+x,y,-z
1/2-x,y,z
x,-y,z
loop_
_atom_site_type_symbol
_atom_site_label
_atom_site_fract_x
_atom_site_fract_y
_atom_site_fract_z
Si Si1 0.666022 0.672693 0.202492
Si Si2 0.167144 0.673783 0.998838
Si Si3 0.833331 0.672657 0.502108
Si Si4 0.958077 0.166705 0.553256
Si Si5 0.581351 0.326414 0.102457
Si Si6 0.334977 0.172019 0.693282
Si Si7 0.455705 0.833168 0.052364
Si Si8 0.085541 0.327191 0.602536
O O1 0.750000 0.697102 0.190860
O O2 0.657625 0.500000 0.211681
O O3 0.618429 0.712860 0.154692
O O4 0.648064 0.760940 0.252413
O O5 0.250000 0.715472 0.001537
O O6 0.161854 0.500000 0.004996
O O7 0.134591 0.707778 0.943895
O O8 0.117573 0.751597 0.039612
O O9 0.750000 0.711492 0.504483
O O10 0.840563 0.500000 0.510910
O O11 0.882678 0.758888 0.541001
O O12 0.864567 0.700031 0.446368
O O13 0.000000 0.167189 0.500000
O O14 0.008635 0.257982 0.589982
O O15 0.950705 0.000000 0.569301
O O16 0.570446 0.500000 0.101682
O O17 0.506897 0.247133 0.091599
O O18 0.250000 0.195856 0.684893
O O19 0.378849 0.252207 0.650200
O O20 0.348079 0.000000 0.692354
O O21 0.443849 0.000000 0.065904
O O22 0.500000 0.829536 0.000000
O O23 0.080210 0.500000 0.609023
#
# Coordination Sequence:
#
# PCOD9398960 Si02
#       8
#     8   8   8   8   8   8   8   8
#     4   9  17  29  44  61  81 106 138 174 208 242
#     4   9  16  26  41  60  81 106 137 171 205 241
#     4   9  17  28  42  61  84 110 141 174 206 243
#     4   9  17  28  41  59  83 109 137 170 208 248
#     4   9  16  27  43  60  79 106 139 172 205 241
#     4  10  20  31  42  59  84 111 139 173 210 245
#     4   9  17  27  38  55  80 108 136 166 201 242
#     4  10  18  29  45  61  80 110 145 176 207 243
#
# _framework density 13.881463999999999
#
# number of rings (size 3 to 8) (size 9 to 14) (size 15 to 20)
#    0.000    2.750    0.000    2.250    0.000    7.250 
#    0.000    0.000    0.000    2.250    0.000    0.000 
#    0.000    1.000    0.000    8.750    0.000    4.875 
#
# Total GULP energy -356627.602694 kJ/mol
# GULP energy per Si atom -5572.306292 kJ/mol
# Density = 1.384987 g / cm^3
# Si number density = 13.881464 Si / 1000 Ang^3
#
#
#
# Elastic Constant Matrix: (Units=GPa)
#
#
# Indices 1 2 3 4 5 6 
#
# 1 119.6107 66.3767 61.0065 0.0000 0.0000 0.0000
# 2 66.3767 71.3090 59.7605 0.0000 0.0000 0.0000
# 3 61.0065 59.7605 88.7408 0.0000 0.0000 0.0000
# 4 0.0000 0.0000 0.0000 17.0911 0.0000 0.0000
# 5 0.0000 0.0000 0.0000 0.0000 27.2399 0.0000
# 6 0.0000 0.0000 0.0000 0.0000 0.0000 19.4120
#
#
#
# Elastic Compliance Matrix: (Units=1/GPa)
#
#
# Indices 1 2 3 4 5 6 
#
# 1 0.017520 -0.014265 -0.002438 0.000000 0.000000 0.000000
# 2 -0.014265 0.043806 -0.019693 0.000000 0.000000 0.000000
# 3 -0.002438 -0.019693 0.026207 0.000000 0.000000 0.000000
# 4 0.000000 0.000000 0.000000 0.058510 0.000000 0.000000
# 5 0.000000 0.000000 0.000000 0.000000 0.036711 0.000000
# 6 0.000000 0.000000 0.000000 0.000000 0.000000 0.051515
#
#
# Mechanical properties :
#
#
# Convention : Reuss Voigt Hill
#
# Bulk Modulus (GPa) = 67.84250 72.66088 70.25169
# Shear Modulus (GPa) = 16.02694 18.91639 17.47166
#
# Velocity S-wave (km/s) = 3.40156 3.69549 3.55157
# Velocity P-wave (km/s) = 8.02536 8.40633 8.21805
#
# Compressibility (1/GPa) = 0.01474002
#
# Stress axis : x y z
#
# Youngs Moduli (GPa) = 57.07652 22.82796 38.15807
#
# Poissons Ratio (x) = 0.32565 0.09303
# Poissons Ratio (y) = 0.81421 0.75145
# Poissons Ratio (z) = 0.13915 0.44956
#
# Static dielectric constant tensor:
#      x y z
#    x 1.442340 0.000000 0.000000 
#    y 0.000000 1.462650 0.000000 
#    z 0.000000 0.000000 1.428820 
# 
# From -- ./inp_files/35890.got.cif
#   From: 2010.05.17/outbox.cif.g08.bks.cpg/sg51_18_cif.got.tgz:35890.got - 2010.06.03 11:52:47.
