data_PCOD9398500
_publ_section_title
;
Structure prediction by ZEFSAII (Michael W. Deem and Ramdas Pophale) SiO2 
 PCOD9398500
Probable space group: P M M A
;
_chemical_formula_sum "Si O2"
_cell_formula_units_Z 64
_cell_length_a 15.035127
_cell_length_b 8.567917
_cell_length_c 28.829398
_cell_angle_alpha 90.000000
_cell_angle_beta 90.000000
_cell_angle_gamma 90.000000
_cell_volume 3713.794984
_symmetry_space_group_name_H-M "P M M A"
_symmetry_group_IT_number 51
_symmetry_cell_setting 'orthorhombic'
loop_
_space_group_symop_operation_xyz
x,y,z
1/2-x,-y,z
1/2+x,-y,-z
-x,y,-z
-x,-y,-z
1/2+x,y,-z
1/2-x,y,z
x,-y,z
loop_
_atom_site_type_symbol
_atom_site_label
_atom_site_fract_x
_atom_site_fract_y
_atom_site_fract_z
Si Si1 0.147806 0.186876 0.299177
Si Si2 0.647363 0.313066 0.803158
Si Si3 0.460264 0.812951 0.110658
Si Si4 0.897447 0.323267 0.983246
Si Si5 0.530817 0.310797 0.617191
Si Si6 0.148025 0.689650 0.469998
Si Si7 0.345812 0.813014 0.921151
Si Si8 0.649273 0.309654 0.424393
O O1 0.250000 0.236028 0.310154
O O2 0.125948 0.252615 0.248328
O O3 0.080915 0.247271 0.338095
O O4 0.145666 0.000000 0.297640
O O5 0.750000 0.265620 0.813038
O O6 0.643366 0.500000 0.803663
O O7 0.582200 0.246446 0.841968
O O8 0.401570 0.753577 0.067194
O O9 0.562458 0.756143 0.102461
O O10 0.461028 0.000000 0.109815
O O11 0.863505 0.500000 0.980471
O O12 0.850929 0.230108 0.024472
O O13 0.000000 0.328744 0.000000
O O14 0.533555 0.500000 0.618741
O O15 0.583447 0.258845 0.570815
O O16 0.428567 0.261054 0.610224
O O17 0.250000 0.735270 0.460180
O O18 0.144939 0.500000 0.470310
O O19 0.126505 0.738476 0.522629
O O20 0.250000 0.754984 0.902926
O O21 0.346652 0.000000 0.916935
O O22 0.750000 0.258466 0.413872
O O23 0.650143 0.500000 0.424621
#
# Coordination Sequence:
#
# PCOD9398500 Si02
#       8
#     8   8   8   8   8   8   8   8
#     4  10  21  36  52  71  96 122 148 185 238 296
#     4  10  21  37  56  76  97 121 152 193 239 286
#     4  10  19  32  52  75 100 131 164 198 239 288
#     4   9  17  29  45  67  96 129 166 206 241 273
#     4  10  17  26  46  72  95 123 160 199 236 276
#     4   8  13  21  36  63  97 127 157 195 235 275
#     4   9  18  32  49  71 101 136 170 201 235 278
#     4   8  14  24  39  64  98 131 162 197 234 271
#
# _framework density 17.233046000000002
#
# number of rings (size 3 to 8) (size 9 to 14) (size 15 to 20)
#    0.000    2.750    0.000    3.000    0.000    6.250 
#    0.000    0.000    0.000    2.625    0.000    1.750 
#    0.000    0.000    0.000    0.000    0.000    0.000 
#
# Total GULP energy -356689.608662 kJ/mol
# GULP energy per Si atom -5573.275135 kJ/mol
# Density = 1.719382 g / cm^3
# Si number density = 17.233046 Si / 1000 Ang^3
#
#
#
# Elastic Constant Matrix: (Units=GPa)
#
#
# Indices 1 2 3 4 5 6 
#
# 1 111.2320 14.4431 85.6635 0.0000 0.0000 0.0000
# 2 14.4431 12.8733 18.1507 0.0000 0.0000 0.0000
# 3 85.6635 18.1507 117.0469 0.0000 0.0000 0.0000
# 4 0.0000 0.0000 0.0000 69.1399 0.0000 0.0000
# 5 0.0000 0.0000 0.0000 0.0000 21.2028 0.0000
# 6 0.0000 0.0000 0.0000 0.0000 0.0000 12.4488
#
#
#
# Elastic Compliance Matrix: (Units=1/GPa)
#
#
# Indices 1 2 3 4 5 6 
#
# 1 0.020660 -0.002381 -0.014751 0.000000 0.000000 0.000000
# 2 -0.002381 0.099692 -0.013717 0.000000 0.000000 0.000000
# 3 -0.014751 -0.013717 0.021467 0.000000 0.000000 0.000000
# 4 0.000000 0.000000 0.000000 0.014463 0.000000 0.000000
# 5 0.000000 0.000000 0.000000 0.000000 0.047164 0.000000
# 6 0.000000 0.000000 0.000000 0.000000 0.000000 0.080329
#
#
# Mechanical properties :
#
#
# Convention : Reuss Voigt Hill
#
# Bulk Modulus (GPa) = 12.48122 53.07409 32.77766
# Shear Modulus (GPa) = 13.43442 28.75128 21.09285
#
# Velocity S-wave (km/s) = 2.79511 4.08901 3.50233
# Velocity P-wave (km/s) = 4.20419 7.29096 5.95119
#
# Compressibility (1/GPa) = 0.08012037
#
# Stress axis : x y z
#
# Youngs Moduli (GPa) = 48.40355 10.03092 46.58389
#
# Poissons Ratio (x) = 0.02388 0.68716
# Poissons Ratio (y) = 0.11523 0.63900
# Poissons Ratio (z) = 0.71400 0.13760
#
# Static dielectric constant tensor:
#      x y z
#    x 1.625860 0.000000 0.000000 
#    y 0.000000 1.593340 0.000000 
#    z 0.000000 0.000000 1.548410 
# 
# From -- ./inp_files/35816.got.cif
#   From: 2010.05.17/outbox.cif.g08.bks.cpg/sg51_18_cif.got.tgz:35816.got - 2010.06.03 11:52:47.
