data_PCOD9398007
_publ_section_title
;
Structure prediction by ZEFSAII (Michael W. Deem and Ramdas Pophale) SiO2 
 PCOD9398007
Probable space group: P B A N
;
_chemical_formula_sum "Si O2"
_cell_formula_units_Z 24
_cell_length_a 12.260762
_cell_length_b 11.386169
_cell_length_c 8.709368
_cell_angle_alpha 90.000000
_cell_angle_beta 90.000000
_cell_angle_gamma 90.000000
_cell_volume 1215.854843
_symmetry_space_group_name_H-M "P B A N"
_symmetry_group_IT_number 50
_space_group.IT_coordinate_system_code '2'
_symmetry_cell_setting 'orthorhombic'
loop_
_space_group_symop_operation_xyz
x,y,z
1/2-x,1/2-y,z
x,1/2-y,-z
1/2-x,y,-z
-x,-y,-z
1/2+x,1/2+y,-z
-x,1/2+y,z
1/2+x,-y,z
loop_
_atom_site_type_symbol
_atom_site_label
_atom_site_fract_x
_atom_site_fract_y
_atom_site_fract_z
Si Si1 0.853862 0.684897 0.166914
Si Si2 0.414793 0.716966 0.678356
Si Si3 0.723844 0.083239 0.172695
O O1 0.750000 0.750000 0.240454
O O2 0.817417 0.549632 0.160108
O O3 0.964800 0.692031 0.261153
O O4 0.869243 0.750000 0.000000
O O5 0.412053 0.750000 0.500000
O O6 0.368985 0.831604 0.764187
O O7 0.330755 0.611935 0.723755
O O8 0.750000 0.119155 0.000000
#
# Coordination Sequence:
#
# PCOD9398007 Si02
#       3
#     8   8   8
#     4  11  24  44  68 100 132 168 230 279 320 382
#     4  11  26  45  66 100 138 178 217 266 338 407
#     4  11  22  44  73  94 130 177 224 275 325 384
#
# _framework density 19.739198999999999
#
# number of rings (size 3 to 8) (size 9 to 14) (size 15 to 20)
#    0.000    1.000    3.333    6.000    4.667    4.667 
#    6.000    0.000    0.000    0.000    0.000    0.000 
#    0.000    0.000    0.000    0.000    0.000    0.000 
#
# Total GULP energy -134019.807576 kJ/mol
# GULP energy per Si atom -5584.158649 kJ/mol
# Density = 1.969427 g / cm^3
# Si number density = 19.739199 Si / 1000 Ang^3
#
#
#
# Elastic Constant Matrix: (Units=GPa)
#
#
# Indices 1 2 3 4 5 6 
#
# 1 175.6725 75.0872 80.1021 0.0000 0.0000 0.0000
# 2 75.0872 178.3547 74.9152 0.0000 0.0000 0.0000
# 3 80.1021 74.9152 157.7976 0.0000 0.0000 0.0000
# 4 0.0000 0.0000 0.0000 -4.7824 0.0000 0.0000
# 5 0.0000 0.0000 0.0000 0.0000 119.0559 0.0000
# 6 0.0000 0.0000 0.0000 0.0000 0.0000 4.3562
#
#
#
# Elastic Compliance Matrix: (Units=1/GPa)
#
#
# Indices 1 2 3 4 5 6 
#
# 1 0.007975 -0.002070 -0.003066 0.000000 0.000000 0.000000
# 2 -0.002070 0.007541 -0.002529 0.000000 0.000000 0.000000
# 3 -0.003066 -0.002529 0.009094 0.000000 0.000000 0.000000
# 4 0.000000 0.000000 0.000000 -0.209102 0.000000 0.000000
# 5 0.000000 0.000000 0.000000 0.000000 0.008399 0.000000
# 6 0.000000 0.000000 0.000000 0.000000 0.000000 0.229559
#
#
# Mechanical properties :
#
#
# Convention : Reuss Voigt Hill
#
# Bulk Modulus (GPa) = 107.75435 108.00376 107.87905
# Shear Modulus (GPa) = 69.55189 42.50730 56.02959
#
# Velocity S-wave (km/s) = 5.94238 4.64556 5.33353
# Velocity P-wave (km/s) = 10.08911 9.14380 9.62806
#
# Compressibility (1/GPa) = 0.00928037
#
# Stress axis : x y z
#
# Youngs Moduli (GPa) = 125.39276 132.61637 109.96007
#
# Poissons Ratio (x) = 0.27448 0.33710
# Poissons Ratio (y) = 0.25953 0.27812
# Poissons Ratio (z) = 0.38441 0.33542
#
# Static dielectric constant tensor:
#      x y z
#    x 1.691850 0.000000 0.000000 
#    y 0.000000 1.756820 0.000000 
#    z 0.000000 0.000000 1.716570 
# 
# From -- ./inp_files/10334.got.cif
#   From: 2010.05.17/outbox.cif.g08.bks.cpg/sg50_6_cif.got.tgz:10334.got - 2010.06.03 11:33:33.
