data_PCOD9398275
_publ_section_title
;
Structure prediction by ZEFSAII (Michael W. Deem and Ramdas Pophale) SiO2 
 PCOD9398275
Probable space group: P B A N
;
_chemical_formula_sum "Si O2"
_cell_formula_units_Z 30
_cell_length_a 11.049414
_cell_length_b 21.105292
_cell_length_c 4.951315
_cell_angle_alpha 90.000000
_cell_angle_beta 90.000000
_cell_angle_gamma 90.000000
_cell_volume 1154.652149
_symmetry_space_group_name_H-M "P B A N"
_symmetry_group_IT_number 50
_space_group.IT_coordinate_system_code '2'
_symmetry_cell_setting 'orthorhombic'
loop_
_space_group_symop_operation_xyz
x,y,z
1/2-x,1/2-y,z
x,1/2-y,-z
1/2-x,y,-z
-x,-y,-z
1/2+x,1/2+y,-z
-x,1/2+y,z
1/2+x,-y,z
loop_
_atom_site_type_symbol
_atom_site_label
_atom_site_fract_x
_atom_site_fract_y
_atom_site_fract_z
Si Si1 0.934168 0.153782 0.330586
Si Si2 0.250000 0.421106 0.000000
Si Si3 0.901217 0.818080 0.152110
Si Si4 0.750000 0.250000 0.500000
Si Si5 0.126743 0.988953 0.651972
O O1 0.831901 0.206389 0.311572
O O2 0.869340 0.086460 0.342837
O O3 0.015947 0.177787 0.582339
O O4 0.020586 0.147929 0.076806
O O5 0.288507 0.364597 0.788587
O O6 0.357366 0.472029 0.931571
O O7 0.879295 0.750000 0.000000
O O8 0.250000 0.011156 0.500000
O O9 0.000000 0.000000 0.500000
#
# Coordination Sequence:
#
# PCOD9398275 Si02
#       5
#     8   4   8   2   8
#     4  12  27  46  79 111 157 203 269 337 413 483
#     4  12  29  46  82 111 166 216 272 334 416 493
#     4  12  26  50  76 115 154 210 269 340 407 490
#     4  12  24  50  76 112 148 210 262 342 410 490
#     4  12  27  49  76 116 162 216 271 336 409 496
#
# _framework density 25.981852
#
# number of rings (size 3 to 8) (size 9 to 14) (size 15 to 20)
#    0.000    0.000    6.667    2.000    3.733    4.267 
#    0.000    2.667    0.000    0.000    0.000    0.000 
#    0.000    0.000    0.000    0.000    0.000    0.000 
#
# Total GULP energy -167140.507804 kJ/mol
# GULP energy per Si atom -5571.350260 kJ/mol
# Density = 2.592272 g / cm^3
# Si number density = 25.981852 Si / 1000 Ang^3
#
#
#
# Elastic Constant Matrix: (Units=GPa)
#
#
# Indices 1 2 3 4 5 6 
#
# 1 150.1416 49.2281 59.0911 0.0000 0.0000 0.0000
# 2 49.2281 189.6664 18.5160 0.0000 0.0000 0.0000
# 3 59.0911 18.5160 140.3646 0.0000 0.0000 0.0000
# 4 0.0000 0.0000 0.0000-1169.6079 0.0000 0.0000
# 5 0.0000 0.0000 0.0000 0.0000 46.9589 0.0000
# 6 0.0000 0.0000 0.0000 0.0000 0.0000 53.0199
#
#
#
# Elastic Compliance Matrix: (Units=1/GPa)
#
#
# Indices 1 2 3 4 5 6 
#
# 1 0.008614 -0.001906 -0.003375 0.000000 0.000000 0.000000
# 2 -0.001906 0.005763 0.000042 0.000000 0.000000 0.000000
# 3 -0.003375 0.000042 0.008539 0.000000 0.000000 0.000000
# 4 0.000000 0.000000 0.000000 -0.000855 0.000000 0.000000
# 5 0.000000 0.000000 0.000000 0.000000 0.021295 0.000000
# 6 0.000000 0.000000 0.000000 0.000000 0.000000 0.018861
#
#
# Mechanical properties :
#
#
# Convention : Reuss Voigt Hill
#
# Bulk Modulus (GPa) = 80.39414 81.53811 80.96612
# Shear Modulus (GPa) = 65.06970 -190.37000 -62.65015
#
# Velocity S-wave (km/s) = 5.00986 -8.56910 -4.91583
# Velocity P-wave (km/s) = 8.02960 8.15200 0.99514
#
# Compressibility (1/GPa) = 0.01243872
#
# Stress axis : x y z
#
# Youngs Moduli (GPa) = 116.09590 173.51926 117.10389
#
# Poissons Ratio (x) = 0.33076 0.39519
# Poissons Ratio (y) = 0.22130 -0.00495
# Poissons Ratio (z) = 0.39179 -0.00733
#
# Static dielectric constant tensor:
#      x y z
#    x 2.094490 0.000000 0.000000 
#    y 0.000000 2.096170 0.000000 
#    z 0.000000 0.000000 2.251410 
# 
# From -- ./inp_files/1916.got.cif
#   From: 2010.05.17/outbox.cif.g08.bks.cpg/sg50_1_cif.got.tgz:1916.got - 2010.06.03 11:33:33.
