data_PCOD9398931
_publ_section_title
;
Structure prediction by ZEFSAII (Michael W. Deem and Ramdas Pophale) SiO2 
 PCOD9398931
Probable space group: P M M A
;
_chemical_formula_sum "Si O2"
_cell_formula_units_Z 48
_cell_length_a 31.688018
_cell_length_b 9.186070
_cell_length_c 9.130179
_cell_angle_alpha 90.000000
_cell_angle_beta 90.000000
_cell_angle_gamma 90.000000
_cell_volume 2657.688754
_symmetry_space_group_name_H-M "P M M A"
_symmetry_group_IT_number 51
_symmetry_cell_setting 'orthorhombic'
loop_
_space_group_symop_operation_xyz
x,y,z
1/2-x,-y,z
1/2+x,-y,-z
-x,y,-z
-x,-y,-z
1/2+x,y,-z
1/2-x,y,z
x,-y,z
loop_
_atom_site_type_symbol
_atom_site_label
_atom_site_fract_x
_atom_site_fract_y
_atom_site_fract_z
Si Si1 0.419250 0.326805 0.836078
Si Si2 0.343111 0.829116 0.678109
Si Si3 0.750000 0.327193 0.660444
Si Si4 0.334852 0.827195 0.329343
Si Si5 0.581112 0.173299 0.851965
Si Si6 0.750000 0.171577 0.348882
Si Si7 0.004289 0.827239 0.671692
O O1 0.420314 0.500000 0.838135
O O2 0.376672 0.268657 0.760087
O O3 0.458598 0.263229 0.745498
O O4 0.421432 0.262302 0.999110
O O5 0.343130 0.800864 0.502732
O O6 0.294662 0.805859 0.729577
O O7 0.353604 0.000000 0.699263
O O8 0.750000 0.500000 0.670973
O O9 0.793417 0.259543 0.720731
O O10 0.750000 0.273145 0.491266
O O11 0.376515 0.791036 0.237837
O O12 0.326632 0.000000 0.315291
O O13 0.539947 0.199877 0.752951
O O14 0.582105 0.000000 0.885144
O O15 0.750000 0.000000 0.397032
O O16 0.000000 0.794550 0.500000
O O17 0.013970 0.000000 0.685861
#
# Coordination Sequence:
#
# PCOD9398931 Si02
#       7
#     8   8   4   8   8   4   8
#     4  12  25  37  52  80 118 152 178 213 269 332
#     4   9  17  34  59  83 107 139 185 233 272 316
#     4  10  18  28  49  82 117 148 176 216 274 332
#     4   9  18  35  59  83 106 139 187 236 274 314
#     4  10  21  38  60  82 106 142 185 226 269 318
#     4   8  16  32  55  80 105 138 184 234 274 312
#     4  10  21  40  65  87 105 133 180 231 272 316
#
# _framework density 18.060804999999998
#
# number of rings (size 3 to 8) (size 9 to 14) (size 15 to 20)
#    0.000    2.167    0.000    4.750    0.000    9.000 
#    0.000    2.500    0.000    2.000    0.000    0.000 
#    0.000    0.000    0.000    0.000    0.000    0.000 
#
# Total GULP energy -267958.831265 kJ/mol
# GULP energy per Si atom -5582.475651 kJ/mol
# Density = 1.801970 g / cm^3
# Si number density = 18.060805 Si / 1000 Ang^3
#
#
#
# Elastic Constant Matrix: (Units=GPa)
#
#
# Indices 1 2 3 4 5 6 
#
# 1 185.1526 106.2356 89.1328 0.0000 0.0000 0.0000
# 2 106.2356 94.9418 78.8559 0.0000 0.0000 0.0000
# 3 89.1328 78.8559 105.9671 0.0000 0.0000 0.0000
# 4 0.0000 0.0000 0.0000 3.4887 0.0000 0.0000
# 5 0.0000 0.0000 0.0000 0.0000 -25.9685 0.0000
# 6 0.0000 0.0000 0.0000 0.0000 0.0000 8.3955
#
#
#
# Elastic Compliance Matrix: (Units=1/GPa)
#
#
# Indices 1 2 3 4 5 6 
#
# 1 0.015092 -0.016610 -0.000334 0.000000 0.000000 0.000000
# 2 -0.016610 0.045858 -0.020154 0.000000 0.000000 0.000000
# 3 -0.000334 -0.020154 0.024716 0.000000 0.000000 0.000000
# 4 0.000000 0.000000 0.000000 0.286642 0.000000 0.000000
# 5 0.000000 0.000000 0.000000 0.000000 -0.038508 0.000000
# 6 0.000000 0.000000 0.000000 0.000000 0.000000 0.119112
#
#
# Mechanical properties :
#
#
# Convention : Reuss Voigt Hill
#
# Bulk Modulus (GPa) = 87.18927 103.83448 95.51187
# Shear Modulus (GPa) = 9.41742 4.63895 7.02818
#
# Velocity S-wave (km/s) = 2.28596 1.60440 1.97480
# Velocity P-wave (km/s) = 7.43960 7.81336 7.62877
#
# Compressibility (1/GPa) = 0.01146930
#
# Stress axis : x y z
#
# Youngs Moduli (GPa) = 66.25993 21.80657 40.45962
#
# Poissons Ratio (x) = 0.36220 0.01353
# Poissons Ratio (y) = 1.10055 0.81543
# Poissons Ratio (z) = 0.02215 0.43950
#
# Static dielectric constant tensor:
#      x y z
#    x 1.628020 0.000000 0.000000 
#    y 0.000000 1.592990 0.000000 
#    z 0.000000 0.000000 1.594760 
# 
# From -- ./inp_files/12860.got.cif
#   From: 2010.05.17/outbox.cif.g08.bks.cpg/sg51_7_cif.got.tgz:12860.got - 2010.06.03 11:52:47.
