data_PCOD9398760
_publ_section_title
;
Structure prediction by ZEFSAII (Michael W. Deem and Ramdas Pophale) SiO2 
 PCOD9398760
Probable space group: P M M A
;
_chemical_formula_sum "Si O2"
_cell_formula_units_Z 64
_cell_length_a 16.040928
_cell_length_b 12.917167
_cell_length_c 17.848202
_cell_angle_alpha 90.000000
_cell_angle_beta 90.000000
_cell_angle_gamma 90.000000
_cell_volume 3698.207171
_symmetry_space_group_name_H-M "P M M A"
_symmetry_group_IT_number 51
_symmetry_cell_setting 'orthorhombic'
loop_
_space_group_symop_operation_xyz
x,y,z
1/2-x,-y,z
1/2+x,-y,-z
-x,y,-z
-x,-y,-z
1/2+x,y,-z
1/2-x,y,z
x,-y,z
loop_
_atom_site_type_symbol
_atom_site_label
_atom_site_fract_x
_atom_site_fract_y
_atom_site_fract_z
Si Si1 0.496575 0.753142 0.083440
Si Si2 0.586268 0.193976 0.687868
Si Si3 0.912839 0.119859 0.384483
Si Si4 0.844644 0.877144 0.132753
Si Si5 0.840298 0.273129 0.276032
Si Si6 0.503487 0.380040 0.767945
Si Si7 0.153403 0.121067 0.153770
Si Si8 0.155413 0.119139 0.457743
O O1 0.576737 0.829690 0.089196
O O2 0.500681 0.666726 0.148172
O O3 0.412546 0.816519 0.103335
O O4 0.500000 0.709557 0.000000
O O5 0.500378 0.142203 0.657310
O O6 0.564907 0.307302 0.719752
O O7 0.624742 0.135464 0.759485
O O8 0.642909 0.189961 0.614484
O O9 0.851915 0.204469 0.349537
O O10 0.907807 0.135277 0.473796
O O11 0.889181 0.000000 0.370879
O O12 0.750000 0.862157 0.101307
O O13 0.847469 0.812790 0.210069
O O14 0.855676 0.000000 0.144328
O O15 0.750000 0.322019 0.271584
O O16 0.912891 0.355695 0.266522
O O17 0.524382 0.500000 0.767019
O O18 0.250000 0.154802 0.145907
O O19 0.148768 0.000000 0.134788
O O20 0.250000 0.127749 0.486469
O O21 0.143843 0.000000 0.431612
#
# Coordination Sequence:
#
# PCOD9398760 Si02
#       8
#     8   8   8   8   8   8   8   8
#     4  10  21  35  52  75 102 129 160 204 257 310
#     4  10  19  32  51  70  96 133 175 219 256 292
#     4  10  18  27  44  74 109 139 166 198 241 297
#     4   9  17  29  47  73 105 139 170 196 230 290
#     4   9  17  29  47  71  99 130 162 200 246 295
#     4   9  20  37  55  73  89 116 165 216 261 307
#     4  10  20  33  51  76 106 142 179 209 242 295
#     4  10  19  29  45  73 107 140 170 200 242 299
#
# _framework density 17.305682999999998
#
# number of rings (size 3 to 8) (size 9 to 14) (size 15 to 20)
#    0.000    2.375    0.000    3.750    0.000    5.250 
#    0.000    1.250    0.000   15.375    0.000    5.250 
#    0.000    0.000    0.000    0.000    0.000    0.000 
#
# Total GULP energy -356597.421255 kJ/mol
# GULP energy per Si atom -5571.834707 kJ/mol
# Density = 1.726629 g / cm^3
# Si number density = 17.305683 Si / 1000 Ang^3
#
#
#
# Elastic Constant Matrix: (Units=GPa)
#
#
# Indices 1 2 3 4 5 6 
#
# 1 81.0061 23.3610 25.7789 0.0000 0.0000 0.0000
# 2 23.3610 80.1250 28.5761 0.0000 0.0000 0.0000
# 3 25.7789 28.5761 89.7691 0.0000 0.0000 0.0000
# 4 0.0000 0.0000 0.0000 5.6857 0.0000 0.0000
# 5 0.0000 0.0000 0.0000 0.0000 11.5387 0.0000
# 6 0.0000 0.0000 0.0000 0.0000 0.0000 11.6698
#
#
#
# Elastic Compliance Matrix: (Units=1/GPa)
#
#
# Indices 1 2 3 4 5 6 
#
# 1 0.014211 -0.003032 -0.003116 0.000000 0.000000 0.000000
# 2 -0.003032 0.014726 -0.003817 0.000000 0.000000 0.000000
# 3 -0.003116 -0.003817 0.013249 0.000000 0.000000 0.000000
# 4 0.000000 0.000000 0.000000 0.175880 0.000000 0.000000
# 5 0.000000 0.000000 0.000000 0.000000 0.086665 0.000000
# 6 0.000000 0.000000 0.000000 0.000000 0.000000 0.085691
#
#
# Mechanical properties :
#
#
# Convention : Reuss Voigt Hill
#
# Bulk Modulus (GPa) = 44.93045 45.14802 45.03924
# Shear Modulus (GPa) = 11.96832 17.32446 14.64639
#
# Velocity S-wave (km/s) = 2.63265 3.16743 2.91234
# Velocity P-wave (km/s) = 5.93804 6.28665 6.11483
#
# Compressibility (1/GPa) = 0.02225662
#
# Stress axis : x y z
#
# Youngs Moduli (GPa) = 70.36974 67.90806 75.47473
#
# Poissons Ratio (x) = 0.20590 0.23516
# Poissons Ratio (y) = 0.21336 0.28808
# Poissons Ratio (z) = 0.21925 0.25920
#
# Static dielectric constant tensor:
#      x y z
#    x 1.645250 0.000000 0.000000 
#    y 0.000000 1.540000 0.000000 
#    z 0.000000 0.000000 1.603040 
# 
# From -- ./inp_files/30286.got.cif
#   From: 2010.05.17/outbox.cif.g08.bks.cpg/sg51_16_cif.got.tgz:30286.got - 2010.06.03 11:52:47.
