data_PCOD9398083
_publ_section_title
;
Structure prediction by ZEFSAII (Michael W. Deem and Ramdas Pophale) SiO2 
 PCOD9398083
Probable space group: P B A N
;
_chemical_formula_sum "Si O2"
_cell_formula_units_Z 30
_cell_length_a 11.369868
_cell_length_b 22.342397
_cell_length_c 4.955416
_cell_angle_alpha 90.000000
_cell_angle_beta 90.000000
_cell_angle_gamma 90.000000
_cell_volume 1258.824845
_symmetry_space_group_name_H-M "P B A N"
_symmetry_group_IT_number 50
_space_group.IT_coordinate_system_code '2'
_symmetry_cell_setting 'orthorhombic'
loop_
_space_group_symop_operation_xyz
x,y,z
1/2-x,1/2-y,z
x,1/2-y,-z
1/2-x,y,-z
-x,-y,-z
1/2+x,1/2+y,-z
-x,1/2+y,z
1/2+x,-y,z
loop_
_atom_site_type_symbol
_atom_site_label
_atom_site_fract_x
_atom_site_fract_y
_atom_site_fract_z
Si Si1 0.750000 0.602251 0.000000
Si Si2 0.027816 0.042018 0.246742
Si Si3 0.872989 0.344662 0.615516
Si Si4 0.458651 0.250000 0.500000
Si Si5 0.750000 0.825105 0.500000
Si Si6 0.750000 0.250000 0.000000
O O1 0.692770 0.640304 0.245928
O O2 0.841340 0.564298 0.177841
O O3 0.947985 0.101151 0.269691
O O4 0.000000 0.000000 0.500000
O O5 0.000000 0.000000 0.000000
O O6 0.750000 0.368442 0.500000
O O7 0.953899 0.304093 0.416646
O O8 0.830648 0.294665 0.827101
O O9 0.356904 0.289107 0.349891
#
# Coordination Sequence:
#
# PCOD9398083 Si02
#       6
#     4   8   8   4   4   2
#     4  12  26  50  74 114 149 201 266 326 394 476
#     4  12  31  51  79 109 159 217 275 333 399 497
#     4  12  27  48  76 116 160 203 270 337 417 493
#     4  11  23  48  70 116 153 201 250 328 416 479
#     4  11  26  44  78 110 158 196 246 325 400 493
#     4  12  26  42  84 116 154 204 250 342 412 488
#
# _framework density 23.831748999999999
#
# number of rings (size 3 to 8) (size 9 to 14) (size 15 to 20)
#    0.000    0.267    5.333    1.600   11.200    2.133 
#    0.000    0.000    0.000    0.000    0.000    0.000 
#    0.000    0.000    0.000    0.000    0.000    0.000 
#
# Total GULP energy -167058.348464 kJ/mol
# GULP energy per Si atom -5568.611615 kJ/mol
# Density = 2.377751 g / cm^3
# Si number density = 23.831749 Si / 1000 Ang^3
#
#
#
# Elastic Constant Matrix: (Units=GPa)
#
#
# Indices 1 2 3 4 5 6 
#
# 1 174.3521 77.9648 39.4082 0.0000 0.0000 0.0000
# 2 77.9648 168.1580 66.4787 0.0000 0.0000 0.0000
# 3 39.4082 66.4787 145.9020 0.0000 0.0000 0.0000
# 4 0.0000 0.0000 0.0000 33.5854 0.0000 0.0000
# 5 0.0000 0.0000 0.0000 0.0000 35.8564 0.0000
# 6 0.0000 0.0000 0.0000 0.0000 0.0000 31.2254
#
#
#
# Elastic Compliance Matrix: (Units=1/GPa)
#
#
# Indices 1 2 3 4 5 6 
#
# 1 0.007268 -0.003164 -0.000522 0.000000 0.000000 0.000000
# 2 -0.003164 0.008630 -0.003078 0.000000 0.000000 0.000000
# 3 -0.000522 -0.003078 0.008397 0.000000 0.000000 0.000000
# 4 0.000000 0.000000 0.000000 0.029775 0.000000 0.000000
# 5 0.000000 0.000000 0.000000 0.000000 0.027889 0.000000
# 6 0.000000 0.000000 0.000000 0.000000 0.000000 0.032025
#
#
# Mechanical properties :
#
#
# Convention : Reuss Voigt Hill
#
# Bulk Modulus (GPa) = 92.85495 95.12394 93.98944
# Shear Modulus (GPa) = 38.13865 40.43745 39.28805
#
# Velocity S-wave (km/s) = 4.00475 4.12368 4.06465
# Velocity P-wave (km/s) = 7.77376 7.91672 7.84556
#
# Compressibility (1/GPa) = 0.01076949
#
# Stress axis : x y z
#
# Youngs Moduli (GPa) = 137.58815 115.87070 119.08721
#
# Poissons Ratio (x) = 0.36656 0.06212
# Poissons Ratio (y) = 0.43526 0.36653
# Poissons Ratio (z) = 0.07178 0.35663
#
# Static dielectric constant tensor:
#      x y z
#    x 1.985610 0.000000 0.000000 
#    y 0.000000 2.153500 0.000000 
#    z 0.000000 0.000000 1.954150 
# 
# From -- ./inp_files/2056.got.cif
#   From: 2010.05.17/outbox.cif.g08.bks.cpg/sg50_2_cif.got.tgz:2056.got - 2010.06.03 11:33:33.
