data_PCOD9398276
_publ_section_title
;
Structure prediction by ZEFSAII (Michael W. Deem and Ramdas Pophale) SiO2 
 PCOD9398276
Probable space group: P B A N
;
_chemical_formula_sum "Si O2"
_cell_formula_units_Z 28
_cell_length_a 18.421889
_cell_length_b 12.217784
_cell_length_c 4.993151
_cell_angle_alpha 90.000000
_cell_angle_beta 90.000000
_cell_angle_gamma 90.000000
_cell_volume 1123.831767
_symmetry_space_group_name_H-M "P B A N"
_symmetry_group_IT_number 50
_space_group.IT_coordinate_system_code '2'
_symmetry_cell_setting 'orthorhombic'
loop_
_space_group_symop_operation_xyz
x,y,z
1/2-x,1/2-y,z
x,1/2-y,-z
1/2-x,y,-z
-x,-y,-z
1/2+x,1/2+y,-z
-x,1/2+y,z
1/2+x,-y,z
loop_
_atom_site_type_symbol
_atom_site_label
_atom_site_fract_x
_atom_site_fract_y
_atom_site_fract_z
Si Si1 0.655129 0.581997 0.838366
Si Si2 0.750000 0.250000 0.500000
Si Si3 0.004620 0.673342 0.241659
Si Si4 0.750000 0.750000 0.500000
Si Si5 0.652605 0.438879 0.335230
O O1 0.571450 0.619641 0.838008
O O2 0.699859 0.678890 0.699249
O O3 0.662929 0.481477 0.634879
O O4 0.674306 0.534918 0.129839
O O5 0.698710 0.328094 0.321373
O O6 0.994204 0.750000 0.500000
O O7 0.068012 0.586929 0.293626
O O8 0.029620 0.750000 0.000000
#
# Coordination Sequence:
#
# PCOD9398276 Si02
#       5
#     8   2   8   2   8
#     4  12  28  51  80 113 154 205 259 316 389 457
#     4  12  30  52  76 116 168 200 262 318 392 478
#     4  12  24  50  82 111 149 202 257 326 379 445
#     4  12  30  52  76 116 168 200 262 318 392 478
#     4  12  28  51  80 113 154 205 259 316 389 457
#
# _framework density 24.914760999999999
#
# number of rings (size 3 to 8) (size 9 to 14) (size 15 to 20)
#    0.000    0.000    2.857    6.000    0.000    6.857 
#    0.000    0.000    0.000    0.000    0.000    0.000 
#    0.000    0.000    0.000    0.000    0.000    0.000 
#
# Total GULP energy -157267.738561 kJ/mol
# GULP energy per Si atom -5616.704949 kJ/mol
# Density = 2.485805 g / cm^3
# Si number density = 24.914761 Si / 1000 Ang^3
#
#
#
# Elastic Constant Matrix: (Units=GPa)
#
#
# Indices 1 2 3 4 5 6 
#
# 1 155.5414 47.1544 -3.9728 0.0000 0.0000 0.0000
# 2 47.1544 94.1006 7.0686 0.0000 0.0000 0.0000
# 3 -3.9728 7.0686 99.3425 0.0000 0.0000 0.0000
# 4 0.0000 0.0000 0.0000 50.7035 0.0000 0.0000
# 5 0.0000 0.0000 0.0000 0.0000 31.6731 0.0000
# 6 0.0000 0.0000 0.0000 0.0000 0.0000 100.4128
#
#
#
# Elastic Compliance Matrix: (Units=1/GPa)
#
#
# Indices 1 2 3 4 5 6 
#
# 1 0.007614 -0.003859 0.000579 0.000000 0.000000 0.000000
# 2 -0.003859 0.012640 -0.001054 0.000000 0.000000 0.000000
# 3 0.000579 -0.001054 0.010164 0.000000 0.000000 0.000000
# 4 0.000000 0.000000 0.000000 0.019722 0.000000 0.000000
# 5 0.000000 0.000000 0.000000 0.000000 0.031573 0.000000
# 6 0.000000 0.000000 0.000000 0.000000 0.000000 0.009959
#
#
# Mechanical properties :
#
#
# Convention : Reuss Voigt Hill
#
# Bulk Modulus (GPa) = 45.97498 49.94277 47.95887
# Shear Modulus (GPa) = 46.47314 56.47351 51.47333
#
# Velocity S-wave (km/s) = 4.32358 4.76612 4.55023
# Velocity P-wave (km/s) = 6.58919 7.09766 6.84815
#
# Compressibility (1/GPa) = 0.02175096
#
# Stress axis : x y z
#
# Youngs Moduli (GPa) = 131.34044 79.11548 98.38344
#
# Poissons Ratio (x) = 0.30529 -0.05697
# Poissons Ratio (y) = 0.50682 0.10367
# Poissons Ratio (z) = -0.07605 0.08336
#
# Static dielectric constant tensor:
#      x y z
#    x 1.993420 0.000000 0.000000 
#    y 0.000000 1.947070 0.000000 
#    z 0.000000 0.000000 1.901930 
# 
# From -- ./inp_files/4883.got.cif
#   From: 2010.05.17/outbox.cif.g08.bks.cpg/sg50_3_cif.got.tgz:4883.got - 2010.06.03 11:33:33.
