data_PCOD9398426
_publ_section_title
;
Structure prediction by ZEFSAII (Michael W. Deem and Ramdas Pophale) SiO2 
 PCOD9398426
Probable space group: P M M A
;
_chemical_formula_sum "Si O2"
_cell_formula_units_Z 56
_cell_length_a 20.808372
_cell_length_b 8.153741
_cell_length_c 18.825504
_cell_angle_alpha 90.000000
_cell_angle_beta 90.000000
_cell_angle_gamma 90.000000
_cell_volume 3194.049391
_symmetry_space_group_name_H-M "P M M A"
_symmetry_group_IT_number 51
_symmetry_cell_setting 'orthorhombic'
loop_
_space_group_symop_operation_xyz
x,y,z
1/2-x,-y,z
1/2+x,-y,-z
-x,y,-z
-x,-y,-z
1/2+x,y,-z
1/2-x,y,z
x,-y,z
loop_
_atom_site_type_symbol
_atom_site_label
_atom_site_fract_x
_atom_site_fract_y
_atom_site_fract_z
Si Si1 0.565168 0.304359 0.038235
Si Si2 0.543538 0.689931 0.342764
Si Si3 0.462283 0.194878 0.806647
Si Si4 0.599740 0.808227 0.637453
Si Si5 0.177777 0.198556 0.065992
Si Si6 0.075171 0.197822 0.513001
Si Si7 0.888989 0.799521 0.790788
O O1 0.560707 0.500000 0.041780
O O2 0.568273 0.238987 0.118276
O O3 0.500000 0.240839 0.000000
O O4 0.625751 0.256065 0.990796
O O5 0.525544 0.500000 0.348335
O O6 0.568296 0.726455 0.263797
O O7 0.477626 0.794370 0.350881
O O8 0.589204 0.734553 0.408818
O O9 0.537436 0.249291 0.808171
O O10 0.461548 0.000000 0.797466
O O11 0.611405 0.740906 0.558046
O O12 0.627748 0.739666 0.711155
O O13 0.617038 0.000000 0.634602
O O14 0.250000 0.253870 0.050307
O O15 0.155777 0.253330 0.144694
O O16 0.177052 0.000000 0.066299
O O17 0.000000 0.241049 0.500000
O O18 0.079560 0.000000 0.514962
O O19 0.887950 0.000000 0.788644
#
# Coordination Sequence:
#
# PCOD9398426 Si02
#       7
#     8   8   8   8   8   8   8
#     4  11  22  34  50  73  99 124 158 203 251 299
#     4  10  17  23  34  56  87 115 145 188 237 281
#     4  10  18  30  48  65  87 121 160 197 237 286
#     4   8  14  24  37  53  77 115 157 190 223 273
#     4  10  20  34  52  73  97 128 166 203 241 290
#     4   8  13  22  34  49  75 113 154 187 222 275
#     4   8  14  26  44  65  87 116 155 197 235 273
#
# _framework density 17.532603000000002
#
# number of rings (size 3 to 8) (size 9 to 14) (size 15 to 20)
#    0.000    2.714    1.429    3.857    0.000    3.429 
#    0.000    0.000    0.000    0.000    0.000    0.000 
#    0.000    1.143    0.000    8.571    0.000    3.857 
#
# Total GULP energy -311754.931050 kJ/mol
# GULP energy per Si atom -5567.052340 kJ/mol
# Density = 1.749270 g / cm^3
# Si number density = 17.532603 Si / 1000 Ang^3
#
#
#
# Elastic Constant Matrix: (Units=GPa)
#
#
# Indices 1 2 3 4 5 6 
#
# 1 46.5941 6.3713 40.6222 0.0000 0.0000 0.0000
# 2 6.3713 21.1781 12.9136 0.0000 0.0000 0.0000
# 3 40.6222 12.9136 176.2723 0.0000 0.0000 0.0000
# 4 0.0000 0.0000 0.0000 0.7591 0.0000 0.0000
# 5 0.0000 0.0000 0.0000 0.0000 11.4049 0.0000
# 6 0.0000 0.0000 0.0000 0.0000 0.0000 6.6696
#
#
#
# Elastic Compliance Matrix: (Units=1/GPa)
#
#
# Indices 1 2 3 4 5 6 
#
# 1 0.027276 -0.004577 -0.005950 0.000000 0.000000 0.000000
# 2 -0.004577 0.050195 -0.002622 0.000000 0.000000 0.000000
# 3 -0.005950 -0.002622 0.007236 0.000000 0.000000 0.000000
# 4 0.000000 0.000000 0.000000 1.317401 0.000000 0.000000
# 5 0.000000 0.000000 0.000000 0.000000 0.087682 0.000000
# 6 0.000000 0.000000 0.000000 0.000000 0.000000 0.149935
#
#
# Mechanical properties :
#
#
# Convention : Reuss Voigt Hill
#
# Bulk Modulus (GPa) = 17.12137 40.42875 28.77506
# Shear Modulus (GPa) = 2.96649 16.04252 9.50450
#
# Velocity S-wave (km/s) = 1.30217 3.02820 2.33084
# Velocity P-wave (km/s) = 3.47095 5.94440 4.86741
#
# Compressibility (1/GPa) = 0.05840652
#
# Stress axis : x y z
#
# Youngs Moduli (GPa) = 36.66280 19.92240 138.18973
#
# Poissons Ratio (x) = 0.09119 0.82228
# Poissons Ratio (y) = 0.16782 0.36239
# Poissons Ratio (z) = 0.21816 0.05224
#
# Static dielectric constant tensor:
#      x y z
#    x 1.561740 0.000000 0.000000 
#    y 0.000000 1.613860 0.000000 
#    z 0.000000 0.000000 1.673110 
# 
# From -- ./inp_files/30467.got.cif
#   From: 2010.05.17/outbox.cif.g08.bks.cpg/sg51_16_cif.got.tgz:30467.got - 2010.06.03 11:52:47.
