data_PCOD9398724
_publ_section_title
;
Structure prediction by ZEFSAII (Michael W. Deem and Ramdas Pophale) SiO2 
 PCOD9398724
Probable space group: P M M A
;
_chemical_formula_sum "Si O2"
_cell_formula_units_Z 56
_cell_length_a 27.779085
_cell_length_b 7.575011
_cell_length_c 15.062554
_cell_angle_alpha 90.000000
_cell_angle_beta 90.000000
_cell_angle_gamma 90.000000
_cell_volume 3169.566159
_symmetry_space_group_name_H-M "P M M A"
_symmetry_group_IT_number 51
_symmetry_cell_setting 'orthorhombic'
loop_
_space_group_symop_operation_xyz
x,y,z
1/2-x,-y,z
1/2+x,-y,-z
-x,y,-z
-x,-y,-z
1/2+x,y,-z
1/2-x,y,z
x,-y,z
loop_
_atom_site_type_symbol
_atom_site_label
_atom_site_fract_x
_atom_site_fract_y
_atom_site_fract_z
Si Si1 0.613973 0.707700 0.244733
Si Si2 0.433867 0.787602 0.927808
Si Si3 0.565188 0.783630 0.683894
Si Si4 0.882247 0.213253 0.516412
Si Si5 0.542099 0.784482 0.879312
Si Si6 0.036960 0.797475 0.617194
Si Si7 0.304004 0.290242 0.625816
O O1 0.610403 0.500000 0.264104
O O2 0.607484 0.732331 0.140175
O O3 0.568463 0.795386 0.293230
O O4 0.661754 0.776580 0.294102
O O5 0.486220 0.729048 0.890481
O O6 0.434747 0.000000 0.928391
O O7 0.431333 0.728839 0.030132
O O8 0.608006 0.731476 0.617501
O O9 0.564383 0.725433 0.786087
O O10 0.515083 0.721908 0.638970
O O11 0.564048 0.000000 0.685656
O O12 0.927393 0.279928 0.456752
O O13 0.833913 0.264015 0.464950
O O14 0.883716 0.000000 0.513632
O O15 0.541794 0.000000 0.878404
O O16 0.028339 0.000000 0.590649
O O17 0.250000 0.216836 0.623731
O O18 0.300013 0.500000 0.638922
#
# Coordination Sequence:
#
# PCOD9398724 Si02
#       7
#     8   8   8   8   8   8   8
#     4  10  18  27  42  63  84 107 140 181 220 251
#     4   9  15  26  42  60  82 114 150 174 198 239
#     4   9  14  23  40  62  87 115 144 171 198 238
#     4   9  17  26  42  67  87 105 137 179 214 240
#     4   8  14  23  40  61  83 116 152 172 187 235
#     4   9  15  25  40  58  84 117 145 167 196 244
#     4   9  19  35  49  60  80 111 141 170 214 271
#
# _framework density 17.668033000000001
#
# number of rings (size 3 to 8) (size 9 to 14) (size 15 to 20)
#    0.000    3.000    1.429    1.714    0.000    2.571 
#    0.000    2.143    0.000    3.429    0.000    1.000 
#    0.000    5.714    0.000    0.000    0.000    0.000 
#
# Total GULP energy -311952.943523 kJ/mol
# GULP energy per Si atom -5570.588277 kJ/mol
# Density = 1.762782 g / cm^3
# Si number density = 17.668033 Si / 1000 Ang^3
#
#
#
# Elastic Constant Matrix: (Units=GPa)
#
#
# Indices 1 2 3 4 5 6 
#
# 1 101.9379 3.5337 67.6975 0.0000 0.0000 0.0000
# 2 3.5337 41.1314 1.3279 0.0000 0.0000 0.0000
# 3 67.6975 1.3279 133.6873 0.0000 0.0000 0.0000
# 4 0.0000 0.0000 0.0000 -12.9452 0.0000 0.0000
# 5 0.0000 0.0000 0.0000 0.0000 10.5007 0.0000
# 6 0.0000 0.0000 0.0000 0.0000 0.0000 11.2702
#
#
#
# Elastic Compliance Matrix: (Units=1/GPa)
#
#
# Indices 1 2 3 4 5 6 
#
# 1 0.014824 -0.001032 -0.007496 0.000000 0.000000 0.000000
# 2 -0.001032 0.024392 0.000280 0.000000 0.000000 0.000000
# 3 -0.007496 0.000280 0.011273 0.000000 0.000000 0.000000
# 4 0.000000 0.000000 0.000000 -0.077249 0.000000 0.000000
# 5 0.000000 0.000000 0.000000 0.000000 0.095231 0.000000
# 6 0.000000 0.000000 0.000000 0.000000 0.000000 0.088730
#
#
# Mechanical properties :
#
#
# Convention : Reuss Voigt Hill
#
# Bulk Modulus (GPa) = 29.41730 46.87498 38.14614
# Shear Modulus (GPa) = 27.02281 15.37831 21.20056
#
# Velocity S-wave (km/s) = 3.91509 2.95346 3.46777
# Velocity P-wave (km/s) = 6.09290 6.18216 6.13769
#
# Compressibility (1/GPa) = 0.03399360
#
# Stress axis : x y z
#
# Youngs Moduli (GPa) = 67.45768 40.99717 88.70367
#
# Poissons Ratio (x) = 0.04229 0.66497
# Poissons Ratio (y) = 0.06959 -0.02484
# Poissons Ratio (z) = 0.50570 -0.01148
#
# Static dielectric constant tensor:
#      x y z
#    x 1.583740 0.000000 0.000000 
#    y 0.000000 1.671100 0.000000 
#    z 0.000000 0.000000 1.647620 
# 
# From -- ./inp_files/26548.got.cif
#   From: 2010.05.17/outbox.cif.g08.bks.cpg/sg51_14_cif.got.tgz:26548.got - 2010.06.03 11:52:47.
