data_PCOD9398263
_publ_section_title
;
Structure prediction by ZEFSAII (Michael W. Deem and Ramdas Pophale) SiO2 
 PCOD9398263
Probable space group: P B A N
;
_chemical_formula_sum "Si O2"
_cell_formula_units_Z 32
_cell_length_a 21.656026
_cell_length_b 11.864042
_cell_length_c 5.455760
_cell_angle_alpha 90.000000
_cell_angle_beta 90.000000
_cell_angle_gamma 90.000000
_cell_volume 1401.737516
_symmetry_space_group_name_H-M "P B A N"
_symmetry_group_IT_number 50
_space_group.IT_coordinate_system_code '2'
_symmetry_cell_setting 'orthorhombic'
loop_
_space_group_symop_operation_xyz
x,y,z
1/2-x,1/2-y,z
x,1/2-y,-z
1/2-x,y,-z
-x,-y,-z
1/2+x,1/2+y,-z
-x,1/2+y,z
1/2+x,-y,z
loop_
_atom_site_type_symbol
_atom_site_label
_atom_site_fract_x
_atom_site_fract_y
_atom_site_fract_z
Si Si1 0.987691 0.427425 0.752597
Si Si2 0.250000 0.750000 0.000000
Si Si3 0.069433 0.250000 0.500000
Si Si4 0.314600 0.397001 0.629240
Si Si5 0.750000 0.750000 0.000000
Si Si6 0.849841 0.140298 0.334203
O O1 0.916459 0.390203 0.771448
O O2 0.000000 0.500000 0.500000
O O3 0.027364 0.313140 0.702901
O O4 0.000000 0.500000 0.000000
O O5 0.203854 0.828196 0.851705
O O6 0.118644 0.156019 0.579967
O O7 0.250000 0.363160 0.500000
O O8 0.298181 0.342471 0.890187
O O9 0.324789 0.525486 0.550674
O O10 0.857092 0.250000 0.500000
#
# Coordination Sequence:
#
# PCOD9398263 Si02
#       6
#     8   2   4   8   2   8
#     4  12  30  51  82 119 167 222 278 343 417 516
#     4  12  28  48  82 120 156 222 272 360 416 508
#     4  12  25  50  78 115 164 214 274 348 420 499
#     4  12  25  46  74 115 155 205 269 334 414 492
#     4  12  24  40  74 120 152 206 262 356 420 502
#     4  12  28  51  80 114 166 218 283 342 431 505
#
# _framework density 22.828809
#
# number of rings (size 3 to 8) (size 9 to 14) (size 15 to 20)
#    0.000    0.000    6.250    2.625    7.000    3.000 
#    0.000    0.000    0.000    0.000    0.000    0.000 
#    0.000    0.000    0.000    0.000    0.000    0.000 
#
# Total GULP energy -178197.059510 kJ/mol
# GULP energy per Si atom -5568.658110 kJ/mol
# Density = 2.277685 g / cm^3
# Si number density = 22.828809 Si / 1000 Ang^3
#
#
#
# Elastic Constant Matrix: (Units=GPa)
#
#
# Indices 1 2 3 4 5 6 
#
# 1 232.7267 61.7434 56.7753 0.0000 0.0000 0.0000
# 2 61.7434 178.2979 50.8331 0.0000 0.0000 0.0000
# 3 56.7753 50.8331 86.4226 0.0000 0.0000 0.0000
# 4 0.0000 0.0000 0.0000 540.8073 0.0000 0.0000
# 5 0.0000 0.0000 0.0000 0.0000 21.5402 0.0000
# 6 0.0000 0.0000 0.0000 0.0000 0.0000 49.8355
#
#
#
# Elastic Compliance Matrix: (Units=1/GPa)
#
#
# Indices 1 2 3 4 5 6 
#
# 1 0.005263 -0.001005 -0.002866 0.000000 0.000000 0.000000
# 2 -0.001005 0.006931 -0.003416 0.000000 0.000000 0.000000
# 3 -0.002866 -0.003416 0.015463 0.000000 0.000000 0.000000
# 4 0.000000 0.000000 0.000000 0.001849 0.000000 0.000000
# 5 0.000000 0.000000 0.000000 0.000000 0.046425 0.000000
# 6 0.000000 0.000000 0.000000 0.000000 0.000000 0.020066
#
#
# Mechanical properties :
#
#
# Convention : Reuss Voigt Hill
#
# Bulk Modulus (GPa) = 76.44275 92.90562 84.67418
# Shear Modulus (GPa) = 43.50388 144.30964 93.90676
#
# Velocity S-wave (km/s) = 4.37012 7.95934 6.42063
# Velocity P-wave (km/s) = 7.68257 11.19165 9.59883
#
# Compressibility (1/GPa) = 0.01308169
#
# Stress axis : x y z
#
# Youngs Moduli (GPa) = 190.01273 144.28610 64.66958
#
# Poissons Ratio (x) = 0.14506 0.18535
# Poissons Ratio (y) = 0.19103 0.22092
# Poissons Ratio (z) = 0.54459 0.49290
#
# Static dielectric constant tensor:
#      x y z
#    x 1.657120 0.000000 0.000000 
#    y 0.000000 1.876010 0.000000 
#    z 0.000000 0.000000 1.990970 
# 
# From -- ./inp_files/2053.got.cif
#   From: 2010.05.17/outbox.cif.g08.bks.cpg/sg50_2_cif.got.tgz:2053.got - 2010.06.03 11:33:33.
