data_PCOD9398359
_publ_section_title
;
Structure prediction by ZEFSAII (Michael W. Deem and Ramdas Pophale) SiO2 
 PCOD9398359
Probable space group: P M M A
;
_chemical_formula_sum "Si O2"
_cell_formula_units_Z 40
_cell_length_a 8.622424
_cell_length_b 27.029645
_cell_length_c 9.181469
_cell_angle_alpha 90.000000
_cell_angle_beta 90.000000
_cell_angle_gamma 90.000000
_cell_volume 2139.842895
_symmetry_space_group_name_H-M "P M M A"
_symmetry_group_IT_number 51
_symmetry_cell_setting 'orthorhombic'
loop_
_space_group_symop_operation_xyz
x,y,z
1/2-x,-y,z
1/2+x,-y,-z
-x,y,-z
-x,-y,-z
1/2+x,y,-z
1/2-x,y,z
x,-y,z
loop_
_atom_site_type_symbol
_atom_site_label
_atom_site_fract_x
_atom_site_fract_y
_atom_site_fract_z
Si Si1 0.935978 0.398742 0.334422
Si Si2 0.565561 0.500000 0.666310
Si Si3 0.563388 0.098481 0.663233
Si Si4 0.563113 0.000000 0.836999
Si Si5 0.563138 0.289961 0.335847
Si Si6 0.936641 0.192556 0.162893
O O1 0.750000 0.403248 0.337599
O O2 0.979684 0.344476 0.274869
O O3 0.000000 0.397260 0.500000
O O4 0.005614 0.448581 0.265848
O O5 0.750000 0.500000 0.660003
O O6 0.500000 0.500000 0.500000
O O7 0.500000 0.096312 0.500000
O O8 0.750000 0.100386 0.660599
O O9 0.499181 0.146821 0.743505
O O10 0.514466 0.049322 0.751084
O O11 0.750000 0.000000 0.842683
O O12 0.500000 0.000000 0.000000
O O13 0.500000 0.284728 0.500000
O O14 0.750000 0.289001 0.344761
O O15 0.512511 0.244107 0.237516
O O16 0.750000 0.191109 0.161112
O O17 0.000000 0.189145 0.000000
#
# Coordination Sequence:
#
# PCOD9398359 Si02
#       6
#     8   4   8   4   8   8
#     4   9  15  25  40  61  90 126 163 204 252 306
#     4  10  16  22  34  58  91 126 161 202 250 304
#     4  11  23  40  61  87 115 148 186 228 273 322
#     4  10  23  40  60  86 118 152 189 228 271 318
#     4   9  19  33  51  74 102 134 173 216 263 316
#     4  11  23  39  57  81 110 143 181 225 273 326
#
# _framework density 18.692959999999999
#
# number of rings (size 3 to 8) (size 9 to 14) (size 15 to 20)
#    0.000    2.000    0.000    5.400    0.000    7.200 
#    0.000    0.000    0.000    0.000    0.000    0.700 
#    0.000    0.000    0.000    0.000    0.000    0.000 
#
# Total GULP energy -223232.126286 kJ/mol
# GULP energy per Si atom -5580.803157 kJ/mol
# Density = 1.865041 g / cm^3
# Si number density = 18.692960 Si / 1000 Ang^3
#
#
#
# Elastic Constant Matrix: (Units=GPa)
#
#
# Indices 1 2 3 4 5 6 
#
# 1 64.4684 57.8097 29.0472 0.0000 0.0000 0.0000
# 2 57.8097 231.3134 90.6787 0.0000 0.0000 0.0000
# 3 29.0472 90.6787 112.4275 0.0000 0.0000 0.0000
# 4 0.0000 0.0000 0.0000 102.5665 0.0000 0.0000
# 5 0.0000 0.0000 0.0000 0.0000 25.5820 0.0000
# 6 0.0000 0.0000 0.0000 0.0000 0.0000 29.9591
#
#
#
# Elastic Compliance Matrix: (Units=1/GPa)
#
#
# Indices 1 2 3 4 5 6 
#
# 1 0.020206 -0.004392 -0.001678 0.000000 0.000000 0.000000
# 2 -0.004392 0.007277 -0.004734 0.000000 0.000000 0.000000
# 3 -0.001678 -0.004734 0.013147 0.000000 0.000000 0.000000
# 4 0.000000 0.000000 0.000000 0.009750 0.000000 0.000000
# 5 0.000000 0.000000 0.000000 0.000000 0.039090 0.000000
# 6 0.000000 0.000000 0.000000 0.000000 0.000000 0.033379
#
#
# Mechanical properties :
#
#
# Convention : Reuss Voigt Hill
#
# Bulk Modulus (GPa) = 52.57494 84.80895 68.69195
# Shear Modulus (GPa) = 33.15716 46.99976 40.07846
#
# Velocity S-wave (km/s) = 4.21619 5.01972 4.63540
# Velocity P-wave (km/s) = 7.20335 8.89184 8.09176
#
# Compressibility (1/GPa) = 0.01902047
#
# Stress axis : x y z
#
# Youngs Moduli (GPa) = 49.49040 137.42447 76.06499
#
# Poissons Ratio (x) = 0.60357 0.12764
# Poissons Ratio (y) = 0.21736 0.36012
# Poissons Ratio (z) = 0.08305 0.65061
#
# Static dielectric constant tensor:
#      x y z
#    x 1.632100 0.000000 0.000000 
#    y 0.000000 1.699460 0.000000 
#    z 0.000000 0.000000 1.604170 
# 
# From -- ./inp_files/5598.got.cif
#   From: 2010.05.17/outbox.cif.g08.bks.cpg/sg51_3_cif.got.tgz:5598.got - 2010.06.03 11:52:47.
