data_PCOD9398005
_publ_section_title
;
Structure prediction by ZEFSAII (Michael W. Deem and Ramdas Pophale) SiO2 
 PCOD9398005
Probable space group: P B A N
;
_chemical_formula_sum "Si O2"
_cell_formula_units_Z 36
_cell_length_a 25.026171
_cell_length_b 11.239273
_cell_length_c 5.490858
_cell_angle_alpha 90.000000
_cell_angle_beta 90.000000
_cell_angle_gamma 90.000000
_cell_volume 1544.446399
_symmetry_space_group_name_H-M "P B A N"
_symmetry_group_IT_number 50
_space_group.IT_coordinate_system_code '2'
_symmetry_cell_setting 'orthorhombic'
loop_
_space_group_symop_operation_xyz
x,y,z
1/2-x,1/2-y,z
x,1/2-y,-z
1/2-x,y,-z
-x,-y,-z
1/2+x,1/2+y,-z
-x,1/2+y,z
1/2+x,-y,z
loop_
_atom_site_type_symbol
_atom_site_label
_atom_site_fract_x
_atom_site_fract_y
_atom_site_fract_z
Si Si1 0.363895 0.630882 0.083080
Si Si2 0.029425 0.859151 0.337636
Si Si3 0.716578 0.938802 0.252055
Si Si4 0.648752 0.750000 0.500000
Si Si5 0.075447 0.454849 0.280327
O O1 0.389770 0.541706 0.885356
O O2 0.333717 0.750000 0.000000
O O3 0.416171 0.682940 0.215366
O O4 0.325477 0.546806 0.237213
O O5 0.008876 0.750000 0.500000
O O6 0.979555 0.899362 0.171160
O O7 0.052084 0.968733 0.496097
O O8 0.750000 0.954719 0.500000
O O9 0.684855 0.816250 0.299348
O O10 0.750000 0.937735 0.000000
O O11 0.612647 0.849516 0.626395
#
# Coordination Sequence:
#
# PCOD9398005 Si02
#       5
#     8   8   8   4   8
#     4  12  26  47  75 109 150 206 256 322 383 466
#     4  11  22  44  71 108 157 201 250 306 380 465
#     4  12  30  54  80 114 152 204 271 334 392 452
#     4  12  25  50  78 110 152 198 249 320 392 466
#     4  11  24  43  71 113 153 196 255 302 390 469
#
# _framework density 23.309324
#
# number of rings (size 3 to 8) (size 9 to 14) (size 15 to 20)
#    0.000    0.444    5.556    2.333    0.000    6.667 
#    4.000    3.333    0.000    0.000    0.000    0.000 
#    0.000    0.000    0.000    0.000    0.000    0.000 
#
# Total GULP energy -201321.083935 kJ/mol
# GULP energy per Si atom -5592.252332 kJ/mol
# Density = 2.325627 g / cm^3
# Si number density = 23.309324 Si / 1000 Ang^3
#
#
#
# Elastic Constant Matrix: (Units=GPa)
#
#
# Indices 1 2 3 4 5 6 
#
# 1 121.9024 60.3133 56.0151 0.0000 0.0000 0.0000
# 2 60.3133 153.6051 40.2303 0.0000 0.0000 0.0000
# 3 56.0151 40.2303 83.3991 0.0000 0.0000 0.0000
# 4 0.0000 0.0000 0.0000 51.1253 0.0000 0.0000
# 5 0.0000 0.0000 0.0000 0.0000 -526.8012 0.0000
# 6 0.0000 0.0000 0.0000 0.0000 0.0000 113.9994
#
#
#
# Elastic Compliance Matrix: (Units=1/GPa)
#
#
# Indices 1 2 3 4 5 6 
#
# 1 0.013154 -0.003263 -0.007261 0.000000 0.000000 0.000000
# 2 -0.003263 0.008261 -0.001793 0.000000 0.000000 0.000000
# 3 -0.007261 -0.001793 0.017732 0.000000 0.000000 0.000000
# 4 0.000000 0.000000 0.000000 0.019560 0.000000 0.000000
# 5 0.000000 0.000000 0.000000 0.000000 -0.001898 0.000000
# 6 0.000000 0.000000 0.000000 0.000000 0.000000 0.008772
#
#
# Mechanical properties :
#
#
# Convention : Reuss Voigt Hill
#
# Bulk Modulus (GPa) = 68.90431 74.66932 71.78682
# Shear Modulus (GPa) = 52.60159 -58.84545 -3.12193
#
# Velocity S-wave (km/s) = 4.75560 -5.02994 -1.15856
# Velocity P-wave (km/s) = 7.73171 1.27673 5.39209
#
# Compressibility (1/GPa) = 0.01451288
#
# Stress axis : x y z
#
# Youngs Moduli (GPa) = 76.02052 121.04738 56.39403
#
# Poissons Ratio (x) = 0.39502 0.40947
# Poissons Ratio (y) = 0.24808 0.10113
# Poissons Ratio (z) = 0.55198 0.21707
#
# Static dielectric constant tensor:
#      x y z
#    x 1.902980 0.000000 0.000000 
#    y 0.000000 1.890360 0.000000 
#    z 0.000000 0.000000 1.994780 
# 
# From -- ./inp_files/2268.got.cif
#   From: 2010.05.17/outbox.cif.g08.bks.cpg/sg50_2_cif.got.tgz:2268.got - 2010.06.03 11:33:33.
