data_PCOD9398096
_publ_section_title
;
Structure prediction by ZEFSAII (Michael W. Deem and Ramdas Pophale) SiO2 
 PCOD9398096
Probable space group: P B A N
;
_chemical_formula_sum "Si O2"
_cell_formula_units_Z 32
_cell_length_a 8.766433
_cell_length_b 23.055939
_cell_length_c 7.369405
_cell_angle_alpha 90.000000
_cell_angle_beta 90.000000
_cell_angle_gamma 90.000000
_cell_volume 1489.491939
_symmetry_space_group_name_H-M "P B A N"
_symmetry_group_IT_number 50
_space_group.IT_coordinate_system_code '2'
_symmetry_cell_setting 'orthorhombic'
loop_
_space_group_symop_operation_xyz
x,y,z
1/2-x,1/2-y,z
x,1/2-y,-z
1/2-x,y,-z
-x,-y,-z
1/2+x,1/2+y,-z
-x,1/2+y,z
1/2+x,-y,z
loop_
_atom_site_type_symbol
_atom_site_label
_atom_site_fract_x
_atom_site_fract_y
_atom_site_fract_z
Si Si1 0.570709 0.315403 0.460571
Si Si2 0.971899 0.876401 0.858933
Si Si3 0.624524 0.020765 0.639787
Si Si4 0.871793 0.609976 0.745223
O O1 0.520810 0.250000 0.500000
O O2 0.750000 0.321807 0.500000
O O3 0.557704 0.326039 0.245831
O O4 0.462843 0.360327 0.577122
O O5 0.797970 0.867622 0.788172
O O6 0.053707 0.934232 0.780267
O O7 0.970507 0.879139 0.074520
O O8 0.750000 0.045442 0.500000
O O9 0.500000 0.000000 0.500000
O O10 0.664905 0.959017 0.728678
#
# Coordination Sequence:
#
# PCOD9398096 Si02
#       4
#     8   8   8   8
#     4  11  25  45  66  90 123 164 211 266 320 374
#     4  11  24  41  65  96 126 168 211 258 314 374
#     4  12  21  39  65  93 133 173 208 253 311 374
#     4  11  24  42  64  94 130 165 212 258 312 380
#
# _framework density 21.483834999999999
#
# number of rings (size 3 to 8) (size 9 to 14) (size 15 to 20)
#    0.000    0.750    5.000    2.250    0.000    4.000 
#    0.000    5.000    0.000    0.000    0.000    0.000 
#    0.000    0.000    0.000    0.000    0.000    0.000 
#
# Total GULP energy -178442.341752 kJ/mol
# GULP energy per Si atom -5576.323180 kJ/mol
# Density = 2.143494 g / cm^3
# Si number density = 21.483835 Si / 1000 Ang^3
#
#
#
# Elastic Constant Matrix: (Units=GPa)
#
#
# Indices 1 2 3 4 5 6 
#
# 1 56.5736 -9.2631 9.4507 0.0000 0.0000 0.0000
# 2 -9.2631 101.5329 15.4922 0.0000 0.0000 0.0000
# 3 9.4507 15.4922 129.1609 0.0000 0.0000 0.0000
# 4 0.0000 0.0000 0.0000 -153.4666 0.0000 0.0000
# 5 0.0000 0.0000 0.0000 0.0000 37.3893 0.0000
# 6 0.0000 0.0000 0.0000 0.0000 0.0000 31.4775
#
#
#
# Elastic Compliance Matrix: (Units=1/GPa)
#
#
# Indices 1 2 3 4 5 6 
#
# 1 0.018249 0.001903 -0.001564 0.000000 0.000000 0.000000
# 2 0.001903 0.010231 -0.001366 0.000000 0.000000 0.000000
# 3 -0.001564 -0.001366 0.008021 0.000000 0.000000 0.000000
# 4 0.000000 0.000000 0.000000 -0.006516 0.000000 0.000000
# 5 0.000000 0.000000 0.000000 0.000000 0.026746 0.000000
# 6 0.000000 0.000000 0.000000 0.000000 0.000000 0.031769
#
#
# Mechanical properties :
#
#
# Convention : Reuss Voigt Hill
#
# Bulk Modulus (GPa) = 29.02963 35.40302 32.21632
# Shear Modulus (GPa) = 49.00294 1.18588 25.09441
#
# Velocity S-wave (km/s) = 4.78108 0.74376 3.42140
# Velocity P-wave (km/s) = 6.63475 4.15358 5.53499
#
# Compressibility (1/GPa) = 0.03444757
#
# Stress axis : x y z
#
# Youngs Moduli (GPa) = 54.79765 97.74043 124.67910
#
# Poissons Ratio (x) = -0.18605 0.19495
# Poissons Ratio (y) = -0.10431 0.17037
# Poissons Ratio (z) = 0.08568 0.13356
#
# Static dielectric constant tensor:
#      x y z
#    x 1.604690 0.000000 0.000000 
#    y 0.000000 2.109380 0.000000 
#    z 0.000000 0.000000 1.741080 
# 
# From -- ./inp_files/9385.got.cif
#   From: 2010.05.17/outbox.cif.g08.bks.cpg/sg50_5_cif.got.tgz:9385.got - 2010.06.03 11:33:33.
