data_PCOD9398479
_publ_section_title
;
Structure prediction by ZEFSAII (Michael W. Deem and Ramdas Pophale) SiO2 
 PCOD9398479
Probable space group: P M M A
;
_chemical_formula_sum "Si O2"
_cell_formula_units_Z 28
_cell_length_a 8.601901
_cell_length_b 19.196629
_cell_length_c 8.945473
_cell_angle_alpha 90.000000
_cell_angle_beta 90.000000
_cell_angle_gamma 90.000000
_cell_volume 1477.143612
_symmetry_space_group_name_H-M "P M M A"
_symmetry_group_IT_number 51
_symmetry_cell_setting 'orthorhombic'
loop_
_space_group_symop_operation_xyz
x,y,z
1/2-x,-y,z
1/2+x,-y,-z
-x,y,-z
-x,-y,-z
1/2+x,y,-z
1/2-x,y,z
x,-y,z
loop_
_atom_site_type_symbol
_atom_site_label
_atom_site_fract_x
_atom_site_fract_y
_atom_site_fract_z
Si Si1 0.564004 0.363815 0.330867
Si Si2 0.063865 0.500000 0.166843
Si Si3 0.435462 0.219165 0.329194
Si Si4 0.563630 0.076183 0.329514
O O1 0.500000 0.367526 0.500000
O O2 0.750000 0.363697 0.333079
O O3 0.499799 0.430898 0.246634
O O4 0.503125 0.290648 0.263239
O O5 0.250000 0.500000 0.170230
O O6 0.000000 0.500000 0.000000
O O7 0.500000 0.218269 0.500000
O O8 0.250000 0.221832 0.332995
O O9 0.492002 0.146094 0.259743
O O10 0.500000 0.073954 0.500000
O O11 0.750000 0.082980 0.334677
O O12 0.524945 0.000000 0.262630
#
# Coordination Sequence:
#
# PCOD9398479 Si02
#       4
#     8   4   8   8
#     4  11  21  36  56  79 105 137 174 214 257 304
#     4  12  25  42  59  80 106 134 168 208 257 310
#     4  10  17  26  41  63  91 125 164 207 250 296
#     4   9  15  22  33  52  82 121 161 200 244 295
#
# _framework density 18.955501000000002
#
# number of rings (size 3 to 8) (size 9 to 14) (size 15 to 20)
#    0.000    1.714    0.000   11.143    0.000    1.714 
#    0.000    0.000    0.000    0.000    0.000    0.000 
#    0.000    1.143    0.000    4.286    0.000   16.571 
#
# Total GULP energy -156207.185445 kJ/mol
# GULP energy per Si atom -5578.828052 kJ/mol
# Density = 1.891236 g / cm^3
# Si number density = 18.955501 Si / 1000 Ang^3
#
#
#
# Elastic Constant Matrix: (Units=GPa)
#
#
# Indices 1 2 3 4 5 6 
#
# 1 202.7551 101.0306 21.0074 0.0000 0.0000 0.0000
# 2 101.0306 253.3830 42.0570 0.0000 0.0000 0.0000
# 3 21.0074 42.0570 24.7967 0.0000 0.0000 0.0000
# 4 0.0000 0.0000 0.0000 -7.2294 0.0000 0.0000
# 5 0.0000 0.0000 0.0000 0.0000 14.2413 0.0000
# 6 0.0000 0.0000 0.0000 0.0000 0.0000 32.5869
#
#
#
# Elastic Compliance Matrix: (Units=1/GPa)
#
#
# Indices 1 2 3 4 5 6 
#
# 1 0.006193 -0.002225 -0.001473 0.000000 0.000000 0.000000
# 2 -0.002225 0.006292 -0.008787 0.000000 0.000000 0.000000
# 3 -0.001473 -0.008787 0.056480 0.000000 0.000000 0.000000
# 4 0.000000 0.000000 0.000000 -0.138323 0.000000 0.000000
# 5 0.000000 0.000000 0.000000 0.000000 0.070219 0.000000
# 6 0.000000 0.000000 0.000000 0.000000 0.000000 0.030687
#
#
# Mechanical properties :
#
#
# Convention : Reuss Voigt Hill
#
# Bulk Modulus (GPa) = 22.73005 89.90275 56.31640
# Shear Modulus (GPa) = 70.24114 29.04241 49.64177
#
# Velocity S-wave (km/s) = 6.09395 3.91850 5.12303
# Velocity P-wave (km/s) = 7.84425 8.24646 8.04787
#
# Compressibility (1/GPa) = 0.04399462
#
# Stress axis : x y z
#
# Youngs Moduli (GPa) = 161.46327 158.92587 17.70544
#
# Poissons Ratio (x) = 0.35360 0.02609
# Poissons Ratio (y) = 0.35924 0.15558
# Poissons Ratio (z) = 0.23788 1.39651
#
# Static dielectric constant tensor:
#      x y z
#    x 1.625420 0.000000 0.000000 
#    y 0.000000 1.755630 0.000000 
#    z 0.000000 0.000000 1.606060 
# 
# From -- ./inp_files/4783.got.cif
#   From: 2010.05.17/outbox.cif.g08.bks.cpg/sg51_3_cif.got.tgz:4783.got - 2010.06.03 11:52:47.
