data_PCOD9398955
_publ_section_title
;
Structure prediction by ZEFSAII (Michael W. Deem and Ramdas Pophale) SiO2 
 PCOD9398955
Probable space group: P M M A
;
_chemical_formula_sum "Si O2"
_cell_formula_units_Z 56
_cell_length_a 8.556464
_cell_length_b 19.221860
_cell_length_c 19.678281
_cell_angle_alpha 90.000000
_cell_angle_beta 90.000000
_cell_angle_gamma 90.000000
_cell_volume 3236.509567
_symmetry_space_group_name_H-M "P M M A"
_symmetry_group_IT_number 51
_symmetry_cell_setting 'orthorhombic'
loop_
_space_group_symop_operation_xyz
x,y,z
1/2-x,-y,z
1/2+x,-y,-z
-x,y,-z
-x,-y,-z
1/2+x,y,-z
1/2-x,y,z
x,-y,z
loop_
_atom_site_type_symbol
_atom_site_label
_atom_site_fract_x
_atom_site_fract_y
_atom_site_fract_z
Si Si1 0.062749 0.709972 0.924944
Si Si2 0.439772 0.208945 0.794496
Si Si3 0.937325 0.421179 0.844346
Si Si4 0.437722 0.155015 0.572156
Si Si5 0.436087 0.687344 0.427375
Si Si6 0.437489 0.651816 0.713579
Si Si7 0.440866 0.921278 0.710288
O O1 0.250000 0.710264 0.925992
O O2 0.008808 0.767016 0.869227
O O3 0.007363 0.635837 0.895303
O O4 0.000000 0.722016 0.000000
O O5 0.250000 0.206979 0.795256
O O6 0.481824 0.271667 0.743190
O O7 0.494738 0.135380 0.765544
O O8 0.750000 0.415995 0.845932
O O9 0.983132 0.500000 0.861580
O O10 0.996428 0.401561 0.768931
O O11 0.500000 0.128187 0.500000
O O12 0.250000 0.159115 0.570344
O O13 0.501900 0.233333 0.580439
O O14 0.484407 0.108001 0.636049
O O15 0.500000 0.661810 0.500000
O O16 0.250000 0.688336 0.428937
O O17 0.496581 0.645720 0.362002
O O18 0.250000 0.647825 0.712528
O O19 0.250000 0.921916 0.712016
O O20 0.494760 0.000000 0.721141
#
# Coordination Sequence:
#
# PCOD9398955 Si02
#       7
#     8   8   8   8   8   8   8
#     4  10  20  34  55  79 105 136 170 209 252 301
#     4   8  15  29  48  71  97 126 164 208 251 299
#     4  10  21  36  54  80 112 141 169 201 240 295
#     4  10  18  29  44  65  95 130 169 213 263 313
#     4  11  20  30  47  71  98 131 172 219 269 310
#     4  10  18  32  53  75 101 134 173 215 254 300
#     4   9  16  27  46  70  96 129 170 215 261 308
#
# _framework density 17.302591
#
# number of rings (size 3 to 8) (size 9 to 14) (size 15 to 20)
#    0.000    2.286    1.429    4.714    0.000    1.714 
#    0.000    0.000    0.000    2.143    0.000    0.000 
#    0.000    0.000    0.000    0.000    0.000    0.571 
#
# Total GULP energy -312376.516087 kJ/mol
# GULP energy per Si atom -5578.152073 kJ/mol
# Density = 1.726321 g / cm^3
# Si number density = 17.302591 Si / 1000 Ang^3
#
#
#
# Elastic Constant Matrix: (Units=GPa)
#
#
# Indices 1 2 3 4 5 6 
#
# 1 52.5243 13.0240 28.6871 0.0000 0.0000 0.0000
# 2 13.0240 61.8277 45.3793 0.0000 0.0000 0.0000
# 3 28.6871 45.3793 151.5910 0.0000 0.0000 0.0000
# 4 0.0000 0.0000 0.0000 14.2333 0.0000 0.0000
# 5 0.0000 0.0000 0.0000 0.0000 22.3755 0.0000
# 6 0.0000 0.0000 0.0000 0.0000 0.0000 13.7113
#
#
#
# Elastic Compliance Matrix: (Units=1/GPa)
#
#
# Indices 1 2 3 4 5 6 
#
# 1 0.021419 -0.001970 -0.003464 0.000000 0.000000 0.000000
# 2 -0.001970 0.020909 -0.005887 0.000000 0.000000 0.000000
# 3 -0.003464 -0.005887 0.009014 0.000000 0.000000 0.000000
# 4 0.000000 0.000000 0.000000 0.070258 0.000000 0.000000
# 5 0.000000 0.000000 0.000000 0.000000 0.044692 0.000000
# 6 0.000000 0.000000 0.000000 0.000000 0.000000 0.072932
#
#
# Mechanical properties :
#
#
# Convention : Reuss Voigt Hill
#
# Bulk Modulus (GPa) = 34.83975 48.90264 41.87119
# Shear Modulus (GPa) = 18.42083 21.98755 20.20419
#
# Velocity S-wave (km/s) = 3.26640 3.56865 3.42087
# Velocity P-wave (km/s) = 5.86559 6.73089 6.31308
#
# Compressibility (1/GPa) = 0.02870285
#
# Stress axis : x y z
#
# Youngs Moduli (GPa) = 46.68763 47.82529 110.93443
#
# Poissons Ratio (x) = 0.09420 0.38424
# Poissons Ratio (y) = 0.09196 0.65302
# Poissons Ratio (z) = 0.16171 0.28153
#
# Static dielectric constant tensor:
#      x y z
#    x 1.582530 0.000000 0.000000 
#    y 0.000000 1.580270 0.000000 
#    z 0.000000 0.000000 1.594410 
# 
# From -- ./inp_files/32260.got.cif
#   From: 2010.05.17/outbox.cif.g08.bks.cpg/sg51_17_cif.got.tgz:32260.got - 2010.06.03 11:52:47.
