data_PCOD9398021
_publ_section_title
;
Structure prediction by ZEFSAII (Michael W. Deem and Ramdas Pophale) SiO2 
 PCOD9398021
Probable space group: P B A N
;
_chemical_formula_sum "Si O2"
_cell_formula_units_Z 56
_cell_length_a 10.434570
_cell_length_b 23.044588
_cell_length_c 11.515689
_cell_angle_alpha 90.000000
_cell_angle_beta 90.000000
_cell_angle_gamma 90.000000
_cell_volume 2769.066799
_symmetry_space_group_name_H-M "P B A N"
_symmetry_group_IT_number 50
_space_group.IT_coordinate_system_code '2'
_symmetry_cell_setting 'orthorhombic'
loop_
_space_group_symop_operation_xyz
x,y,z
1/2-x,1/2-y,z
x,1/2-y,-z
1/2-x,y,-z
-x,-y,-z
1/2+x,1/2+y,-z
-x,1/2+y,z
1/2+x,-y,z
loop_
_atom_site_type_symbol
_atom_site_label
_atom_site_fract_x
_atom_site_fract_y
_atom_site_fract_z
Si Si1 0.096890 0.757219 0.136776
Si Si2 0.002462 0.368950 0.274900
Si Si3 0.514543 0.360766 0.251893
Si Si4 0.098244 0.183163 0.487395
Si Si5 0.056707 0.030026 0.116352
Si Si6 0.752527 0.428900 0.363453
Si Si7 0.323152 0.469402 0.770358
O O1 0.250000 0.750000 0.153471
O O2 0.042838 0.817162 0.190196
O O3 0.036143 0.702946 0.202259
O O4 0.071258 0.750000 0.000000
O O5 0.882424 0.411102 0.298319
O O6 0.035126 0.346853 0.402666
O O7 0.129093 0.403430 0.232902
O O8 0.432285 0.350246 0.368120
O O9 0.460538 0.401903 0.148783
O O10 0.644362 0.390659 0.299112
O O11 0.052915 0.250000 0.500000
O O12 0.250000 0.183594 0.500000
O O13 0.207525 0.019361 0.138652
O O14 0.956094 0.002078 0.205311
O O15 0.000000 0.000000 0.000000
O O16 0.750000 0.415702 0.500000
O O17 0.728300 0.497689 0.343781
#
# Coordination Sequence:
#
# PCOD9398021 Si02
#       7
#     8   8   8   8   8   8   8
#     4  11  25  43  68 103 141 186 240 300 358 427
#     4  12  23  43  73  99 143 185 236 296 371 434
#     4  11  23  42  69 103 138 181 242 291 361 441
#     4  11  23  40  67 102 142 185 231 296 369 449
#     4  11  25  45  69  96 137 185 239 300 351 426
#     4  11  23  40  68 103 137 181 230 297 357 436
#     4  11  25  44  66 100 137 184 241 286 368 427
#
# _framework density 20.223419
#
# number of rings (size 3 to 8) (size 9 to 14) (size 15 to 20)
#    0.000    0.857    5.714    1.286    2.000    2.286 
#    2.571    2.143    0.000    3.429    0.000    0.000 
#    0.000    0.000    0.000    0.000    0.000    0.000 
#
# Total GULP energy -312070.762001 kJ/mol
# GULP energy per Si atom -5572.692179 kJ/mol
# Density = 2.017739 g / cm^3
# Si number density = 20.223419 Si / 1000 Ang^3
#
#
#
# Elastic Constant Matrix: (Units=GPa)
#
#
# Indices 1 2 3 4 5 6 
#
# 1 112.3252 55.6419 38.9997 0.0000 0.0000 0.0000
# 2 55.6419 125.3995 58.9052 0.0000 0.0000 0.0000
# 3 38.9997 58.9052 99.5613 0.0000 0.0000 0.0000
# 4 0.0000 0.0000 0.0000 29.3539 0.0000 0.0000
# 5 0.0000 0.0000 0.0000 0.0000 28.1544 0.0000
# 6 0.0000 0.0000 0.0000 0.0000 0.0000 19.6518
#
#
#
# Elastic Compliance Matrix: (Units=1/GPa)
#
#
# Indices 1 2 3 4 5 6 
#
# 1 0.011719 -0.004215 -0.002097 0.000000 0.000000 0.000000
# 2 -0.004215 0.012560 -0.005780 0.000000 0.000000 0.000000
# 3 -0.002097 -0.005780 0.014285 0.000000 0.000000 0.000000
# 4 0.000000 0.000000 0.000000 0.034067 0.000000 0.000000
# 5 0.000000 0.000000 0.000000 0.000000 0.035518 0.000000
# 6 0.000000 0.000000 0.000000 0.000000 0.000000 0.050886
#
#
# Mechanical properties :
#
#
# Convention : Reuss Voigt Hill
#
# Bulk Modulus (GPa) = 69.53850 71.59775 70.56813
# Shear Modulus (GPa) = 26.59415 27.68130 27.13772
#
# Velocity S-wave (km/s) = 3.63025 3.70371 3.66716
# Velocity P-wave (km/s) = 7.21328 7.33282 7.27329
#
# Compressibility (1/GPa) = 0.01438052
#
# Stress axis : x y z
#
# Youngs Moduli (GPa) = 85.33470 79.61919 70.00331
#
# Poissons Ratio (x) = 0.33558 0.14677
# Poissons Ratio (y) = 0.35967 0.40462
# Poissons Ratio (z) = 0.17892 0.46019
#
# Static dielectric constant tensor:
#      x y z
#    x 1.737760 0.000000 0.000000 
#    y 0.000000 1.809200 0.000000 
#    z 0.000000 0.000000 1.739770 
# 
# From -- ./inp_files/20355.got.cif
#   From: 2010.05.17/outbox.cif.g08.bks.cpg/sg50_11_cif.got.tgz:20355.got - 2010.06.03 11:33:33.
