data_PCOD9398794
_publ_section_title
;
Structure prediction by ZEFSAII (Michael W. Deem and Ramdas Pophale) SiO2 
 PCOD9398794
Probable space group: P M M A
;
_chemical_formula_sum "Si O2"
_cell_formula_units_Z 56
_cell_length_a 8.505281
_cell_length_b 30.461654
_cell_length_c 14.088809
_cell_angle_alpha 90.000000
_cell_angle_beta 90.000000
_cell_angle_gamma 90.000000
_cell_volume 3650.198051
_symmetry_space_group_name_H-M "P M M A"
_symmetry_group_IT_number 51
_symmetry_cell_setting 'orthorhombic'
loop_
_space_group_symop_operation_xyz
x,y,z
1/2-x,-y,z
1/2+x,-y,-z
-x,y,-z
-x,-y,-z
1/2+x,y,-z
1/2-x,y,z
x,-y,z
loop_
_atom_site_type_symbol
_atom_site_label
_atom_site_fract_x
_atom_site_fract_y
_atom_site_fract_z
Si Si1 0.939769 0.047134 0.391706
Si Si2 0.439177 0.143641 0.608421
Si Si3 0.061444 0.685432 0.604346
Si Si4 0.938560 0.275041 0.105093
Si Si5 0.440279 0.450787 0.893003
Si Si6 0.058800 0.363788 0.790343
Si Si7 0.062835 0.770672 0.289784
O O1 0.750000 0.047117 0.392329
O O2 0.988409 0.095035 0.354366
O O3 0.000000 0.046831 0.500000
O O4 0.991179 0.000000 0.348742
O O5 0.500000 0.148346 0.500000
O O6 0.250000 0.145832 0.606408
O O7 0.503993 0.182734 0.672258
O O8 0.250000 0.686705 0.603549
O O9 0.009695 0.650654 0.684882
O O10 0.000000 0.675583 0.500000
O O11 0.001114 0.732653 0.640310
O O12 0.750000 0.273767 0.105957
O O13 0.988570 0.323955 0.139807
O O14 0.000988 0.241948 0.185302
O O15 0.000000 0.266201 0.000000
O O16 0.250000 0.449955 0.894366
O O17 0.489260 0.500000 0.863098
O O18 0.496310 0.410852 0.827325
O O19 0.500000 0.443838 0.000000
O O20 0.250000 0.364591 0.790582
O O21 0.250000 0.769390 0.290347
#
# Coordination Sequence:
#
# PCOD9398794 Si02
#       7
#     8   8   8   8   8   8   8
#     4   8  14  24  38  56  79 109 144 179 214 253
#     4  10  18  28  42  61  87 118 150 183 219 257
#     4  10  19  32  47  63  85 112 146 184 220 257
#     4  10  19  32  48  66  89 115 144 177 215 257
#     4   9  16  27  44  66  90 114 139 169 209 255
#     4   8  16  29  45  65  88 114 143 175 209 251
#     4  11  21  32  45  63  87 115 148 181 217 258
#
# _framework density 15.341633
#
# number of rings (size 3 to 8) (size 9 to 14) (size 15 to 20)
#    0.000    2.571    0.000    4.286    0.000    0.571 
#    0.000    3.571    0.000    0.429    0.000    0.000 
#    0.000    0.571    0.000    1.571    0.000    3.143 
#
# Total GULP energy -311977.784991 kJ/mol
# GULP energy per Si atom -5571.031875 kJ/mol
# Density = 1.530671 g / cm^3
# Si number density = 15.341633 Si / 1000 Ang^3
#
#
#
# Elastic Constant Matrix: (Units=GPa)
#
#
# Indices 1 2 3 4 5 6 
#
# 1 48.4024 30.6899 26.1353 0.0000 0.0000 0.0000
# 2 30.6899 166.3891 76.1811 0.0000 0.0000 0.0000
# 3 26.1353 76.1811 98.9740 0.0000 0.0000 0.0000
# 4 0.0000 0.0000 0.0000 22.5940 0.0000 0.0000
# 5 0.0000 0.0000 0.0000 0.0000 22.0321 0.0000
# 6 0.0000 0.0000 0.0000 0.0000 0.0000 9.3167
#
#
#
# Elastic Compliance Matrix: (Units=1/GPa)
#
#
# Indices 1 2 3 4 5 6 
#
# 1 0.024714 -0.002425 -0.004659 0.000000 0.000000 0.000000
# 2 -0.002425 0.009519 -0.006686 0.000000 0.000000 0.000000
# 3 -0.004659 -0.006686 0.016480 0.000000 0.000000 0.000000
# 4 0.000000 0.000000 0.000000 0.044259 0.000000 0.000000
# 5 0.000000 0.000000 0.000000 0.000000 0.045388 0.000000
# 6 0.000000 0.000000 0.000000 0.000000 0.000000 0.107334
#
#
# Mechanical properties :
#
#
# Convention : Reuss Voigt Hill
#
# Bulk Modulus (GPa) = 43.15649 64.41979 53.78814
# Shear Modulus (GPa) = 17.67039 22.83918 20.25479
#
# Velocity S-wave (km/s) = 3.39749 3.86256 3.63747
# Velocity P-wave (km/s) = 6.60166 7.87235 7.26484
#
# Compressibility (1/GPa) = 0.02317148
#
# Stress axis : x y z
#
# Youngs Moduli (GPa) = 40.46351 105.05805 60.67825
#
# Poissons Ratio (x) = 0.25477 0.28272
# Poissons Ratio (y) = 0.09813 0.40570
# Poissons Ratio (z) = 0.18853 0.70243
#
# Static dielectric constant tensor:
#      x y z
#    x 1.518460 0.000000 0.000000 
#    y 0.000000 1.544150 0.000000 
#    z 0.000000 0.000000 1.442390 
# 
# From -- ./inp_files/22518.got.cif
#   From: 2010.05.17/outbox.cif.g08.bks.cpg/sg51_12_cif.got.tgz:22518.got - 2010.06.03 11:52:47.
