data_PCOD9398209
_publ_section_title
;
Structure prediction by ZEFSAII (Michael W. Deem and Ramdas Pophale) SiO2 
 PCOD9398209
Probable space group: P B A N
;
_chemical_formula_sum "Si O2"
_cell_formula_units_Z 48
_cell_length_a 14.834278
_cell_length_b 7.969531
_cell_length_c 17.713975
_cell_angle_alpha 90.000000
_cell_angle_beta 90.000000
_cell_angle_gamma 90.000000
_cell_volume 2094.185775
_symmetry_space_group_name_H-M "P B A N"
_symmetry_group_IT_number 50
_space_group.IT_coordinate_system_code '2'
_symmetry_cell_setting 'orthorhombic'
loop_
_space_group_symop_operation_xyz
x,y,z
1/2-x,1/2-y,z
x,1/2-y,-z
1/2-x,y,-z
-x,-y,-z
1/2+x,1/2+y,-z
-x,1/2+y,z
1/2+x,-y,z
loop_
_atom_site_type_symbol
_atom_site_label
_atom_site_fract_x
_atom_site_fract_y
_atom_site_fract_z
Si Si1 0.771745 0.447407 0.416089
Si Si2 0.452064 0.363520 0.925862
Si Si3 0.925013 0.934415 0.687134
Si Si4 0.123894 0.044865 0.703031
Si Si5 0.611375 0.547113 0.852717
Si Si6 0.700209 0.069274 0.864713
O O1 0.750000 0.250000 0.416430
O O2 0.750000 0.511833 0.500000
O O3 0.870343 0.487864 0.382750
O O4 0.703385 0.523170 0.356092
O O5 0.550097 0.434397 0.907191
O O6 0.428272 0.232962 0.859714
O O7 0.379716 0.515019 0.921225
O O8 0.446378 0.250000 0.000000
O O9 0.897470 0.742160 0.700096
O O10 0.897791 0.019928 0.767288
O O11 0.031856 0.952670 0.679493
O O12 0.157928 0.965983 0.782154
O O13 0.714876 0.552846 0.875482
O O14 0.750000 0.250000 0.870901
#
# Coordination Sequence:
#
# PCOD9398209 Si02
#       6
#     8   8   8   8   8   8
#     4  11  26  47  73 109 153 198 250 313 379 448
#     4  12  27  49  74 109 154 197 245 318 387 452
#     4  12  24  42  74 107 148 200 257 305 379 451
#     4  12  25  43  72 108 149 196 255 312 373 454
#     4  12  24  44  72 106 144 197 253 305 372 451
#     4  12  26  43  75 108 146 197 257 311 377 455
#
# _framework density 22.920604000000001
#
# number of rings (size 3 to 8) (size 9 to 14) (size 15 to 20)
#    0.000    0.167    5.000    4.000    2.333    3.333 
#    0.000    0.833    0.000    0.000    0.000    0.000 
#    0.000    0.000    0.000    0.000    0.000    0.000 
#
# Total GULP energy -268691.278484 kJ/mol
# GULP energy per Si atom -5597.734968 kJ/mol
# Density = 2.286844 g / cm^3
# Si number density = 22.920604 Si / 1000 Ang^3
#
#
#
# Elastic Constant Matrix: (Units=GPa)
#
#
# Indices 1 2 3 4 5 6 
#
# 1 160.9950 23.9633 38.9036 0.0000 0.0000 0.0000
# 2 23.9633 105.4447 26.2823 0.0000 0.0000 0.0000
# 3 38.9036 26.2823 100.9478 0.0000 0.0000 0.0000
# 4 0.0000 0.0000 0.0000 26.9244 0.0000 0.0000
# 5 0.0000 0.0000 0.0000 0.0000 26.7936 0.0000
# 6 0.0000 0.0000 0.0000 0.0000 0.0000 45.4027
#
#
#
# Elastic Compliance Matrix: (Units=1/GPa)
#
#
# Indices 1 2 3 4 5 6 
#
# 1 0.006941 -0.000974 -0.002422 0.000000 0.000000 0.000000
# 2 -0.000974 0.010278 -0.002301 0.000000 0.000000 0.000000
# 3 -0.002422 -0.002301 0.011438 0.000000 0.000000 0.000000
# 4 0.000000 0.000000 0.000000 0.037141 0.000000 0.000000
# 5 0.000000 0.000000 0.000000 0.000000 0.037322 0.000000
# 6 0.000000 0.000000 0.000000 0.000000 0.000000 0.022025
#
#
# Mechanical properties :
#
#
# Convention : Reuss Voigt Hill
#
# Bulk Modulus (GPa) = 57.91781 60.63179 59.27480
# Shear Modulus (GPa) = 35.13838 38.37335 36.75586
#
# Velocity S-wave (km/s) = 3.91966 4.09612 4.00886
# Velocity P-wave (km/s) = 6.76822 6.99152 6.88077
#
# Compressibility (1/GPa) = 0.01726585
#
# Stress axis : x y z
#
# Youngs Moduli (GPa) = 144.06116 97.29107 87.42528
#
# Poissons Ratio (x) = 0.09476 0.21171
# Poissons Ratio (y) = 0.14031 0.20114
# Poissons Ratio (z) = 0.34885 0.22384
#
# Static dielectric constant tensor:
#      x y z
#    x 1.835730 0.000000 0.000000 
#    y 0.000000 1.937220 0.000000 
#    z 0.000000 0.000000 1.879340 
# 
# From -- ./inp_files/29461.got.cif
#   From: 2010.05.17/outbox.cif.g08.bks.cpg/sg50_15_cif.got.tgz:29461.got - 2010.06.03 11:33:33.
