data_PCOD9398004
_publ_section_title
;
Structure prediction by ZEFSAII (Michael W. Deem and Ramdas Pophale) SiO2 
 PCOD9398004
Probable space group: P B A N
;
_chemical_formula_sum "Si O2"
_cell_formula_units_Z 58
_cell_length_a 9.539861
_cell_length_b 18.026166
_cell_length_c 16.888101
_cell_angle_alpha 90.000000
_cell_angle_beta 90.000000
_cell_angle_gamma 90.000000
_cell_volume 2904.198058
_symmetry_space_group_name_H-M "P B A N"
_symmetry_group_IT_number 50
_space_group.IT_coordinate_system_code '2'
_symmetry_cell_setting 'orthorhombic'
loop_
_space_group_symop_operation_xyz
x,y,z
1/2-x,1/2-y,z
x,1/2-y,-z
1/2-x,y,-z
-x,-y,-z
1/2+x,1/2+y,-z
-x,1/2+y,z
1/2+x,-y,z
loop_
_atom_site_type_symbol
_atom_site_label
_atom_site_fract_x
_atom_site_fract_y
_atom_site_fract_z
Si Si1 0.727679 0.437882 0.590558
Si Si2 0.750000 0.250000 0.000000
Si Si3 0.323136 0.563364 0.802622
Si Si4 0.926933 0.157255 0.867755
Si Si5 0.084776 0.448881 0.336489
Si Si6 0.883242 0.961179 0.051779
Si Si7 0.900812 0.716474 0.725962
Si Si8 0.867497 0.312253 0.701205
O O1 0.750000 0.415004 0.500000
O O2 0.572864 0.451146 0.627651
O O3 0.812143 0.514851 0.599617
O O4 0.799229 0.372516 0.642535
O O5 0.839713 0.198744 0.937733
O O6 0.168343 0.600367 0.814364
O O7 0.372691 0.501160 0.739002
O O8 0.343883 0.523315 0.884785
O O9 0.407004 0.636830 0.777033
O O10 0.047640 0.109047 0.907574
O O11 0.005127 0.209523 0.805155
O O12 0.112187 0.364741 0.311564
O O13 0.750000 0.940812 0.000000
O O14 0.000000 0.000000 0.000000
O O15 0.750000 0.750000 0.741749
O O16 0.994641 0.770683 0.671507
O O17 0.750000 0.250000 0.717738
#
# Coordination Sequence:
#
# PCOD9398004 Si02
#       8
#     8   2   8   8   8   8   8   8
#     4  11  25  45  76 108 146 185 230 285 355 432
#     4  12  28  48  66  96 152 188 226 296 388 424
#     4  11  23  42  73  95 135 183 242 288 342 424
#     4  12  24  46  67  98 136 191 237 294 362 433
#     4  11  24  45  72 106 141 185 238 290 345 421
#     4  12  25  40  64  99 137 176 236 299 358 414
#     4  12  26  43  69 104 140 178 245 298 344 411
#     4  11  22  44  71 100 137 185 234 284 341 423
#
# _framework density 19.971088999999999
#
# number of rings (size 3 to 8) (size 9 to 14) (size 15 to 20)
#    0.000    0.552    5.517    2.897    3.862    2.483 
#    0.000    0.000    0.000    0.000    0.000    0.000 
#    0.000    0.000    0.000    0.000    0.000    0.000 
#
# Total GULP energy -323365.797341 kJ/mol
# GULP energy per Si atom -5575.272368 kJ/mol
# Density = 1.992563 g / cm^3
# Si number density = 19.971089 Si / 1000 Ang^3
#
#
#
# Elastic Constant Matrix: (Units=GPa)
#
#
# Indices 1 2 3 4 5 6 
#
# 1 154.4258 73.4674 51.4623 0.0000 0.0000 0.0000
# 2 73.4674 140.1857 46.2064 0.0000 0.0000 0.0000
# 3 51.4623 46.2064 80.2188 0.0000 0.0000 0.0000
# 4 0.0000 0.0000 0.0000 22.2809 0.0000 0.0000
# 5 0.0000 0.0000 0.0000 0.0000 17.9126 0.0000
# 6 0.0000 0.0000 0.0000 0.0000 0.0000 47.9312
#
#
#
# Elastic Compliance Matrix: (Units=1/GPa)
#
#
# Indices 1 2 3 4 5 6 
#
# 1 0.009569 -0.003693 -0.004012 0.000000 0.000000 0.000000
# 2 -0.003693 0.010230 -0.003524 0.000000 0.000000 0.000000
# 3 -0.004012 -0.003524 0.017069 0.000000 0.000000 0.000000
# 4 0.000000 0.000000 0.000000 0.044882 0.000000 0.000000
# 5 0.000000 0.000000 0.000000 0.000000 0.055827 0.000000
# 6 0.000000 0.000000 0.000000 0.000000 0.000000 0.020863
#
#
# Mechanical properties :
#
#
# Convention : Reuss Voigt Hill
#
# Bulk Modulus (GPa) = 69.38574 79.67806 74.53190
# Shear Modulus (GPa) = 26.92505 31.20454 29.06479
#
# Velocity S-wave (km/s) = 3.67577 3.95712 3.81904
# Velocity P-wave (km/s) = 7.26867 7.80139 7.53974
#
# Compressibility (1/GPa) = 0.01441218
#
# Stress axis : x y z
#
# Youngs Moduli (GPa) = 104.50023 97.75152 58.58462
#
# Poissons Ratio (x) = 0.36096 0.23504
# Poissons Ratio (y) = 0.38588 0.20643
# Poissons Ratio (z) = 0.41925 0.34444
#
# Static dielectric constant tensor:
#      x y z
#    x 1.725000 0.000000 0.000000 
#    y 0.000000 1.508250 0.000000 
#    z 0.000000 0.000000 1.695920 
# 
# From -- ./inp_files/28884.got.cif
#   From: 2010.05.17/outbox.cif.g08.bks.cpg/sg50_15_cif.got.tgz:28884.got - 2010.06.03 11:33:33.
