data_PCOD9398400
_publ_section_title
;
Structure prediction by ZEFSAII (Michael W. Deem and Ramdas Pophale) SiO2 
 PCOD9398400
Probable space group: P M M A
;
_chemical_formula_sum "Si O2"
_cell_formula_units_Z 36
_cell_length_a 14.200304
_cell_length_b 20.012477
_cell_length_c 5.290819
_cell_angle_alpha 90.000000
_cell_angle_beta 90.000000
_cell_angle_gamma 90.000000
_cell_volume 1503.562177
_symmetry_space_group_name_H-M "P M M A"
_symmetry_group_IT_number 51
_symmetry_cell_setting 'orthorhombic'
loop_
_space_group_symop_operation_xyz
x,y,z
1/2-x,-y,z
1/2+x,-y,-z
-x,y,-z
-x,-y,-z
1/2+x,y,-z
1/2-x,y,z
x,-y,z
loop_
_atom_site_type_symbol
_atom_site_label
_atom_site_fract_x
_atom_site_fract_y
_atom_site_fract_z
Si Si1 0.635682 0.344208 0.657220
Si Si2 0.894671 0.193271 0.557845
Si Si3 0.611531 0.138918 0.063582
Si Si4 0.934131 0.000000 0.247660
Si Si5 0.134921 0.576658 0.843677
O O1 0.750000 0.340521 0.658920
O O2 0.600663 0.268428 0.658325
O O3 0.606654 0.381556 0.401613
O O4 0.606039 0.386413 0.900302
O O5 0.853838 0.191117 0.274370
O O6 0.000000 0.167585 0.500000
O O7 0.850142 0.149387 0.781297
O O8 0.623932 0.067875 0.203563
O O9 0.500000 0.147951 0.000000
O O10 0.000000 0.000000 0.500000
O O11 0.000000 0.000000 0.000000
O O12 0.250000 0.575125 0.844149
O O13 0.102989 0.500000 0.832445
#
# Coordination Sequence:
#
# PCOD9398400 Si02
#       5
#     8   8   8   4   8
#     4  10  19  31  49  71  92 119 155 191 230 277
#     4  10  19  31  46  67  96 125 152 185 232 282
#     4   9  17  28  44  67  93 122 153 189 231 273
#     4  10  16  26  44  68  95 120 153 196 233 264
#     4   9  17  30  49  71  92 115 150 196 237 272
#
# _framework density 23.943142000000002
#
# number of rings (size 3 to 8) (size 9 to 14) (size 15 to 20)
#    0.000    2.444    0.000    5.333    0.000    2.667 
#    0.000    0.000    0.000    4.000    0.000    4.667 
#    0.000    0.000    0.000    0.000    0.000    0.000 
#
# Total GULP energy -201020.036637 kJ/mol
# GULP energy per Si atom -5583.889907 kJ/mol
# Density = 2.388865 g / cm^3
# Si number density = 23.943142 Si / 1000 Ang^3
#
#
#
# Elastic Constant Matrix: (Units=GPa)
#
#
# Indices 1 2 3 4 5 6 
#
# 1 82.0784 -11.4453 10.4988 0.0000 0.0000 0.0000
# 2 -11.4453 142.0905 72.3557 0.0000 0.0000 0.0000
# 3 10.4988 72.3557 234.5753 0.0000 0.0000 0.0000
# 4 0.0000 0.0000 0.0000 47.2524 0.0000 0.0000
# 5 0.0000 0.0000 0.0000 0.0000 -17.4611 0.0000
# 6 0.0000 0.0000 0.0000 0.0000 0.0000 110.8127
#
#
#
# Elastic Compliance Matrix: (Units=1/GPa)
#
#
# Indices 1 2 3 4 5 6 
#
# 1 0.012530 0.001536 -0.001035 0.000000 0.000000 0.000000
# 2 0.001536 0.008538 -0.002702 0.000000 0.000000 0.000000
# 3 -0.001035 -0.002702 0.005143 0.000000 0.000000 0.000000
# 4 0.000000 0.000000 0.000000 0.021163 0.000000 0.000000
# 5 0.000000 0.000000 0.000000 0.000000 -0.057270 0.000000
# 6 0.000000 0.000000 0.000000 0.000000 0.000000 0.009024
#
#
# Mechanical properties :
#
#
# Convention : Reuss Voigt Hill
#
# Bulk Modulus (GPa) = 45.85260 66.84030 56.34645
# Shear Modulus (GPa) = 463.02554 53.94312 258.48433
#
# Velocity S-wave (km/s) = 13.92140 4.75169 10.40154
# Velocity P-wave (km/s) = 16.66131 7.62113 12.95532
#
# Compressibility (1/GPa) = 0.02180902
#
# Stress axis : x y z
#
# Youngs Moduli (GPa) = 79.80835 117.13005 194.44549
#
# Poissons Ratio (x) = -0.17993 0.20118
# Poissons Ratio (y) = -0.12260 0.52543
# Poissons Ratio (z) = 0.08257 0.31651
#
# Static dielectric constant tensor:
#      x y z
#    x 1.954040 0.000000 0.000000 
#    y 0.000000 1.910590 0.000000 
#    z 0.000000 0.000000 2.016070 
# 
# From -- ./inp_files/2439.got.cif
#   From: 2010.05.17/outbox.cif.g08.bks.cpg/sg51_2_cif.got.tgz:2439.got - 2010.06.03 11:52:47.
