data_PCOD9398156
_publ_section_title
;
Structure prediction by ZEFSAII (Michael W. Deem and Ramdas Pophale) SiO2 
 PCOD9398156
Probable space group: P B A N
;
_chemical_formula_sum "Si O2"
_cell_formula_units_Z 26
_cell_length_a 11.232410
_cell_length_b 9.105155
_cell_length_c 9.894373
_cell_angle_alpha 90.000000
_cell_angle_beta 90.000000
_cell_angle_gamma 90.000000
_cell_volume 1011.925568
_symmetry_space_group_name_H-M "P B A N"
_symmetry_group_IT_number 50
_space_group.IT_coordinate_system_code '2'
_symmetry_cell_setting 'orthorhombic'
loop_
_space_group_symop_operation_xyz
x,y,z
1/2-x,1/2-y,z
x,1/2-y,-z
1/2-x,y,-z
-x,-y,-z
1/2+x,1/2+y,-z
-x,1/2+y,z
1/2+x,-y,z
loop_
_atom_site_type_symbol
_atom_site_label
_atom_site_fract_x
_atom_site_fract_y
_atom_site_fract_z
Si Si1 0.053591 0.288589 0.649723
Si Si2 0.277793 0.487127 0.696131
Si Si3 0.750000 0.250000 0.500000
Si Si4 0.588676 0.393796 0.084395
O O1 0.002743 0.250000 0.500000
O O2 0.154504 0.415853 0.645894
O O3 0.979447 0.334525 0.780833
O O4 0.123295 0.137815 0.679609
O O5 0.299248 0.630074 0.606814
O O6 0.293192 0.530514 0.852765
O O7 0.613923 0.250000 0.000000
O O8 0.500000 0.500000 0.000000
#
# Coordination Sequence:
#
# PCOD9398156 Si02
#       4
#     8   8   2   8
#     4  11  24  51  78 105 151 204 253 310 392 452
#     4  11  25  46  76 107 151 193 256 316 380 450
#     4  12  24  42  74 124 140 188 262 324 376 434
#     4  12  28  49  71 115 153 200 253 308 391 465
#
# _framework density 25.693588999999999
#
# number of rings (size 3 to 8) (size 9 to 14) (size 15 to 20)
#    0.000    0.615    6.154    0.923    6.462    2.462 
#    0.000    0.000    3.385    0.000    0.000    0.000 
#    0.000    0.000    0.000    0.000    0.000    0.000 
#
# Total GULP energy -145376.229563 kJ/mol
# GULP energy per Si atom -5591.393445 kJ/mol
# Density = 2.563511 g / cm^3
# Si number density = 25.693589 Si / 1000 Ang^3
#
#
#
# Elastic Constant Matrix: (Units=GPa)
#
#
# Indices 1 2 3 4 5 6 
#
# 1 44.7612 65.0737 57.5539 0.0000 0.0000 0.0000
# 2 65.0737 169.7556 96.6259 0.0000 0.0000 0.0000
# 3 57.5539 96.6259 225.7958 0.0000 0.0000 0.0000
# 4 0.0000 0.0000 0.0000 76.6751 0.0000 0.0000
# 5 0.0000 0.0000 0.0000 0.0000 54.1094 0.0000
# 6 0.0000 0.0000 0.0000 0.0000 0.0000 19.1336
#
#
#
# Elastic Compliance Matrix: (Units=1/GPa)
#
#
# Indices 1 2 3 4 5 6 
#
# 1 0.057629 -0.018152 -0.006922 0.000000 0.000000 0.000000
# 2 -0.018152 0.013505 -0.001153 0.000000 0.000000 0.000000
# 3 -0.006922 -0.001153 0.006686 0.000000 0.000000 0.000000
# 4 0.000000 0.000000 0.000000 0.013042 0.000000 0.000000
# 5 0.000000 0.000000 0.000000 0.000000 0.018481 0.000000
# 6 0.000000 0.000000 0.000000 0.000000 0.000000 0.052264
#
#
# Mechanical properties :
#
#
# Convention : Reuss Voigt Hill
#
# Bulk Modulus (GPa) = 39.41813 97.64662 68.53238
# Shear Modulus (GPa) = 22.47032 44.72091 33.59561
#
# Velocity S-wave (km/s) = 2.96049 4.17651 3.61993
# Velocity P-wave (km/s) = 5.20201 7.83227 6.64851
#
# Compressibility (1/GPa) = 0.02536903
#
# Stress axis : x y z
#
# Youngs Moduli (GPa) = 17.35228 74.04633 149.56010
#
# Poissons Ratio (x) = 1.34406 1.03520
# Poissons Ratio (y) = 0.31497 0.17238
# Poissons Ratio (z) = 0.12011 0.08534
#
# Static dielectric constant tensor:
#      x y z
#    x 2.414960 0.000000 0.000000 
#    y 0.000000 1.934400 0.000000 
#    z 0.000000 0.000000 1.982810 
# 
# From -- ./inp_files/13724.got.cif
#   From: 2010.05.17/outbox.cif.g08.bks.cpg/sg50_7_cif.got.tgz:13724.got - 2010.06.03 11:33:33.
