data_PCOD9398594
_publ_section_title
;
Structure prediction by ZEFSAII (Michael W. Deem and Ramdas Pophale) SiO2 
 PCOD9398594
Probable space group: P M M A
;
_chemical_formula_sum "Si O2"
_cell_formula_units_Z 64
_cell_length_a 14.822391
_cell_length_b 20.092975
_cell_length_c 10.424110
_cell_angle_alpha 90.000000
_cell_angle_beta 90.000000
_cell_angle_gamma 90.000000
_cell_volume 3104.570274
_symmetry_space_group_name_H-M "P M M A"
_symmetry_group_IT_number 51
_symmetry_cell_setting 'orthorhombic'
loop_
_space_group_symop_operation_xyz
x,y,z
1/2-x,-y,z
1/2+x,-y,-z
-x,y,-z
-x,-y,-z
1/2+x,y,-z
1/2-x,y,z
x,-y,z
loop_
_atom_site_type_symbol
_atom_site_label
_atom_site_fract_x
_atom_site_fract_y
_atom_site_fract_z
Si Si1 0.415693 0.926232 0.900385
Si Si2 0.914627 0.926778 0.403272
Si Si3 0.112115 0.279660 0.247831
Si Si4 0.610927 0.213188 0.490734
Si Si5 0.141292 0.575643 0.622291
Si Si6 0.400416 0.705149 0.750295
Si Si7 0.857760 0.425336 0.669165
Si Si8 0.889253 0.786181 0.010601
O O1 0.440287 0.916358 0.748292
O O2 0.363318 0.860460 0.945543
O O3 0.372684 0.000000 0.908091
O O4 0.500000 0.928815 0.000000
O O5 0.862888 0.861952 0.453794
O O6 0.000000 0.930029 0.500000
O O7 0.870555 0.000000 0.409768
O O8 0.144869 0.244487 0.377422
O O9 0.126999 0.359182 0.248153
O O10 0.004247 0.273412 0.248565
O O11 0.145272 0.239948 0.124638
O O12 0.500000 0.213564 0.500000
O O13 0.640278 0.260214 0.374749
O O14 0.250000 0.580677 0.623180
O O15 0.116662 0.500000 0.651285
O O16 0.104536 0.627208 0.724602
O O17 0.109274 0.589649 0.476351
O O18 0.361581 0.733854 0.880566
O O19 0.750000 0.431116 0.659678
O O20 0.890586 0.500000 0.706927
O O21 0.000000 0.786651 0.000000
#
# Coordination Sequence:
#
# PCOD9398594 Si02
#       8
#     8   8   8   8   8   8   8   8
#     4   9  16  25  37  56  88 130 163 187 230 287
#     4   9  16  24  36  58  90 127 161 194 232 274
#     4  10  19  30  47  70  95 125 158 192 232 280
#     4   9  16  25  40  63  89 120 155 193 230 267
#     4   9  18  32  50  72  96 121 151 192 237 277
#     4  10  17  30  47  68  96 122 156 191 233 275
#     4   9  18  33  51  71  95 120 150 192 239 283
#     4   9  18  29  42  64  95 129 156 192 236 273
#
# _framework density 20.61477
#
# number of rings (size 3 to 8) (size 9 to 14) (size 15 to 20)
#    0.000    2.750    2.500    0.750    5.250    0.500 
#    0.000    2.500    0.000    3.750    0.000    0.000 
#    0.000    6.000    0.000    0.000    0.000    0.000 
#
# Total GULP energy -356517.112326 kJ/mol
# GULP energy per Si atom -5570.579880 kJ/mol
# Density = 2.056785 g / cm^3
# Si number density = 20.614770 Si / 1000 Ang^3
#
#
#
# Elastic Constant Matrix: (Units=GPa)
#
#
# Indices 1 2 3 4 5 6 
#
# 1 49.9211 -9.6126 10.7634 0.0000 0.0000 0.0000
# 2 -9.6126 158.3304 87.0011 0.0000 0.0000 0.0000
# 3 10.7634 87.0011 151.7709 0.0000 0.0000 0.0000
# 4 0.0000 0.0000 0.0000 24.9901 0.0000 0.0000
# 5 0.0000 0.0000 0.0000 0.0000 -2.9325 0.0000
# 6 0.0000 0.0000 0.0000 0.0000 0.0000 175.3860
#
#
#
# Elastic Compliance Matrix: (Units=1/GPa)
#
#
# Indices 1 2 3 4 5 6 
#
# 1 0.021340 0.003105 -0.003293 0.000000 0.000000 0.000000
# 2 0.003105 0.009672 -0.005765 0.000000 0.000000 0.000000
# 3 -0.003293 -0.005765 0.010127 0.000000 0.000000 0.000000
# 4 0.000000 0.000000 0.000000 0.040016 0.000000 0.000000
# 5 0.000000 0.000000 0.000000 0.000000 -0.341007 0.000000
# 6 0.000000 0.000000 0.000000 0.000000 0.000000 0.005702
#
#
# Mechanical properties :
#
#
# Convention : Reuss Voigt Hill
#
# Bulk Modulus (GPa) = 34.20779 59.59178 46.89979
# Shear Modulus (GPa) = -21.50527 57.61341 18.05407
#
# Velocity S-wave (km/s) = -3.23336 5.29229 2.96257
# Velocity P-wave (km/s) = 1.64023 8.14337 5.87388
#
# Compressibility (1/GPa) = 0.02923311
#
# Stress axis : x y z
#
# Youngs Moduli (GPa) = 46.86109 103.39074 98.74632
#
# Poissons Ratio (x) = -0.32106 0.32522
# Poissons Ratio (y) = -0.14552 0.56924
# Poissons Ratio (z) = 0.15434 0.59601
#
# Static dielectric constant tensor:
#      x y z
#    x 1.823430 0.000000 0.000000 
#    y 0.000000 1.780810 0.000000 
#    z 0.000000 0.000000 1.723750 
# 
# From -- ./inp_files/11246.got.cif
#   From: 2010.05.17/outbox.cif.g08.bks.cpg/sg51_6_cif.got.tgz:11246.got - 2010.06.03 11:52:47.
