data_PCOD9398298
_publ_section_title
;
Structure prediction by ZEFSAII (Michael W. Deem and Ramdas Pophale) SiO2 
 PCOD9398298
Probable space group: P B A N
;
_chemical_formula_sum "Si O2"
_cell_formula_units_Z 22
_cell_length_a 11.008169
_cell_length_b 14.906491
_cell_length_c 4.799006
_cell_angle_alpha 90.000000
_cell_angle_beta 90.000000
_cell_angle_gamma 90.000000
_cell_volume 787.484118
_symmetry_space_group_name_H-M "P B A N"
_symmetry_group_IT_number 50
_space_group.IT_coordinate_system_code '2'
_symmetry_cell_setting 'orthorhombic'
loop_
_space_group_symop_operation_xyz
x,y,z
1/2-x,1/2-y,z
x,1/2-y,-z
1/2-x,y,-z
-x,-y,-z
1/2+x,1/2+y,-z
-x,1/2+y,z
1/2+x,-y,z
loop_
_atom_site_type_symbol
_atom_site_label
_atom_site_fract_x
_atom_site_fract_y
_atom_site_fract_z
Si Si1 0.750000 0.535377 0.000000
Si Si2 0.071538 0.878435 0.860488
Si Si3 0.903297 0.848357 0.378641
Si Si4 0.250000 0.750000 0.500000
O O1 0.860382 0.465042 0.980160
O O2 0.788287 0.603259 0.756993
O O3 0.168156 0.813902 0.699962
O O4 0.973520 0.900865 0.622044
O O5 0.998588 0.839331 0.122161
O O6 0.881731 0.750000 0.500000
#
# Coordination Sequence:
#
# PCOD9398298 Si02
#       4
#     4   8   8   2
#     4  12  30  55  89 136 176 242 284 379 451 520
#     4  12  28  52  88 130 179 229 309 356 440 531
#     4  12  29  55  87 131 181 234 298 364 443 538
#     4  12  28  54  90 134 164 244 286 376 438 526
#
# _framework density 27.937069999999999
#
# number of rings (size 3 to 8) (size 9 to 14) (size 15 to 20)
#    0.000    0.000    1.818    5.455    5.091    8.727 
#    3.273    3.636    0.000    4.364    0.000    0.000 
#    0.000    0.000    0.000    0.000    0.000    0.000 
#
# Total GULP energy -123544.591655 kJ/mol
# GULP energy per Si atom -5615.663257 kJ/mol
# Density = 2.787348 g / cm^3
# Si number density = 27.937070 Si / 1000 Ang^3
#
#
#
# Elastic Constant Matrix: (Units=GPa)
#
#
# Indices 1 2 3 4 5 6 
#
# 1 216.7976 107.0393 139.3574 0.0000 0.0000 0.0000
# 2 107.0393 228.4551 132.5581 0.0000 0.0000 0.0000
# 3 139.3574 132.5581 277.9902 0.0000 0.0000 0.0000
# 4 0.0000 0.0000 0.0000 33.8877 0.0000 0.0000
# 5 0.0000 0.0000 0.0000 0.0000 64.0569 0.0000
# 6 0.0000 0.0000 0.0000 0.0000 0.0000 33.6941
#
#
#
# Elastic Compliance Matrix: (Units=1/GPa)
#
#
# Indices 1 2 3 4 5 6 
#
# 1 0.007301 -0.001793 -0.002805 0.000000 0.000000 0.000000
# 2 -0.001793 0.006492 -0.002197 0.000000 0.000000 0.000000
# 3 -0.002805 -0.002197 0.006051 0.000000 0.000000 0.000000
# 4 0.000000 0.000000 0.000000 0.029509 0.000000 0.000000
# 5 0.000000 0.000000 0.000000 0.000000 0.015611 0.000000
# 6 0.000000 0.000000 0.000000 0.000000 0.000000 0.029679
#
#
# Mechanical properties :
#
#
# Convention : Reuss Voigt Hill
#
# Bulk Modulus (GPa) = 159.89504 164.57251 162.23378
# Shear Modulus (GPa) = 45.32371 49.28027 47.30199
#
# Velocity S-wave (km/s) = 4.03221 4.20453 4.11927
# Velocity P-wave (km/s) = 8.89025 9.08883 8.99009
#
# Compressibility (1/GPa) = 0.00625410
#
# Stress axis : x y z
#
# Youngs Moduli (GPa) = 136.96818 154.03434 165.26588
#
# Poissons Ratio (x) = 0.27622 0.46355
# Poissons Ratio (y) = 0.24562 0.36305
# Poissons Ratio (z) = 0.38418 0.33837
#
# Static dielectric constant tensor:
#      x y z
#    x 2.281630 0.000000 0.000000 
#    y 0.000000 2.129420 0.000000 
#    z 0.000000 0.000000 2.143100 
# 
# From -- ./inp_files/1595.got.cif
#   From: 2010.05.17/outbox.cif.g08.bks.cpg/sg50_1_cif.got.tgz:1595.got - 2010.06.03 11:33:33.
