data_PCOD9398011
_publ_section_title
;
Structure prediction by ZEFSAII (Michael W. Deem and Ramdas Pophale) SiO2 
 PCOD9398011
Probable space group: P B A N
;
_chemical_formula_sum "Si O2"
_cell_formula_units_Z 64
_cell_length_a 17.582964
_cell_length_b 20.143461
_cell_length_c 9.090727
_cell_angle_alpha 90.000000
_cell_angle_beta 90.000000
_cell_angle_gamma 90.000000
_cell_volume 3219.769594
_symmetry_space_group_name_H-M "P B A N"
_symmetry_group_IT_number 50
_space_group.IT_coordinate_system_code '2'
_symmetry_cell_setting 'orthorhombic'
loop_
_space_group_symop_operation_xyz
x,y,z
1/2-x,1/2-y,z
x,1/2-y,-z
1/2-x,y,-z
-x,-y,-z
1/2+x,1/2+y,-z
-x,1/2+y,z
1/2+x,-y,z
loop_
_atom_site_type_symbol
_atom_site_label
_atom_site_fract_x
_atom_site_fract_y
_atom_site_fract_z
Si Si1 0.788327 0.685417 0.163131
Si Si2 0.454366 0.298729 0.282046
Si Si3 0.318691 0.077895 0.233345
Si Si4 0.329303 0.953939 0.439135
Si Si5 0.339794 0.982140 0.990622
Si Si6 0.060361 0.908036 0.775560
Si Si7 0.062841 0.977585 0.303073
Si Si8 0.959347 0.649879 0.618613
O O1 0.750000 0.750000 0.236793
O O2 0.876937 0.694828 0.188945
O O3 0.759364 0.617577 0.232745
O O4 0.750000 0.683700 0.000000
O O5 0.516928 0.340644 0.196248
O O6 0.474530 0.222217 0.311288
O O7 0.449620 0.335266 0.443413
O O8 0.381392 0.122800 0.311001
O O9 0.309546 0.009960 0.320527
O O10 0.344579 0.054533 0.070287
O O11 0.250000 0.928047 0.500000
O O12 0.380671 0.899899 0.358256
O O13 0.384130 0.989444 0.556280
O O14 0.391427 0.933866 0.088227
O O15 0.250000 0.965533 0.000000
O O16 0.378683 0.978920 0.832653
O O17 0.001052 0.966602 0.728866
O O18 0.020228 0.907430 0.337531
#
# Coordination Sequence:
#
# PCOD9398011 Si02
#       8
#     8   8   8   8   8   8   8   8
#     4  11  25  42  61  93 144 189 221 258 320 416
#     4  11  25  43  66  98 140 176 223 277 331 405
#     4  11  23  40  60  98 134 177 222 260 339 404
#     4  11  23  38  65  94 130 169 222 280 338 391
#     4  11  25  42  64  96 136 172 224 285 345 392
#     4  11  23  40  65  98 127 176 223 276 336 398
#     4  12  22  42  68  96 131 173 225 286 331 408
#     4  11  23  42  68  96 133 176 222 280 338 397
#
# _framework density 19.877198
#
# number of rings (size 3 to 8) (size 9 to 14) (size 15 to 20)
#    0.000    0.875    5.000    3.375    7.000    0.000 
#    0.000    0.000    0.000    4.500    0.000    0.000 
#    0.000    0.000    0.000    0.000    0.000    0.000 
#
# Total GULP energy -357402.071003 kJ/mol
# GULP energy per Si atom -5584.407359 kJ/mol
# Density = 1.983196 g / cm^3
# Si number density = 19.877198 Si / 1000 Ang^3
#
#
#
# Elastic Constant Matrix: (Units=GPa)
#
#
# Indices 1 2 3 4 5 6 
#
# 1 116.6403 39.0854 23.9734 0.0000 0.0000 0.0000
# 2 39.0854 90.6777 8.7711 0.0000 0.0000 0.0000
# 3 23.9734 8.7711 65.3362 0.0000 0.0000 0.0000
# 4 0.0000 0.0000 0.0000 18.8923 0.0000 0.0000
# 5 0.0000 0.0000 0.0000 0.0000 39.5691 0.0000
# 6 0.0000 0.0000 0.0000 0.0000 0.0000 3.0386
#
#
#
# Elastic Compliance Matrix: (Units=1/GPa)
#
#
# Indices 1 2 3 4 5 6 
#
# 1 0.010699 -0.004287 -0.003350 0.000000 0.000000 0.000000
# 2 -0.004287 0.012891 -0.000157 0.000000 0.000000 0.000000
# 3 -0.003350 -0.000157 0.016556 0.000000 0.000000 0.000000
# 4 0.000000 0.000000 0.000000 0.052932 0.000000 0.000000
# 5 0.000000 0.000000 0.000000 0.000000 0.025272 0.000000
# 6 0.000000 0.000000 0.000000 0.000000 0.000000 0.329097
#
#
# Mechanical properties :
#
#
# Convention : Reuss Voigt Hill
#
# Bulk Modulus (GPa) = 40.72332 46.25711 43.49021
# Shear Modulus (GPa) = 10.61072 25.68829 18.14951
#
# Velocity S-wave (km/s) = 2.31295 3.59883 3.02500
# Velocity P-wave (km/s) = 5.25974 6.37108 5.84190
#
# Compressibility (1/GPa) = 0.02455596
#
# Stress axis : x y z
#
# Youngs Moduli (GPa) = 93.47023 77.57140 60.40182
#
# Poissons Ratio (x) = 0.33258 0.20235
# Poissons Ratio (y) = 0.40075 0.00951
# Poissons Ratio (z) = 0.31313 0.01221
#
# Static dielectric constant tensor:
#      x y z
#    x 1.699770 0.000000 0.000000 
#    y 0.000000 1.694140 0.000000 
#    z 0.000000 0.000000 1.805310 
# 
# From -- ./inp_files/14604.got.cif
#   From: 2010.05.17/outbox.cif.g08.bks.cpg/sg50_8_cif.got.tgz:14604.got - 2010.06.03 11:33:33.
