data_PCOD9398012
_publ_section_title
;
Structure prediction by ZEFSAII (Michael W. Deem and Ramdas Pophale) SiO2 
 PCOD9398012
Probable space group: P B A N
;
_chemical_formula_sum "Si O2"
_cell_formula_units_Z 40
_cell_length_a 9.803966
_cell_length_b 17.204055
_cell_length_c 11.565474
_cell_angle_alpha 90.000000
_cell_angle_beta 90.000000
_cell_angle_gamma 90.000000
_cell_volume 1950.725025
_symmetry_space_group_name_H-M "P B A N"
_symmetry_group_IT_number 50
_space_group.IT_coordinate_system_code '2'
_symmetry_cell_setting 'orthorhombic'
loop_
_space_group_symop_operation_xyz
x,y,z
1/2-x,1/2-y,z
x,1/2-y,-z
1/2-x,y,-z
-x,-y,-z
1/2+x,1/2+y,-z
-x,1/2+y,z
1/2+x,-y,z
loop_
_atom_site_type_symbol
_atom_site_label
_atom_site_fract_x
_atom_site_fract_y
_atom_site_fract_z
Si Si1 0.258375 0.074162 0.880016
Si Si2 0.867242 0.808218 0.301114
Si Si3 0.908348 0.228078 0.134787
Si Si4 0.386554 0.460907 0.576191
Si Si5 0.941526 0.453981 0.816781
O O1 0.215058 0.135093 0.784300
O O2 0.397786 0.035477 0.836741
O O3 0.145562 0.007984 0.900916
O O4 0.250000 0.119912 0.000000
O O5 0.750000 0.750000 0.346290
O O6 0.920740 0.870964 0.393670
O O7 0.987112 0.768525 0.225458
O O8 0.750000 0.250000 0.154842
O O9 0.918419 0.136044 0.157116
O O10 0.940112 0.250000 0.000000
O O11 0.250000 0.462161 0.500000
O O12 0.500000 0.500000 0.500000
O O13 0.389120 0.513238 0.693268
#
# Coordination Sequence:
#
# PCOD9398012 Si02
#       5
#     8   8   8   8   8
#     4  11  23  38  68 100 141 185 223 269 344 426
#     4  11  24  44  69 101 137 174 235 285 342 420
#     4  11  26  42  69 103 146 179 216 277 354 422
#     4  11  26  47  73  95 130 181 237 298 351 400
#     4  11  24  43  66  99 137 179 232 281 338 419
#
# _framework density 20.505196999999999
#
# number of rings (size 3 to 8) (size 9 to 14) (size 15 to 20)
#    0.000    1.000    2.000    4.200   11.200    0.400 
#    0.000    0.000    0.000    0.000    0.000    0.000 
#    0.000    0.000    0.000    0.000    0.000    0.000 
#
# Total GULP energy -223185.475550 kJ/mol
# GULP energy per Si atom -5579.636889 kJ/mol
# Density = 2.045853 g / cm^3
# Si number density = 20.505197 Si / 1000 Ang^3
#
#
#
# Elastic Constant Matrix: (Units=GPa)
#
#
# Indices 1 2 3 4 5 6 
#
# 1 87.9037 31.9081 -6.7522 0.0000 0.0000 0.0000
# 2 31.9081 141.1396 25.2382 0.0000 0.0000 0.0000
# 3 -6.7522 25.2382 64.7135 0.0000 0.0000 0.0000
# 4 0.0000 0.0000 0.0000 14.8348 0.0000 0.0000
# 5 0.0000 0.0000 0.0000 0.0000 27.7955 0.0000
# 6 0.0000 0.0000 0.0000 0.0000 0.0000 27.9031
#
#
#
# Elastic Compliance Matrix: (Units=1/GPa)
#
#
# Indices 1 2 3 4 5 6 
#
# 1 0.012802 -0.003368 0.002649 0.000000 0.000000 0.000000
# 2 -0.003368 0.008502 -0.003667 0.000000 0.000000 0.000000
# 3 0.002649 -0.003667 0.017159 0.000000 0.000000 0.000000
# 4 0.000000 0.000000 0.000000 0.067409 0.000000 0.000000
# 5 0.000000 0.000000 0.000000 0.000000 0.035977 0.000000
# 6 0.000000 0.000000 0.000000 0.000000 0.000000 0.035838
#
#
# Mechanical properties :
#
#
# Convention : Reuss Voigt Hill
#
# Bulk Modulus (GPa) = 33.67928 43.83834 38.75881
# Shear Modulus (GPa) = 25.46372 30.33085 27.89729
#
# Velocity S-wave (km/s) = 3.52777 3.85018 3.69249
# Velocity P-wave (km/s) = 5.74925 6.41800 6.09281
#
# Compressibility (1/GPa) = 0.02969184
#
# Stress axis : x y z
#
# Youngs Moduli (GPa) = 78.11209 117.61413 58.27706
#
# Poissons Ratio (x) = 0.39612 -0.15439
# Poissons Ratio (y) = 0.26308 0.21372
# Poissons Ratio (z) = -0.20694 0.43133
#
# Static dielectric constant tensor:
#      x y z
#    x 1.801490 0.000000 0.000000 
#    y 0.000000 1.739410 0.000000 
#    z 0.000000 0.000000 1.886500 
# 
# From -- ./inp_files/18724.got.cif
#   From: 2010.05.17/outbox.cif.g08.bks.cpg/sg50_10_cif.got.tgz:18724.got - 2010.06.03 11:33:33.
