data_PCOD9398109
_publ_section_title
;
Structure prediction by ZEFSAII (Michael W. Deem and Ramdas Pophale) SiO2 
 PCOD9398109
Probable space group: P B A N
;
_chemical_formula_sum "Si O2"
_cell_formula_units_Z 40
_cell_length_a 10.644657
_cell_length_b 8.771689
_cell_length_c 18.779460
_cell_angle_alpha 90.000000
_cell_angle_beta 90.000000
_cell_angle_gamma 90.000000
_cell_volume 1753.468616
_symmetry_space_group_name_H-M "P B A N"
_symmetry_group_IT_number 50
_space_group.IT_coordinate_system_code '2'
_symmetry_cell_setting 'orthorhombic'
loop_
_space_group_symop_operation_xyz
x,y,z
1/2-x,1/2-y,z
x,1/2-y,-z
1/2-x,y,-z
-x,-y,-z
1/2+x,1/2+y,-z
-x,1/2+y,z
1/2+x,-y,z
loop_
_atom_site_type_symbol
_atom_site_label
_atom_site_fract_x
_atom_site_fract_y
_atom_site_fract_z
Si Si1 0.216129 0.422487 0.641277
Si Si2 0.621196 0.337927 0.140221
Si Si3 0.067636 0.122525 0.948148
Si Si4 0.890787 0.184607 0.571667
Si Si5 0.957719 0.110983 0.301650
O O1 0.250000 0.250000 0.625455
O O2 0.141491 0.506550 0.576715
O O3 0.345450 0.503934 0.666452
O O4 0.104685 0.436228 0.699852
O O5 0.750000 0.250000 0.135612
O O6 0.524103 0.228186 0.098923
O O7 0.637244 0.505982 0.105034
O O8 0.580707 0.352243 0.221880
O O9 0.126237 0.250000 0.000000
O O10 0.000000 0.000000 0.000000
O O11 0.750000 0.250000 0.574107
O O12 0.950291 0.250000 0.500000
O O13 0.955103 0.247891 0.642606
#
# Coordination Sequence:
#
# PCOD9398109 Si02
#       5
#     8   8   8   8   8
#     4  11  24  42  71 103 142 182 245 295 348 424
#     4  11  24  42  74 100 142 190 232 301 364 422
#     4   9  22  45  68 101 135 175 235 290 357 440
#     4   9  20  42  66  95 146 193 228 293 359 411
#     4  11  25  44  68 104 146 185 238 293 356 425
#
# _framework density 22.811926
#
# number of rings (size 3 to 8) (size 9 to 14) (size 15 to 20)
#    0.000    1.800    0.000    3.000    8.400    4.400 
#    0.000   19.000    0.000    3.600    0.000    0.000 
#    0.000    0.000    0.000    0.000    0.000    0.000 
#
# Total GULP energy -222963.650052 kJ/mol
# GULP energy per Si atom -5574.091251 kJ/mol
# Density = 2.276001 g / cm^3
# Si number density = 22.811926 Si / 1000 Ang^3
#
#
#
# Elastic Constant Matrix: (Units=GPa)
#
#
# Indices 1 2 3 4 5 6 
#
# 1 111.5582 60.6513 20.3584 0.0000 0.0000 0.0000
# 2 60.6513 195.0126 77.6861 0.0000 0.0000 0.0000
# 3 20.3584 77.6861 136.4002 0.0000 0.0000 0.0000
# 4 0.0000 0.0000 0.0000 19.4384 0.0000 0.0000
# 5 0.0000 0.0000 0.0000 0.0000 27.0900 0.0000
# 6 0.0000 0.0000 0.0000 0.0000 0.0000 36.0986
#
#
#
# Elastic Compliance Matrix: (Units=1/GPa)
#
#
# Indices 1 2 3 4 5 6 
#
# 1 0.010804 -0.003515 0.000390 0.000000 0.000000 0.000000
# 2 -0.003515 0.007777 -0.003904 0.000000 0.000000 0.000000
# 3 0.000390 -0.003904 0.009497 0.000000 0.000000 0.000000
# 4 0.000000 0.000000 0.000000 0.051445 0.000000 0.000000
# 5 0.000000 0.000000 0.000000 0.000000 0.036914 0.000000
# 6 0.000000 0.000000 0.000000 0.000000 0.000000 0.027702
#
#
# Mechanical properties :
#
#
# Convention : Reuss Voigt Hill
#
# Bulk Modulus (GPa) = 71.34098 84.48475 77.91286
# Shear Modulus (GPa) = 30.69914 35.47707 33.08810
#
# Velocity S-wave (km/s) = 3.67243 3.94788 3.81264
# Velocity P-wave (km/s) = 7.02308 7.60899 7.32190
#
# Compressibility (1/GPa) = 0.01401719
#
# Stress axis : x y z
#
# Youngs Moduli (GPa) = 92.55778 128.59092 105.29678
#
# Poissons Ratio (x) = 0.45205 -0.04103
# Poissons Ratio (y) = 0.32538 0.41112
# Poissons Ratio (z) = -0.03606 0.50207
#
# Static dielectric constant tensor:
#      x y z
#    x 1.855990 0.000000 0.000000 
#    y 0.000000 1.952520 0.000000 
#    z 0.000000 0.000000 1.896580 
# 
# From -- ./inp_files/29063.got.cif
#   From: 2010.05.17/outbox.cif.g08.bks.cpg/sg50_15_cif.got.tgz:29063.got - 2010.06.03 11:33:33.
