data_PCOD9398511
_publ_section_title
;
Structure prediction by ZEFSAII (Michael W. Deem and Ramdas Pophale) SiO2 
 PCOD9398511
Probable space group: P M M A
;
_chemical_formula_sum "Si O2"
_cell_formula_units_Z 64
_cell_length_a 27.191407
_cell_length_b 8.801509
_cell_length_c 17.753921
_cell_angle_alpha 90.000000
_cell_angle_beta 90.000000
_cell_angle_gamma 90.000000
_cell_volume 4248.964483
_symmetry_space_group_name_H-M "P M M A"
_symmetry_group_IT_number 51
_symmetry_cell_setting 'orthorhombic'
loop_
_space_group_symop_operation_xyz
x,y,z
1/2-x,-y,z
1/2+x,-y,-z
-x,y,-z
-x,-y,-z
1/2+x,y,-z
1/2-x,y,z
x,-y,z
loop_
_atom_site_type_symbol
_atom_site_label
_atom_site_fract_x
_atom_site_fract_y
_atom_site_fract_z
Si Si1 0.539663 0.182731 0.172839
Si Si2 0.371042 0.322705 0.286257
Si Si3 0.068765 0.681621 0.146526
Si Si4 0.563853 0.316042 0.329033
Si Si5 0.193421 0.818544 0.412311
Si Si6 0.559408 0.825178 0.009141
Si Si7 0.962477 0.677349 0.599325
Si Si8 0.612831 0.316280 0.478269
O O1 0.483875 0.247158 0.170041
O O2 0.566335 0.243040 0.247100
O O3 0.566407 0.229354 0.094744
O O4 0.536790 0.000000 0.172589
O O5 0.356575 0.500000 0.282053
O O6 0.388618 0.268474 0.204345
O O7 0.330247 0.233380 0.333003
O O8 0.420476 0.315295 0.337075
O O9 0.064163 0.500000 0.153253
O O10 0.079035 0.728817 0.060598
O O11 0.561534 0.500000 0.320904
O O12 0.512628 0.259897 0.366856
O O13 0.605530 0.279728 0.390654
O O14 0.250000 0.769105 0.418196
O O15 0.159610 0.749327 0.478410
O O16 0.191279 0.000000 0.417169
O O17 0.575863 0.000000 0.001892
O O18 0.500000 0.825310 0.000000
O O19 0.973293 0.500000 0.583716
O O20 0.935734 0.738129 0.524687
O O21 0.614119 0.500000 0.485649
#
# Coordination Sequence:
#
# PCOD9398511 Si02
#       8
#     8   8   8   8   8   8   8   8
#     4  10  19  28  38  56  87 123 152 180 216 251
#     4   9  17  29  46  66  86 112 145 180 220 260
#     4  10  17  27  43  62  83 110 149 188 217 250
#     4  10  17  27  43  62  86 115 149 184 215 251
#     4  10  21  35  49  65  87 113 141 178 221 263
#     4   8  16  28  38  53  81 117 151 180 212 248
#     4   8  13  25  41  58  83 111 139 173 212 250
#     4   9  18  30  46  65  84 111 144 180 221 260
#
# _framework density 15.062493
#
# number of rings (size 3 to 8) (size 9 to 14) (size 15 to 20)
#    0.000    2.750    1.250    3.000    0.000    6.750 
#    0.000    0.000    0.000    2.250    0.000    0.000 
#    0.000    1.000    0.000   11.000    0.000    8.000 
#
# Total GULP energy -356344.480534 kJ/mol
# GULP energy per Si atom -5567.882508 kJ/mol
# Density = 1.502821 g / cm^3
# Si number density = 15.062493 Si / 1000 Ang^3
#
#
#
# Elastic Constant Matrix: (Units=GPa)
#
#
# Indices 1 2 3 4 5 6 
#
# 1 48.2173 19.2432 41.0667 0.0000 0.0000 0.0000
# 2 19.2432 28.9856 35.3465 0.0000 0.0000 0.0000
# 3 41.0667 35.3465 148.6662 0.0000 0.0000 0.0000
# 4 0.0000 0.0000 0.0000 18.5500 0.0000 0.0000
# 5 0.0000 0.0000 0.0000 0.0000 11.0383 0.0000
# 6 0.0000 0.0000 0.0000 0.0000 0.0000 11.0688
#
#
#
# Elastic Compliance Matrix: (Units=1/GPa)
#
#
# Indices 1 2 3 4 5 6 
#
# 1 0.030762 -0.014168 -0.005129 0.000000 0.000000 0.000000
# 2 -0.014168 0.055112 -0.009190 0.000000 0.000000 0.000000
# 3 -0.005129 -0.009190 0.010328 0.000000 0.000000 0.000000
# 4 0.000000 0.000000 0.000000 0.053908 0.000000 0.000000
# 5 0.000000 0.000000 0.000000 0.000000 0.090594 0.000000
# 6 0.000000 0.000000 0.000000 0.000000 0.000000 0.090344
#
#
# Mechanical properties :
#
#
# Convention : Reuss Voigt Hill
#
# Bulk Modulus (GPa) = 25.49124 46.35355 35.92239
# Shear Modulus (GPa) = 12.46576 16.81226 14.63901
#
# Velocity S-wave (km/s) = 2.87993 3.34453 3.12089
# Velocity P-wave (km/s) = 5.29330 6.76428 6.07349
#
# Compressibility (1/GPa) = 0.03922917
#
# Stress axis : x y z
#
# Youngs Moduli (GPa) = 32.50746 18.14480 96.82240
#
# Poissons Ratio (x) = 0.25708 0.49660
# Poissons Ratio (y) = 0.46057 0.88976
# Poissons Ratio (z) = 0.16673 0.16674
#
# Static dielectric constant tensor:
#      x y z
#    x 1.473620 0.000000 0.000000 
#    y 0.000000 1.511880 0.000000 
#    z 0.000000 0.000000 1.544500 
# 
# From -- ./inp_files/31005.got.cif
#   From: 2010.05.17/outbox.cif.g08.bks.cpg/sg51_16_cif.got.tgz:31005.got - 2010.06.03 11:52:47.
