data_PCOD9398547
_publ_section_title
;
Structure prediction by ZEFSAII (Michael W. Deem and Ramdas Pophale) SiO2 
 PCOD9398547
Probable space group: P M M A
;
_chemical_formula_sum "Si O2"
_cell_formula_units_Z 64
_cell_length_a 30.833408
_cell_length_b 7.609329
_cell_length_c 15.533517
_cell_angle_alpha 90.000000
_cell_angle_beta 90.000000
_cell_angle_gamma 90.000000
_cell_volume 3644.497768
_symmetry_space_group_name_H-M "P M M A"
_symmetry_group_IT_number 51
_symmetry_cell_setting 'orthorhombic'
loop_
_space_group_symop_operation_xyz
x,y,z
1/2-x,-y,z
1/2+x,-y,-z
-x,y,-z
-x,-y,-z
1/2+x,y,-z
1/2-x,y,z
x,-y,z
loop_
_atom_site_type_symbol
_atom_site_label
_atom_site_fract_x
_atom_site_fract_y
_atom_site_fract_z
Si Si1 0.946168 0.299826 0.875934
Si Si2 0.297904 0.714124 0.005607
Si Si3 0.039752 0.715504 0.817590
Si Si4 0.610935 0.802768 0.721541
Si Si5 0.797721 0.712041 0.793251
Si Si6 0.062160 0.711476 0.442587
Si Si7 0.891987 0.715234 0.039546
Si Si8 0.033070 0.285665 0.623109
O O1 0.955188 0.500000 0.903975
O O2 0.918145 0.306244 0.788421
O O3 0.993366 0.222730 0.855266
O O4 0.916652 0.224320 0.952458
O O5 0.250000 0.772950 0.975675
O O6 0.297379 0.500000 0.002675
O O7 0.341924 0.773851 0.959807
O O8 0.302273 0.762772 0.106428
O O9 0.038464 0.500000 0.816283
O O10 0.078929 0.767772 0.879477
O O11 0.044567 0.773540 0.718714
O O12 0.661310 0.776421 0.740659
O O13 0.599059 0.768044 0.622971
O O14 0.598425 0.000000 0.743144
O O15 0.750000 0.769916 0.763513
O O16 0.798644 0.500000 0.791208
O O17 0.062031 0.500000 0.443854
O O18 0.062101 0.771527 0.541733
O O19 0.016162 0.766466 0.400709
O O20 0.890666 0.500000 0.037424
O O21 0.033658 0.500000 0.623935
#
# Coordination Sequence:
#
# PCOD9398547 Si02
#       8
#     8   8   8   8   8   8   8   8
#     4  10  17  28  43  60  87 121 154 183 211 258
#     4   8  13  22  38  61  86 110 138 173 212 257
#     4   9  15  23  40  66  88 108 146 196 229 255
#     4  12  22  29  42  66  94 121 149 182 223 266
#     4   9  17  31  50  67  85 114 150 183 218 263
#     4   9  16  29  47  63  82 113 150 187 226 267
#     4   9  15  22  38  65  89 111 144 185 225 259
#     4   8  14  25  44  66  83 105 147 195 229 258
#
# _framework density 17.560718000000001
#
# number of rings (size 3 to 8) (size 9 to 14) (size 15 to 20)
#    0.000    2.750    2.500    3.000    0.000    1.750 
#    0.000    1.250    0.000    1.500    0.000    0.875 
#    0.000    5.000    0.000    0.000    0.000    0.000 
#
# Total GULP energy -356737.168583 kJ/mol
# GULP energy per Si atom -5574.018259 kJ/mol
# Density = 1.752075 g / cm^3
# Si number density = 17.560718 Si / 1000 Ang^3
#
#
#
# Elastic Constant Matrix: (Units=GPa)
#
#
# Indices 1 2 3 4 5 6 
#
# 1 158.2244 3.4525 83.5838 0.0000 0.0000 0.0000
# 2 3.4525 36.5243 3.7722 0.0000 0.0000 0.0000
# 3 83.5838 3.7722 108.8642 0.0000 0.0000 0.0000
# 4 0.0000 0.0000 0.0000 -25.0152 0.0000 0.0000
# 5 0.0000 0.0000 0.0000 0.0000 25.2978 0.0000
# 6 0.0000 0.0000 0.0000 0.0000 0.0000 -43.8891
#
#
#
# Elastic Compliance Matrix: (Units=1/GPa)
#
#
# Indices 1 2 3 4 5 6 
#
# 1 0.010634 -0.000163 -0.008159 0.000000 0.000000 0.000000
# 2 -0.000163 0.027480 -0.000827 0.000000 0.000000 0.000000
# 3 -0.008159 -0.000827 0.015478 0.000000 0.000000 0.000000
# 4 0.000000 0.000000 0.000000 -0.039976 0.000000 0.000000
# 5 0.000000 0.000000 0.000000 0.000000 0.039529 0.000000
# 6 0.000000 0.000000 0.000000 0.000000 0.000000 -0.022785
#
#
# Mechanical properties :
#
#
# Convention : Reuss Voigt Hill
#
# Bulk Modulus (GPa) = 28.33285 53.91446 41.12365
# Shear Modulus (GPa) = 82.75056 5.46566 44.10811
#
# Velocity S-wave (km/s) = 6.87203 1.76612 5.01717
# Velocity P-wave (km/s) = 8.89582 5.90993 7.55192
#
# Compressibility (1/GPa) = 0.03529472
#
# Stress axis : x y z
#
# Youngs Moduli (GPa) = 94.04186 36.39035 64.60600
#
# Poissons Ratio (x) = 0.00592 0.52709
# Poissons Ratio (y) = 0.01529 0.05345
# Poissons Ratio (z) = 0.76725 0.03011
#
# Static dielectric constant tensor:
#      x y z
#    x 1.594800 0.000000 0.000000 
#    y 0.000000 1.647290 0.000000 
#    z 0.000000 0.000000 1.589060 
# 
# From -- ./inp_files/26690.got.cif
#   From: 2010.05.17/outbox.cif.g08.bks.cpg/sg51_14_cif.got.tgz:26690.got - 2010.06.03 11:52:47.
