data_PCOD9398029
_publ_section_title
;
Structure prediction by ZEFSAII (Michael W. Deem and Ramdas Pophale) SiO2 
 PCOD9398029
Probable space group: P B A N
;
_chemical_formula_sum "Si O2"
_cell_formula_units_Z 40
_cell_length_a 9.131327
_cell_length_b 17.309104
_cell_length_c 11.249895
_cell_angle_alpha 90.000000
_cell_angle_beta 90.000000
_cell_angle_gamma 90.000000
_cell_volume 1778.103152
_symmetry_space_group_name_H-M "P B A N"
_symmetry_group_IT_number 50
_space_group.IT_coordinate_system_code '2'
_symmetry_cell_setting 'orthorhombic'
loop_
_space_group_symop_operation_xyz
x,y,z
1/2-x,1/2-y,z
x,1/2-y,-z
1/2-x,y,-z
-x,-y,-z
1/2+x,1/2+y,-z
-x,1/2+y,z
1/2+x,-y,z
loop_
_atom_site_type_symbol
_atom_site_label
_atom_site_fract_x
_atom_site_fract_y
_atom_site_fract_z
Si Si1 0.397369 0.587758 0.612000
Si Si2 0.729680 0.938250 0.309636
Si Si3 0.042341 0.181936 0.589280
Si Si4 0.324189 0.678670 0.218741
Si Si5 0.873287 0.469412 0.086245
O O1 0.563131 0.573009 0.652452
O O2 0.313242 0.506699 0.621188
O O3 0.428443 0.626662 0.484332
O O4 0.305065 0.638683 0.704827
O O5 0.824134 0.864140 0.350268
O O6 0.705086 0.967608 0.173009
O O7 0.085537 0.250000 0.500000
O O8 0.942710 0.215572 0.693203
O O9 0.250000 0.750000 0.149181
O O10 0.411558 0.606481 0.161698
O O11 0.750000 0.437718 0.000000
O O12 0.000000 0.500000 0.000000
#
# Coordination Sequence:
#
# PCOD9398029 Si02
#       5
#     8   8   8   8   8
#     4  11  23  41  65  99 143 188 231 282 353 431
#     4  11  24  42  67 102 136 186 244 296 346 434
#     4  12  24  41  65 100 150 189 224 283 367 441
#     4  11  23  43  67 103 140 183 238 294 364 449
#     4  11  23  44  72  98 131 181 245 311 356 402
#
# _framework density 22.495884
#
# number of rings (size 3 to 8) (size 9 to 14) (size 15 to 20)
#    0.000    0.800    2.000    7.800    0.000    5.200 
#    0.000    0.000    0.000    0.000    0.000    0.000 
#    0.000    0.000    0.000    0.000    0.000    0.000 
#
# Total GULP energy -223275.123304 kJ/mol
# GULP energy per Si atom -5581.878083 kJ/mol
# Density = 2.244468 g / cm^3
# Si number density = 22.495884 Si / 1000 Ang^3
#
#
#
# Elastic Constant Matrix: (Units=GPa)
#
#
# Indices 1 2 3 4 5 6 
#
# 1 133.4349 61.4873 33.2772 0.0000 0.0000 0.0000
# 2 61.4873 131.9728 40.4801 0.0000 0.0000 0.0000
# 3 33.2772 40.4801 89.1263 0.0000 0.0000 0.0000
# 4 0.0000 0.0000 0.0000 13.5999 0.0000 0.0000
# 5 0.0000 0.0000 0.0000 0.0000 46.2971 0.0000
# 6 0.0000 0.0000 0.0000 0.0000 0.0000 27.8095
#
#
#
# Elastic Compliance Matrix: (Units=1/GPa)
#
#
# Indices 1 2 3 4 5 6 
#
# 1 0.009796 -0.004000 -0.001841 0.000000 0.000000 0.000000
# 2 -0.004000 0.010437 -0.003247 0.000000 0.000000 0.000000
# 3 -0.001841 -0.003247 0.013382 0.000000 0.000000 0.000000
# 4 0.000000 0.000000 0.000000 0.073530 0.000000 0.000000
# 5 0.000000 0.000000 0.000000 0.000000 0.021600 0.000000
# 6 0.000000 0.000000 0.000000 0.000000 0.000000 0.035959
#
#
# Mechanical properties :
#
#
# Convention : Reuss Voigt Hill
#
# Bulk Modulus (GPa) = 64.76644 69.44702 67.10673
# Shear Modulus (GPa) = 26.59210 32.16058 29.37634
#
# Velocity S-wave (km/s) = 3.44188 3.78513 3.61758
# Velocity P-wave (km/s) = 6.68193 7.07397 6.88074
#
# Compressibility (1/GPa) = 0.01544009
#
# Stress axis : x y z
#
# Youngs Moduli (GPa) = 102.07780 95.81620 74.72625
#
# Poissons Ratio (x) = 0.38322 0.13758
# Poissons Ratio (y) = 0.40826 0.24263
# Poissons Ratio (z) = 0.18794 0.31111
#
# Static dielectric constant tensor:
#      x y z
#    x 1.825230 0.000000 0.000000 
#    y 0.000000 1.936070 0.000000 
#    z 0.000000 0.000000 1.942150 
# 
# From -- ./inp_files/18703.got.cif
#   From: 2010.05.17/outbox.cif.g08.bks.cpg/sg50_10_cif.got.tgz:18703.got - 2010.06.03 11:33:33.
