data_PCOD9398861
_publ_section_title
;
Structure prediction by ZEFSAII (Michael W. Deem and Ramdas Pophale) SiO2 
 PCOD9398861
Probable space group: P M M A
;
_chemical_formula_sum "Si O2"
_cell_formula_units_Z 48
_cell_length_a 21.112549
_cell_length_b 7.463204
_cell_length_c 15.946080
_cell_angle_alpha 90.000000
_cell_angle_beta 90.000000
_cell_angle_gamma 90.000000
_cell_volume 2512.580136
_symmetry_space_group_name_H-M "P M M A"
_symmetry_group_IT_number 51
_symmetry_cell_setting 'orthorhombic'
loop_
_space_group_symop_operation_xyz
x,y,z
1/2-x,-y,z
1/2+x,-y,-z
-x,y,-z
-x,-y,-z
1/2+x,y,-z
1/2-x,y,z
x,-y,z
loop_
_atom_site_type_symbol
_atom_site_label
_atom_site_fract_x
_atom_site_fract_y
_atom_site_fract_z
Si Si1 0.642281 0.715872 0.199994
Si Si2 0.499527 0.204913 0.239386
Si Si3 0.459793 0.219882 0.580987
Si Si4 0.049154 0.210776 0.069348
Si Si5 0.818532 0.210531 0.385948
Si Si6 0.318760 0.283638 0.984236
O O1 0.638808 0.500000 0.200420
O O2 0.571451 0.791411 0.205129
O O3 0.676630 0.772371 0.285083
O O4 0.673103 0.772519 0.112753
O O5 0.506862 0.282730 0.332729
O O6 0.459900 0.287324 0.162918
O O7 0.477727 0.000000 0.251643
O O8 0.500000 0.271266 0.500000
O O9 0.386245 0.281169 0.580898
O O10 0.457962 0.000000 0.584513
O O11 0.033126 0.000000 0.077266
O O12 0.120026 0.225774 0.035620
O O13 0.000000 0.285880 0.000000
O O14 0.750000 0.286332 0.412574
O O15 0.817828 0.000000 0.406929
O O16 0.250000 0.223298 0.015660
O O17 0.319259 0.500000 0.984666
#
# Coordination Sequence:
#
# PCOD9398861 Si02
#       6
#     8   8   8   8   8   8
#     4  10  18  28  44  66  93 121 150 183 225 273
#     4   9  17  30  47  68  93 119 152 189 226 272
#     4   8  14  26  46  68  89 114 144 181 226 267
#     4  10  19  31  48  68  92 122 156 190 226 269
#     4   9  17  28  43  64  90 118 147 180 222 276
#     4  10  21  33  44  63  93 126 159 195 232 271
#
# _framework density 19.103869
#
# number of rings (size 3 to 8) (size 9 to 14) (size 15 to 20)
#    0.000    2.667    1.667    2.000    0.000    3.000 
#    0.000    0.000    0.000    9.000    0.000    4.667 
#    0.000    0.000    0.000    0.000    0.000    0.000 
#
# Total GULP energy -267537.220596 kJ/mol
# GULP energy per Si atom -5573.692096 kJ/mol
# Density = 1.906039 g / cm^3
# Si number density = 19.103869 Si / 1000 Ang^3
#
#
#
# Elastic Constant Matrix: (Units=GPa)
#
#
# Indices 1 2 3 4 5 6 
#
# 1 140.9994 -6.3466 91.1831 0.0000 0.0000 0.0000
# 2 -6.3466 57.4642 3.4431 0.0000 0.0000 0.0000
# 3 91.1831 3.4431 129.7176 0.0000 0.0000 0.0000
# 4 0.0000 0.0000 0.0000 14.8043 0.0000 0.0000
# 5 0.0000 0.0000 0.0000 0.0000 -1.2933 0.0000
# 6 0.0000 0.0000 0.0000 0.0000 0.0000 4.8760
#
#
#
# Elastic Compliance Matrix: (Units=1/GPa)
#
#
# Indices 1 2 3 4 5 6 
#
# 1 0.013234 0.002022 -0.009356 0.000000 0.000000 0.000000
# 2 0.002022 0.017739 -0.001892 0.000000 0.000000 0.000000
# 3 -0.009356 -0.001892 0.014336 0.000000 0.000000 0.000000
# 4 0.000000 0.000000 0.000000 0.067548 0.000000 0.000000
# 5 0.000000 0.000000 0.000000 0.000000 -0.773187 0.000000
# 6 0.000000 0.000000 0.000000 0.000000 0.000000 0.205085
#
#
# Mechanical properties :
#
#
# Convention : Reuss Voigt Hill
#
# Bulk Modulus (GPa) = 37.23547 56.08228 46.65887
# Shear Modulus (GPa) = -11.68660 19.67084 3.99212
#
# Velocity S-wave (km/s) = -2.47602 3.21234 1.44714
# Velocity P-wave (km/s) = 3.37033 6.57108 5.22198
#
# Compressibility (1/GPa) = 0.02685612
#
# Stress axis : x y z
#
# Youngs Moduli (GPa) = 75.56404 56.37343 69.75411
#
# Poissons Ratio (x) = -0.11400 0.65263
# Poissons Ratio (y) = -0.15281 0.13200
# Poissons Ratio (z) = 0.70699 0.10668
#
# Static dielectric constant tensor:
#      x y z
#    x 1.667550 0.000000 0.000000 
#    y 0.000000 1.730950 0.000000 
#    z 0.000000 0.000000 1.663820 
# 
# From -- ./inp_files/25442.got.cif
#   From: 2010.05.17/outbox.cif.g08.bks.cpg/sg51_13_cif.got.tgz:25442.got - 2010.06.03 11:52:47.
