data_PCOD9398310
_publ_section_title
;
Structure prediction by ZEFSAII (Michael W. Deem and Ramdas Pophale) SiO2 
 PCOD9398310
Probable space group: P B A N
;
_chemical_formula_sum "Si O2"
_cell_formula_units_Z 58
_cell_length_a 27.000000
_cell_length_b 6.000000
_cell_length_c 18.000000
_cell_angle_alpha 90.000000
_cell_angle_beta 90.000000
_cell_angle_gamma 90.000000
_cell_volume 2916.000000
_symmetry_space_group_name_H-M "P B A N"
_symmetry_group_IT_number 50
_space_group.IT_coordinate_system_code '2'
_symmetry_cell_setting 'orthorhombic'
loop_
_space_group_symop_operation_xyz
x,y,z
1/2-x,1/2-y,z
x,1/2-y,-z
1/2-x,y,-z
-x,-y,-z
1/2+x,1/2+y,-z
-x,1/2+y,z
1/2+x,-y,z
loop_
_atom_site_type_symbol
_atom_site_label
_atom_site_fract_x
_atom_site_fract_y
_atom_site_fract_z
Si Si1 0.302609 0.185216 0.771047
Si Si2 0.817788 0.048685 0.622214
Si Si3 0.127719 0.939551 0.704124
Si Si4 0.521762 0.876638 0.287611
Si Si5 0.750000 0.250000 0.500000
Si Si6 0.601806 0.050511 0.189120
Si Si7 0.942140 0.001896 0.973613
Si Si8 0.416553 0.267250 0.412225
O O1 0.250000 0.250000 0.806223
O O2 0.335737 0.395830 0.747594
O O3 0.291256 0.065089 0.692358
O O4 0.340788 0.026687 0.816297
O O5 0.838256 0.278042 0.655025
O O6 0.783341 0.096524 0.552809
O O7 0.865840 0.905438 0.600203
O O8 0.101382 0.787495 0.767432
O O9 0.092513 0.050766 0.641095
O O10 0.499994 0.627321 0.269248
O O11 0.536089 0.882536 0.374259
O O12 0.574358 0.883603 0.245280
O O13 0.570964 0.023365 0.113587
O O14 0.923067 0.250000 0.000000
O O15 0.924010 0.750000 0.000000
O O16 0.000000 0.000000 0.000000
O O17 0.423196 0.250000 0.500000
#
# Coordination Sequence:
#
# PCOD9398310 Si02
#       8
#     8   8   8   8   2   8   8   8
#     4  10  21  38  66  98 133 177 240 288 343 421
#     4  10  21  36  54  91 125 180 224 299 364 427
#     4  10  19  41  65  92 136 182 239 290 363 425
#     4  12  27  43  68  98 128 183 241 286 353 417
#     4  12  20  32  58  92 128 178 234 304 386 428
#     4  11  24  43  72 101 143 182 224 289 351 436
#     4  10  25  44  70 114 148 179 214 276 357 431
#     4  11  23  41  60  87 130 183 235 310 361 409
#
# _framework density 19.890260999999999
#
# number of rings (size 3 to 8) (size 9 to 14) (size 15 to 20)
#    0.000    1.379    4.138    2.483    5.793    3.310 
#    0.000    2.759    0.000    0.414    0.000    0.000 
#    0.000    0.000    0.000    0.000    0.000    0.000 
#
# Total GULP energy -322980.038639 kJ/mol
# GULP energy per Si atom -5568.621356 kJ/mol
# Density = 1.984499 g / cm^3
# Si number density = 19.890261 Si / 1000 Ang^3
#
#
#
# Elastic Constant Matrix: (Units=GPa)
#
#
# Indices 1 2 3 4 5 6 
#
# 1 81.2941 26.2521 19.6081 0.0000 0.0000 0.0000
# 2 26.2521 119.4401 33.1999 0.0000 0.0000 0.0000
# 3 19.6081 33.1999 109.6176 0.0000 0.0000 0.0000
# 4 0.0000 0.0000 0.0000 23.2254 0.0000 0.0000
# 5 0.0000 0.0000 0.0000 0.0000 28.2242 0.0000
# 6 0.0000 0.0000 0.0000 0.0000 0.0000 22.4016
#
#
#
# Elastic Compliance Matrix: (Units=1/GPa)
#
#
# Indices 1 2 3 4 5 6 
#
# 1 0.013511 -0.002509 -0.001657 0.000000 0.000000 0.000000
# 2 -0.002509 0.009608 -0.002461 0.000000 0.000000 0.000000
# 3 -0.001657 -0.002461 0.010164 0.000000 0.000000 0.000000
# 4 0.000000 0.000000 0.000000 0.043056 0.000000 0.000000
# 5 0.000000 0.000000 0.000000 0.000000 0.035431 0.000000
# 6 0.000000 0.000000 0.000000 0.000000 0.000000 0.044640
#
#
# Mechanical properties :
#
#
# Convention : Reuss Voigt Hill
#
# Bulk Modulus (GPa) = 49.92733 52.05246 50.98989
# Shear Modulus (GPa) = 28.35424 30.18967 29.27196
#
# Velocity S-wave (km/s) = 3.77972 3.90014 3.84040
# Velocity P-wave (km/s) = 6.64863 6.81968 6.73470
#
# Compressibility (1/GPa) = 0.02002911
#
# Stress axis : x y z
#
# Youngs Moduli (GPa) = 74.01437 104.08016 98.38245
#
# Poissons Ratio (x) = 0.26114 0.16301
# Poissons Ratio (y) = 0.18571 0.24213
# Poissons Ratio (z) = 0.12263 0.25616
#
# Static dielectric constant tensor:
#      x y z
#    x 1.754590 0.000000 0.000000 
#    y 0.000000 1.785070 0.000000 
#    z 0.000000 0.000000 1.719880 
# 
# From -- ./inp_files/28373.got.cif
#   From: 2010.05.17/outbox.ucp.g08.bks.cvg/sg50_15_cif.got.tgz:28373.got - 2010.06.11 16:26:39.
