data_PCOD9398022
_publ_section_title
;
Structure prediction by ZEFSAII (Michael W. Deem and Ramdas Pophale) SiO2 
 PCOD9398022
Probable space group: P B A N
;
_chemical_formula_sum "Si O2"
_cell_formula_units_Z 48
_cell_length_a 8.858948
_cell_length_b 15.671333
_cell_length_c 15.927629
_cell_angle_alpha 90.000000
_cell_angle_beta 90.000000
_cell_angle_gamma 90.000000
_cell_volume 2211.257010
_symmetry_space_group_name_H-M "P B A N"
_symmetry_group_IT_number 50
_space_group.IT_coordinate_system_code '2'
_symmetry_cell_setting 'orthorhombic'
loop_
_space_group_symop_operation_xyz
x,y,z
1/2-x,1/2-y,z
x,1/2-y,-z
1/2-x,y,-z
-x,-y,-z
1/2+x,1/2+y,-z
-x,1/2+y,z
1/2+x,-y,z
loop_
_atom_site_type_symbol
_atom_site_label
_atom_site_fract_x
_atom_site_fract_y
_atom_site_fract_z
Si Si1 0.313364 0.155919 0.306158
Si Si2 0.011204 0.580644 0.287636
Si Si3 0.118630 0.468296 0.434074
Si Si4 0.022108 0.580540 0.829594
Si Si5 0.928153 0.853140 0.994067
Si Si6 0.163054 0.662599 0.155242
O O1 0.250000 0.250000 0.316585
O O2 0.163120 0.096510 0.310350
O O3 0.413781 0.117437 0.381192
O O4 0.408559 0.143901 0.220787
O O5 0.010125 0.508757 0.214994
O O6 0.112338 0.542952 0.362744
O O7 0.072684 0.665911 0.243016
O O8 0.250000 0.450683 0.500000
O O9 0.000000 0.500000 0.500000
O O10 0.199295 0.599772 0.822931
O O11 0.993009 0.595326 0.927284
O O12 0.931168 0.750000 0.000000
O O13 0.750000 0.876114 0.000000
O O14 0.042192 0.865496 0.915430
O O15 0.250000 0.750000 0.130918
#
# Coordination Sequence:
#
# PCOD9398022 Si02
#       6
#     8   8   8   8   8   8
#     4  11  24  43  71 101 136 183 236 283 352 428
#     4  11  25  45  68 102 138 183 232 286 359 424
#     4  11  23  46  73 101 140 182 223 285 358 427
#     4  11  23  40  68  97 137 181 232 288 343 415
#     4  11  24  41  66  98 137 185 231 287 354 410
#     4  12  24  42  69 100 138 179 238 293 351 408
#
# _framework density 21.707111000000001
#
# number of rings (size 3 to 8) (size 9 to 14) (size 15 to 20)
#    0.000    0.833    3.333    4.500    4.667    1.000 
#    0.000    1.667    0.000    0.000    0.000    0.000 
#    0.000    0.000    0.000    0.000    0.000    0.000 
#
# Total GULP energy -267515.470664 kJ/mol
# GULP energy per Si atom -5573.238972 kJ/mol
# Density = 2.165771 g / cm^3
# Si number density = 21.707111 Si / 1000 Ang^3
#
#
#
# Elastic Constant Matrix: (Units=GPa)
#
#
# Indices 1 2 3 4 5 6 
#
# 1 66.1664 6.1336 18.5211 0.0000 0.0000 0.0000
# 2 6.1336 75.6180 36.0844 0.0000 0.0000 0.0000
# 3 18.5211 36.0844 145.5195 0.0000 0.0000 0.0000
# 4 0.0000 0.0000 0.0000 15.7575 0.0000 0.0000
# 5 0.0000 0.0000 0.0000 0.0000 42.5494 0.0000
# 6 0.0000 0.0000 0.0000 0.0000 0.0000 30.5687
#
#
#
# Elastic Compliance Matrix: (Units=1/GPa)
#
#
# Indices 1 2 3 4 5 6 
#
# 1 0.015681 -0.000362 -0.001906 0.000000 0.000000 0.000000
# 2 -0.000362 0.015008 -0.003675 0.000000 0.000000 0.000000
# 3 -0.001906 -0.003675 0.008026 0.000000 0.000000 0.000000
# 4 0.000000 0.000000 0.000000 0.063462 0.000000 0.000000
# 5 0.000000 0.000000 0.000000 0.000000 0.023502 0.000000
# 6 0.000000 0.000000 0.000000 0.000000 0.000000 0.032713
#
#
# Mechanical properties :
#
#
# Convention : Reuss Voigt Hill
#
# Bulk Modulus (GPa) = 37.27619 45.42022 41.34821
# Shear Modulus (GPa) = 27.89860 32.87945 30.38902
#
# Velocity S-wave (km/s) = 3.58890 3.89612 3.74566
# Velocity P-wave (km/s) = 5.86372 6.41944 6.14786
#
# Compressibility (1/GPa) = 0.02682678
#
# Stress axis : x y z
#
# Youngs Moduli (GPa) = 63.77344 66.63302 124.59720
#
# Poissons Ratio (x) = 0.02415 0.23747
# Poissons Ratio (y) = 0.02311 0.45793
# Poissons Ratio (z) = 0.12155 0.24490
#
# Static dielectric constant tensor:
#      x y z
#    x 1.815500 0.000000 0.000000 
#    y 0.000000 1.854740 0.000000 
#    z 0.000000 0.000000 1.693190 
# 
# From -- ./inp_files/25006.got.cif
#   From: 2010.05.17/outbox.cif.g08.bks.cpg/sg50_13_cif.got.tgz:25006.got - 2010.06.03 11:33:33.
