data_PCOD9398607
_publ_section_title
;
Structure prediction by ZEFSAII (Michael W. Deem and Ramdas Pophale) SiO2 
 PCOD9398607
Probable space group: P M M A
;
_chemical_formula_sum "Si O2"
_cell_formula_units_Z 64
_cell_length_a 21.346742
_cell_length_b 8.076830
_cell_length_c 18.398898
_cell_angle_alpha 90.000000
_cell_angle_beta 90.000000
_cell_angle_gamma 90.000000
_cell_volume 3172.227714
_symmetry_space_group_name_H-M "P M M A"
_symmetry_group_IT_number 51
_symmetry_cell_setting 'orthorhombic'
loop_
_space_group_symop_operation_xyz
x,y,z
1/2-x,-y,z
1/2+x,-y,-z
-x,y,-z
-x,-y,-z
1/2+x,y,-z
1/2-x,y,z
x,-y,z
loop_
_atom_site_type_symbol
_atom_site_label
_atom_site_fract_x
_atom_site_fract_y
_atom_site_fract_z
Si Si1 0.537244 0.698116 0.199996
Si Si2 0.608873 0.799462 0.781720
Si Si3 0.677664 0.313048 0.469673
Si Si4 0.677207 0.797780 0.931211
Si Si5 0.354699 0.183160 0.372147
Si Si6 0.894121 0.688993 0.334747
Si Si7 0.022624 0.315584 0.418652
Si Si8 0.065241 0.799757 0.962856
O O1 0.536746 0.500000 0.208916
O O2 0.464949 0.753818 0.213070
O O3 0.589083 0.766451 0.257138
O O4 0.559749 0.743718 0.119844
O O5 0.646327 0.747693 0.853978
O O6 0.643281 0.735913 0.707982
O O7 0.610760 0.000000 0.778098
O O8 0.750000 0.315609 0.451504
O O9 0.651541 0.500000 0.469988
O O10 0.672308 0.254130 0.552760
O O11 0.644054 0.227656 0.400910
O O12 0.750000 0.744249 0.939133
O O13 0.677993 0.000000 0.931819
O O14 0.627394 0.744572 0.993341
O O15 0.428248 0.184106 0.391534
O O16 0.328242 0.000000 0.364200
O O17 0.868769 0.500000 0.323400
O O18 0.963099 0.677992 0.368366
O O19 0.051961 0.500000 0.416099
O O20 0.000000 0.283808 0.500000
O O21 0.065404 0.000000 0.965008
O O22 0.000000 0.744003 0.000000
#
# Coordination Sequence:
#
# PCOD9398607 Si02
#       8
#     8   8   8   8   8   8   8   8
#     4  11  21  33  55  86 116 142 177 230 285 330
#     4  10  20  35  54  81 114 147 182 220 269 333
#     4  10  21  39  59  73  96 145 201 235 265 325
#     4   9  18  35  59  81 104 143 188 220 257 323
#     4  11  22  32  50  81 115 140 170 224 282 330
#     4   9  18  33  53  78 104 137 180 227 272 316
#     4  10  17  30  52  73 100 135 175 221 262 311
#     4  10  19  35  59  84 112 145 183 227 271 327
#
# _framework density 20.175096
#
# number of rings (size 3 to 8) (size 9 to 14) (size 15 to 20)
#    0.000    2.000    3.750    0.750    0.000    1.750 
#    0.000    3.125    0.000    2.250    0.000    0.000 
#    0.000    0.000    0.000    0.000    0.000    0.000 
#
# Total GULP energy -356355.335982 kJ/mol
# GULP energy per Si atom -5568.052125 kJ/mol
# Density = 2.012918 g / cm^3
# Si number density = 20.175096 Si / 1000 Ang^3
#
#
#
# Elastic Constant Matrix: (Units=GPa)
#
#
# Indices 1 2 3 4 5 6 
#
# 1 105.5853 13.2041 66.0180 0.0000 0.0000 0.0000
# 2 13.2041 12.5756 10.9947 0.0000 0.0000 0.0000
# 3 66.0180 10.9947 199.0733 0.0000 0.0000 0.0000
# 4 0.0000 0.0000 0.0000 -67.4622 0.0000 0.0000
# 5 0.0000 0.0000 0.0000 0.0000 4.9677 0.0000
# 6 0.0000 0.0000 0.0000 0.0000 0.0000 15.4564
#
#
#
# Elastic Compliance Matrix: (Units=1/GPa)
#
#
# Indices 1 2 3 4 5 6 
#
# 1 0.013148 -0.010500 -0.003780 0.000000 0.000000 0.000000
# 2 -0.010500 0.091939 -0.001596 0.000000 0.000000 0.000000
# 3 -0.003780 -0.001596 0.006365 0.000000 0.000000 0.000000
# 4 0.000000 0.000000 0.000000 -0.014823 0.000000 0.000000
# 5 0.000000 0.000000 0.000000 0.000000 0.201299 0.000000
# 6 0.000000 0.000000 0.000000 0.000000 0.000000 0.064698
#
#
# Mechanical properties :
#
#
# Convention : Reuss Voigt Hill
#
# Bulk Modulus (GPa) = 12.54703 55.29642 33.92172
# Shear Modulus (GPa) = 11.87807 5.72688 8.80247
#
# Velocity S-wave (km/s) = 2.42905 1.68664 2.09105
# Velocity P-wave (km/s) = 3.75494 5.59113 4.76237
#
# Compressibility (1/GPa) = 0.07970014
#
# Stress axis : x y z
#
# Youngs Moduli (GPa) = 76.05899 10.87679 157.10843
#
# Poissons Ratio (x) = 0.11420 0.59391
# Poissons Ratio (y) = 0.79860 0.25070
# Poissons Ratio (z) = 0.28752 0.01736
#
# Static dielectric constant tensor:
#      x y z
#    x 1.693960 0.000000 0.000000 
#    y 0.000000 1.762070 0.000000 
#    z 0.000000 0.000000 1.784500 
# 
# From -- ./inp_files/30651.got.cif
#   From: 2010.05.17/outbox.cif.g08.bks.cpg/sg51_16_cif.got.tgz:30651.got - 2010.06.03 11:52:47.
