data_PCOD9398308
_publ_section_title
;
Structure prediction by ZEFSAII (Michael W. Deem and Ramdas Pophale) SiO2 
 PCOD9398308
Probable space group: P B A N
;
_chemical_formula_sum "Si O2"
_cell_formula_units_Z 60
_cell_length_a 12.000000
_cell_length_b 21.000000
_cell_length_c 12.000000
_cell_angle_alpha 90.000000
_cell_angle_beta 90.000000
_cell_angle_gamma 90.000000
_cell_volume 3024.000000
_symmetry_space_group_name_H-M "P B A N"
_symmetry_group_IT_number 50
_space_group.IT_coordinate_system_code '2'
_symmetry_cell_setting 'orthorhombic'
loop_
_space_group_symop_operation_xyz
x,y,z
1/2-x,1/2-y,z
x,1/2-y,-z
1/2-x,y,-z
-x,-y,-z
1/2+x,1/2+y,-z
-x,1/2+y,z
1/2+x,-y,z
loop_
_atom_site_type_symbol
_atom_site_label
_atom_site_fract_x
_atom_site_fract_y
_atom_site_fract_z
Si Si1 0.151216 0.848956 0.571743
Si Si2 0.071730 0.719616 0.236561
Si Si3 0.670729 0.599017 0.273484
Si Si4 0.949530 0.697989 0.580284
Si Si5 0.968286 0.250000 0.000000
Si Si6 0.925608 0.594729 0.208663
Si Si7 0.067280 0.519979 0.389958
Si Si8 0.881127 0.625270 0.973858
O O1 0.250000 0.823066 0.500000
O O2 0.162508 0.817418 0.692223
O O3 0.152869 0.924057 0.583260
O O4 0.035447 0.835578 0.506120
O O5 0.024132 0.772013 0.320674
O O6 0.099995 0.741919 0.113599
O O7 0.977260 0.665115 0.222441
O O8 0.638026 0.656523 0.353833
O O9 0.799979 0.597457 0.248528
O O10 0.631756 0.538631 0.340751
O O11 0.611646 0.601260 0.152451
O O12 0.895263 0.750000 0.500000
O O13 0.048701 0.189874 0.980741
O O14 0.990172 0.548013 0.291050
O O15 0.925205 0.581346 0.075677
O O16 0.000000 0.500000 0.500000
O O17 0.750000 0.637297 0.000000
#
# Coordination Sequence:
#
# PCOD9398308 Si02
#       8
#     8   8   8   8   4   8   8   8
#     4  10  22  40  59  78 111 155 200 238 280 344
#     4   9  19  35  57  89 117 147 189 228 291 343
#     4  11  21  36  60  82 118 152 188 242 287 341
#     4  10  20  36  54  85 116 148 190 227 285 349
#     4  10  15  30  60  83 124 148 176 236 277 349
#     4   9  22  38  55  86 118 146 192 241 281 349
#     4  11  23  38  55  81 112 151 200 238 290 340
#     4   9  18  33  55  87 114 153 189 220 290 350
#
# _framework density 19.841270000000002
#
# number of rings (size 3 to 8) (size 9 to 14) (size 15 to 20)
#    0.000    2.133    2.667    0.200    1.867    3.467 
#    0.000    3.333    0.000    1.600    0.000    0.000 
#    0.000    0.000    0.000    0.000    0.000    0.000 
#
# Total GULP energy -334284.136834 kJ/mol
# GULP energy per Si atom -5571.402281 kJ/mol
# Density = 1.979611 g / cm^3
# Si number density = 19.841270 Si / 1000 Ang^3
#
#
#
# Elastic Constant Matrix: (Units=GPa)
#
#
# Indices 1 2 3 4 5 6 
#
# 1 30.1986 9.7211 36.1663 0.0000 0.0000 0.0000
# 2 9.7211 69.0802 53.4443 0.0000 0.0000 0.0000
# 3 36.1663 53.4443 175.7979 0.0000 0.0000 0.0000
# 4 0.0000 0.0000 0.0000 31.0327 0.0000 0.0000
# 5 0.0000 0.0000 0.0000 0.0000 15.0981 0.0000
# 6 0.0000 0.0000 0.0000 0.0000 0.0000 -22.7573
#
#
#
# Elastic Compliance Matrix: (Units=1/GPa)
#
#
# Indices 1 2 3 4 5 6 
#
# 1 0.043999 0.001061 -0.009374 0.000000 0.000000 0.000000
# 2 0.001061 0.018953 -0.005980 0.000000 0.000000 0.000000
# 3 -0.009374 -0.005980 0.009435 0.000000 0.000000 0.000000
# 4 0.000000 0.000000 0.000000 0.032224 0.000000 0.000000
# 5 0.000000 0.000000 0.000000 0.000000 0.066233 0.000000
# 6 0.000000 0.000000 0.000000 0.000000 0.000000 -0.043942
#
#
# Mechanical properties :
#
#
# Convention : Reuss Voigt Hill
#
# Bulk Modulus (GPa) = 22.83093 52.63778 37.73436
# Shear Modulus (GPa) = 29.39610 16.39106 22.89358
#
# Velocity S-wave (km/s) = 3.85328 2.87733 3.40050
# Velocity P-wave (km/s) = 5.59722 6.13398 5.87174
#
# Compressibility (1/GPa) = 0.04380022
#
# Stress axis : x y z
#
# Youngs Moduli (GPa) = 22.72754 52.76134 105.98881
#
# Poissons Ratio (x) = -0.05597 0.99358
# Poissons Ratio (y) = -0.02411 0.63384
# Poissons Ratio (z) = 0.21306 0.31552
#
# Static dielectric constant tensor:
#      x y z
#    x 1.700700 0.000000 0.000000 
#    y 0.000000 1.737360 0.000000 
#    z 0.000000 0.000000 1.953850 
# 
# From -- ./inp_files/20425.got.cif
#   From: 2010.05.17/outbox.ucp.g08.bks.cvg/sg50_11_cif.got.tgz:20425.got - 2010.06.11 16:26:39.
