data_PCOD9398564
_publ_section_title
;
Structure prediction by ZEFSAII (Michael W. Deem and Ramdas Pophale) SiO2 
 PCOD9398564
Probable space group: P M M A
;
_chemical_formula_sum "Si O2"
_cell_formula_units_Z 64
_cell_length_a 22.342714
_cell_length_b 7.443329
_cell_length_c 20.034826
_cell_angle_alpha 90.000000
_cell_angle_beta 90.000000
_cell_angle_gamma 90.000000
_cell_volume 3331.875130
_symmetry_space_group_name_H-M "P M M A"
_symmetry_group_IT_number 51
_symmetry_cell_setting 'orthorhombic'
loop_
_space_group_symop_operation_xyz
x,y,z
1/2-x,-y,z
1/2+x,-y,-z
-x,y,-z
-x,-y,-z
1/2+x,y,-z
1/2-x,y,z
x,-y,z
loop_
_atom_site_type_symbol
_atom_site_label
_atom_site_fract_x
_atom_site_fract_y
_atom_site_fract_z
Si Si1 0.317995 0.714670 0.963973
Si Si2 0.991627 0.279396 0.670660
Si Si3 0.888829 0.213114 0.166871
Si Si4 0.478556 0.704289 0.178650
Si Si5 0.185379 0.213512 0.713061
Si Si6 0.438922 0.720310 0.039087
Si Si7 0.611299 0.284667 0.406043
Si Si8 0.935813 0.711251 0.538378
O O1 0.250000 0.782299 0.976772
O O2 0.315823 0.500000 0.973387
O O3 0.338528 0.751573 0.888177
O O4 0.376101 0.779124 0.006035
O O5 0.992714 0.500000 0.671959
O O6 0.980238 0.217236 0.746313
O O7 0.944690 0.219817 0.613350
O O8 0.055389 0.220571 0.639532
O O9 0.864912 0.284704 0.237369
O O10 0.952813 0.298577 0.152947
O O11 0.899662 0.000000 0.169842
O O12 0.457061 0.500000 0.186922
O O13 0.442969 0.782645 0.116026
O O14 0.250000 0.287921 0.730025
O O15 0.169264 0.243913 0.636624
O O16 0.186647 0.000000 0.724539
O O17 0.439588 0.500000 0.038462
O O18 0.500000 0.775740 0.000000
O O19 0.604695 0.500000 0.410361
O O20 0.607951 0.213929 0.481561
O O21 0.922569 0.500000 0.546721
O O22 0.000000 0.723563 0.500000
#
# Coordination Sequence:
#
# PCOD9398564 Si02
#       8
#     8   8   8   8   8   8   8   8
#     4  10  20  34  51  68  86 115 154 190 224 269
#     4   8  13  22  40  65  88 110 140 173 208 257
#     4  11  21  32  46  64  91 122 152 185 227 269
#     4  10  17  28  48  69  91 121 155 182 217 268
#     4  10  21  33  41  54  84 122 151 179 221 266
#     4   9  16  28  47  69  93 115 143 189 233 263
#     4   9  15  25  43  63  82 107 145 184 212 246
#     4   7  11  20  36  61  87 106 128 167 212 245
#
# _framework density 19.208403000000001
#
# number of rings (size 3 to 8) (size 9 to 14) (size 15 to 20)
#    0.000    2.750    2.500    2.250    0.000    1.500 
#    0.000    1.250    0.000    4.125    0.000    0.875 
#    0.000    5.000    0.000    0.625    0.000    1.000 
#
# Total GULP energy -356455.805696 kJ/mol
# GULP energy per Si atom -5569.621964 kJ/mol
# Density = 1.916468 g / cm^3
# Si number density = 19.208403 Si / 1000 Ang^3
#
#
#
# Elastic Constant Matrix: (Units=GPa)
#
#
# Indices 1 2 3 4 5 6 
#
# 1 72.3068 0.1180 43.1388 0.0000 0.0000 0.0000
# 2 0.1180 60.5973 1.2851 0.0000 0.0000 0.0000
# 3 43.1388 1.2851 129.5015 0.0000 0.0000 0.0000
# 4 0.0000 0.0000 0.0000 0.0954 0.0000 0.0000
# 5 0.0000 0.0000 0.0000 0.0000 17.7157 0.0000
# 6 0.0000 0.0000 0.0000 0.0000 0.0000 13.6147
#
#
#
# Elastic Compliance Matrix: (Units=1/GPa)
#
#
# Indices 1 2 3 4 5 6 
#
# 1 0.017261 0.000088 -0.005751 0.000000 0.000000 0.000000
# 2 0.000088 0.016506 -0.000193 0.000000 0.000000 0.000000
# 3 -0.005751 -0.000193 0.009639 0.000000 0.000000 0.000000
# 4 0.000000 0.000000 0.000000 10.478980 0.000000 0.000000
# 5 0.000000 0.000000 0.000000 0.000000 0.056447 0.000000
# 6 0.000000 0.000000 0.000000 0.000000 0.000000 0.073450
#
#
# Mechanical properties :
#
#
# Convention : Reuss Voigt Hill
#
# Bulk Modulus (GPa) = 31.55033 39.05437 35.30235
# Shear Modulus (GPa) = 0.46840 20.80941 10.63890
#
# Velocity S-wave (km/s) = 0.49435 3.29500 2.35599
# Velocity P-wave (km/s) = 4.09717 5.90356 5.08128
#
# Compressibility (1/GPa) = 0.03169539
#
# Stress axis : x y z
#
# Youngs Moduli (GPa) = 57.93507 60.58285 103.74020
#
# Poissons Ratio (x) = -0.00535 0.59657
# Poissons Ratio (y) = -0.00512 0.02005
# Poissons Ratio (z) = 0.33316 0.01171
#
# Static dielectric constant tensor:
#      x y z
#    x 1.673920 0.000000 0.000000 
#    y 0.000000 1.725230 0.000000 
#    z 0.000000 0.000000 1.718760 
# 
# From -- ./inp_files/34184.got.cif
#   From: 2010.05.17/outbox.cif.g08.bks.cpg/sg51_18_cif.got.tgz:34184.got - 2010.06.03 11:52:47.
