data_PCOD9398693
_publ_section_title
;
Structure prediction by ZEFSAII (Michael W. Deem and Ramdas Pophale) SiO2 
 PCOD9398693
Probable space group: P M M A
;
_chemical_formula_sum "Si O2"
_cell_formula_units_Z 36
_cell_length_a 8.418631
_cell_length_b 19.014932
_cell_length_c 14.799531
_cell_angle_alpha 90.000000
_cell_angle_beta 90.000000
_cell_angle_gamma 90.000000
_cell_volume 2369.104423
_symmetry_space_group_name_H-M "P M M A"
_symmetry_group_IT_number 51
_symmetry_cell_setting 'orthorhombic'
loop_
_space_group_symop_operation_xyz
x,y,z
1/2-x,-y,z
1/2+x,-y,-z
-x,y,-z
-x,-y,-z
1/2+x,y,-z
1/2-x,y,z
x,-y,z
loop_
_atom_site_type_symbol
_atom_site_label
_atom_site_fract_x
_atom_site_fract_y
_atom_site_fract_z
Si Si1 0.558168 0.500000 0.102264
Si Si2 0.059932 0.225063 0.896695
Si Si3 0.058543 0.581743 0.597891
Si Si4 0.059680 0.076293 0.103689
Si Si5 0.555894 0.638374 0.212367
O O1 0.750000 0.500000 0.102787
O O2 0.505983 0.570217 0.154649
O O3 0.500000 0.500000 0.000000
O O4 0.250000 0.226074 0.899885
O O5 0.002920 0.290211 0.836034
O O6 0.006311 0.149299 0.858566
O O7 0.000000 0.232470 0.000000
O O8 0.250000 0.581840 0.597500
O O9 0.007754 0.500000 0.609966
O O10 0.004643 0.626440 0.684274
O O11 0.000000 0.605864 0.500000
O O12 0.250000 0.079737 0.103502
O O13 0.011719 0.000000 0.143383
O O14 0.000000 0.075589 0.000000
O O15 0.750000 0.639020 0.212292
#
# Coordination Sequence:
#
# PCOD9398693 Si02
#       5
#     4   8   8   8   8
#     4  10  18  30  43  56  78 112 147 174 199 232
#     4  10  18  27  40  59  83 112 143 172 203 239
#     4   9  16  29  47  63  79 102 134 173 213 252
#     4   9  16  26  40  57  78 106 138 170 205 243
#     4   9  17  29  44  59  80 112 142 167 205 251
#
# _framework density 15.195615999999999
#
# number of rings (size 3 to 8) (size 9 to 14) (size 15 to 20)
#    0.000    2.667    1.111    3.333    0.000    1.333 
#    0.000    4.444    0.000    0.000    0.000    0.000 
#    0.000    0.889    0.000    2.000    0.000    4.000 
#
# Total GULP energy -200496.158397 kJ/mol
# GULP energy per Si atom -5569.337733 kJ/mol
# Density = 1.516103 g / cm^3
# Si number density = 15.195616 Si / 1000 Ang^3
#
#
#
# Elastic Constant Matrix: (Units=GPa)
#
#
# Indices 1 2 3 4 5 6 
#
# 1 19.4684 22.4198 13.1796 0.0000 0.0000 0.0000
# 2 22.4198 156.5155 69.7311 0.0000 0.0000 0.0000
# 3 13.1796 69.7311 103.4267 0.0000 0.0000 0.0000
# 4 0.0000 0.0000 0.0000 5.3833 0.0000 0.0000
# 5 0.0000 0.0000 0.0000 0.0000 17.9675 0.0000
# 6 0.0000 0.0000 0.0000 0.0000 0.0000 17.1712
#
#
#
# Elastic Compliance Matrix: (Units=1/GPa)
#
#
# Indices 1 2 3 4 5 6 
#
# 1 0.062049 -0.007669 -0.002736 0.000000 0.000000 0.000000
# 2 -0.007669 0.010080 -0.005819 0.000000 0.000000 0.000000
# 3 -0.002736 -0.005819 0.013940 0.000000 0.000000 0.000000
# 4 0.000000 0.000000 0.000000 0.185758 0.000000 0.000000
# 5 0.000000 0.000000 0.000000 0.000000 0.055656 0.000000
# 6 0.000000 0.000000 0.000000 0.000000 0.000000 0.058237
#
#
# Mechanical properties :
#
#
# Convention : Reuss Voigt Hill
#
# Bulk Modulus (GPa) = 18.64926 54.45239 36.55082
# Shear Modulus (GPa) = 11.46674 19.70975 15.58824
#
# Velocity S-wave (km/s) = 2.74999 3.60539 3.20635
# Velocity P-wave (km/s) = 4.73104 7.29684 6.14925
#
# Compressibility (1/GPa) = 0.05362143
#
# Stress axis : x y z
#
# Youngs Moduli (GPa) = 16.11622 99.20544 71.73354
#
# Poissons Ratio (x) = 0.76081 0.19629
# Poissons Ratio (y) = 0.12360 0.41741
# Poissons Ratio (z) = 0.04410 0.57726
#
# Static dielectric constant tensor:
#      x y z
#    x 1.530130 0.000000 0.000000 
#    y 0.000000 1.540950 0.000000 
#    z 0.000000 0.000000 1.673900 
# 
# From -- ./inp_files/20756.got.cif
#   From: 2010.05.17/outbox.cif.g08.bks.cpg/sg51_11_cif.got.tgz:20756.got - 2010.06.03 11:52:47.
