data_PCOD9398638
_publ_section_title
;
Structure prediction by ZEFSAII (Michael W. Deem and Ramdas Pophale) SiO2 
 PCOD9398638
Probable space group: P M M A
;
_chemical_formula_sum "Si O2"
_cell_formula_units_Z 64
_cell_length_a 17.464424
_cell_length_b 21.883478
_cell_length_c 9.291765
_cell_angle_alpha 90.000000
_cell_angle_beta 90.000000
_cell_angle_gamma 90.000000
_cell_volume 3551.148475
_symmetry_space_group_name_H-M "P M M A"
_symmetry_group_IT_number 51
_symmetry_cell_setting 'orthorhombic'
loop_
_space_group_symop_operation_xyz
x,y,z
1/2-x,-y,z
1/2+x,-y,-z
-x,y,-z
-x,-y,-z
1/2+x,y,-z
1/2-x,y,z
x,-y,z
loop_
_atom_site_type_symbol
_atom_site_label
_atom_site_fract_x
_atom_site_fract_y
_atom_site_fract_z
Si Si1 0.086651 0.859024 0.965365
Si Si2 0.943113 0.750238 0.254643
Si Si3 0.571083 0.623699 0.107178
Si Si4 0.029321 0.570875 0.342375
Si Si5 0.622392 0.224416 0.775461
Si Si6 0.662771 0.363035 0.834167
Si Si7 0.662901 0.813261 0.464416
Si Si8 0.658267 0.931786 0.286592
O O1 0.081245 0.800200 0.862283
O O2 0.129195 0.908963 0.869048
O O3 0.123282 0.830008 0.107796
O O4 0.000000 0.879292 0.000000
O O5 0.918093 0.684851 0.197710
O O6 0.897734 0.766691 0.397307
O O7 0.034262 0.758047 0.262012
O O8 0.539092 0.576003 0.224010
O O9 0.500000 0.636254 0.000000
O O10 0.639101 0.612945 0.994006
O O11 0.052153 0.500000 0.355390
O O12 0.100214 0.609614 0.277544
O O13 0.000000 0.591957 0.500000
O O14 0.656262 0.288904 0.830672
O O15 0.660870 0.197890 0.633274
O O16 0.750000 0.379980 0.799227
O O17 0.750000 0.802565 0.411278
O O18 0.638770 0.880406 0.406347
O O19 0.750000 0.933825 0.282485
O O20 0.629412 0.000000 0.319102
#
# Coordination Sequence:
#
# PCOD9398638 Si02
#       8
#     8   8   8   8   8   8   8   8
#     4   9  18  32  55  79 106 137 176 229 277 325
#     4  10  17  33  56  78 107 148 182 217 272 342
#     4  10  18  36  59  83 113 149 190 229 278 349
#     4  10  23  42  64  87 114 158 207 243 281 344
#     4  11  19  34  53  83 117 142 181 231 292 345
#     4  11  23  36  58  91 124 154 188 247 303 345
#     4  10  22  33  49  81 113 145 183 230 287 337
#     4   9  19  37  55  72 103 150 193 224 270 341
#
# _framework density 18.022338999999999
#
# number of rings (size 3 to 8) (size 9 to 14) (size 15 to 20)
#    0.000    2.000    3.750    1.125    1.750    4.250 
#    0.000    1.250    0.000   12.000    0.000    0.000 
#    0.000    0.000    0.000    0.000    0.000    0.000 
#
# Total GULP energy -356540.074103 kJ/mol
# GULP energy per Si atom -5570.938658 kJ/mol
# Density = 1.798132 g / cm^3
# Si number density = 18.022339 Si / 1000 Ang^3
#
#
#
# Elastic Constant Matrix: (Units=GPa)
#
#
# Indices 1 2 3 4 5 6 
#
# 1 44.9422 13.6407 34.2766 0.0000 0.0000 0.0000
# 2 13.6407 55.0033 21.8111 0.0000 0.0000 0.0000
# 3 34.2766 21.8111 103.0624 0.0000 0.0000 0.0000
# 4 0.0000 0.0000 0.0000 14.9412 0.0000 0.0000
# 5 0.0000 0.0000 0.0000 0.0000 18.2867 0.0000
# 6 0.0000 0.0000 0.0000 0.0000 0.0000 16.5603
#
#
#
# Elastic Compliance Matrix: (Units=1/GPa)
#
#
# Indices 1 2 3 4 5 6 
#
# 1 0.030550 -0.003872 -0.009341 0.000000 0.000000 0.000000
# 2 -0.003872 0.020337 -0.003016 0.000000 0.000000 0.000000
# 3 -0.009341 -0.003016 0.013448 0.000000 0.000000 0.000000
# 4 0.000000 0.000000 0.000000 0.066929 0.000000 0.000000
# 5 0.000000 0.000000 0.000000 0.000000 0.054684 0.000000
# 6 0.000000 0.000000 0.000000 0.000000 0.000000 0.060386
#
#
# Mechanical properties :
#
#
# Convention : Reuss Voigt Hill
#
# Bulk Modulus (GPa) = 31.37116 38.05165 34.71141
# Shear Modulus (GPa) = 17.27602 18.84292 18.05947
#
# Velocity S-wave (km/s) = 3.09947 3.23698 3.16897
# Velocity P-wave (km/s) = 5.50032 5.92707 5.71768
#
# Compressibility (1/GPa) = 0.03187642
#
# Stress axis : x y z
#
# Youngs Moduli (GPa) = 32.73289 49.17133 74.36174
#
# Poissons Ratio (x) = 0.19041 0.69461
# Poissons Ratio (y) = 0.12675 0.22428
# Poissons Ratio (z) = 0.30576 0.14830
#
# Static dielectric constant tensor:
#      x y z
#    x 1.643760 0.000000 0.000000 
#    y 0.000000 1.622170 0.000000 
#    z 0.000000 0.000000 1.642590 
# 
# From -- ./inp_files/10062.got.cif
#   From: 2010.05.17/outbox.cif.g08.bks.cpg/sg51_6_cif.got.tgz:10062.got - 2010.06.03 11:52:47.
