data_PCOD9398519
_publ_section_title
;
Structure prediction by ZEFSAII (Michael W. Deem and Ramdas Pophale) SiO2 
 PCOD9398519
Probable space group: P M M A
;
_chemical_formula_sum "Si O2"
_cell_formula_units_Z 64
_cell_length_a 15.222988
_cell_length_b 15.019083
_cell_length_c 15.705623
_cell_angle_alpha 90.000000
_cell_angle_beta 90.000000
_cell_angle_gamma 90.000000
_cell_volume 3590.860145
_symmetry_space_group_name_H-M "P M M A"
_symmetry_group_IT_number 51
_symmetry_cell_setting 'orthorhombic'
loop_
_space_group_symop_operation_xyz
x,y,z
1/2-x,-y,z
1/2+x,-y,-z
-x,y,-z
-x,-y,-z
1/2+x,y,-z
1/2-x,y,z
x,-y,z
loop_
_atom_site_type_symbol
_atom_site_label
_atom_site_fract_x
_atom_site_fract_y
_atom_site_fract_z
Si Si1 0.648725 0.288573 0.038820
Si Si2 0.143019 0.098430 0.202524
Si Si3 0.147871 0.607755 0.620606
Si Si4 0.143238 0.097201 0.002218
Si Si5 0.148874 0.720919 0.278554
Si Si6 0.357953 0.602573 0.433597
Si Si7 0.399575 0.398348 0.123187
Si Si8 0.403837 0.601395 0.804987
O O1 0.750000 0.283096 0.009950
O O2 0.612458 0.187947 0.041769
O O3 0.645342 0.334901 0.129920
O O4 0.603200 0.349323 0.967358
O O5 0.250000 0.100565 0.205991
O O6 0.108679 0.183736 0.253713
O O7 0.115098 0.000000 0.231976
O O8 0.121856 0.106656 0.102384
O O9 0.250000 0.634307 0.629615
O O10 0.145885 0.500000 0.615679
O O11 0.114974 0.635853 0.527389
O O12 0.099810 0.632903 0.707498
O O13 0.250000 0.094401 0.995188
O O14 0.110805 0.000000 0.972326
O O15 0.250000 0.738192 0.302696
O O16 0.110879 0.664471 0.356746
O O17 0.149211 0.660238 0.193988
O O18 0.250000 0.600147 0.433876
O O19 0.386973 0.500000 0.420098
O O20 0.366622 0.500000 0.115910
O O21 0.497951 0.401696 0.159247
O O22 0.367996 0.500000 0.807672
#
# Coordination Sequence:
#
# PCOD9398519 Si02
#       8
#     8   8   8   8   8   8   8   8
#     4  11  20  31  49  69  85 113 152 184 216 259
#     4   8  13  23  40  62  88 114 140 174 215 259
#     4   8  14  28  48  65  82 111 152 190 216 243
#     4   8  14  26  44  66  89 109 135 177 223 261
#     4  10  17  27  44  67  91 117 145 174 216 270
#     4   8  14  24  41  66  92 113 138 179 221 251
#     4  11  22  32  41  60  94 126 146 174 221 266
#     4  10  21  34  45  60  88 123 155 187 219 251
#
# _framework density 17.823028000000001
#
# number of rings (size 3 to 8) (size 9 to 14) (size 15 to 20)
#    0.000    2.750    1.250    3.375    0.000    3.750 
#    0.000    0.625    0.000    5.250    0.000    0.875 
#    0.000    6.000    0.000    0.000    0.000    0.000 
#
# Total GULP energy -356640.457901 kJ/mol
# GULP energy per Si atom -5572.507155 kJ/mol
# Density = 1.778246 g / cm^3
# Si number density = 17.823028 Si / 1000 Ang^3
#
#
#
# Elastic Constant Matrix: (Units=GPa)
#
#
# Indices 1 2 3 4 5 6 
#
# 1 22.5673 2.9887 -1.2670 0.0000 0.0000 0.0000
# 2 2.9887 140.1017 62.6109 0.0000 0.0000 0.0000
# 3 -1.2670 62.6109 102.2372 0.0000 0.0000 0.0000
# 4 0.0000 0.0000 0.0000 0.0053 0.0000 0.0000
# 5 0.0000 0.0000 0.0000 0.0000 9.4119 0.0000
# 6 0.0000 0.0000 0.0000 0.0000 0.0000 -9.2234
#
#
#
# Elastic Compliance Matrix: (Units=1/GPa)
#
#
# Indices 1 2 3 4 5 6 
#
# 1 0.044618 -0.001651 0.001564 0.000000 0.000000 0.000000
# 2 -0.001651 0.009888 -0.006076 0.000000 0.000000 0.000000
# 3 0.001564 -0.006076 0.013522 0.000000 0.000000 0.000000
# 4 0.000000 0.000000 0.000000190.427650 0.000000 0.000000
# 5 0.000000 0.000000 0.000000 0.000000 0.106248 0.000000
# 6 0.000000 0.000000 0.000000 0.000000 0.000000 -0.108420
#
#
# Mechanical properties :
#
#
# Convention : Reuss Voigt Hill
#
# Bulk Modulus (GPa) = 17.95258 43.73016 30.84137
# Shear Modulus (GPa) = 0.02624 13.41033 6.71829
#
# Velocity S-wave (km/s) = 0.12148 2.74600 1.94361
# Velocity P-wave (km/s) = 3.18029 5.88583 4.73061
#
# Compressibility (1/GPa) = 0.05570230
#
# Stress axis : x y z
#
# Youngs Moduli (GPa) = 22.41230 101.12987 73.95569
#
# Poissons Ratio (x) = 0.16693 -0.11565
# Poissons Ratio (y) = 0.03700 0.44936
# Poissons Ratio (z) = -0.03505 0.61448
#
# Static dielectric constant tensor:
#      x y z
#    x 1.682040 0.000000 0.000000 
#    y 0.000000 1.638280 0.000000 
#    z 0.000000 0.000000 1.601680 
# 
# From -- ./inp_files/25358.got.cif
#   From: 2010.05.17/outbox.cif.g08.bks.cpg/sg51_13_cif.got.tgz:25358.got - 2010.06.03 11:52:47.
