data_PCOD9398655
_publ_section_title
;
Structure prediction by ZEFSAII (Michael W. Deem and Ramdas Pophale) SiO2 
 PCOD9398655
Probable space group: P M M A
;
_chemical_formula_sum "Si O2"
_cell_formula_units_Z 64
_cell_length_a 8.945910
_cell_length_b 27.541020
_cell_length_c 18.694832
_cell_angle_alpha 90.000000
_cell_angle_beta 90.000000
_cell_angle_gamma 90.000000
_cell_volume 4606.023103
_symmetry_space_group_name_H-M "P M M A"
_symmetry_group_IT_number 51
_symmetry_cell_setting 'orthorhombic'
loop_
_space_group_symop_operation_xyz
x,y,z
1/2-x,-y,z
1/2+x,-y,-z
-x,y,-z
-x,-y,-z
1/2+x,y,-z
1/2-x,y,z
x,-y,z
loop_
_atom_site_type_symbol
_atom_site_label
_atom_site_fract_x
_atom_site_fract_y
_atom_site_fract_z
Si Si1 0.570426 0.651089 0.922395
Si Si2 0.922175 0.702296 0.207253
Si Si3 0.921255 0.600163 0.293919
Si Si4 0.930037 0.159139 0.420414
Si Si5 0.928156 0.348768 0.577858
Si Si6 0.070451 0.553784 0.161394
Si Si7 0.429748 0.052152 0.579128
Si Si8 0.071392 0.751355 0.337736
O O1 0.750000 0.653476 0.925200
O O2 0.507513 0.690101 0.865834
O O3 0.526542 0.597815 0.891021
O O4 0.500000 0.657665 0.000000
O O5 0.750000 0.716108 0.194666
O O6 0.921793 0.651449 0.251116
O O7 0.005177 0.739461 0.259714
O O8 0.750000 0.586107 0.306908
O O9 0.006055 0.611569 0.367347
O O10 0.001298 0.563850 0.239324
O O11 0.750000 0.163376 0.425229
O O12 0.969267 0.105151 0.390507
O O13 0.000000 0.163027 0.500000
O O14 0.996284 0.201723 0.372394
O O15 0.750000 0.353547 0.573626
O O16 0.961346 0.295678 0.612174
O O17 0.000000 0.352319 0.500000
O O18 0.250000 0.555783 0.167651
O O19 0.027263 0.500000 0.135894
O O20 0.500000 0.051901 0.500000
O O21 0.250000 0.052117 0.572820
O O22 0.473206 0.000000 0.613289
O O23 0.250000 0.756577 0.334351
#
# Coordination Sequence:
#
# PCOD9398655 Si02
#       8
#     8   8   8   8   8   8   8   8
#     4  10  19  31  47  67  90 113 137 163 191 224
#     4   9  17  30  46  62  81 106 135 164 195 234
#     4   9  17  29  45  63  81 102 130 162 194 233
#     4  10  18  26  37  54  77 105 138 178 220 256
#     4  10  19  29  42  59  79 103 130 162 200 241
#     4   9  18  32  48  65  86 111 135 159 190 228
#     4   8  14  24  36  49  67  95 133 175 216 255
#     4  10  19  29  41  58  81 107 134 166 205 247
#
# _framework density 13.89485
#
# number of rings (size 3 to 8) (size 9 to 14) (size 15 to 20)
#    0.000    2.625    0.000    2.625    0.000    7.000 
#    0.000    0.000    0.000    0.375    0.000    0.000 
#    0.000    0.000    0.000    0.000    0.000    0.625 
#
# Total GULP energy -356440.331144 kJ/mol
# GULP energy per Si atom -5569.380174 kJ/mol
# Density = 1.386322 g / cm^3
# Si number density = 13.894850 Si / 1000 Ang^3
#
#
#
# Elastic Constant Matrix: (Units=GPa)
#
#
# Indices 1 2 3 4 5 6 
#
# 1 45.0866 19.6059 40.6347 0.0000 0.0000 0.0000
# 2 19.6059 56.7123 35.1614 0.0000 0.0000 0.0000
# 3 40.6347 35.1614 102.5788 0.0000 0.0000 0.0000
# 4 0.0000 0.0000 0.0000 8.9171 0.0000 0.0000
# 5 0.0000 0.0000 0.0000 0.0000 23.8281 0.0000
# 6 0.0000 0.0000 0.0000 0.0000 0.0000 14.2697
#
#
#
# Elastic Compliance Matrix: (Units=1/GPa)
#
#
# Indices 1 2 3 4 5 6 
#
# 1 0.035375 -0.004497 -0.012472 0.000000 0.000000 0.000000
# 2 -0.004497 0.022963 -0.006090 0.000000 0.000000 0.000000
# 3 -0.012472 -0.006090 0.016776 0.000000 0.000000 0.000000
# 4 0.000000 0.000000 0.000000 0.112144 0.000000 0.000000
# 5 0.000000 0.000000 0.000000 0.000000 0.041967 0.000000
# 6 0.000000 0.000000 0.000000 0.000000 0.000000 0.070078
#
#
# Mechanical properties :
#
#
# Convention : Reuss Voigt Hill
#
# Bulk Modulus (GPa) = 34.48543 43.90908 39.19725
# Shear Modulus (GPa) = 14.08103 16.66805 15.37454
#
# Velocity S-wave (km/s) = 3.18685 3.46726 3.33001
# Velocity P-wave (km/s) = 6.19791 6.90643 6.56174
#
# Compressibility (1/GPa) = 0.02899775
#
# Stress axis : x y z
#
# Youngs Moduli (GPa) = 28.26823 43.54807 59.60719
#
# Poissons Ratio (x) = 0.19584 0.74341
# Poissons Ratio (y) = 0.12712 0.36299
# Poissons Ratio (z) = 0.35256 0.26520
#
# Static dielectric constant tensor:
#      x y z
#    x 1.466870 0.000000 0.000000 
#    y 0.000000 1.474510 0.000000 
#    z 0.000000 0.000000 1.426800 
# 
# From -- ./inp_files/28642.got.cif
#   From: 2010.05.17/outbox.cif.g08.bks.cpg/sg51_15_cif.got.tgz:28642.got - 2010.06.03 11:52:47.
