data_PCOD9398013
_publ_section_title
;
Structure prediction by ZEFSAII (Michael W. Deem and Ramdas Pophale) SiO2 
 PCOD9398013
Probable space group: P B A N
;
_chemical_formula_sum "Si O2"
_cell_formula_units_Z 56
_cell_length_a 9.600681
_cell_length_b 15.785922
_cell_length_c 18.229489
_cell_angle_alpha 90.000000
_cell_angle_beta 90.000000
_cell_angle_gamma 90.000000
_cell_volume 2762.781169
_symmetry_space_group_name_H-M "P B A N"
_symmetry_group_IT_number 50
_space_group.IT_coordinate_system_code '2'
_symmetry_cell_setting 'orthorhombic'
loop_
_space_group_symop_operation_xyz
x,y,z
1/2-x,1/2-y,z
x,1/2-y,-z
1/2-x,y,-z
-x,-y,-z
1/2+x,1/2+y,-z
-x,1/2+y,z
1/2+x,-y,z
loop_
_atom_site_type_symbol
_atom_site_label
_atom_site_fract_x
_atom_site_fract_y
_atom_site_fract_z
Si Si1 0.404519 0.923614 0.326085
Si Si2 0.568372 0.090381 0.321547
Si Si3 0.213352 0.625604 0.918252
Si Si4 0.547314 0.839777 0.830017
Si Si5 0.473912 0.650835 0.829486
Si Si6 0.418249 0.755495 0.416739
Si Si7 0.711246 0.576618 0.917172
O O1 0.235116 0.927757 0.324113
O O2 0.459209 0.902190 0.244528
O O3 0.447840 0.844648 0.377390
O O4 0.478685 0.010561 0.348787
O O5 0.519098 0.111753 0.238984
O O6 0.537960 0.174450 0.369048
O O7 0.057199 0.648207 0.897862
O O8 0.319507 0.665251 0.860219
O O9 0.229228 0.524032 0.912817
O O10 0.250000 0.651656 0.000000
O O11 0.548005 0.740045 0.813769
O O12 0.691253 0.878907 0.856888
O O13 0.556265 0.601695 0.893213
O O14 0.250000 0.750000 0.419224
O O15 0.470939 0.750000 0.500000
O O16 0.750000 0.603582 0.000000
#
# Coordination Sequence:
#
# PCOD9398013 Si02
#       7
#     8   8   8   8   8   8   8
#     4  11  23  41  66  98 131 169 214 260 312 374
#     4  11  23  41  66  98 131 169 214 260 312 374
#     4  11  23  39  61  85 117 160 211 263 319 373
#     4  12  24  39  60  88 121 163 212 266 311 375
#     4  12  24  39  60  88 121 163 212 266 311 375
#     4   9  20  42  71 101 134 171 209 251 309 379
#     4  11  25  43  59  85 123 164 211 265 329 383
#
# _framework density 20.269428999999999
#
# number of rings (size 3 to 8) (size 9 to 14) (size 15 to 20)
#    0.000    1.000    2.857    4.286    2.000    6.286 
#    0.000    0.714    0.000    0.857    0.000    0.000 
#    0.000    0.000    0.000    0.000    0.000    0.000 
#
# Total GULP energy -313166.148398 kJ/mol
# GULP energy per Si atom -5592.252650 kJ/mol
# Density = 2.022329 g / cm^3
# Si number density = 20.269429 Si / 1000 Ang^3
#
#
#
# Elastic Constant Matrix: (Units=GPa)
#
#
# Indices 1 2 3 4 5 6 
#
# 1 62.7793 32.0665 12.1590 0.0000 0.0000 0.0000
# 2 32.0665 144.1912 34.0219 0.0000 0.0000 0.0000
# 3 12.1590 34.0219 91.3271 0.0000 0.0000 0.0000
# 4 0.0000 0.0000 0.0000 5.7204 0.0000 0.0000
# 5 0.0000 0.0000 0.0000 0.0000 16.5417 0.0000
# 6 0.0000 0.0000 0.0000 0.0000 0.0000 33.7354
#
#
#
# Elastic Compliance Matrix: (Units=1/GPa)
#
#
# Indices 1 2 3 4 5 6 
#
# 1 0.018052 -0.003780 -0.000995 0.000000 0.000000 0.000000
# 2 -0.003780 0.008395 -0.002624 0.000000 0.000000 0.000000
# 3 -0.000995 -0.002624 0.012060 0.000000 0.000000 0.000000
# 4 0.000000 0.000000 0.000000 0.174812 0.000000 0.000000
# 5 0.000000 0.000000 0.000000 0.000000 0.060453 0.000000
# 6 0.000000 0.000000 0.000000 0.000000 0.000000 0.029642
#
#
# Mechanical properties :
#
#
# Convention : Reuss Voigt Hill
#
# Bulk Modulus (GPa) = 42.17904 50.53247 46.35576
# Shear Modulus (GPa) = 15.33196 25.86953 20.60074
#
# Velocity S-wave (km/s) = 2.75327 3.57639 3.19148
# Velocity P-wave (km/s) = 5.56432 6.48371 6.04153
#
# Compressibility (1/GPa) = 0.02370846
#
# Stress axis : x y z
#
# Youngs Moduli (GPa) = 55.39477 119.11883 82.92060
#
# Poissons Ratio (x) = 0.45024 0.08253
# Poissons Ratio (y) = 0.20938 0.21759
# Poissons Ratio (z) = 0.05514 0.31258
#
# Static dielectric constant tensor:
#      x y z
#    x 1.700900 0.000000 0.000000 
#    y 0.000000 1.736700 0.000000 
#    z 0.000000 0.000000 1.702190 
# 
# From -- ./inp_files/30640.got.cif
#   From: 2010.05.17/outbox.cif.g08.bks.cpg/sg50_16_cif.got.tgz:30640.got - 2010.06.03 11:33:33.
