data_PCOD9398186
_publ_section_title
;
Structure prediction by ZEFSAII (Michael W. Deem and Ramdas Pophale) SiO2 
 PCOD9398186
Probable space group: P B A N
;
_chemical_formula_sum "Si O2"
_cell_formula_units_Z 26
_cell_length_a 15.701237
_cell_length_b 9.593428
_cell_length_c 7.008151
_cell_angle_alpha 90.000000
_cell_angle_beta 90.000000
_cell_angle_gamma 90.000000
_cell_volume 1055.628581
_symmetry_space_group_name_H-M "P B A N"
_symmetry_group_IT_number 50
_space_group.IT_coordinate_system_code '2'
_symmetry_cell_setting 'orthorhombic'
loop_
_space_group_symop_operation_xyz
x,y,z
1/2-x,1/2-y,z
x,1/2-y,-z
1/2-x,y,-z
-x,-y,-z
1/2+x,1/2+y,-z
-x,1/2+y,z
1/2+x,-y,z
loop_
_atom_site_type_symbol
_atom_site_label
_atom_site_fract_x
_atom_site_fract_y
_atom_site_fract_z
Si Si1 0.750000 0.750000 0.000000
Si Si2 0.616123 0.837624 0.690003
Si Si3 0.049390 0.622371 0.888224
Si Si4 0.348446 0.586934 0.466236
O O1 0.686941 0.670020 0.145521
O O2 0.638959 0.750000 0.500000
O O3 0.525221 0.795641 0.773620
O O4 0.602438 0.994701 0.618195
O O5 0.116770 0.555017 0.743540
O O6 0.093251 0.750000 0.000000
O O7 0.000000 0.500000 0.000000
O O8 0.358994 0.750000 0.500000
O O9 0.250000 0.550810 0.500000
#
# Coordination Sequence:
#
# PCOD9398186 Si02
#       4
#     2   8   8   8
#     4  12  26  44  80 116 140 194 258 326 368 450
#     4  12  25  47  76 107 150 191 253 312 380 441
#     4  12  25  45  73 111 145 196 251 306 373 451
#     4  11  25  46  70 104 151 197 240 305 375 445
#
# _framework density 24.629873
#
# number of rings (size 3 to 8) (size 9 to 14) (size 15 to 20)
#    0.000    0.308    1.538    7.846    4.308    0.000 
#    0.000    1.538    0.000    0.000    0.000    0.000 
#    0.000    0.000    0.000    0.000    0.000    0.000 
#
# Total GULP energy -145621.400174 kJ/mol
# GULP energy per Si atom -5600.823084 kJ/mol
# Density = 2.457381 g / cm^3
# Si number density = 24.629873 Si / 1000 Ang^3
#
#
#
# Elastic Constant Matrix: (Units=GPa)
#
#
# Indices 1 2 3 4 5 6 
#
# 1 108.0798 -0.4874 58.9599 0.0000 0.0000 0.0000
# 2 -0.4874 89.8025 45.1306 0.0000 0.0000 0.0000
# 3 58.9599 45.1306 160.8638 0.0000 0.0000 0.0000
# 4 0.0000 0.0000 0.0000 44.4973 0.0000 0.0000
# 5 0.0000 0.0000 0.0000 0.0000 66.0227 0.0000
# 6 0.0000 0.0000 0.0000 0.0000 0.0000 20.8566
#
#
#
# Elastic Compliance Matrix: (Units=1/GPa)
#
#
# Indices 1 2 3 4 5 6 
#
# 1 0.012090 0.002669 -0.005180 0.000000 0.000000 0.000000
# 2 0.002669 0.013552 -0.004780 0.000000 0.000000 0.000000
# 3 -0.005180 -0.004780 0.009456 0.000000 0.000000 0.000000
# 4 0.000000 0.000000 0.000000 0.022473 0.000000 0.000000
# 5 0.000000 0.000000 0.000000 0.000000 0.015146 0.000000
# 6 0.000000 0.000000 0.000000 0.000000 0.000000 0.047947
#
#
# Mechanical properties :
#
#
# Convention : Reuss Voigt Hill
#
# Bulk Modulus (GPa) = 48.74293 62.88358 55.81326
# Shear Modulus (GPa) = 35.18977 43.28485 39.23731
#
# Velocity S-wave (km/s) = 3.78397 4.19670 3.99567
# Velocity P-wave (km/s) = 6.23894 7.00499 6.63303
#
# Compressibility (1/GPa) = 0.02051580
#
# Stress axis : x y z
#
# Youngs Moduli (GPa) = 82.71080 73.78753 105.75084
#
# Poissons Ratio (x) = -0.19693 0.54780
# Poissons Ratio (y) = -0.22075 0.50553
# Poissons Ratio (z) = 0.42845 0.35273
#
# Static dielectric constant tensor:
#      x y z
#    x 1.946840 0.000000 0.000000 
#    y 0.000000 1.974260 0.000000 
#    z 0.000000 0.000000 2.034010 
# 
# From -- ./inp_files/3906.got.cif
#   From: 2010.05.17/outbox.cif.g08.bks.cpg/sg50_2_cif.got.tgz:3906.got - 2010.06.03 11:33:33.
