data_PCOD9398470
_publ_section_title
;
Structure prediction by ZEFSAII (Michael W. Deem and Ramdas Pophale) SiO2 
 PCOD9398470
Probable space group: P M M A
;
_chemical_formula_sum "Si O2"
_cell_formula_units_Z 64
_cell_length_a 8.649584
_cell_length_b 32.314728
_cell_length_c 14.689913
_cell_angle_alpha 90.000000
_cell_angle_beta 90.000000
_cell_angle_gamma 90.000000
_cell_volume 4105.962221
_symmetry_space_group_name_H-M "P M M A"
_symmetry_group_IT_number 51
_symmetry_cell_setting 'orthorhombic'
loop_
_space_group_symop_operation_xyz
x,y,z
1/2-x,-y,z
1/2+x,-y,-z
-x,y,-z
-x,-y,-z
1/2+x,y,-z
1/2-x,y,z
x,-y,z
loop_
_atom_site_type_symbol
_atom_site_label
_atom_site_fract_x
_atom_site_fract_y
_atom_site_fract_z
Si Si1 0.434557 0.629966 0.896636
Si Si2 0.564344 0.793357 0.215102
Si Si3 0.435218 0.545367 0.103310
Si Si4 0.436506 0.875006 0.898603
Si Si5 0.435137 0.176170 0.401809
Si Si6 0.936610 0.045846 0.215910
Si Si7 0.434627 0.921395 0.402341
Si Si8 0.065328 0.283457 0.102832
O O1 0.250000 0.630842 0.898861
O O2 0.493052 0.586815 0.853945
O O3 0.500519 0.672951 0.858936
O O4 0.500000 0.629550 0.000000
O O5 0.750000 0.789998 0.212689
O O6 0.518233 0.835024 0.160523
O O7 0.507197 0.799046 0.318080
O O8 0.490488 0.754311 0.164610
O O9 0.250000 0.549622 0.099446
O O10 0.472044 0.500000 0.144087
O O11 0.500000 0.543952 0.000000
O O12 0.250000 0.875791 0.901967
O O13 0.490749 0.916919 0.848811
O O14 0.500000 0.871950 0.000000
O O15 0.500000 0.189131 0.500000
O O16 0.250000 0.179486 0.400737
O O17 0.476105 0.127341 0.390572
O O18 0.750000 0.047193 0.217526
O O19 0.996197 0.054271 0.317474
O O20 0.984756 0.000000 0.185313
O O21 0.500000 0.934912 0.500000
O O22 0.250000 0.924875 0.402793
O O23 0.250000 0.285237 0.097697
O O24 0.000000 0.277994 0.000000
#
# Coordination Sequence:
#
# PCOD9398470 Si02
#       8
#     8   8   8   8   8   8   8   8
#     4  10  17  26  39  55  79 112 151 195 243 287
#     4  11  21  35  54  75  98 124 155 192 233 278
#     4   9  15  22  33  50  73 104 145 193 242 287
#     4  10  22  37  54  74  96 123 154 191 231 270
#     4  10  20  34  54  79 102 126 151 184 224 272
#     4  10  21  38  56  74  98 127 157 189 228 273
#     4  10  20  34  55  79 103 127 153 183 222 269
#     4  11  21  33  47  66  93 124 161 200 242 288
#
# _framework density 15.587089000000001
#
# number of rings (size 3 to 8) (size 9 to 14) (size 15 to 20)
#    0.000    1.875    1.250    5.625    0.000    5.000 
#    0.000    0.000    0.000    0.000    0.000    0.000 
#    0.000    0.000    0.000    0.000    0.000    0.625 
#
# Total GULP energy -357087.115279 kJ/mol
# GULP energy per Si atom -5579.486176 kJ/mol
# Density = 1.555161 g / cm^3
# Si number density = 15.587089 Si / 1000 Ang^3
#
#
#
# Elastic Constant Matrix: (Units=GPa)
#
#
# Indices 1 2 3 4 5 6 
#
# 1 72.2470 51.5803 24.2789 0.0000 0.0000 0.0000
# 2 51.5803 145.5380 52.4276 0.0000 0.0000 0.0000
# 3 24.2789 52.4276 77.2637 0.0000 0.0000 0.0000
# 4 0.0000 0.0000 0.0000 2.4548 0.0000 0.0000
# 5 0.0000 0.0000 0.0000 0.0000 23.5631 0.0000
# 6 0.0000 0.0000 0.0000 0.0000 0.0000 19.3750
#
#
#
# Elastic Compliance Matrix: (Units=1/GPa)
#
#
# Indices 1 2 3 4 5 6 
#
# 1 0.018723 -0.005977 -0.001827 0.000000 0.000000 0.000000
# 2 -0.005977 0.011002 -0.005587 0.000000 0.000000 0.000000
# 3 -0.001827 -0.005587 0.017308 0.000000 0.000000 0.000000
# 4 0.000000 0.000000 0.000000 0.407362 0.000000 0.000000
# 5 0.000000 0.000000 0.000000 0.000000 0.042439 0.000000
# 6 0.000000 0.000000 0.000000 0.000000 0.000000 0.051613
#
#
# Mechanical properties :
#
#
# Convention : Reuss Voigt Hill
#
# Bulk Modulus (GPa) = 49.38457 61.29138 55.33798
# Shear Modulus (GPa) = 8.59134 20.19606 14.39370
#
# Velocity S-wave (km/s) = 2.35028 3.60348 3.04211
# Velocity P-wave (km/s) = 6.25435 7.53131 6.92234
#
# Compressibility (1/GPa) = 0.02024924
#
# Stress axis : x y z
#
# Youngs Moduli (GPa) = 53.41022 90.89058 57.77594
#
# Poissons Ratio (x) = 0.54328 0.10558
# Poissons Ratio (y) = 0.31925 0.32281
# Poissons Ratio (z) = 0.09760 0.50784
#
# Static dielectric constant tensor:
#      x y z
#    x 1.520400 0.000000 0.000000 
#    y 0.000000 1.568140 0.000000 
#    z 0.000000 0.000000 1.483660 
# 
# From -- ./inp_files/22581.got.cif
#   From: 2010.05.17/outbox.cif.g08.bks.cpg/sg51_12_cif.got.tgz:22581.got - 2010.06.03 11:52:47.
