data_PCOD9398870
_publ_section_title
;
Structure prediction by ZEFSAII (Michael W. Deem and Ramdas Pophale) SiO2 
 PCOD9398870
Probable space group: P M M A
;
_chemical_formula_sum "Si O2"
_cell_formula_units_Z 64
_cell_length_a 14.386224
_cell_length_b 8.789827
_cell_length_c 32.784033
_cell_angle_alpha 90.000000
_cell_angle_beta 90.000000
_cell_angle_gamma 90.000000
_cell_volume 4145.620315
_symmetry_space_group_name_H-M "P M M A"
_symmetry_group_IT_number 51
_symmetry_cell_setting 'orthorhombic'
loop_
_space_group_symop_operation_xyz
x,y,z
1/2-x,-y,z
1/2+x,-y,-z
-x,y,-z
-x,-y,-z
1/2+x,y,-z
1/2-x,y,z
x,-y,z
loop_
_atom_site_type_symbol
_atom_site_label
_atom_site_fract_x
_atom_site_fract_y
_atom_site_fract_z
Si Si1 0.535181 0.683429 0.895833
Si Si2 0.144699 0.314873 0.518997
Si Si3 0.861763 0.177021 0.972943
Si Si4 0.142220 0.685944 0.184229
Si Si5 0.039492 0.683662 0.436258
Si Si6 0.856102 0.683456 0.059959
Si Si7 0.357955 0.181290 0.359286
Si Si8 0.362788 0.324559 0.273977
O O1 0.539038 0.500000 0.895189
O O2 0.593916 0.740427 0.934385
O O3 0.579469 0.737672 0.853447
O O4 0.429254 0.729032 0.905429
O O5 0.250000 0.261267 0.525964
O O6 0.146205 0.500000 0.519734
O O7 0.106372 0.272197 0.474178
O O8 0.065011 0.268045 0.551082
O O9 0.750000 0.188697 0.969870
O O10 0.887850 0.000000 0.972773
O O11 0.887376 0.250718 0.016328
O O12 0.250000 0.731791 0.178015
O O13 0.141974 0.500000 0.185158
O O14 0.108744 0.734553 0.229263
O O15 0.040462 0.500000 0.433992
O O16 0.078784 0.749980 0.394654
O O17 0.750000 0.732746 0.067588
O O18 0.856691 0.500000 0.056907
O O19 0.250000 0.232861 0.364753
O O20 0.389108 0.232969 0.314206
O O21 0.359109 0.000000 0.361708
O O22 0.250000 0.324562 0.272278
O O23 0.392705 0.500000 0.278553
#
# Coordination Sequence:
#
# PCOD9398870 Si02
#       8
#     8   8   8   8   8   8   8   8
#     4  10  18  28  45  65  83 107 137 167 201 241
#     4   8  14  25  41  62  87 112 141 178 213 243
#     4  10  20  31  42  59  84 111 137 167 202 238
#     4   8  14  25  42  64  85 102 126 163 203 245
#     4   9  16  26  43  64  83 110 146 177 207 246
#     4   9  18  31  44  59  81 109 140 171 202 236
#     4  10  19  28  39  59  87 114 139 172 211 244
#     4   8  14  26  43  60  79 105 135 165 200 247
#
# _framework density 15.437979
#
# number of rings (size 3 to 8) (size 9 to 14) (size 15 to 20)
#    0.000    3.000    0.000    3.375    0.000    4.500 
#    0.000    1.875    0.000    3.375    0.000    0.875 
#    0.000    5.000    0.000    0.000    0.000    0.000 
#
# Total GULP energy -356458.483785 kJ/mol
# GULP energy per Si atom -5569.663809 kJ/mol
# Density = 1.540284 g / cm^3
# Si number density = 15.437979 Si / 1000 Ang^3
#
#
#
# Elastic Constant Matrix: (Units=GPa)
#
#
# Indices 1 2 3 4 5 6 
#
# 1 90.8181 19.2271 75.3614 0.0000 0.0000 0.0000
# 2 19.2271 8.8285 24.5125 0.0000 0.0000 0.0000
# 3 75.3614 24.5125 149.3754 0.0000 0.0000 0.0000
# 4 0.0000 0.0000 0.0000 -9.9074 0.0000 0.0000
# 5 0.0000 0.0000 0.0000 0.0000 25.2734 0.0000
# 6 0.0000 0.0000 0.0000 0.0000 0.0000 10.7574
#
#
#
# Elastic Compliance Matrix: (Units=1/GPa)
#
#
# Indices 1 2 3 4 5 6 
#
# 1 0.023253 -0.033193 -0.006285 0.000000 0.000000 0.000000
# 2 -0.033193 0.255457 -0.025174 0.000000 0.000000 0.000000
# 3 -0.006285 -0.025174 0.013996 0.000000 0.000000 0.000000
# 4 0.000000 0.000000 0.000000 -0.100935 0.000000 0.000000
# 5 0.000000 0.000000 0.000000 0.000000 0.039567 0.000000
# 6 0.000000 0.000000 0.000000 0.000000 0.000000 0.092960
#
#
# Mechanical properties :
#
#
# Convention : Reuss Voigt Hill
#
# Bulk Modulus (GPa) = 6.11983 54.13600 30.12791
# Shear Modulus (GPa) = 9.84115 13.88607 11.86361
#
# Velocity S-wave (km/s) = 2.52754 3.00238 2.77513
# Velocity P-wave (km/s) = 3.53422 6.86745 5.46135
#
# Compressibility (1/GPa) = 0.16340313
#
# Stress axis : x y z
#
# Youngs Moduli (GPa) = 43.00479 3.91455 71.44753
#
# Poissons Ratio (x) = 0.12994 0.44901
# Poissons Ratio (y) = 1.42746 1.79865
# Poissons Ratio (z) = 0.27026 0.09855
#
# Static dielectric constant tensor:
#      x y z
#    x 1.528050 0.000000 0.000000 
#    y 0.000000 1.512660 0.000000 
#    z 0.000000 0.000000 1.506070 
# 
# From -- ./inp_files/37816.got.cif
#   From: 2010.05.17/outbox.cif.g08.bks.cpg/sg51_19_cif.got.tgz:37816.got - 2010.06.03 11:52:47.
