data_PCOD9398834
_publ_section_title
;
Structure prediction by ZEFSAII (Michael W. Deem and Ramdas Pophale) SiO2 
 PCOD9398834
Probable space group: P M M A
;
_chemical_formula_sum "Si O2"
_cell_formula_units_Z 48
_cell_length_a 26.564827
_cell_length_b 7.678265
_cell_length_c 12.181483
_cell_angle_alpha 90.000000
_cell_angle_beta 90.000000
_cell_angle_gamma 90.000000
_cell_volume 2484.678787
_symmetry_space_group_name_H-M "P M M A"
_symmetry_group_IT_number 51
_symmetry_cell_setting 'orthorhombic'
loop_
_space_group_symop_operation_xyz
x,y,z
1/2-x,-y,z
1/2+x,-y,-z
-x,y,-z
-x,-y,-z
1/2+x,y,-z
1/2-x,y,z
x,-y,z
loop_
_atom_site_type_symbol
_atom_site_label
_atom_site_fract_x
_atom_site_fract_y
_atom_site_fract_z
Si Si1 0.692756 0.789609 0.881607
Si Si2 0.306499 0.709447 0.863151
Si Si3 0.093035 0.289480 0.771170
Si Si4 0.440565 0.699151 0.007825
Si Si5 0.496971 0.208515 0.375869
Si Si6 0.097208 0.802458 0.236324
O O1 0.750000 0.727992 0.863717
O O2 0.652069 0.723207 0.792528
O O3 0.692393 0.000000 0.874144
O O4 0.679612 0.748066 0.009088
O O5 0.250000 0.778526 0.845629
O O6 0.304584 0.500000 0.855815
O O7 0.348454 0.767664 0.774712
O O8 0.092421 0.500000 0.770596
O O9 0.050099 0.237668 0.685554
O O10 0.075973 0.228534 0.891426
O O11 0.421050 0.500000 0.020988
O O12 0.425848 0.805066 0.114174
O O13 0.500000 0.688199 0.000000
O O14 0.500000 0.275754 0.500000
O O15 0.447298 0.277486 0.311231
O O16 0.490517 0.000000 0.379687
O O17 0.105797 0.000000 0.276287
#
# Coordination Sequence:
#
# PCOD9398834 Si02
#       6
#     8   8   8   8   8   8
#     4   9  17  28  43  67  97 124 151 185 226 277
#     4   9  17  29  46  70 100 130 155 181 222 279
#     4  10  19  31  49  72  98 126 156 190 233 283
#     4  10  18  28  43  69 101 125 146 182 231 283
#     4  10  22  37  50  66  91 125 164 206 245 280
#     4  10  19  30  47  68  92 123 156 189 232 283
#
# _framework density 19.318393
#
# number of rings (size 3 to 8) (size 9 to 14) (size 15 to 20)
#    0.000    2.333    3.333    0.000    0.000    2.000 
#    0.000    0.000    0.000    1.000    0.000    2.333 
#    0.000    0.000    0.000    0.000    0.000    0.000 
#
# Total GULP energy -267211.221309 kJ/mol
# GULP energy per Si atom -5566.900444 kJ/mol
# Density = 1.927442 g / cm^3
# Si number density = 19.318393 Si / 1000 Ang^3
#
#
#
# Elastic Constant Matrix: (Units=GPa)
#
#
# Indices 1 2 3 4 5 6 
#
# 1 179.0171 4.4982 75.7636 0.0000 0.0000 0.0000
# 2 4.4982 36.4625 1.5102 0.0000 0.0000 0.0000
# 3 75.7636 1.5102 104.2332 0.0000 0.0000 0.0000
# 4 0.0000 0.0000 0.0000 53.7901 0.0000 0.0000
# 5 0.0000 0.0000 0.0000 0.0000 11.7247 0.0000
# 6 0.0000 0.0000 0.0000 0.0000 0.0000 6.4750
#
#
#
# Elastic Compliance Matrix: (Units=1/GPa)
#
#
# Indices 1 2 3 4 5 6 
#
# 1 0.008089 -0.000755 -0.005868 0.000000 0.000000 0.000000
# 2 -0.000755 0.027512 0.000150 0.000000 0.000000 0.000000
# 3 -0.005868 0.000150 0.013857 0.000000 0.000000 0.000000
# 4 0.000000 0.000000 0.000000 0.018591 0.000000 0.000000
# 5 0.000000 0.000000 0.000000 0.000000 0.085290 0.000000
# 6 0.000000 0.000000 0.000000 0.000000 0.000000 0.154439
#
#
# Mechanical properties :
#
#
# Convention : Reuss Voigt Hill
#
# Bulk Modulus (GPa) = 27.38840 53.69520 40.54180
# Shear Modulus (GPa) = 15.01972 30.26069 22.64021
#
# Velocity S-wave (km/s) = 2.79136 3.96209 3.42709
# Velocity P-wave (km/s) = 4.95955 6.98471 6.05736
#
# Compressibility (1/GPa) = 0.03651181
#
# Stress axis : x y z
#
# Youngs Moduli (GPa) = 123.62984 36.34735 72.16434
#
# Poissons Ratio (x) = 0.02743 0.42349
# Poissons Ratio (y) = 0.09331 -0.01083
# Poissons Ratio (z) = 0.72551 -0.00545
#
# Static dielectric constant tensor:
#      x y z
#    x 1.778080 0.000000 0.000000 
#    y 0.000000 1.763540 0.000000 
#    z 0.000000 0.000000 1.639430 
# 
# From -- ./inp_files/19003.got.cif
#   From: 2010.05.17/outbox.cif.g08.bks.cpg/sg51_10_cif.got.tgz:19003.got - 2010.06.03 11:52:47.
