data_PCOD9398829
_publ_section_title
;
Structure prediction by ZEFSAII (Michael W. Deem and Ramdas Pophale) SiO2 
 PCOD9398829
Probable space group: P M M A
;
_chemical_formula_sum "Si O2"
_cell_formula_units_Z 64
_cell_length_a 21.897268
_cell_length_b 7.751079
_cell_length_c 18.878607
_cell_angle_alpha 90.000000
_cell_angle_beta 90.000000
_cell_angle_gamma 90.000000
_cell_volume 3204.217904
_symmetry_space_group_name_H-M "P M M A"
_symmetry_group_IT_number 51
_symmetry_cell_setting 'orthorhombic'
loop_
_space_group_symop_operation_xyz
x,y,z
1/2-x,-y,z
1/2+x,-y,-z
-x,y,-z
-x,-y,-z
1/2+x,y,-z
1/2-x,y,z
x,-y,z
loop_
_atom_site_type_symbol
_atom_site_label
_atom_site_fract_x
_atom_site_fract_y
_atom_site_fract_z
Si Si1 0.484400 0.700612 0.420585
Si Si2 0.817995 0.292073 0.896837
Si Si3 0.351838 0.293838 0.260667
Si Si4 0.082444 0.193635 0.681662
Si Si5 0.013535 0.209848 0.216021
Si Si6 0.048045 0.792534 0.059214
Si Si7 0.160308 0.300044 0.412836
Si Si8 0.816229 0.793855 0.424927
O O1 0.500000 0.751335 0.500000
O O2 0.502876 0.500000 0.410296
O O3 0.523049 0.814366 0.368228
O O4 0.412707 0.710009 0.412437
O O5 0.750000 0.235447 0.921177
O O6 0.817143 0.500000 0.893814
O O7 0.827638 0.228367 0.815258
O O8 0.879036 0.247229 0.941508
O O9 0.341147 0.500000 0.262030
O O10 0.425117 0.266062 0.257211
O O11 0.324009 0.225087 0.334891
O O12 0.050278 0.274719 0.750583
O O13 0.132596 0.275658 0.629208
O O14 0.103270 0.000000 0.701005
O O15 0.024389 0.268406 0.135852
O O16 0.011951 0.000000 0.217371
O O17 0.044480 0.000000 0.058337
O O18 0.000000 0.728859 0.000000
O O19 0.179148 0.500000 0.413070
O O20 0.177480 0.232539 0.490456
O O21 0.750000 0.726578 0.404006
O O22 0.818159 0.000000 0.416494
#
# Coordination Sequence:
#
# PCOD9398829 Si02
#       8
#     8   8   8   8   8   8   8   8
#     4  10  18  28  43  66  92 114 144 189 238 279
#     4   9  18  32  50  74 104 137 170 200 233 282
#     4   9  17  29  46  69  97 126 155 190 231 277
#     4  10  19  30  47  66  85 114 151 192 234 279
#     4   9  17  29  47  72  96 119 150 188 235 285
#     4   9  18  33  53  77 106 134 160 199 244 291
#     4  10  19  30  46  67  91 120 154 195 238 282
#     4  10  22  36  45  57  82 118 159 200 241 282
#
# _framework density 19.973672000000001
#
# number of rings (size 3 to 8) (size 9 to 14) (size 15 to 20)
#    0.000    2.500    2.500    0.000    0.000    2.500 
#    0.000    1.250    0.000    0.750    0.000    3.500 
#    0.000    0.000    0.000    0.000    0.000    0.000 
#
# Total GULP energy -356289.686382 kJ/mol
# GULP energy per Si atom -5567.026350 kJ/mol
# Density = 1.992821 g / cm^3
# Si number density = 19.973672 Si / 1000 Ang^3
#
#
#
# Elastic Constant Matrix: (Units=GPa)
#
#
# Indices 1 2 3 4 5 6 
#
# 1 146.5184 3.7825 70.7617 0.0000 0.0000 0.0000
# 2 3.7825 22.0996 3.6102 0.0000 0.0000 0.0000
# 3 70.7617 3.6102 89.8650 0.0000 0.0000 0.0000
# 4 0.0000 0.0000 0.0000 10.4721 0.0000 0.0000
# 5 0.0000 0.0000 0.0000 0.0000 -6.7336 0.0000
# 6 0.0000 0.0000 0.0000 0.0000 0.0000 -33.5394
#
#
#
# Elastic Compliance Matrix: (Units=1/GPa)
#
#
# Indices 1 2 3 4 5 6 
#
# 1 0.011018 -0.000472 -0.008657 0.000000 0.000000 0.000000
# 2 -0.000472 0.045569 -0.001459 0.000000 0.000000 0.000000
# 3 -0.008657 -0.001459 0.018003 0.000000 0.000000 0.000000
# 4 0.000000 0.000000 0.000000 0.095492 0.000000 0.000000
# 5 0.000000 0.000000 0.000000 0.000000 -0.148508 0.000000
# 6 0.000000 0.000000 0.000000 0.000000 0.000000 -0.029816
#
#
# Mechanical properties :
#
#
# Convention : Reuss Voigt Hill
#
# Bulk Modulus (GPa) = 18.72157 46.08797 32.40477
# Shear Modulus (GPa) = 162.66079 6.06171 84.36125
#
# Velocity S-wave (km/s) = 9.03407 1.74397 6.50599
# Velocity P-wave (km/s) = 10.87256 5.21342 8.52621
#
# Compressibility (1/GPa) = 0.05341434
#
# Stress axis : x y z
#
# Youngs Moduli (GPa) = 90.75879 21.94479 55.54573
#
# Poissons Ratio (x) = 0.01035 0.48086
# Poissons Ratio (y) = 0.04280 0.08106
# Poissons Ratio (z) = 0.78570 0.03202
#
# Static dielectric constant tensor:
#      x y z
#    x 1.740270 0.000000 0.000000 
#    y 0.000000 1.758980 0.000000 
#    z 0.000000 0.000000 1.763550 
# 
# From -- ./inp_files/34150.got.cif
#   From: 2010.05.17/outbox.cif.g08.bks.cpg/sg51_18_cif.got.tgz:34150.got - 2010.06.03 11:52:47.
