data_PCOD9398332
_publ_section_title
;
Structure prediction by ZEFSAII (Michael W. Deem and Ramdas Pophale) SiO2 
 PCOD9398332
Probable space group: P B A N
;
_chemical_formula_sum "Si O2"
_cell_formula_units_Z 64
_cell_length_a 15.000000
_cell_length_b 24.000000
_cell_length_c 9.000000
_cell_angle_alpha 90.000000
_cell_angle_beta 90.000000
_cell_angle_gamma 90.000000
_cell_volume 3240.000000
_symmetry_space_group_name_H-M "P B A N"
_symmetry_group_IT_number 50
_space_group.IT_coordinate_system_code '2'
_symmetry_cell_setting 'orthorhombic'
loop_
_space_group_symop_operation_xyz
x,y,z
1/2-x,1/2-y,z
x,1/2-y,-z
1/2-x,y,-z
-x,-y,-z
1/2+x,1/2+y,-z
-x,1/2+y,z
1/2+x,-y,z
loop_
_atom_site_type_symbol
_atom_site_label
_atom_site_fract_x
_atom_site_fract_y
_atom_site_fract_z
Si Si1 0.085796 0.924183 0.818713
Si Si2 0.420632 0.367354 0.680264
Si Si3 0.659108 0.147289 0.088198
Si Si4 0.975044 0.017178 0.670385
Si Si5 0.721413 0.064724 0.328407
Si Si6 0.262973 0.185779 0.677944
Si Si7 0.465501 0.167383 0.656861
Si Si8 0.512546 0.228235 0.155088
O O1 0.183481 0.944624 0.757665
O O2 0.038089 0.876101 0.719336
O O3 0.103421 0.895676 0.980301
O O4 0.015614 0.974099 0.790747
O O5 0.468582 0.426343 0.693268
O O6 0.314769 0.359466 0.708564
O O7 0.449880 0.343095 0.518133
O O8 0.461669 0.326671 0.799687
O O9 0.682164 0.118710 0.244882
O O10 0.610255 0.204969 0.119905
O O11 0.750000 0.156474 0.000000
O O12 0.866746 0.024386 0.679277
O O13 0.000000 0.000000 0.500000
O O14 0.750000 0.071038 0.500000
O O15 0.250000 0.250000 0.735984
O O16 0.250000 0.191567 0.500000
O O17 0.362618 0.165004 0.715890
O O18 0.501400 0.226782 0.714797
O O19 0.475033 0.250000 0.000000
#
# Coordination Sequence:
#
# PCOD9398332 Si02
#       8
#     8   8   8   8   8   8   8   8
#     4  11  24  43  66  98 134 179 223 277 345 401
#     4  11  22  41  65  99 133 179 227 278 347 409
#     4  10  24  45  65  94 135 181 224 278 342 419
#     4  12  23  41  70  99 132 175 224 287 339 411
#     4  11  22  43  69  97 132 167 223 284 336 395
#     4   9  18  34  60  95 131 172 218 272 333 406
#     4  11  21  40  65  96 136 176 224 277 342 407
#     4  12  23  40  67  94 131 177 223 279 344 410
#
# _framework density 19.753086
#
# number of rings (size 3 to 8) (size 9 to 14) (size 15 to 20)
#    0.000    1.125    6.250    0.375    0.000    1.750 
#    2.250    1.250    0.000    0.750    0.000    0.000 
#    0.000    0.000    0.000    0.000    0.000    0.000 
#
# Total GULP energy -356571.027101 kJ/mol
# GULP energy per Si atom -5571.422298 kJ/mol
# Density = 1.970813 g / cm^3
# Si number density = 19.753086 Si / 1000 Ang^3
#
#
#
# Elastic Constant Matrix: (Units=GPa)
#
#
# Indices 1 2 3 4 5 6 
#
# 1 149.8152 51.9929 23.2438 0.0000 0.0000 0.0000
# 2 51.9929 94.3407 19.8950 0.0000 0.0000 0.0000
# 3 23.2438 19.8950 43.9830 0.0000 0.0000 0.0000
# 4 0.0000 0.0000 0.0000 16.5217 0.0000 0.0000
# 5 0.0000 0.0000 0.0000 0.0000 21.3110 0.0000
# 6 0.0000 0.0000 0.0000 0.0000 0.0000 34.2337
#
#
#
# Elastic Compliance Matrix: (Units=1/GPa)
#
#
# Indices 1 2 3 4 5 6 
#
# 1 0.008520 -0.004141 -0.002629 0.000000 0.000000 0.000000
# 2 -0.004141 0.013730 -0.004022 0.000000 0.000000 0.000000
# 3 -0.002629 -0.004022 0.025945 0.000000 0.000000 0.000000
# 4 0.000000 0.000000 0.000000 0.060526 0.000000 0.000000
# 5 0.000000 0.000000 0.000000 0.000000 0.046924 0.000000
# 6 0.000000 0.000000 0.000000 0.000000 0.000000 0.029211
#
#
# Mechanical properties :
#
#
# Convention : Reuss Voigt Hill
#
# Bulk Modulus (GPa) = 37.58005 53.15579 45.36792
# Shear Modulus (GPa) = 23.22210 27.28043 25.25127
#
# Velocity S-wave (km/s) = 3.43245 3.72031 3.57927
# Velocity P-wave (km/s) = 5.89705 6.73964 6.33238
#
# Compressibility (1/GPa) = 0.02660986
#
# Stress axis : x y z
#
# Youngs Moduli (GPa) = 117.37130 72.83163 38.54301
#
# Poissons Ratio (x) = 0.30160 0.10135
# Poissons Ratio (y) = 0.48603 0.15503
# Poissons Ratio (z) = 0.30862 0.29295
#
# Static dielectric constant tensor:
#      x y z
#    x 1.802200 0.000000 0.000000 
#    y 0.000000 1.732950 0.000000 
#    z 0.000000 0.000000 1.714200 
# 
# From -- ./inp_files/13478.got.cif
#   From: 2010.05.17/outbox.ucp.g08.bks.cvg/sg50_7_cif.got.tgz:13478.got - 2010.06.11 16:26:39.
