data_PCOD9398625
_publ_section_title
;
Structure prediction by ZEFSAII (Michael W. Deem and Ramdas Pophale) SiO2 
 PCOD9398625
Probable space group: P M M A
;
_chemical_formula_sum "Si O2"
_cell_formula_units_Z 56
_cell_length_a 14.525299
_cell_length_b 13.976534
_cell_length_c 14.537567
_cell_angle_alpha 90.000000
_cell_angle_beta 90.000000
_cell_angle_gamma 90.000000
_cell_volume 2951.319964
_symmetry_space_group_name_H-M "P M M A"
_symmetry_group_IT_number 51
_symmetry_cell_setting 'orthorhombic'
loop_
_space_group_symop_operation_xyz
x,y,z
1/2-x,-y,z
1/2+x,-y,-z
-x,y,-z
-x,-y,-z
1/2+x,y,-z
1/2-x,y,z
x,-y,z
loop_
_atom_site_type_symbol
_atom_site_label
_atom_site_fract_x
_atom_site_fract_y
_atom_site_fract_z
Si Si1 0.112671 0.396498 0.788049
Si Si2 0.144896 0.809812 0.238667
Si Si3 0.646586 0.673886 0.020243
Si Si4 0.489581 0.885500 0.394447
Si Si5 0.355037 0.824574 0.740266
Si Si6 0.605836 0.605390 0.816231
Si Si7 0.979755 0.153625 0.094639
O O1 0.138915 0.500000 0.745517
O O2 0.146899 0.395911 0.893115
O O3 0.141866 0.292358 0.749469
O O4 0.002124 0.392988 0.792641
O O5 0.250000 0.846587 0.228931
O O6 0.148682 0.694779 0.235921
O O7 0.093331 0.844101 0.331246
O O8 0.074580 0.833122 0.153146
O O9 0.750000 0.714268 0.008454
O O10 0.574403 0.753650 0.053116
O O11 0.618562 0.625047 0.925126
O O12 0.500000 0.853827 0.500000
O O13 0.583431 0.854514 0.345013
O O14 0.479865 0.000000 0.392910
O O15 0.250000 0.853943 0.734918
O O16 0.406271 0.873781 0.827307
O O17 0.641824 0.500000 0.794948
O O18 0.000000 0.099339 0.000000
#
# Coordination Sequence:
#
# PCOD9398625 Si02
#       7
#     8   8   8   8   8   8   8
#     4  10  18  30  48  74 117 167 207 243 279 321
#     4  11  22  37  58  87 121 157 196 240 293 351
#     4  11  18  26  42  71 114 166 220 259 281 307
#     4  10  23  46  72  94 113 131 167 238 320 383
#     4  10  20  35  58  90 122 154 192 236 289 347
#     4  11  20  31  47  75 120 170 213 250 285 322
#     4  10  17  31  48  78 120 167 206 235 271 319
#
# _framework density 18.97456
#
# number of rings (size 3 to 8) (size 9 to 14) (size 15 to 20)
#    0.000    1.571    5.714    3.000    0.000    5.714 
#    0.000    1.429    0.000    8.571    0.000   10.000 
#    0.000    0.000    0.000    0.000    0.000    0.000 
#
# Total GULP energy -311873.284930 kJ/mol
# GULP energy per Si atom -5569.165802 kJ/mol
# Density = 1.893137 g / cm^3
# Si number density = 18.974560 Si / 1000 Ang^3
#
#
#
# Elastic Constant Matrix: (Units=GPa)
#
#
# Indices 1 2 3 4 5 6 
#
# 1 174.6645 12.5680 52.8780 0.0000 0.0000 0.0000
# 2 12.5680 62.2135 34.2803 0.0000 0.0000 0.0000
# 3 52.8780 34.2803 130.6588 0.0000 0.0000 0.0000
# 4 0.0000 0.0000 0.0000 17.5728 0.0000 0.0000
# 5 0.0000 0.0000 0.0000 0.0000 747.5473 0.0000
# 6 0.0000 0.0000 0.0000 0.0000 0.0000 -5.5401
#
#
#
# Elastic Compliance Matrix: (Units=1/GPa)
#
#
# Indices 1 2 3 4 5 6 
#
# 1 0.006526 0.000160 -0.002683 0.000000 0.000000 0.000000
# 2 0.000160 0.018794 -0.004996 0.000000 0.000000 0.000000
# 3 -0.002683 -0.004996 0.010050 0.000000 0.000000 0.000000
# 4 0.000000 0.000000 0.000000 0.056906 0.000000 0.000000
# 5 0.000000 0.000000 0.000000 0.000000 0.001338 0.000000
# 6 0.000000 0.000000 0.000000 0.000000 0.000000 -0.180503
#
#
# Mechanical properties :
#
#
# Convention : Reuss Voigt Hill
#
# Bulk Modulus (GPa) = 49.18184 62.99881 56.09033
# Shear Modulus (GPa) = -76.83576 169.77004 46.46714
#
# Velocity S-wave (km/s) = -6.37040 9.46925 4.95402
# Velocity P-wave (km/s) = 5.30407 12.36242 7.89608
#
# Compressibility (1/GPa) = 0.02033271
#
# Stress axis : x y z
#
# Youngs Moduli (GPa) = 153.23261 53.20844 99.50186
#
# Poissons Ratio (x) = -0.00852 0.26697
# Poissons Ratio (y) = -0.02453 0.49708
# Poissons Ratio (z) = 0.41114 0.26581
#
# Static dielectric constant tensor:
#      x y z
#    x 1.720590 0.000000 0.000000 
#    y 0.000000 1.728690 0.000000 
#    z 0.000000 0.000000 1.658920 
# 
# From -- ./inp_files/24274.got.cif
#   From: 2010.05.17/outbox.cif.g08.bks.cpg/sg51_13_cif.got.tgz:24274.got - 2010.06.03 11:52:47.
