data_PCOD9398864
_publ_section_title
;
Structure prediction by ZEFSAII (Michael W. Deem and Ramdas Pophale) SiO2 
 PCOD9398864
Probable space group: P M M A
;
_chemical_formula_sum "Si O2"
_cell_formula_units_Z 64
_cell_length_a 30.816682
_cell_length_b 7.793649
_cell_length_c 15.348020
_cell_angle_alpha 90.000000
_cell_angle_beta 90.000000
_cell_angle_gamma 90.000000
_cell_volume 3686.201538
_symmetry_space_group_name_H-M "P M M A"
_symmetry_group_IT_number 51
_symmetry_cell_setting 'orthorhombic'
loop_
_space_group_symop_operation_xyz
x,y,z
1/2-x,-y,z
1/2+x,-y,-z
-x,y,-z
-x,-y,-z
1/2+x,y,-z
1/2-x,y,z
x,-y,z
loop_
_atom_site_type_symbol
_atom_site_label
_atom_site_fract_x
_atom_site_fract_y
_atom_site_fract_z
Si Si1 0.039923 0.201579 0.672549
Si Si2 0.555310 0.701390 0.642598
Si Si3 0.606206 0.796342 0.470478
Si Si4 0.202401 0.709478 0.291986
Si Si5 0.436727 0.205922 0.045913
Si Si6 0.884212 0.705361 0.796098
Si Si7 0.298250 0.293046 0.494602
Si Si8 0.527319 0.789937 0.132150
O O1 0.076571 0.273436 0.608353
O O2 0.037364 0.273307 0.770907
O O3 0.992018 0.217871 0.631023
O O4 0.049625 0.000000 0.682137
O O5 0.547391 0.500000 0.655040
O O6 0.587406 0.722828 0.560944
O O7 0.579248 0.772652 0.728797
O O8 0.657455 0.763895 0.459688
O O9 0.599511 0.000000 0.476321
O O10 0.250000 0.764763 0.261833
O O11 0.202031 0.500000 0.291445
O O12 0.162288 0.771187 0.235218
O O13 0.197374 0.760191 0.393094
O O14 0.396590 0.257396 0.105109
O O15 0.479913 0.265413 0.097738
O O16 0.438705 0.000000 0.044296
O O17 0.440274 0.262905 0.945719
O O18 0.883872 0.500000 0.784638
O O19 0.250000 0.235574 0.524851
O O20 0.297925 0.500000 0.496393
O O21 0.526596 0.000000 0.135046
#
# Coordination Sequence:
#
# PCOD9398864 Si02
#       8
#     8   8   8   8   8   8   8   8
#     4  10  20  34  48  64  91 126 160 195 232 273
#     4  11  21  32  45  65  94 128 162 193 223 268
#     4  11  22  32  46  68  94 125 158 194 233 270
#     4   8  14  27  46  64  85 116 150 181 217 267
#     4   9  16  28  48  67  84 115 150 183 224 270
#     4  10  18  28  44  68  93 117 149 186 224 268
#     4   9  17  32  52  69  89 120 155 191 232 277
#     4   8  15  29  47  65  85 113 154 189 219 270
#
# _framework density 17.362045999999999
#
# number of rings (size 3 to 8) (size 9 to 14) (size 15 to 20)
#    0.000    2.500    2.500    2.625    0.000    3.250 
#    0.000    1.875    0.000    0.375    0.000    0.875 
#    0.000    5.000    0.000    0.000    0.000    0.000 
#
# Total GULP energy -356741.098796 kJ/mol
# GULP energy per Si atom -5574.079669 kJ/mol
# Density = 1.732253 g / cm^3
# Si number density = 17.362046 Si / 1000 Ang^3
#
#
#
# Elastic Constant Matrix: (Units=GPa)
#
#
# Indices 1 2 3 4 5 6 
#
# 1 119.3939 -4.1187 37.9249 0.0000 0.0000 0.0000
# 2 -4.1187 17.9342 -0.2149 0.0000 0.0000 0.0000
# 3 37.9249 -0.2149 63.3460 0.0000 0.0000 0.0000
# 4 0.0000 0.0000 0.0000 12.6951 0.0000 0.0000
# 5 0.0000 0.0000 0.0000 0.0000 24.5718 0.0000
# 6 0.0000 0.0000 0.0000 0.0000 0.0000 16.9856
#
#
#
# Elastic Compliance Matrix: (Units=1/GPa)
#
#
# Indices 1 2 3 4 5 6 
#
# 1 0.010438 0.002322 -0.006241 0.000000 0.000000 0.000000
# 2 0.002322 0.056278 -0.001199 0.000000 0.000000 0.000000
# 3 -0.006241 -0.001199 0.019519 0.000000 0.000000 0.000000
# 4 0.000000 0.000000 0.000000 0.078771 0.000000 0.000000
# 5 0.000000 0.000000 0.000000 0.000000 0.040697 0.000000
# 6 0.000000 0.000000 0.000000 0.000000 0.000000 0.058873
#
#
# Mechanical properties :
#
#
# Convention : Reuss Voigt Hill
#
# Bulk Modulus (GPa) = 13.15812 29.76185 21.45999
# Shear Modulus (GPa) = 16.65852 21.98936 19.32394
#
# Velocity S-wave (km/s) = 3.10091 3.56268 3.33978
# Velocity P-wave (km/s) = 4.51840 5.83975 5.22105
#
# Compressibility (1/GPa) = 0.07599867
#
# Stress axis : x y z
#
# Youngs Moduli (GPa) = 95.80068 17.76880 51.23214
#
# Poissons Ratio (x) = -0.04127 0.31977
# Poissons Ratio (y) = -0.22249 0.06145
# Poissons Ratio (z) = 0.59794 0.02131
#
# Static dielectric constant tensor:
#      x y z
#    x 1.604180 0.000000 0.000000 
#    y 0.000000 1.638020 0.000000 
#    z 0.000000 0.000000 1.597690 
# 
# From -- ./inp_files/26675.got.cif
#   From: 2010.05.17/outbox.cif.g08.bks.cpg/sg51_14_cif.got.tgz:26675.got - 2010.06.03 11:52:47.
