data_PCOD9398783
_publ_section_title
;
Structure prediction by ZEFSAII (Michael W. Deem and Ramdas Pophale) SiO2 
 PCOD9398783
Probable space group: P M M A
;
_chemical_formula_sum "Si O2"
_cell_formula_units_Z 64
_cell_length_a 9.101415
_cell_length_b 18.857598
_cell_length_c 26.763178
_cell_angle_alpha 90.000000
_cell_angle_beta 90.000000
_cell_angle_gamma 90.000000
_cell_volume 4593.386328
_symmetry_space_group_name_H-M "P M M A"
_symmetry_group_IT_number 51
_symmetry_cell_setting 'orthorhombic'
loop_
_space_group_symop_operation_xyz
x,y,z
1/2-x,-y,z
1/2+x,-y,-z
-x,y,-z
-x,-y,-z
1/2+x,y,-z
1/2-x,y,z
x,-y,z
loop_
_atom_site_type_symbol
_atom_site_label
_atom_site_fract_x
_atom_site_fract_y
_atom_site_fract_z
Si Si1 0.924890 0.416176 0.052873
Si Si2 0.073685 0.082522 0.447939
Si Si3 0.573197 0.082529 0.254801
Si Si4 0.081295 0.212833 0.806287
Si Si5 0.573522 0.837046 0.652930
Si Si6 0.075232 0.661015 0.145079
Si Si7 0.573980 0.417747 0.750599
Si Si8 0.080947 0.292863 0.698754
O O1 0.750000 0.405765 0.049923
O O2 0.952477 0.500000 0.062449
O O3 0.993830 0.371099 0.097506
O O4 0.000000 0.398730 0.000000
O O5 0.250000 0.085431 0.453168
O O6 0.032316 0.130220 0.400615
O O7 0.000000 0.104047 0.500000
O O8 0.033356 0.000000 0.438240
O O9 0.750000 0.090529 0.262081
O O10 0.534473 0.133148 0.207945
O O11 0.491818 0.112751 0.303550
O O12 0.540667 0.000000 0.247203
O O13 0.250000 0.213171 0.824270
O O14 0.079574 0.252098 0.752296
O O15 0.980418 0.260057 0.841715
O O16 0.750000 0.835398 0.657098
O O17 0.507549 0.759057 0.662232
O O18 0.250000 0.659743 0.137837
O O19 0.040638 0.612936 0.194052
O O20 0.750000 0.411936 0.744216
O O21 0.531899 0.500000 0.747256
O O22 0.494339 0.367724 0.710551
O O23 0.250000 0.300474 0.683318
#
# Coordination Sequence:
#
# PCOD9398783 Si02
#       8
#     8   8   8   8   8   8   8   8
#     4  10  20  32  45  61  82 108 138 172 207 241
#     4   9  18  30  42  58  80 106 137 172 207 242
#     4   9  17  28  42  61  84 110 140 172 206 245
#     4   8  15  27  40  56  80 108 137 168 201 239
#     4  10  18  28  42  59  81 109 140 172 207 246
#     4  10  18  28  43  61  82 109 140 171 203 240
#     4   9  17  28  42  61  85 112 140 170 205 244
#     4   9  17  28  41  58  80 107 139 172 205 242
#
# _framework density 13.933075000000001
#
# number of rings (size 3 to 8) (size 9 to 14) (size 15 to 20)
#    0.000    2.750    0.000    3.000    0.000    6.750 
#    0.000    1.250    0.000    0.000    0.000    0.000 
#    0.000    1.000    0.000    3.000    0.000    4.000 
#
# Total GULP energy -356567.715400 kJ/mol
# GULP energy per Si atom -5571.370553 kJ/mol
# Density = 1.390136 g / cm^3
# Si number density = 13.933075 Si / 1000 Ang^3
#
#
#
# Elastic Constant Matrix: (Units=GPa)
#
#
# Indices 1 2 3 4 5 6 
#
# 1 53.4629 50.4417 49.4877 0.0000 0.0000 0.0000
# 2 50.4417 119.2255 60.1326 0.0000 0.0000 0.0000
# 3 49.4877 60.1326 85.9796 0.0000 0.0000 0.0000
# 4 0.0000 0.0000 0.0000 24.9172 0.0000 0.0000
# 5 0.0000 0.0000 0.0000 0.0000 22.0005 0.0000
# 6 0.0000 0.0000 0.0000 0.0000 0.0000 21.4287
#
#
#
# Elastic Compliance Matrix: (Units=1/GPa)
#
#
# Indices 1 2 3 4 5 6 
#
# 1 0.046016 -0.009440 -0.019884 0.000000 0.000000 0.000000
# 2 -0.009440 0.014895 -0.004984 0.000000 0.000000 0.000000
# 3 -0.019884 -0.004984 0.026561 0.000000 0.000000 0.000000
# 4 0.000000 0.000000 0.000000 0.040133 0.000000 0.000000
# 5 0.000000 0.000000 0.000000 0.000000 0.045454 0.000000
# 6 0.000000 0.000000 0.000000 0.000000 0.000000 0.046666
#
#
# Mechanical properties :
#
#
# Convention : Reuss Voigt Hill
#
# Bulk Modulus (GPa) = 53.03043 64.31022 58.67033
# Shear Modulus (GPa) = 16.97067 20.24301 18.60684
#
# Velocity S-wave (km/s) = 3.49379 3.81579 3.65834
# Velocity P-wave (km/s) = 7.37692 8.10373 7.74885
#
# Compressibility (1/GPa) = 0.01885710
#
# Stress axis : x y z
#
# Youngs Moduli (GPa) = 21.73138 67.13673 37.64936
#
# Poissons Ratio (x) = 0.63377 0.74861
# Poissons Ratio (y) = 0.20514 0.18764
# Poissons Ratio (z) = 0.43210 0.33460
#
# Static dielectric constant tensor:
#      x y z
#    x 1.465830 0.000000 0.000000 
#    y 0.000000 1.464030 0.000000 
#    z 0.000000 0.000000 1.428500 
# 
# From -- ./inp_files/35134.got.cif
#   From: 2010.05.17/outbox.cif.g08.bks.cpg/sg51_18_cif.got.tgz:35134.got - 2010.06.03 11:52:47.
