data_PCOD9398859
_publ_section_title
;
Structure prediction by ZEFSAII (Michael W. Deem and Ramdas Pophale) SiO2 
 PCOD9398859
Probable space group: P M M A
;
_chemical_formula_sum "Si O2"
_cell_formula_units_Z 52
_cell_length_a 7.309618
_cell_length_b 16.924880
_cell_length_c 17.612603
_cell_angle_alpha 90.000000
_cell_angle_beta 90.000000
_cell_angle_gamma 90.000000
_cell_volume 2178.932745
_symmetry_space_group_name_H-M "P M M A"
_symmetry_group_IT_number 51
_symmetry_cell_setting 'orthorhombic'
loop_
_space_group_symop_operation_xyz
x,y,z
1/2-x,-y,z
1/2+x,-y,-z
-x,y,-z
-x,-y,-z
1/2+x,y,-z
1/2-x,y,z
x,-y,z
loop_
_atom_site_type_symbol
_atom_site_label
_atom_site_fract_x
_atom_site_fract_y
_atom_site_fract_z
Si Si1 0.527528 0.910641 0.689114
Si Si2 0.472597 0.085375 0.133252
Si Si3 0.027254 0.410898 0.368639
Si Si4 0.466962 0.500000 0.087973
Si Si5 0.532939 0.236423 0.586185
Si Si6 0.527576 0.633796 0.800940
Si Si7 0.468079 0.246336 0.082414
O O1 0.750000 0.910073 0.685200
O O2 0.478478 0.904017 0.777934
O O3 0.464522 0.833460 0.641891
O O4 0.471457 0.000000 0.663473
O O5 0.250000 0.085521 0.131673
O O6 0.539469 0.157750 0.083659
O O7 0.535843 0.000000 0.107326
O O8 0.250000 0.412899 0.373352
O O9 0.967454 0.500000 0.393220
O O10 0.965428 0.327866 0.406371
O O11 0.971149 0.396629 0.280949
O O12 0.250000 0.500000 0.098208
O O13 0.534452 0.574856 0.133467
O O14 0.500000 0.500000 0.000000
O O15 0.500000 0.211018 0.500000
O O16 0.750000 0.241951 0.601212
O O17 0.750000 0.634769 0.796046
O O18 0.467775 0.715494 0.838277
O O19 0.250000 0.246454 0.088888
O O20 0.500000 0.285201 0.000000
#
# Coordination Sequence:
#
# PCOD9398859 Si02
#       7
#     8   8   8   4   8   8   8
#     4   8  14  27  48  72  95 120 155 197 233 268
#     4   8  14  26  45  67  88 113 152 198 231 257
#     4   9  16  29  50  73  92 116 159 206 236 264
#     4  10  18  28  44  66  91 116 142 180 227 268
#     4  10  20  32  49  74 100 125 153 188 233 283
#     4   9  16  28  46  67  88 113 151 194 226 258
#     4  10  19  29  43  65  92 121 151 186 231 277
#
# _framework density 23.864896000000002
#
# number of rings (size 3 to 8) (size 9 to 14) (size 15 to 20)
#    0.000    2.923    0.769    2.308    0.000    4.615 
#    0.000    0.000    0.000    4.615    0.000    2.154 
#    0.000    0.000    0.000    0.000    0.000    0.000 
#
# Total GULP energy -289934.809367 kJ/mol
# GULP energy per Si atom -5575.669411 kJ/mol
# Density = 2.381058 g / cm^3
# Si number density = 23.864896 Si / 1000 Ang^3
#
#
#
# Elastic Constant Matrix: (Units=GPa)
#
#
# Indices 1 2 3 4 5 6 
#
# 1 95.6357 3.4675 -11.2294 0.0000 0.0000 0.0000
# 2 3.4675 130.3645 15.2734 0.0000 0.0000 0.0000
# 3 -11.2294 15.2734 51.3450 0.0000 0.0000 0.0000
# 4 0.0000 0.0000 0.0000 5.2059 0.0000 0.0000
# 5 0.0000 0.0000 0.0000 0.0000 9.1085 0.0000
# 6 0.0000 0.0000 0.0000 0.0000 0.0000 -9.6189
#
#
#
# Elastic Compliance Matrix: (Units=1/GPa)
#
#
# Indices 1 2 3 4 5 6 
#
# 1 0.010775 -0.000583 0.002530 0.000000 0.000000 0.000000
# 2 -0.000583 0.007979 -0.002501 0.000000 0.000000 0.000000
# 3 0.002530 -0.002501 0.020773 0.000000 0.000000 0.000000
# 4 0.000000 0.000000 0.000000 0.192090 0.000000 0.000000
# 5 0.000000 0.000000 0.000000 0.000000 0.109788 0.000000
# 6 0.000000 0.000000 0.000000 0.000000 0.000000 -0.103962
#
#
# Mechanical properties :
#
#
# Convention : Reuss Voigt Hill
#
# Bulk Modulus (GPa) = 26.02889 32.48535 29.25712
# Shear Modulus (GPa) = 19.89196 18.92801 19.40998
#
# Velocity S-wave (km/s) = 2.89021 2.81931 2.85498
# Velocity P-wave (km/s) = 4.69768 4.92339 4.81186
#
# Compressibility (1/GPa) = 0.03841885
#
# Stress axis : x y z
#
# Youngs Moduli (GPa) = 92.81143 125.32374 48.13852
#
# Poissons Ratio (x) = 0.07306 -0.12178
# Poissons Ratio (y) = 0.05411 0.12040
# Poissons Ratio (z) = -0.23480 0.31344
#
# Static dielectric constant tensor:
#      x y z
#    x 1.936500 0.000000 0.000000 
#    y 0.000000 2.020780 0.000000 
#    z 0.000000 0.000000 1.786920 
# 
# From -- ./inp_files/23386.got.cif
#   From: 2010.05.17/outbox.cif.g08.bks.cpg/sg51_12_cif.got.tgz:23386.got - 2010.06.03 11:52:47.
