data_PCOD9398478
_publ_section_title
;
Structure prediction by ZEFSAII (Michael W. Deem and Ramdas Pophale) SiO2 
 PCOD9398478
Probable space group: P M M A
;
_chemical_formula_sum "Si O2"
_cell_formula_units_Z 52
_cell_length_a 14.609053
_cell_length_b 19.652374
_cell_length_c 8.240221
_cell_angle_alpha 90.000000
_cell_angle_beta 90.000000
_cell_angle_gamma 90.000000
_cell_volume 2365.788654
_symmetry_space_group_name_H-M "P M M A"
_symmetry_group_IT_number 51
_symmetry_cell_setting 'orthorhombic'
loop_
_space_group_symop_operation_xyz
x,y,z
1/2-x,-y,z
1/2+x,-y,-z
-x,y,-z
-x,-y,-z
1/2+x,y,-z
1/2-x,y,z
x,-y,z
loop_
_atom_site_type_symbol
_atom_site_label
_atom_site_fract_x
_atom_site_fract_y
_atom_site_fract_z
Si Si1 0.113308 0.857566 0.661461
Si Si2 0.564517 0.713311 0.342688
Si Si3 0.408268 0.081469 0.338218
Si Si4 0.140955 0.421262 0.156585
Si Si5 0.888464 0.078457 0.009707
Si Si6 0.640074 0.424420 0.462426
Si Si7 0.500000 0.678654 0.000000
O O1 0.130055 0.777927 0.639369
O O2 0.142922 0.898840 0.502697
O O3 0.003777 0.876427 0.665382
O O4 0.145834 0.880252 0.837296
O O5 0.500000 0.718989 0.500000
O O6 0.605751 0.637908 0.356231
O O7 0.519821 0.720124 0.164394
O O8 0.357995 0.098053 0.170513
O O9 0.428694 0.000000 0.337033
O O10 0.250000 0.410422 0.143370
O O11 0.122405 0.500000 0.114080
O O12 0.115402 0.412686 0.347622
O O13 0.084688 0.369882 0.046989
O O14 0.865271 0.000000 0.038417
O O15 0.000000 0.082100 0.000000
O O16 0.750000 0.425845 0.456539
O O17 0.606712 0.500000 0.414305
#
# Coordination Sequence:
#
# PCOD9398478 Si02
#       7
#     8   8   8   8   8   8   4
#     4  10  17  26  41  62 103 142 174 217 275 332
#     4  12  24  36  52  84 116 151 186 230 294 355
#     4   9  15  24  41  63  94 142 184 216 262 322
#     4   9  19  38  63  88 112 143 188 242 297 352
#     4   8  14  23  38  61  90 133 183 218 255 317
#     4   9  20  42  66  82 106 147 195 246 294 350
#     4  12  25  36  56  84 121 152 190 236 292 358
#
# _framework density 21.979986
#
# number of rings (size 3 to 8) (size 9 to 14) (size 15 to 20)
#    0.000    2.308    3.077    3.923    3.231    2.154 
#    0.000    1.538    0.000    0.000    0.000    0.000 
#    0.000    5.538    0.000    3.385    0.000    0.462 
#
# Total GULP energy -290245.350573 kJ/mol
# GULP energy per Si atom -5581.641357 kJ/mol
# Density = 2.192996 g / cm^3
# Si number density = 21.979986 Si / 1000 Ang^3
#
#
#
# Elastic Constant Matrix: (Units=GPa)
#
#
# Indices 1 2 3 4 5 6 
#
# 1 55.6182 12.9300 10.3209 0.0000 0.0000 0.0000
# 2 12.9300 101.4554 54.1171 0.0000 0.0000 0.0000
# 3 10.3209 54.1171 169.6150 0.0000 0.0000 0.0000
# 4 0.0000 0.0000 0.0000 8.3819 0.0000 0.0000
# 5 0.0000 0.0000 0.0000 0.0000 1.0257 0.0000
# 6 0.0000 0.0000 0.0000 0.0000 0.0000 -52.8735
#
#
#
# Elastic Compliance Matrix: (Units=1/GPa)
#
#
# Indices 1 2 3 4 5 6 
#
# 1 0.018557 -0.002124 -0.000451 0.000000 0.000000 0.000000
# 2 -0.002124 0.012121 -0.003738 0.000000 0.000000 0.000000
# 3 -0.000451 -0.003738 0.007116 0.000000 0.000000 0.000000
# 4 0.000000 0.000000 0.000000 0.119305 0.000000 0.000000
# 5 0.000000 0.000000 0.000000 0.000000 0.974911 0.000000
# 6 0.000000 0.000000 0.000000 0.000000 0.000000 -0.018913
#
#
# Mechanical properties :
#
#
# Convention : Reuss Voigt Hill
#
# Bulk Modulus (GPa) = 39.73488 53.49163 46.61326
# Shear Modulus (GPa) = 4.40873 7.92821 6.16847
#
# Velocity S-wave (km/s) = 1.41780 1.90127 1.67705
# Velocity P-wave (km/s) = 4.56039 5.40455 5.00032
#
# Compressibility (1/GPa) = 0.02516680
#
# Stress axis : x y z
#
# Youngs Moduli (GPa) = 53.88706 82.49995 140.53127
#
# Poissons Ratio (x) = 0.17525 0.06344
# Poissons Ratio (y) = 0.11447 0.52532
# Poissons Ratio (z) = 0.02433 0.30839
#
# Static dielectric constant tensor:
#      x y z
#    x 1.826660 0.000000 0.000000 
#    y 0.000000 1.774030 0.000000 
#    z 0.000000 0.000000 1.839670 
# 
# From -- ./inp_files/9854.got.cif
#   From: 2010.05.17/outbox.cif.g08.bks.cpg/sg51_5_cif.got.tgz:9854.got - 2010.06.03 11:52:47.
