data_PCOD9398690
_publ_section_title
;
Structure prediction by ZEFSAII (Michael W. Deem and Ramdas Pophale) SiO2 
 PCOD9398690
Probable space group: P M M A
;
_chemical_formula_sum "Si O2"
_cell_formula_units_Z 56
_cell_length_a 8.649691
_cell_length_b 30.811953
_cell_length_c 13.868280
_cell_angle_alpha 90.000000
_cell_angle_beta 90.000000
_cell_angle_gamma 90.000000
_cell_volume 3696.089008
_symmetry_space_group_name_H-M "P M M A"
_symmetry_group_IT_number 51
_symmetry_cell_setting 'orthorhombic'
loop_
_space_group_symop_operation_xyz
x,y,z
1/2-x,-y,z
1/2+x,-y,-z
-x,y,-z
-x,-y,-z
1/2+x,y,-z
1/2-x,y,z
x,-y,z
loop_
_atom_site_type_symbol
_atom_site_label
_atom_site_fract_x
_atom_site_fract_y
_atom_site_fract_z
Si Si1 0.065216 0.406568 0.102490
Si Si2 0.434378 0.633587 0.602446
Si Si3 0.436491 0.450944 0.302536
Si Si4 0.062924 0.953216 0.109670
Si Si5 0.564082 0.235337 0.890859
Si Si6 0.564582 0.678279 0.199344
Si Si7 0.436507 0.140202 0.109086
O O1 0.250000 0.404556 0.097662
O O2 0.021908 0.437108 0.192911
O O3 0.000398 0.358926 0.128544
O O4 0.000000 0.421209 0.000000
O O5 0.500000 0.647732 0.500000
O O6 0.250000 0.633173 0.598597
O O7 0.493402 0.585354 0.628189
O O8 0.482331 0.663580 0.692833
O O9 0.250000 0.449001 0.309613
O O10 0.486616 0.500000 0.323027
O O11 0.250000 0.953247 0.106640
O O12 0.014512 0.906439 0.153084
O O13 0.014285 0.000000 0.152865
O O14 0.000000 0.953205 0.000000
O O15 0.750000 0.237856 0.894182
O O16 0.498832 0.275080 0.830033
O O17 0.517790 0.187450 0.851073
O O18 0.500000 0.238863 0.000000
O O19 0.750000 0.677997 0.193255
O O20 0.250000 0.140147 0.105861
O O21 0.500000 0.140055 0.000000
#
# Coordination Sequence:
#
# PCOD9398690 Si02
#       7
#     8   8   8   8   8   8   8
#     4  10  19  31  47  66  89 116 143 170 200 233
#     4  10  21  36  54  72  88 107 131 163 201 241
#     4   9  19  35  52  70  92 116 141 167 195 231
#     4   8  12  18  28  41  59  86 122 164 204 237
#     4  10  18  27  40  58  82 111 140 172 208 243
#     4  10  20  33  47  64  84 106 136 169 201 240
#     4   8  14  22  31  46  68  95 129 166 203 240
#
# _framework density 15.151149
#
# number of rings (size 3 to 8) (size 9 to 14) (size 15 to 20)
#    0.000    2.714    0.000    2.143    0.000    3.714 
#    0.000    0.000    0.000    0.000    0.000    0.000 
#    0.000    0.000    0.000    0.000    0.000    0.714 
#
# Total GULP energy -311771.921166 kJ/mol
# GULP energy per Si atom -5567.355735 kJ/mol
# Density = 1.511666 g / cm^3
# Si number density = 15.151149 Si / 1000 Ang^3
#
#
#
# Elastic Constant Matrix: (Units=GPa)
#
#
# Indices 1 2 3 4 5 6 
#
# 1 20.8696 16.4266 12.1714 0.0000 0.0000 0.0000
# 2 16.4266 126.1581 15.3853 0.0000 0.0000 0.0000
# 3 12.1714 15.3853 47.2457 0.0000 0.0000 0.0000
# 4 0.0000 0.0000 0.0000 4.2325 0.0000 0.0000
# 5 0.0000 0.0000 0.0000 0.0000 19.4114 0.0000
# 6 0.0000 0.0000 0.0000 0.0000 0.0000 9.0124
#
#
#
# Elastic Compliance Matrix: (Units=1/GPa)
#
#
# Indices 1 2 3 4 5 6 
#
# 1 0.060783 -0.006253 -0.013623 0.000000 0.000000 0.000000
# 2 -0.006253 0.008898 -0.001287 0.000000 0.000000 0.000000
# 3 -0.013623 -0.001287 0.025094 0.000000 0.000000 0.000000
# 4 0.000000 0.000000 0.000000 0.236265 0.000000 0.000000
# 5 0.000000 0.000000 0.000000 0.000000 0.051516 0.000000
# 6 0.000000 0.000000 0.000000 0.000000 0.000000 0.110958
#
#
# Mechanical properties :
#
#
# Convention : Reuss Voigt Hill
#
# Bulk Modulus (GPa) = 19.06554 31.36001 25.21277
# Shear Modulus (GPa) = 9.03632 16.55060 12.79346
#
# Velocity S-wave (km/s) = 2.44480 3.30868 2.90899
# Velocity P-wave (km/s) = 4.53655 5.94471 5.28771
#
# Compressibility (1/GPa) = 0.05245066
#
# Stress axis : x y z
#
# Youngs Moduli (GPa) = 16.45191 112.38924 39.84958
#
# Poissons Ratio (x) = 0.70278 0.54286
# Poissons Ratio (y) = 0.10287 0.05127
# Poissons Ratio (z) = 0.22412 0.14459
#
# Static dielectric constant tensor:
#      x y z
#    x 1.509270 0.000000 0.000000 
#    y 0.000000 1.557200 0.000000 
#    z 0.000000 0.000000 1.473840 
# 
# From -- ./inp_files/22538.got.cif
#   From: 2010.05.17/outbox.cif.g08.bks.cpg/sg51_12_cif.got.tgz:22538.got - 2010.06.03 11:52:47.
