data_PCOD9398203
_publ_section_title
;
Structure prediction by ZEFSAII (Michael W. Deem and Ramdas Pophale) SiO2 
 PCOD9398203
Probable space group: P B A N
;
_chemical_formula_sum "Si O2"
_cell_formula_units_Z 36
_cell_length_a 13.297272
_cell_length_b 19.604199
_cell_length_c 6.229949
_cell_angle_alpha 90.000000
_cell_angle_beta 90.000000
_cell_angle_gamma 90.000000
_cell_volume 1624.037848
_symmetry_space_group_name_H-M "P B A N"
_symmetry_group_IT_number 50
_space_group.IT_coordinate_system_code '2'
_symmetry_cell_setting 'orthorhombic'
loop_
_space_group_symop_operation_xyz
x,y,z
1/2-x,1/2-y,z
x,1/2-y,-z
1/2-x,y,-z
-x,-y,-z
1/2+x,1/2+y,-z
-x,1/2+y,z
1/2+x,-y,z
loop_
_atom_site_type_symbol
_atom_site_label
_atom_site_fract_x
_atom_site_fract_y
_atom_site_fract_z
Si Si1 0.523072 0.051943 0.693660
Si Si2 0.648651 0.320744 0.383474
Si Si3 0.250000 0.750000 0.000000
Si Si4 0.354657 0.319738 0.623163
Si Si5 0.250000 0.250000 0.000000
Si Si6 0.634999 0.940448 0.922781
O O1 0.562332 0.124254 0.610650
O O2 0.500000 0.000000 0.500000
O O3 0.611392 0.015861 0.832195
O O4 0.433304 0.066313 0.862899
O O5 0.622521 0.250000 0.500000
O O6 0.750000 0.347105 0.500000
O O7 0.681012 0.297787 0.146854
O O8 0.394263 0.250000 0.500000
O O9 0.250000 0.336929 0.500000
O O10 0.322310 0.291100 0.850877
O O11 0.396843 0.390913 0.721270
O O12 0.750000 0.932174 0.000000
#
# Coordination Sequence:
#
# PCOD9398203 Si02
#       6
#     8   8   2   8   2   8
#     4  11  28  45  67 108 144 182 251 303 373 455
#     4   9  21  42  75 104 134 184 240 303 377 428
#     4   8  18  40  76 102 130 180 242 302 370 414
#     4   9  19  35  65  94 132 181 238 276 340 427
#     4   8  14  32  52  94 124 164 240 258 314 430
#     4  11  26  44  69 102 141 198 238 295 371 447
#
# _framework density 22.166971
#
# number of rings (size 3 to 8) (size 9 to 14) (size 15 to 20)
#    0.000    2.667    1.111    0.000    7.778    5.333 
#    0.000    7.778    0.000    0.000    0.000    0.000 
#    0.000    0.000    0.000    0.000    0.000    0.000 
#
# Total GULP energy -200466.286951 kJ/mol
# GULP energy per Si atom -5568.507971 kJ/mol
# Density = 2.211652 g / cm^3
# Si number density = 22.166971 Si / 1000 Ang^3
#
#
#
# Elastic Constant Matrix: (Units=GPa)
#
#
# Indices 1 2 3 4 5 6 
#
# 1 87.8822 57.0580 62.1431 0.0000 0.0000 0.0000
# 2 57.0580 133.9806 57.4307 0.0000 0.0000 0.0000
# 3 62.1431 57.4307 140.3487 0.0000 0.0000 0.0000
# 4 0.0000 0.0000 0.0000 45.1112 0.0000 0.0000
# 5 0.0000 0.0000 0.0000 0.0000 -28.3895 0.0000
# 6 0.0000 0.0000 0.0000 0.0000 0.0000 41.4071
#
#
#
# Elastic Compliance Matrix: (Units=1/GPa)
#
#
# Indices 1 2 3 4 5 6 
#
# 1 0.019489 -0.005579 -0.006346 0.000000 0.000000 0.000000
# 2 -0.005579 0.010649 -0.001887 0.000000 0.000000 0.000000
# 3 -0.006346 -0.001887 0.010707 0.000000 0.000000 0.000000
# 4 0.000000 0.000000 0.000000 0.022167 0.000000 0.000000
# 5 0.000000 0.000000 0.000000 0.000000 -0.035224 0.000000
# 6 0.000000 0.000000 0.000000 0.000000 0.000000 0.024150
#
#
# Mechanical properties :
#
#
# Convention : Reuss Voigt Hill
#
# Bulk Modulus (GPa) = 75.64495 79.49725 77.57110
# Shear Modulus (GPa) = 59.54521 23.99773 41.77147
#
# Velocity S-wave (km/s) = 5.18849 3.29384 4.34568
# Velocity P-wave (km/s) = 8.37216 7.09976 7.76208
#
# Compressibility (1/GPa) = 0.01321965
#
# Stress axis : x y z
#
# Youngs Moduli (GPa) = 51.31165 93.90794 93.39525
#
# Poissons Ratio (x) = 0.52395 0.59269
# Poissons Ratio (y) = 0.28629 0.17624
# Poissons Ratio (z) = 0.32563 0.17721
#
# Static dielectric constant tensor:
#      x y z
#    x 1.828270 0.000000 0.000000 
#    y 0.000000 1.242390 0.000000 
#    z 0.000000 0.000000 1.778080 
# 
# From -- ./inp_files/3259.got.cif
#   From: 2010.05.17/outbox.cif.g08.bks.cpg/sg50_2_cif.got.tgz:3259.got - 2010.06.03 11:33:33.
