data_PCOD9398469
_publ_section_title
;
Structure prediction by ZEFSAII (Michael W. Deem and Ramdas Pophale) SiO2 
 PCOD9398469
Probable space group: P M M A
;
_chemical_formula_sum "Si O2"
_cell_formula_units_Z 44
_cell_length_a 8.642314
_cell_length_b 24.342141
_cell_length_c 14.529904
_cell_angle_alpha 90.000000
_cell_angle_beta 90.000000
_cell_angle_gamma 90.000000
_cell_volume 3056.691153
_symmetry_space_group_name_H-M "P M M A"
_symmetry_group_IT_number 51
_symmetry_cell_setting 'orthorhombic'
loop_
_space_group_symop_operation_xyz
x,y,z
1/2-x,-y,z
1/2+x,-y,-z
-x,y,-z
-x,-y,-z
1/2+x,y,-z
1/2-x,y,z
x,-y,z
loop_
_atom_site_type_symbol
_atom_site_label
_atom_site_fract_x
_atom_site_fract_y
_atom_site_fract_z
Si Si1 0.934672 0.827411 0.604544
Si Si2 0.565192 0.287520 0.395975
Si Si3 0.435376 0.939789 0.604494
Si Si4 0.564605 0.564499 0.100279
Si Si5 0.564038 0.390827 0.713948
Si Si6 0.563713 0.500000 0.602745
O O1 0.750000 0.826242 0.602293
O O2 0.000000 0.827947 0.500000
O O3 0.000568 0.770349 0.642754
O O4 0.993091 0.884717 0.647669
O O5 0.500000 0.294622 0.500000
O O6 0.750000 0.285236 0.401021
O O7 0.509055 0.337896 0.334142
O O8 0.500000 0.941634 0.500000
O O9 0.250000 0.934225 0.600676
O O10 0.472525 0.000000 0.645692
O O11 0.750000 0.568875 0.101170
O O12 0.523253 0.500000 0.115642
O O13 0.492155 0.599684 0.182199
O O14 0.500000 0.579645 0.000000
O O15 0.750000 0.386892 0.711007
O O16 0.515283 0.445233 0.656948
O O17 0.750000 0.500000 0.599385
O O18 0.500000 0.500000 0.500000
#
# Coordination Sequence:
#
# PCOD9398469 Si02
#       6
#     8   8   8   8   8   4
#     4  10  17  26  39  54  74 103 138 177 216 254
#     4  11  21  33  46  62  84 114 149 184 220 261
#     4   9  15  22  33  50  72  98 130 171 215 254
#     4  10  20  34  53  74  93 114 138 171 214 262
#     4  11  21  35  50  68  89 114 144 178 219 263
#     4  10  22  34  47  64  87 114 141 176 216 256
#
# _framework density 14.39465
#
# number of rings (size 3 to 8) (size 9 to 14) (size 15 to 20)
#    0.000    1.818    0.909    7.636    0.000    4.727 
#    0.000    0.000    0.000    0.000    0.000    0.000 
#    0.000    0.000    0.000    0.000    0.000    0.909 
#
# Total GULP energy -245373.294192 kJ/mol
# GULP energy per Si atom -5576.665777 kJ/mol
# Density = 1.436189 g / cm^3
# Si number density = 14.394650 Si / 1000 Ang^3
#
#
#
# Elastic Constant Matrix: (Units=GPa)
#
#
# Indices 1 2 3 4 5 6 
#
# 1 100.1763 59.9193 28.1595 0.0000 0.0000 0.0000
# 2 59.9193 154.5771 47.1931 0.0000 0.0000 0.0000
# 3 28.1595 47.1931 64.4322 0.0000 0.0000 0.0000
# 4 0.0000 0.0000 0.0000 1.4312 0.0000 0.0000
# 5 0.0000 0.0000 0.0000 0.0000 19.1372 0.0000
# 6 0.0000 0.0000 0.0000 0.0000 0.0000 16.4936
#
#
#
# Elastic Compliance Matrix: (Units=1/GPa)
#
#
# Indices 1 2 3 4 5 6 
#
# 1 0.013333 -0.004365 -0.002630 0.000000 0.000000 0.000000
# 2 -0.004365 0.009762 -0.005242 0.000000 0.000000 0.000000
# 3 -0.002630 -0.005242 0.020509 0.000000 0.000000 0.000000
# 4 0.000000 0.000000 0.000000 0.698720 0.000000 0.000000
# 5 0.000000 0.000000 0.000000 0.000000 0.052254 0.000000
# 6 0.000000 0.000000 0.000000 0.000000 0.000000 0.060630
#
#
# Mechanical properties :
#
#
# Convention : Reuss Voigt Hill
#
# Bulk Modulus (GPa) = 52.27561 65.52549 58.90055
# Shear Modulus (GPa) = 5.64297 19.67329 12.65813
#
# Velocity S-wave (km/s) = 1.98209 3.70091 2.96862
# Velocity P-wave (km/s) = 6.45237 7.99261 7.26344
#
# Compressibility (1/GPa) = 0.01912938
#
# Stress axis : x y z
#
# Youngs Moduli (GPa) = 75.00374 102.43894 48.75901
#
# Poissons Ratio (x) = 0.44719 0.12821
# Poissons Ratio (y) = 0.32742 0.25561
# Poissons Ratio (z) = 0.19722 0.53701
#
# Static dielectric constant tensor:
#      x y z
#    x 1.479570 0.000000 0.000000 
#    y 0.000000 1.527510 0.000000 
#    z 0.000000 0.000000 1.435760 
# 
# From -- ./inp_files/14433.got.cif
#   From: 2010.05.17/outbox.cif.g08.bks.cpg/sg51_8_cif.got.tgz:14433.got - 2010.06.03 11:52:47.
