data_PCOD9398872
_publ_section_title
;
Structure prediction by ZEFSAII (Michael W. Deem and Ramdas Pophale) SiO2 
 PCOD9398872
Probable space group: P M M A
;
_chemical_formula_sum "Si O2"
_cell_formula_units_Z 64
_cell_length_a 9.123240
_cell_length_b 14.521216
_cell_length_c 29.950953
_cell_angle_alpha 90.000000
_cell_angle_beta 90.000000
_cell_angle_gamma 90.000000
_cell_volume 3967.918387
_symmetry_space_group_name_H-M "P M M A"
_symmetry_group_IT_number 51
_symmetry_cell_setting 'orthorhombic'
loop_
_space_group_symop_operation_xyz
x,y,z
1/2-x,-y,z
1/2+x,-y,-z
-x,y,-z
-x,-y,-z
1/2+x,y,-z
1/2-x,y,z
x,-y,z
loop_
_atom_site_type_symbol
_atom_site_label
_atom_site_fract_x
_atom_site_fract_y
_atom_site_fract_z
Si Si1 0.928952 0.393243 0.642853
Si Si2 0.920305 0.110895 0.128034
Si Si3 0.426245 0.713940 0.269454
Si Si4 0.924878 0.394637 0.905055
Si Si5 0.081236 0.387924 0.455502
Si Si6 0.074659 0.106141 0.221201
Si Si7 0.075226 0.788135 0.046275
Si Si8 0.420391 0.610551 0.811852
O O1 0.750000 0.392981 0.641222
O O2 0.972275 0.500000 0.650766
O O3 0.975722 0.328438 0.683453
O O4 0.979409 0.362729 0.593455
O O5 0.750000 0.139008 0.126621
O O6 0.991881 0.134065 0.175824
O O7 0.009199 0.155538 0.087634
O O8 0.927100 0.000000 0.124088
O O9 0.250000 0.703257 0.267496
O O10 0.460037 0.820875 0.259873
O O11 0.496338 0.657877 0.228776
O O12 0.750000 0.392377 0.896622
O O13 0.965320 0.500000 0.916585
O O14 0.956486 0.319137 0.942502
O O15 0.006401 0.367620 0.859438
O O16 0.250000 0.358879 0.458087
O O17 0.079155 0.500000 0.455588
O O18 0.000000 0.356244 0.500000
O O19 0.250000 0.110399 0.212886
O O20 0.037451 0.000000 0.231662
O O21 0.250000 0.800731 0.043870
O O22 0.000000 0.814921 0.000000
O O23 0.250000 0.636935 0.812040
O O24 0.430351 0.500000 0.806678
#
# Coordination Sequence:
#
# PCOD9398872 Si02
#       8
#     8   8   8   8   8   8   8   8
#     4   8  14  24  38  58  84 114 150 187 218 255
#     4  10  21  37  56  75  94 118 147 178 215 262
#     4  10  18  28  45  65  87 120 154 181 216 264
#     4   9  19  36  54  70  90 119 154 184 210 250
#     4   8  13  22  36  53  75 106 144 184 222 258
#     4   9  18  32  49  70  94 117 144 181 222 261
#     4  11  23  37  54  75  97 120 145 177 218 260
#     4  10  20  31  44  66  94 120 146 180 220 256
#
# _framework density 16.129363999999999
#
# number of rings (size 3 to 8) (size 9 to 14) (size 15 to 20)
#    0.000    2.625    0.000    3.000    0.000    7.000 
#    0.000    0.625    0.000    2.250    0.000    0.000 
#    0.000    0.500    0.000    0.375    0.000    0.750 
#
# Total GULP energy -356818.126542 kJ/mol
# GULP energy per Si atom -5575.283227 kJ/mol
# Density = 1.609265 g / cm^3
# Si number density = 16.129364 Si / 1000 Ang^3
#
#
#
# Elastic Constant Matrix: (Units=GPa)
#
#
# Indices 1 2 3 4 5 6 
#
# 1 29.0747 26.6315 35.3887 0.0000 0.0000 0.0000
# 2 26.6315 51.5444 53.4239 0.0000 0.0000 0.0000
# 3 35.3887 53.4239 118.1748 0.0000 0.0000 0.0000
# 4 0.0000 0.0000 0.0000 18.1934 0.0000 0.0000
# 5 0.0000 0.0000 0.0000 0.0000 18.7961 0.0000
# 6 0.0000 0.0000 0.0000 0.0000 0.0000 15.1178
#
#
#
# Elastic Compliance Matrix: (Units=1/GPa)
#
#
# Indices 1 2 3 4 5 6 
#
# 1 0.069688 -0.027051 -0.008640 0.000000 0.000000 0.000000
# 2 -0.027051 0.047006 -0.013150 0.000000 0.000000 0.000000
# 3 -0.008640 -0.013150 0.016994 0.000000 0.000000 0.000000
# 4 0.000000 0.000000 0.000000 0.054965 0.000000 0.000000
# 5 0.000000 0.000000 0.000000 0.000000 0.053202 0.000000
# 6 0.000000 0.000000 0.000000 0.000000 0.000000 0.066147
#
#
# Mechanical properties :
#
#
# Convention : Reuss Voigt Hill
#
# Bulk Modulus (GPa) = 27.77207 47.74247 37.75727
# Shear Modulus (GPa) = 11.97070 15.97812 13.97441
#
# Velocity S-wave (km/s) = 2.72723 3.15083 2.94665
# Velocity P-wave (km/s) = 5.21275 6.54988 5.91919
#
# Compressibility (1/GPa) = 0.03600740
#
# Stress axis : x y z
#
# Youngs Moduli (GPa) = 14.34970 21.27366 58.84448
#
# Poissons Ratio (x) = 0.57548 0.50840
# Poissons Ratio (y) = 0.38817 0.77379
# Poissons Ratio (z) = 0.12398 0.27974
#
# Static dielectric constant tensor:
#      x y z
#    x 1.541570 0.000000 0.000000 
#    y 0.000000 1.558180 0.000000 
#    z 0.000000 0.000000 1.524900 
# 
# From -- ./inp_files/37598.got.cif
#   From: 2010.05.17/outbox.cif.g08.bks.cpg/sg51_19_cif.got.tgz:37598.got - 2010.06.03 11:52:47.
