data_PCOD9398133
_publ_section_title
;
Structure prediction by ZEFSAII (Michael W. Deem and Ramdas Pophale) SiO2 
 PCOD9398133
Probable space group: P B A N
;
_chemical_formula_sum "Si O2"
_cell_formula_units_Z 24
_cell_length_a 15.674597
_cell_length_b 7.532732
_cell_length_c 8.707581
_cell_angle_alpha 90.000000
_cell_angle_beta 90.000000
_cell_angle_gamma 90.000000
_cell_volume 1028.126192
_symmetry_space_group_name_H-M "P B A N"
_symmetry_group_IT_number 50
_space_group.IT_coordinate_system_code '2'
_symmetry_cell_setting 'orthorhombic'
loop_
_space_group_symop_operation_xyz
x,y,z
1/2-x,1/2-y,z
x,1/2-y,-z
1/2-x,y,-z
-x,-y,-z
1/2+x,1/2+y,-z
-x,1/2+y,z
1/2+x,-y,z
loop_
_atom_site_type_symbol
_atom_site_label
_atom_site_fract_x
_atom_site_fract_y
_atom_site_fract_z
Si Si1 0.148169 0.210742 0.670691
Si Si2 0.158989 0.660026 0.199181
Si Si3 0.913789 0.493828 0.097334
O O1 0.250000 0.250000 0.678825
O O2 0.116898 0.250000 0.500000
O O3 0.909230 0.180924 0.796737
O O4 0.107176 0.332933 0.804194
O O5 0.250000 0.750000 0.231001
O O6 0.137293 0.498478 0.307923
O O7 0.155376 0.938350 0.967341
O O8 0.000000 0.500000 0.000000
#
# Coordination Sequence:
#
# PCOD9398133 Si02
#       3
#     8   8   8
#     4  11  25  45  71 107 151 193 240 301 371 446
#     4  11  24  44  72 106 138 191 248 298 358 431
#     4  11  25  43  73 107 141 188 247 305 362 430
#
# _framework density 23.343437000000002
#
# number of rings (size 3 to 8) (size 9 to 14) (size 15 to 20)
#    0.000    1.000    3.333    3.000    9.333    2.667 
#    0.000    1.667    0.000    0.000    0.000    0.000 
#    0.000    0.000    0.000    0.000    0.000    0.000 
#
# Total GULP energy -134222.095419 kJ/mol
# GULP energy per Si atom -5592.587309 kJ/mol
# Density = 2.329031 g / cm^3
# Si number density = 23.343437 Si / 1000 Ang^3
#
#
#
# Elastic Constant Matrix: (Units=GPa)
#
#
# Indices 1 2 3 4 5 6 
#
# 1 113.4880 69.8038 38.8842 0.0000 0.0000 0.0000
# 2 69.8038 229.6750 74.6638 0.0000 0.0000 0.0000
# 3 38.8842 74.6638 98.7722 0.0000 0.0000 0.0000
# 4 0.0000 0.0000 0.0000 37.6897 0.0000 0.0000
# 5 0.0000 0.0000 0.0000 0.0000 17.1259 0.0000
# 6 0.0000 0.0000 0.0000 0.0000 0.0000 28.4163
#
#
#
# Elastic Compliance Matrix: (Units=1/GPa)
#
#
# Indices 1 2 3 4 5 6 
#
# 1 0.011267 -0.002628 -0.002449 0.000000 0.000000 0.000000
# 2 -0.002628 0.006386 -0.003792 0.000000 0.000000 0.000000
# 3 -0.002449 -0.003792 0.013955 0.000000 0.000000 0.000000
# 4 0.000000 0.000000 0.000000 0.026532 0.000000 0.000000
# 5 0.000000 0.000000 0.000000 0.000000 0.058391 0.000000
# 6 0.000000 0.000000 0.000000 0.000000 0.000000 0.035191
#
#
# Mechanical properties :
#
#
# Convention : Reuss Voigt Hill
#
# Bulk Modulus (GPa) = 72.10360 89.84876 80.97618
# Shear Modulus (GPa) = 28.72176 33.88528 31.30352
#
# Velocity S-wave (km/s) = 3.51151 3.81412 3.66594
# Velocity P-wave (km/s) = 6.88449 7.61381 7.25832
#
# Compressibility (1/GPa) = 0.01386893
#
# Stress axis : x y z
#
# Youngs Moduli (GPa) = 88.75372 156.60245 71.65878
#
# Poissons Ratio (x) = 0.41159 0.17548
# Poissons Ratio (y) = 0.23327 0.27175
# Poissons Ratio (z) = 0.21734 0.59388
#
# Static dielectric constant tensor:
#      x y z
#    x 1.964510 0.000000 0.000000 
#    y 0.000000 1.924080 0.000000 
#    z 0.000000 0.000000 1.940060 
# 
# From -- ./inp_files/18134.got.cif
#   From: 2010.05.17/outbox.cif.g08.bks.cpg/sg50_10_cif.got.tgz:18134.got - 2010.06.03 11:33:33.
