data_PCOD9398890
_publ_section_title
;
Structure prediction by ZEFSAII (Michael W. Deem and Ramdas Pophale) SiO2 
 PCOD9398890
Probable space group: P M M A
;
_chemical_formula_sum "Si O2"
_cell_formula_units_Z 56
_cell_length_a 26.589245
_cell_length_b 7.604013
_cell_length_c 14.978200
_cell_angle_alpha 90.000000
_cell_angle_beta 90.000000
_cell_angle_gamma 90.000000
_cell_volume 3028.366837
_symmetry_space_group_name_H-M "P M M A"
_symmetry_group_IT_number 51
_symmetry_cell_setting 'orthorhombic'
loop_
_space_group_symop_operation_xyz
x,y,z
1/2-x,-y,z
1/2+x,-y,-z
-x,y,-z
-x,-y,-z
1/2+x,y,-z
1/2-x,y,z
x,-y,z
loop_
_atom_site_type_symbol
_atom_site_label
_atom_site_fract_x
_atom_site_fract_y
_atom_site_fract_z
Si Si1 0.807572 0.710126 0.403758
Si Si2 0.750000 0.788001 0.902243
Si Si3 0.154270 0.789437 0.210851
Si Si4 0.056440 0.289355 0.099246
Si Si5 0.807851 0.788750 0.601579
Si Si6 0.848840 0.284318 0.217731
Si Si7 0.056756 0.284927 0.896013
Si Si8 0.750000 0.290257 0.111529
O O1 0.750000 0.779306 0.398678
O O2 0.804269 0.500000 0.394477
O O3 0.827475 0.745435 0.503019
O O4 0.839598 0.773358 0.319530
O O5 0.800068 0.723147 0.851591
O O6 0.750000 0.000000 0.896178
O O7 0.750000 0.743389 0.006325
O O8 0.100746 0.753595 0.166788
O O9 0.162012 0.724029 0.312048
O O10 0.159665 0.000000 0.213927
O O11 0.053484 0.500000 0.094287
O O12 0.000335 0.227670 0.124479
O O13 0.068144 0.229006 0.998043
O O14 0.750000 0.723919 0.607387
O O15 0.805917 0.000000 0.606423
O O16 0.849571 0.500000 0.216527
O O17 0.900309 0.225126 0.171613
O O18 0.800664 0.225919 0.159545
O O19 0.057332 0.500000 0.894911
O O20 0.750000 0.500000 0.124589
#
# Coordination Sequence:
#
# PCOD9398890 Si02
#       8
#     8   4   8   8   8   8   8   4
#     4   9  16  27  44  68  93 115 146 188 225 261
#     4  10  20  32  43  62  94 124 147 176 221 276
#     4  10  19  32  48  65  90 122 151 183 229 279
#     4   9  17  30  48  70  91 117 159 197 220 253
#     4   9  17  31  48  64  86 120 154 181 222 281
#     4   9  15  26  45  68  95 124 148 177 226 277
#     4   8  15  28  46  67  94 125 153 185 224 267
#     4  10  18  28  45  70  96 122 151 180 217 270
#
# _framework density 18.491816
#
# number of rings (size 3 to 8) (size 9 to 14) (size 15 to 20)
#    0.000    2.857    1.429    1.714    0.000    2.286 
#    0.000    2.143    0.000    3.429    0.000    6.000 
#    0.000    0.000    0.000    0.000    0.000    0.000 
#
# Total GULP energy -312259.684735 kJ/mol
# GULP energy per Si atom -5576.065799 kJ/mol
# Density = 1.844973 g / cm^3
# Si number density = 18.491816 Si / 1000 Ang^3
#
#
#
# Elastic Constant Matrix: (Units=GPa)
#
#
# Indices 1 2 3 4 5 6 
#
# 1 137.4725 3.5089 118.5294 0.0000 0.0000 0.0000
# 2 3.5089 34.1812 1.9221 0.0000 0.0000 0.0000
# 3 118.5294 1.9221 202.0380 0.0000 0.0000 0.0000
# 4 0.0000 0.0000 0.0000 21.3816 0.0000 0.0000
# 5 0.0000 0.0000 0.0000 0.0000 22.1617 0.0000
# 6 0.0000 0.0000 0.0000 0.0000 0.0000 0.2166
#
#
#
# Elastic Compliance Matrix: (Units=1/GPa)
#
#
# Indices 1 2 3 4 5 6 
#
# 1 0.014756 -0.001029 -0.008647 0.000000 0.000000 0.000000
# 2 -0.001029 0.029343 0.000324 0.000000 0.000000 0.000000
# 3 -0.008647 0.000324 0.010019 0.000000 0.000000 0.000000
# 4 0.000000 0.000000 0.000000 0.046769 0.000000 0.000000
# 5 0.000000 0.000000 0.000000 0.000000 0.045123 0.000000
# 6 0.000000 0.000000 0.000000 0.000000 0.000000 4.615924
#
#
# Mechanical properties :
#
#
# Convention : Reuss Voigt Hill
#
# Bulk Modulus (GPa) = 28.23587 69.06803 48.65195
# Shear Modulus (GPa) = 1.04331 25.40075 13.22203
#
# Velocity S-wave (km/s) = 0.75195 3.71026 2.67689
# Velocity P-wave (km/s) = 4.00705 7.46903 5.99345
#
# Compressibility (1/GPa) = 0.03541594
#
# Stress axis : x y z
#
# Youngs Moduli (GPa) = 67.76909 34.07940 99.80584
#
# Poissons Ratio (x) = 0.03505 0.86303
# Poissons Ratio (y) = 0.06970 -0.03236
# Poissons Ratio (z) = 0.58601 -0.01105
#
# Static dielectric constant tensor:
#      x y z
#    x 1.623740 0.000000 0.000000 
#    y 0.000000 1.685930 0.000000 
#    z 0.000000 0.000000 1.641670 
# 
# From -- ./inp_files/18804.got.cif
#   From: 2010.05.17/outbox.cif.g08.bks.cpg/sg51_10_cif.got.tgz:18804.got - 2010.06.03 11:52:47.
