data_PCOD9398484
_publ_section_title
;
Structure prediction by ZEFSAII (Michael W. Deem and Ramdas Pophale) SiO2 
 PCOD9398484
Probable space group: P M M A
;
_chemical_formula_sum "Si O2"
_cell_formula_units_Z 48
_cell_length_a 8.476428
_cell_length_b 19.363986
_cell_length_c 16.429538
_cell_angle_alpha 90.000000
_cell_angle_beta 90.000000
_cell_angle_gamma 90.000000
_cell_volume 2696.702195
_symmetry_space_group_name_H-M "P M M A"
_symmetry_group_IT_number 51
_symmetry_cell_setting 'orthorhombic'
loop_
_space_group_symop_operation_xyz
x,y,z
1/2-x,-y,z
1/2+x,-y,-z
-x,y,-z
-x,-y,-z
1/2+x,y,-z
1/2-x,y,z
x,-y,z
loop_
_atom_site_type_symbol
_atom_site_label
_atom_site_fract_x
_atom_site_fract_y
_atom_site_fract_z
Si Si1 0.940607 0.579890 0.411979
Si Si2 0.559704 0.079877 0.412564
Si Si3 0.061747 0.671243 0.915946
Si Si4 0.940906 0.832369 0.256577
Si Si5 0.942242 0.671630 0.261428
Si Si6 0.937633 0.829274 0.915798
O O1 0.750000 0.581283 0.412443
O O2 0.990354 0.500000 0.401554
O O3 0.997487 0.626715 0.337385
O O4 0.000000 0.603988 0.500000
O O5 0.500000 0.105914 0.500000
O O6 0.750000 0.081037 0.413810
O O7 0.507716 0.124068 0.334888
O O8 0.508211 0.000000 0.404324
O O9 0.250000 0.670186 0.918851
O O10 0.009409 0.643477 0.827734
O O11 0.007116 0.751255 0.914986
O O12 0.000000 0.639429 0.000000
O O13 0.750000 0.833941 0.251905
O O14 0.989145 0.752065 0.267269
O O15 0.006516 0.859545 0.170446
O O16 0.750000 0.670699 0.262652
O O17 0.750000 0.825893 0.918795
O O18 0.000000 0.861961 0.000000
#
# Coordination Sequence:
#
# PCOD9398484 Si02
#       6
#     8   8   8   8   8   8
#     4   9  17  30  46  62  82 111 146 179 213 257
#     4   9  18  32  49  67  88 117 149 180 218 264
#     4   9  15  25  41  61  87 116 145 176 213 257
#     4   9  17  30  46  65  91 118 146 182 220 258
#     4   8  15  27  43  63  86 113 142 174 214 255
#     4  10  17  26  42  65  92 119 148 180 217 261
#
# _framework density 17.799519
#
# number of rings (size 3 to 8) (size 9 to 14) (size 15 to 20)
#    0.000    3.000    0.000    4.000    0.000    1.333 
#    0.000    4.167    0.000    1.000    0.000    0.000 
#    0.000    0.000    0.000    0.000    0.000    6.000 
#
# Total GULP energy -267246.331687 kJ/mol
# GULP energy per Si atom -5567.631910 kJ/mol
# Density = 1.775901 g / cm^3
# Si number density = 17.799519 Si / 1000 Ang^3
#
#
#
# Elastic Constant Matrix: (Units=GPa)
#
#
# Indices 1 2 3 4 5 6 
#
# 1 27.2883 10.1372 33.1254 0.0000 0.0000 0.0000
# 2 10.1372 33.3954 65.7758 0.0000 0.0000 0.0000
# 3 33.1254 65.7758 236.5967 0.0000 0.0000 0.0000
# 4 0.0000 0.0000 0.0000 -8.8378 0.0000 0.0000
# 5 0.0000 0.0000 0.0000 0.0000 32.2485 0.0000
# 6 0.0000 0.0000 0.0000 0.0000 0.0000 8.0384
#
#
#
# Elastic Compliance Matrix: (Units=1/GPa)
#
#
# Indices 1 2 3 4 5 6 
#
# 1 0.044261 -0.002719 -0.005441 0.000000 0.000000 0.000000
# 2 -0.002719 0.066352 -0.018066 0.000000 0.000000 0.000000
# 3 -0.005441 -0.018066 0.010011 0.000000 0.000000 0.000000
# 4 0.000000 0.000000 0.000000 -0.113150 0.000000 0.000000
# 5 0.000000 0.000000 0.000000 0.000000 0.031009 0.000000
# 6 0.000000 0.000000 0.000000 0.000000 0.000000 0.124402
#
#
# Mechanical properties :
#
#
# Convention : Reuss Voigt Hill
#
# Bulk Modulus (GPa) = 14.66872 57.26191 35.96532
# Shear Modulus (GPa) = 21.00314 18.83928 19.92121
#
# Velocity S-wave (km/s) = 3.43882 3.25686 3.34907
# Velocity P-wave (km/s) = 4.90166 6.81052 5.93335
#
# Compressibility (1/GPa) = 0.06817228
#
# Stress axis : x y z
#
# Youngs Moduli (GPa) = 22.59350 15.07121 99.89234
#
# Poissons Ratio (x) = 0.04097 0.54351
# Poissons Ratio (y) = 0.06142 1.80462
# Poissons Ratio (z) = 0.12293 0.27227
#
# Static dielectric constant tensor:
#      x y z
#    x 1.605720 0.000000 0.000000 
#    y 0.000000 1.591300 0.000000 
#    z 0.000000 0.000000 1.657920 
# 
# From -- ./inp_files/21430.got.cif
#   From: 2010.05.17/outbox.cif.g08.bks.cpg/sg51_11_cif.got.tgz:21430.got - 2010.06.03 11:52:47.
