data_PCOD9398900
_publ_section_title
;
Structure prediction by ZEFSAII (Michael W. Deem and Ramdas Pophale) SiO2 
 PCOD9398900
Probable space group: P M M A
;
_chemical_formula_sum "Si O2"
_cell_formula_units_Z 64
_cell_length_a 25.985363
_cell_length_b 9.143034
_cell_length_c 17.450771
_cell_angle_alpha 90.000000
_cell_angle_beta 90.000000
_cell_angle_gamma 90.000000
_cell_volume 4146.042430
_symmetry_space_group_name_H-M "P M M A"
_symmetry_group_IT_number 51
_symmetry_cell_setting 'orthorhombic'
loop_
_space_group_symop_operation_xyz
x,y,z
1/2-x,-y,z
1/2+x,-y,-z
-x,y,-z
-x,-y,-z
1/2+x,y,-z
1/2-x,y,z
x,-y,z
loop_
_atom_site_type_symbol
_atom_site_label
_atom_site_fract_x
_atom_site_fract_y
_atom_site_fract_z
Si Si1 0.310518 0.825512 0.909175
Si Si2 0.938909 0.326007 0.346046
Si Si3 0.937426 0.168575 0.501393
Si Si4 0.900798 0.675302 0.179029
Si Si5 0.005779 0.175092 0.910528
Si Si6 0.438460 0.673885 0.342204
Si Si7 0.596379 0.824067 0.811364
Si Si8 0.808251 0.822131 0.914286
O O1 0.250000 0.801090 0.894312
O O2 0.348021 0.739390 0.853577
O O3 0.320121 0.000000 0.903162
O O4 0.320501 0.781603 0.997807
O O5 0.933427 0.500000 0.358609
O O6 0.920921 0.241529 0.421652
O O7 0.910498 0.284375 0.267804
O O8 0.999998 0.297599 0.334476
O O9 0.921548 0.256748 0.577038
O O10 0.000000 0.172852 0.500000
O O11 0.921578 0.000000 0.506299
O O12 0.901828 0.500000 0.173771
O O13 0.947244 0.741948 0.129105
O O14 0.953198 0.206727 0.864728
O O15 0.015123 0.000000 0.906173
O O16 0.000000 0.213215 0.000000
O O17 0.431116 0.500000 0.342752
O O18 0.411214 0.747126 0.269852
O O19 0.647714 0.775107 0.855867
O O20 0.598505 0.000000 0.800901
O O21 0.750000 0.773705 0.896033
O O22 0.807873 0.000000 0.913512
#
# Coordination Sequence:
#
# PCOD9398900 Si02
#       8
#     8   8   8   8   8   8   8   8
#     4   9  18  34  54  72  92 123 165 208 247 286
#     4   9  18  31  44  63  94 130 159 185 229 285
#     4   9  17  28  45  68  91 118 157 197 231 269
#     4  11  21  32  47  70  99 129 160 196 239 290
#     4  10  20  32  46  65  93 129 165 199 238 286
#     4  10  18  30  45  63  95 131 158 186 229 285
#     4  10  18  28  46  70  94 121 159 201 237 278
#     4   8  15  30  51  71  91 119 159 206 249 284
#
# _framework density 15.436408
#
# number of rings (size 3 to 8) (size 9 to 14) (size 15 to 20)
#    0.000    2.500    1.250    2.625    0.000    5.500 
#    0.000    1.875    0.000    1.125    0.000    0.875 
#    0.000    5.000    0.000    0.000    0.000    0.000 
#
# Total GULP energy -356851.514829 kJ/mol
# GULP energy per Si atom -5575.804919 kJ/mol
# Density = 1.540127 g / cm^3
# Si number density = 15.436408 Si / 1000 Ang^3
#
#
#
# Elastic Constant Matrix: (Units=GPa)
#
#
# Indices 1 2 3 4 5 6 
#
# 1 65.5028 41.7391 71.6665 0.0000 0.0000 0.0000
# 2 41.7391 44.9868 66.6811 0.0000 0.0000 0.0000
# 3 71.6665 66.6811 168.6438 0.0000 0.0000 0.0000
# 4 0.0000 0.0000 0.0000 23.2534 0.0000 0.0000
# 5 0.0000 0.0000 0.0000 0.0000 17.8142 0.0000
# 6 0.0000 0.0000 0.0000 0.0000 0.0000 11.5274
#
#
#
# Elastic Compliance Matrix: (Units=1/GPa)
#
#
# Indices 1 2 3 4 5 6 
#
# 1 0.039368 -0.028335 -0.005526 0.000000 0.000000 0.000000
# 2 -0.028335 0.074095 -0.017256 0.000000 0.000000 0.000000
# 3 -0.005526 -0.017256 0.015101 0.000000 0.000000 0.000000
# 4 0.000000 0.000000 0.000000 0.043004 0.000000 0.000000
# 5 0.000000 0.000000 0.000000 0.000000 0.056135 0.000000
# 6 0.000000 0.000000 0.000000 0.000000 0.000000 0.086750
#
#
# Mechanical properties :
#
#
# Convention : Reuss Voigt Hill
#
# Bulk Modulus (GPa) = 37.97885 71.03409 54.50647
# Shear Modulus (GPa) = 11.75188 17.12213 14.43700
#
# Velocity S-wave (km/s) = 2.76218 3.33408 3.06151
# Velocity P-wave (km/s) = 5.90167 7.80632 6.91984
#
# Compressibility (1/GPa) = 0.02633044
#
# Stress axis : x y z
#
# Youngs Moduli (GPa) = 25.40134 13.49617 66.22061
#
# Poissons Ratio (x) = 0.38241 0.36596
# Poissons Ratio (y) = 0.71974 1.14270
# Poissons Ratio (z) = 0.14038 0.23289
#
# Static dielectric constant tensor:
#      x y z
#    x 1.495990 0.000000 0.000000 
#    y 0.000000 1.513770 0.000000 
#    z 0.000000 0.000000 1.502220 
# 
# From -- ./inp_files/30795.got.cif
#   From: 2010.05.17/outbox.cif.g08.bks.cpg/sg51_16_cif.got.tgz:30795.got - 2010.06.03 11:52:47.
