data_PCOD9398410
_publ_section_title
;
Structure prediction by ZEFSAII (Michael W. Deem and Ramdas Pophale) SiO2 
 PCOD9398410
Probable space group: P M M A
;
_chemical_formula_sum "Si O2"
_cell_formula_units_Z 52
_cell_length_a 16.351979
_cell_length_b 7.625700
_cell_length_c 20.079216
_cell_angle_alpha 90.000000
_cell_angle_beta 90.000000
_cell_angle_gamma 90.000000
_cell_volume 2503.783587
_symmetry_space_group_name_H-M "P M M A"
_symmetry_group_IT_number 51
_symmetry_cell_setting 'orthorhombic'
loop_
_space_group_symop_operation_xyz
x,y,z
1/2-x,-y,z
1/2+x,-y,-z
-x,y,-z
-x,-y,-z
1/2+x,y,-z
1/2-x,y,z
x,-y,z
loop_
_atom_site_type_symbol
_atom_site_label
_atom_site_fract_x
_atom_site_fract_y
_atom_site_fract_z
Si Si1 0.067832 0.715388 0.703640
Si Si2 0.157292 0.712325 0.068231
Si Si3 0.750000 0.199916 0.427189
Si Si4 0.418672 0.204537 0.930893
Si Si5 0.750000 0.747079 0.283592
Si Si6 0.250000 0.791365 0.858166
Si Si7 0.545388 0.301691 0.822453
Si Si8 0.070001 0.710689 0.549868
O O1 0.079327 0.500000 0.710148
O O2 0.154866 0.806667 0.717259
O O3 0.000964 0.772809 0.758028
O O4 0.047968 0.752929 0.626648
O O5 0.250000 0.773632 0.054949
O O6 0.158625 0.500000 0.070185
O O7 0.123209 0.777933 0.139379
O O8 0.094896 0.761282 0.008974
O O9 0.750000 0.317757 0.360388
O O10 0.663496 0.228175 0.463218
O O11 0.750000 0.000000 0.401407
O O12 0.329587 0.241872 0.900892
O O13 0.480050 0.305826 0.882954
O O14 0.438348 0.000000 0.922065
O O15 0.750000 0.679510 0.208337
O O16 0.250000 0.000000 0.838890
O O17 0.567773 0.500000 0.802992
O O18 0.072135 0.500000 0.544749
O O19 0.000000 0.776524 0.500000
#
# Coordination Sequence:
#
# PCOD9398410 Si02
#       8
#     8   8   4   8   4   4   8   8
#     4   9  17  29  49  76 102 130 165 203 246 299
#     4  10  21  36  51  66  90 127 167 210 256 299
#     4  10  20  31  52  83 111 140 176 213 256 311
#     4  11  21  34  50  71  97 126 162 204 250 300
#     4  10  16  30  47  71 104 136 158 194 246 309
#     4  10  19  29  43  66  98 128 153 191 239 294
#     4  10  20  34  51  72  98 126 164 208 251 299
#     4   9  18  34  56  79 110 145 177 213 257 310
#
# _framework density 20.768568999999999
#
# number of rings (size 3 to 8) (size 9 to 14) (size 15 to 20)
#    0.000    2.154    2.308    1.615    0.000    4.615 
#    0.000    0.000    1.692    0.000    0.000    0.000 
#    0.000    0.000    0.000    0.000    0.000    0.000 
#
# Total GULP energy -289503.153536 kJ/mol
# GULP energy per Si atom -5567.368337 kJ/mol
# Density = 2.072130 g / cm^3
# Si number density = 20.768569 Si / 1000 Ang^3
#
#
#
# Elastic Constant Matrix: (Units=GPa)
#
#
# Indices 1 2 3 4 5 6 
#
# 1 87.2155 1.1263 59.5799 0.0000 0.0000 0.0000
# 2 1.1263 55.5053 9.5835 0.0000 0.0000 0.0000
# 3 59.5799 9.5835 128.7012 0.0000 0.0000 0.0000
# 4 0.0000 0.0000 0.0000 -17.7842 0.0000 0.0000
# 5 0.0000 0.0000 0.0000 0.0000 52.4115 0.0000
# 6 0.0000 0.0000 0.0000 0.0000 0.0000 -1.1629
#
#
#
# Elastic Compliance Matrix: (Units=1/GPa)
#
#
# Indices 1 2 3 4 5 6 
#
# 1 0.016825 0.001016 -0.007865 0.000000 0.000000 0.000000
# 2 0.001016 0.018312 -0.001834 0.000000 0.000000 0.000000
# 3 -0.007865 -0.001834 0.011547 0.000000 0.000000 0.000000
# 4 0.000000 0.000000 0.000000 -0.056230 0.000000 0.000000
# 5 0.000000 0.000000 0.000000 0.000000 0.019080 0.000000
# 6 0.000000 0.000000 0.000000 0.000000 0.000000 -0.859954
#
#
# Mechanical properties :
#
#
# Convention : Reuss Voigt Hill
#
# Bulk Modulus (GPa) = 34.10603 45.77794 39.94198
# Shear Modulus (GPa) = -6.07327 20.10171 7.01422
#
# Velocity S-wave (km/s) = -1.71190 3.11447 1.83974
# Velocity P-wave (km/s) = 3.54261 5.91802 4.87715
#
# Compressibility (1/GPa) = 0.02932033
#
# Stress axis : x y z
#
# Youngs Moduli (GPa) = 59.43413 54.60791 86.60017
#
# Poissons Ratio (x) = -0.05551 0.68108
# Poissons Ratio (y) = -0.06041 0.15884
# Poissons Ratio (z) = 0.46743 0.10016
#
# Static dielectric constant tensor:
#      x y z
#    x 1.754560 0.000000 0.000000 
#    y 0.000000 2.084350 0.000000 
#    z 0.000000 0.000000 1.737360 
# 
# From -- ./inp_files/30142.got.cif
#   From: 2010.05.17/outbox.cif.g08.bks.cpg/sg51_16_cif.got.tgz:30142.got - 2010.06.03 11:52:47.
