data_PCOD9398056
_publ_section_title
;
Structure prediction by ZEFSAII (Michael W. Deem and Ramdas Pophale) SiO2 
 PCOD9398056
Probable space group: P B A N
;
_chemical_formula_sum "Si O2"
_cell_formula_units_Z 44
_cell_length_a 15.981524
_cell_length_b 9.680161
_cell_length_c 13.476206
_cell_angle_alpha 90.000000
_cell_angle_beta 90.000000
_cell_angle_gamma 90.000000
_cell_volume 2084.819272
_symmetry_space_group_name_H-M "P B A N"
_symmetry_group_IT_number 50
_space_group.IT_coordinate_system_code '2'
_symmetry_cell_setting 'orthorhombic'
loop_
_space_group_symop_operation_xyz
x,y,z
1/2-x,1/2-y,z
x,1/2-y,-z
1/2-x,y,-z
-x,-y,-z
1/2+x,1/2+y,-z
-x,1/2+y,z
1/2+x,-y,z
loop_
_atom_site_type_symbol
_atom_site_label
_atom_site_fract_x
_atom_site_fract_y
_atom_site_fract_z
Si Si1 0.124598 0.228121 0.612074
Si Si2 0.250000 0.250000 0.000000
Si Si3 0.827100 0.423046 0.678480
Si Si4 0.533428 0.286133 0.720208
Si Si5 0.250000 0.750000 0.500000
Si Si6 0.094854 0.244319 0.105123
Si Si7 0.340992 0.025138 0.754584
O O1 0.150147 0.250000 0.500000
O O2 0.166089 0.344553 0.680750
O O3 0.024587 0.243490 0.625806
O O4 0.144827 0.075850 0.649685
O O5 0.182380 0.178952 0.925434
O O6 0.900581 0.337711 0.730932
O O7 0.803071 0.343930 0.576189
O O8 0.744472 0.439908 0.746265
O O9 0.466662 0.294633 0.809942
O O10 0.585880 0.425817 0.715561
O O11 0.129128 0.095313 0.142767
O O12 0.048185 0.250000 0.000000
#
# Coordination Sequence:
#
# PCOD9398056 Si02
#       7
#     8   2   8   8   2   8   8
#     4  11  25  39  62  95 131 183 237 288 334 405
#     4   8  20  44  68 104 122 180 212 296 350 420
#     4  12  25  42  67  94 144 183 236 283 340 412
#     4  11  24  43  66 100 138 183 223 292 349 406
#     4  12  24  44  66 100 134 194 238 276 336 404
#     4   9  22  42  69  99 131 167 226 281 353 411
#     4  11  23  43  67  99 133 178 234 274 353 404
#
# _framework density 21.104946999999999
#
# number of rings (size 3 to 8) (size 9 to 14) (size 15 to 20)
#    0.545    0.727    1.818    3.818    6.364    2.909 
#    0.000    0.000    0.000    1.091    0.000    0.000 
#    0.000    0.000    0.000    0.000    0.000    0.000 
#
# Total GULP energy -245384.267892 kJ/mol
# GULP energy per Si atom -5576.915179 kJ/mol
# Density = 2.105691 g / cm^3
# Si number density = 21.104947 Si / 1000 Ang^3
#
#
#
# Elastic Constant Matrix: (Units=GPa)
#
#
# Indices 1 2 3 4 5 6 
#
# 1 121.8429 45.2232 24.9384 0.0000 0.0000 0.0000
# 2 45.2232 106.3740 26.8711 0.0000 0.0000 0.0000
# 3 24.9384 26.8711 107.1757 0.0000 0.0000 0.0000
# 4 0.0000 0.0000 0.0000 15.2209 0.0000 0.0000
# 5 0.0000 0.0000 0.0000 0.0000 -10.7605 0.0000
# 6 0.0000 0.0000 0.0000 0.0000 0.0000 35.0749
#
#
#
# Elastic Compliance Matrix: (Units=1/GPa)
#
#
# Indices 1 2 3 4 5 6 
#
# 1 0.009921 -0.003880 -0.001336 0.000000 0.000000 0.000000
# 2 -0.003880 0.011554 -0.001994 0.000000 0.000000 0.000000
# 3 -0.001336 -0.001994 0.010141 0.000000 0.000000 0.000000
# 4 0.000000 0.000000 0.000000 0.065699 0.000000 0.000000
# 5 0.000000 0.000000 0.000000 0.000000 -0.092933 0.000000
# 6 0.000000 0.000000 0.000000 0.000000 0.000000 0.028510
#
#
# Mechanical properties :
#
#
# Convention : Reuss Voigt Hill
#
# Bulk Modulus (GPa) = 58.15147 58.82866 58.49007
# Shear Modulus (GPa) = 94.26029 23.79774 59.02902
#
# Velocity S-wave (km/s) = 6.69026 3.36160 5.29434
# Velocity P-wave (km/s) = 9.34306 6.55759 8.07139
#
# Compressibility (1/GPa) = 0.01719647
#
# Stress axis : x y z
#
# Youngs Moduli (GPa) = 100.79760 86.54904 98.60798
#
# Poissons Ratio (x) = 0.33584 0.13170
# Poissons Ratio (y) = 0.39113 0.19662
# Poissons Ratio (z) = 0.13462 0.17257
#
# Static dielectric constant tensor:
#      x y z
#    x 1.811410 0.000000 0.000000 
#    y 0.000000 1.749930 0.000000 
#    z 0.000000 0.000000 1.799190 
# 
# From -- ./inp_files/26811.got.cif
#   From: 2010.05.17/outbox.cif.g08.bks.cpg/sg50_14_cif.got.tgz:26811.got - 2010.06.03 11:33:33.
