data_PCOD9398138
_publ_section_title
;
Structure prediction by ZEFSAII (Michael W. Deem and Ramdas Pophale) SiO2 
 PCOD9398138
Probable space group: P B A N
;
_chemical_formula_sum "Si O2"
_cell_formula_units_Z 36
_cell_length_a 8.766157
_cell_length_b 22.516278
_cell_length_c 8.582623
_cell_angle_alpha 90.000000
_cell_angle_beta 90.000000
_cell_angle_gamma 90.000000
_cell_volume 1694.048667
_symmetry_space_group_name_H-M "P B A N"
_symmetry_group_IT_number 50
_space_group.IT_coordinate_system_code '2'
_symmetry_cell_setting 'orthorhombic'
loop_
_space_group_symop_operation_xyz
x,y,z
1/2-x,1/2-y,z
x,1/2-y,-z
1/2-x,y,-z
-x,-y,-z
1/2+x,1/2+y,-z
-x,1/2+y,z
1/2+x,-y,z
loop_
_atom_site_type_symbol
_atom_site_label
_atom_site_fract_x
_atom_site_fract_y
_atom_site_fract_z
Si Si1 0.250000 0.750000 0.000000
Si Si2 0.981975 0.829245 0.098417
Si Si3 0.393789 0.957155 0.898247
Si Si4 0.112823 0.038366 0.388672
Si Si5 0.750000 0.750000 0.500000
Si Si6 0.647633 0.833914 0.246193
O O1 0.363952 0.709944 0.107180
O O2 0.825931 0.822595 0.196323
O O3 0.020553 0.897064 0.137846
O O4 0.937453 0.821272 0.915958
O O5 0.342312 0.992741 0.746874
O O6 0.250000 0.940471 0.000000
O O7 0.500000 0.000000 0.000000
O O8 0.250000 0.054828 0.500000
O O9 0.085229 0.101116 0.300172
O O10 0.000000 0.000000 0.500000
O O11 0.640286 0.791022 0.393988
#
# Coordination Sequence:
#
# PCOD9398138 Si02
#       6
#     2   8   8   8   2   8
#     4  12  24  42  68 102 136 170 236 316 372 402
#     4  11  24  45  71 101 136 184 246 302 349 434
#     4  12  23  41  70 102 133 185 237 295 353 427
#     4  12  25  42  67 105 147 185 236 302 373 439
#     4  12  24  42  72  98 136 186 232 284 364 430
#     4  11  24  45  71 100 138 187 240 292 357 448
#
# _framework density 21.250865000000001
#
# number of rings (size 3 to 8) (size 9 to 14) (size 15 to 20)
#    0.000    0.444    4.444    5.333    0.000    1.778 
#    0.000    0.000    0.000    2.667    0.000    0.000 
#    0.000    0.000    0.000    0.000    0.000    0.000 
#
# Total GULP energy -200763.532714 kJ/mol
# GULP energy per Si atom -5576.764798 kJ/mol
# Density = 2.120250 g / cm^3
# Si number density = 21.250865 Si / 1000 Ang^3
#
#
#
# Elastic Constant Matrix: (Units=GPa)
#
#
# Indices 1 2 3 4 5 6 
#
# 1 63.9494 17.9817 4.3948 0.0000 0.0000 0.0000
# 2 17.9817 124.0888 25.7611 0.0000 0.0000 0.0000
# 3 4.3948 25.7611 99.5248 0.0000 0.0000 0.0000
# 4 0.0000 0.0000 0.0000 48.1976 0.0000 0.0000
# 5 0.0000 0.0000 0.0000 0.0000 30.0509 0.0000
# 6 0.0000 0.0000 0.0000 0.0000 0.0000 38.1142
#
#
#
# Elastic Compliance Matrix: (Units=1/GPa)
#
#
# Indices 1 2 3 4 5 6 
#
# 1 0.016303 -0.002339 -0.000115 0.000000 0.000000 0.000000
# 2 -0.002339 0.008852 -0.002188 0.000000 0.000000 0.000000
# 3 -0.000115 -0.002188 0.010619 0.000000 0.000000 0.000000
# 4 0.000000 0.000000 0.000000 0.020748 0.000000 0.000000
# 5 0.000000 0.000000 0.000000 0.000000 0.033277 0.000000
# 6 0.000000 0.000000 0.000000 0.000000 0.000000 0.026237
#
#
# Mechanical properties :
#
#
# Convention : Reuss Voigt Hill
#
# Bulk Modulus (GPa) = 37.74797 42.64869 40.19833
# Shear Modulus (GPa) = 37.27216 39.23424 38.25320
#
# Velocity S-wave (km/s) = 4.19252 4.30145 4.24733
# Velocity P-wave (km/s) = 6.42167 6.69199 6.55822
#
# Compressibility (1/GPa) = 0.02649149
#
# Stress axis : x y z
#
# Youngs Moduli (GPa) = 61.33903 112.97054 94.16964
#
# Poissons Ratio (x) = 0.26420 0.01079
# Poissons Ratio (y) = 0.14345 0.20604
# Poissons Ratio (z) = 0.00703 0.24717
#
# Static dielectric constant tensor:
#      x y z
#    x 1.789090 0.000000 0.000000 
#    y 0.000000 1.750090 0.000000 
#    z 0.000000 0.000000 1.771570 
# 
# From -- ./inp_files/9290.got.cif
#   From: 2010.05.17/outbox.cif.g08.bks.cpg/sg50_5_cif.got.tgz:9290.got - 2010.06.03 11:33:33.
