data_PCOD9398732
_publ_section_title
;
Structure prediction by ZEFSAII (Michael W. Deem and Ramdas Pophale) SiO2 
 PCOD9398732
Probable space group: P M M A
;
_chemical_formula_sum "Si O2"
_cell_formula_units_Z 48
_cell_length_a 8.584464
_cell_length_b 25.100812
_cell_length_c 13.972740
_cell_angle_alpha 90.000000
_cell_angle_beta 90.000000
_cell_angle_gamma 90.000000
_cell_volume 3010.804334
_symmetry_space_group_name_H-M "P M M A"
_symmetry_group_IT_number 51
_symmetry_cell_setting 'orthorhombic'
loop_
_space_group_symop_operation_xyz
x,y,z
1/2-x,-y,z
1/2+x,-y,-z
-x,y,-z
-x,-y,-z
1/2+x,y,-z
1/2-x,y,z
x,-y,z
loop_
_atom_site_type_symbol
_atom_site_label
_atom_site_fract_x
_atom_site_fract_y
_atom_site_fract_z
Si Si1 0.937013 0.719753 0.700415
Si Si2 0.062507 0.174065 0.608804
Si Si3 0.437058 0.334537 0.103355
Si Si4 0.937965 0.057240 0.391264
Si Si5 0.435575 0.385433 0.604103
Si Si6 0.561573 0.440280 0.791990
O O1 0.750000 0.716923 0.693365
O O2 0.982999 0.703727 0.808693
O O3 0.995432 0.777317 0.669104
O O4 0.007047 0.673941 0.632270
O O5 0.250000 0.177260 0.606685
O O6 0.015280 0.115249 0.647846
O O7 0.000000 0.178436 0.500000
O O8 0.250000 0.334716 0.099466
O O9 0.489488 0.394003 0.134936
O O10 0.500000 0.319771 0.000000
O O11 0.750000 0.057222 0.393492
O O12 0.000000 0.057032 0.500000
O O13 0.987941 0.000000 0.347748
O O14 0.500000 0.399770 0.500000
O O15 0.250000 0.386821 0.603602
O O16 0.500157 0.423419 0.687731
O O17 0.750000 0.438928 0.788655
O O18 0.511774 0.500000 0.817361
#
# Coordination Sequence:
#
# PCOD9398732 Si02
#       6
#     8   8   8   8   8   8
#     4  10  20  34  48  65  91 119 149 185 225 267
#     4  10  18  27  42  65  92 124 159 191 223 259
#     4   9  19  34  52  71  90 114 141 176 223 270
#     4   8  14  24  37  55  83 119 156 190 221 254
#     4  11  21  33  49  68  91 120 153 186 221 260
#     4   9  19  36  53  70  94 120 146 177 214 259
#
# _framework density 15.942583000000001
#
# number of rings (size 3 to 8) (size 9 to 14) (size 15 to 20)
#    0.000    2.500    0.000    4.000    0.000    5.000 
#    0.000    0.000    0.000    0.000    0.000    0.000 
#    0.000    0.667    0.000    1.500    0.000    2.667 
#
# Total GULP energy -267486.502769 kJ/mol
# GULP energy per Si atom -5572.635474 kJ/mol
# Density = 1.590630 g / cm^3
# Si number density = 15.942583 Si / 1000 Ang^3
#
#
#
# Elastic Constant Matrix: (Units=GPa)
#
#
# Indices 1 2 3 4 5 6 
#
# 1 23.5465 13.7759 5.8798 0.0000 0.0000 0.0000
# 2 13.7759 119.2728 19.4448 0.0000 0.0000 0.0000
# 3 5.8798 19.4448 59.0601 0.0000 0.0000 0.0000
# 4 0.0000 0.0000 0.0000 19.6048 0.0000 0.0000
# 5 0.0000 0.0000 0.0000 0.0000 23.0661 0.0000
# 6 0.0000 0.0000 0.0000 0.0000 0.0000 -129.5864
#
#
#
# Elastic Compliance Matrix: (Units=1/GPa)
#
#
# Indices 1 2 3 4 5 6 
#
# 1 0.046042 -0.004830 -0.002994 0.000000 0.000000 0.000000
# 2 -0.004830 0.009366 -0.002603 0.000000 0.000000 0.000000
# 3 -0.002994 -0.002603 0.018087 0.000000 0.000000 0.000000
# 4 0.000000 0.000000 0.000000 0.051008 0.000000 0.000000
# 5 0.000000 0.000000 0.000000 0.000000 0.043354 0.000000
# 6 0.000000 0.000000 0.000000 0.000000 0.000000 -0.007717
#
#
# Mechanical properties :
#
#
# Convention : Reuss Voigt Hill
#
# Bulk Modulus (GPa) = 18.99590 31.12004 25.05797
# Shear Modulus (GPa) = 25.18373 -6.53118 9.32628
#
# Velocity S-wave (km/s) = 3.97880 -2.02622 2.42128
# Velocity P-wave (km/s) = 5.74881 3.75344 4.85475
#
# Compressibility (1/GPa) = 0.05264294
#
# Stress axis : x y z
#
# Youngs Moduli (GPa) = 21.71912 106.76544 55.28864
#
# Poissons Ratio (x) = 0.51566 0.16551
# Poissons Ratio (y) = 0.10490 0.14391
# Poissons Ratio (z) = 0.06502 0.27790
#
# Static dielectric constant tensor:
#      x y z
#    x 1.538170 0.000000 0.000000 
#    y 0.000000 1.575020 0.000000 
#    z 0.000000 0.000000 1.505000 
# 
# From -- ./inp_files/14423.got.cif
#   From: 2010.05.17/outbox.cif.g08.bks.cpg/sg51_8_cif.got.tgz:14423.got - 2010.06.03 11:52:47.
