data_PCOD9398351
_publ_section_title
;
Structure prediction by ZEFSAII (Michael W. Deem and Ramdas Pophale) SiO2 
 PCOD9398351
Probable space group: P M M A
;
_chemical_formula_sum "Si O2"
_cell_formula_units_Z 52
_cell_length_a 8.595284
_cell_length_b 27.840125
_cell_length_c 14.001990
_cell_angle_alpha 90.000000
_cell_angle_beta 90.000000
_cell_angle_gamma 90.000000
_cell_volume 3350.589128
_symmetry_space_group_name_H-M "P M M A"
_symmetry_group_IT_number 51
_symmetry_cell_setting 'orthorhombic'
loop_
_space_group_symop_operation_xyz
x,y,z
1/2-x,-y,z
1/2+x,-y,-z
-x,y,-z
-x,-y,-z
1/2+x,y,-z
1/2-x,y,z
x,-y,z
loop_
_atom_site_type_symbol
_atom_site_label
_atom_site_fract_x
_atom_site_fract_y
_atom_site_fract_z
Si Si1 0.436438 0.401385 0.108572
Si Si2 0.936326 0.852927 0.603607
Si Si3 0.936821 0.899343 0.895471
Si Si4 0.563473 0.945605 0.294447
Si Si5 0.934865 0.500000 0.108982
Si Si6 0.561900 0.295744 0.892027
Si Si7 0.061048 0.801194 0.205756
O O1 0.250000 0.405608 0.106474
O O2 0.505367 0.449978 0.153252
O O3 0.479970 0.348700 0.147905
O O4 0.500000 0.399978 0.000000
O O5 0.750000 0.852819 0.601942
O O6 0.989420 0.817253 0.688560
O O7 0.000000 0.840434 0.500000
O O8 0.992778 0.905694 0.635711
O O9 0.750000 0.902467 0.894104
O O10 0.982287 0.844733 0.865411
O O11 0.004592 0.932647 0.811901
O O12 0.000000 0.910841 0.000000
O O13 0.750000 0.941981 0.296650
O O14 0.518121 0.000000 0.319154
O O15 0.750000 0.500000 0.104932
O O16 0.000000 0.500000 0.000000
O O17 0.750000 0.294279 0.896294
O O18 0.505944 0.250355 0.830856
O O19 0.500000 0.291395 0.000000
O O20 0.250000 0.799880 0.206842
#
# Coordination Sequence:
#
# PCOD9398351 Si02
#       7
#     8   8   8   8   4   8   8
#     4   9  15  22  33  49  71 101 138 176 209 242
#     4  10  20  35  54  72  91 113 139 172 211 259
#     4  10  19  31  48  68  92 121 150 179 211 251
#     4  10  21  36  52  70  91 114 143 178 214 254
#     4  10  16  22  32  44  66 100 139 180 213 242
#     4   9  16  26  40  59  84 112 142 175 210 246
#     4   8  16  30  46  65  87 112 141 174 212 251
#
# _framework density 15.519659000000001
#
# number of rings (size 3 to 8) (size 9 to 14) (size 15 to 20)
#    0.000    2.615    0.000    4.846    0.000    2.462 
#    0.000    3.846    0.000    0.000    0.000    0.000 
#    0.000    0.000    0.000    0.692    0.000    6.538 
#
# Total GULP energy -289715.108282 kJ/mol
# GULP energy per Si atom -5571.444390 kJ/mol
# Density = 1.548434 g / cm^3
# Si number density = 15.519659 Si / 1000 Ang^3
#
#
#
# Elastic Constant Matrix: (Units=GPa)
#
#
# Indices 1 2 3 4 5 6 
#
# 1 43.2199 25.3483 8.8668 0.0000 0.0000 0.0000
# 2 25.3483 125.9446 22.5587 0.0000 0.0000 0.0000
# 3 8.8668 22.5587 54.4007 0.0000 0.0000 0.0000
# 4 0.0000 0.0000 0.0000 7.9959 0.0000 0.0000
# 5 0.0000 0.0000 0.0000 0.0000 20.1582 0.0000
# 6 0.0000 0.0000 0.0000 0.0000 0.0000 17.6366
#
#
#
# Elastic Compliance Matrix: (Units=1/GPa)
#
#
# Indices 1 2 3 4 5 6 
#
# 1 0.026493 -0.004924 -0.002276 0.000000 0.000000 0.000000
# 2 -0.004924 0.009492 -0.003134 0.000000 0.000000 0.000000
# 3 -0.002276 -0.003134 0.020053 0.000000 0.000000 0.000000
# 4 0.000000 0.000000 0.000000 0.125065 0.000000 0.000000
# 5 0.000000 0.000000 0.000000 0.000000 0.049608 0.000000
# 6 0.000000 0.000000 0.000000 0.000000 0.000000 0.056700
#
#
# Mechanical properties :
#
#
# Convention : Reuss Voigt Hill
#
# Bulk Modulus (GPa) = 28.27299 37.45697 32.86498
# Shear Modulus (GPa) = 15.63146 20.27756 17.95451
#
# Velocity S-wave (km/s) = 3.17709 3.61858 3.40500
# Velocity P-wave (km/s) = 5.63166 6.45340 6.05648
#
# Compressibility (1/GPa) = 0.03536944
#
# Stress axis : x y z
#
# Youngs Moduli (GPa) = 37.74646 105.34759 49.86900
#
# Poissons Ratio (x) = 0.51877 0.11350
# Poissons Ratio (y) = 0.18588 0.15627
# Poissons Ratio (z) = 0.08591 0.33012
#
# Static dielectric constant tensor:
#      x y z
#    x 1.520240 0.000000 0.000000 
#    y 0.000000 1.568740 0.000000 
#    z 0.000000 0.000000 1.484820 
# 
# From -- ./inp_files/22426.got.cif
#   From: 2010.05.17/outbox.cif.g08.bks.cpg/sg51_12_cif.got.tgz:22426.got - 2010.06.03 11:52:47.
