data_PCOD9398218
_publ_section_title
;
Structure prediction by ZEFSAII (Michael W. Deem and Ramdas Pophale) SiO2 
 PCOD9398218
Probable space group: P B A N
;
_chemical_formula_sum "Si O2"
_cell_formula_units_Z 24
_cell_length_a 7.856542
_cell_length_b 23.203906
_cell_length_c 5.392973
_cell_angle_alpha 90.000000
_cell_angle_beta 90.000000
_cell_angle_gamma 90.000000
_cell_volume 983.152256
_symmetry_space_group_name_H-M "P B A N"
_symmetry_group_IT_number 50
_space_group.IT_coordinate_system_code '2'
_symmetry_cell_setting 'orthorhombic'
loop_
_space_group_symop_operation_xyz
x,y,z
1/2-x,1/2-y,z
x,1/2-y,-z
1/2-x,y,-z
-x,-y,-z
1/2+x,1/2+y,-z
-x,1/2+y,z
1/2+x,-y,z
loop_
_atom_site_type_symbol
_atom_site_label
_atom_site_fract_x
_atom_site_fract_y
_atom_site_fract_z
Si Si1 0.250000 0.626182 0.500000
Si Si2 0.563295 0.311556 0.883967
Si Si3 0.000288 0.462365 0.744802
Si Si4 0.250000 0.107579 0.000000
O O1 0.392844 0.670607 0.398355
O O2 0.345182 0.582983 0.694686
O O3 0.412610 0.354432 0.942893
O O4 0.513464 0.250000 0.000000
O O5 0.750000 0.321143 0.000000
O O6 0.181015 0.430443 0.774853
O O7 0.000000 0.500000 0.500000
O O8 0.000000 0.500000 0.000000
#
# Coordination Sequence:
#
# PCOD9398218 Si02
#       4
#     4   8   8   4
#     4  12  26  51  80 114 168 214 267 346 420 480
#     4  11  26  51  80 114 159 208 275 339 416 482
#     4  12  27  48  80 122 164 215 276 337 415 496
#     4  12  25  52  84 116 158 214 275 334 410 506
#
# _framework density 24.411276000000001
#
# number of rings (size 3 to 8) (size 9 to 14) (size 15 to 20)
#    0.000    0.333    3.333    4.500    0.000    6.667 
#    0.000    0.000   14.667    0.000    0.000    0.000 
#    0.000    0.000    0.000    0.000    0.000    0.000 
#
# Total GULP energy -133939.461298 kJ/mol
# GULP energy per Si atom -5580.810887 kJ/mol
# Density = 2.435572 g / cm^3
# Si number density = 24.411276 Si / 1000 Ang^3
#
#
#
# Elastic Constant Matrix: (Units=GPa)
#
#
# Indices 1 2 3 4 5 6 
#
# 1 128.5858 50.1207 50.7267 0.0000 0.0000 0.0000
# 2 50.1207 161.0006 99.9844 0.0000 0.0000 0.0000
# 3 50.7267 99.9844 155.9479 0.0000 0.0000 0.0000
# 4 0.0000 0.0000 0.0000 28.1714 0.0000 0.0000
# 5 0.0000 0.0000 0.0000 0.0000 48.5173 0.0000
# 6 0.0000 0.0000 0.0000 0.0000 0.0000 64.4327
#
#
#
# Elastic Compliance Matrix: (Units=1/GPa)
#
#
# Indices 1 2 3 4 5 6 
#
# 1 0.009184 -0.001668 -0.001918 0.000000 0.000000 0.000000
# 2 -0.001668 0.010623 -0.006268 0.000000 0.000000 0.000000
# 3 -0.001918 -0.006268 0.011055 0.000000 0.000000 0.000000
# 4 0.000000 0.000000 0.000000 0.035497 0.000000 0.000000
# 5 0.000000 0.000000 0.000000 0.000000 0.020611 0.000000
# 6 0.000000 0.000000 0.000000 0.000000 0.000000 0.015520
#
#
# Mechanical properties :
#
#
# Convention : Reuss Voigt Hill
#
# Bulk Modulus (GPa) = 89.65718 94.13309 91.89514
# Shear Modulus (GPa) = 39.70885 44.53779 42.12332
#
# Velocity S-wave (km/s) = 4.03756 4.27602 4.15850
# Velocity P-wave (km/s) = 7.65137 7.93878 7.79640
#
# Compressibility (1/GPa) = 0.01115360
#
# Stress axis : x y z
#
# Youngs Moduli (GPa) = 108.88947 94.13368 90.45524
#
# Poissons Ratio (x) = 0.15700 0.17348
# Poissons Ratio (y) = 0.18161 0.56701
# Poissons Ratio (z) = 0.20884 0.59007
#
# Static dielectric constant tensor:
#      x y z
#    x 2.046100 0.000000 0.000000 
#    y 0.000000 2.057620 0.000000 
#    z 0.000000 0.000000 2.097230 
# 
# From -- ./inp_files/817.got.cif
#   From: 2010.05.17/outbox.cif.g08.bks.cpg/sg50_1_cif.got.tgz:817.got - 2010.06.03 11:33:33.
