data_PCOD9398277
_publ_section_title
;
Structure prediction by ZEFSAII (Michael W. Deem and Ramdas Pophale) SiO2 
 PCOD9398277
Probable space group: P B A N
;
_chemical_formula_sum "Si O2"
_cell_formula_units_Z 48
_cell_length_a 25.201732
_cell_length_b 8.884519
_cell_length_c 11.100094
_cell_angle_alpha 90.000000
_cell_angle_beta 90.000000
_cell_angle_gamma 90.000000
_cell_volume 2485.369508
_symmetry_space_group_name_H-M "P B A N"
_symmetry_group_IT_number 50
_space_group.IT_coordinate_system_code '2'
_symmetry_cell_setting 'orthorhombic'
loop_
_space_group_symop_operation_xyz
x,y,z
1/2-x,1/2-y,z
x,1/2-y,-z
1/2-x,y,-z
-x,-y,-z
1/2+x,1/2+y,-z
-x,1/2+y,z
1/2+x,-y,z
loop_
_atom_site_type_symbol
_atom_site_label
_atom_site_fract_x
_atom_site_fract_y
_atom_site_fract_z
Si Si1 0.803983 0.580557 0.652324
Si Si2 0.056797 0.073717 0.020351
Si Si3 0.318734 0.428309 0.366184
Si Si4 0.975834 0.883428 0.407138
Si Si5 0.917183 0.106851 0.744889
Si Si6 0.896530 0.051232 0.216455
O O1 0.742156 0.544956 0.674320
O O2 0.823639 0.753071 0.673900
O O3 0.815549 0.561396 0.510752
O O4 0.838452 0.473701 0.733240
O O5 0.072792 0.017447 0.152286
O O6 0.051964 0.250000 0.000000
O O7 0.094763 0.017302 0.914524
O O8 0.000000 0.000000 0.000000
O O9 0.366911 0.535982 0.326478
O O10 0.956409 0.750000 0.500000
O O11 0.028582 0.853677 0.327732
O O12 0.934078 0.962674 0.315493
O O13 0.000000 0.000000 0.500000
O O14 0.904961 0.271227 0.795435
#
# Coordination Sequence:
#
# PCOD9398277 Si02
#       6
#     8   8   8   8   8   8
#     4   9  20  39  64  96 126 172 210 259 322 379
#     4  12  26  44  65  89 123 171 214 263 316 386
#     4   9  20  39  65  93 131 167 213 260 317 387
#     4  12  26  39  58  95 132 167 203 257 320 383
#     4  12  25  42  63  93 129 169 214 265 319 377
#     4  12  25  41  65  92 128 169 214 264 319 380
#
# _framework density 19.313023999999999
#
# number of rings (size 3 to 8) (size 9 to 14) (size 15 to 20)
#    0.000    1.000    3.333    4.500    7.000    0.667 
#    0.000    2.500    0.000    5.000    0.000    0.000 
#    0.000    0.000    0.000    0.000    0.000    0.000 
#
# Total GULP energy -267569.838588 kJ/mol
# GULP energy per Si atom -5574.371637 kJ/mol
# Density = 1.926907 g / cm^3
# Si number density = 19.313024 Si / 1000 Ang^3
#
#
#
# Elastic Constant Matrix: (Units=GPa)
#
#
# Indices 1 2 3 4 5 6 
#
# 1 63.5473 24.6480 0.1904 0.0000 0.0000 0.0000
# 2 24.6480 102.6441 14.2591 0.0000 0.0000 0.0000
# 3 0.1904 14.2591 40.8917 0.0000 0.0000 0.0000
# 4 0.0000 0.0000 0.0000 31.9001 0.0000 0.0000
# 5 0.0000 0.0000 0.0000 0.0000 19.4060 0.0000
# 6 0.0000 0.0000 0.0000 0.0000 0.0000 29.6619
#
#
#
# Elastic Compliance Matrix: (Units=1/GPa)
#
#
# Indices 1 2 3 4 5 6 
#
# 1 0.017434 -0.004388 0.001449 0.000000 0.000000 0.000000
# 2 -0.004388 0.011343 -0.003935 0.000000 0.000000 0.000000
# 3 0.001449 -0.003935 0.025820 0.000000 0.000000 0.000000
# 4 0.000000 0.000000 0.000000 0.031348 0.000000 0.000000
# 5 0.000000 0.000000 0.000000 0.000000 0.051530 0.000000
# 6 0.000000 0.000000 0.000000 0.000000 0.000000 0.033713
#
#
# Mechanical properties :
#
#
# Convention : Reuss Voigt Hill
#
# Bulk Modulus (GPa) = 24.48018 31.69755 28.08886
# Shear Modulus (GPa) = 25.18234 27.39265 26.28750
#
# Velocity S-wave (km/s) = 3.61488 3.77019 3.69335
# Velocity P-wave (km/s) = 5.48873 5.94984 5.72393
#
# Compressibility (1/GPa) = 0.04084937
#
# Stress axis : x y z
#
# Youngs Moduli (GPa) = 57.35988 88.16309 38.72943
#
# Poissons Ratio (x) = 0.38683 -0.05611
# Poissons Ratio (y) = 0.25168 0.15239
# Poissons Ratio (z) = -0.08310 0.34690
#
# Static dielectric constant tensor:
#      x y z
#    x 1.615910 0.000000 0.000000 
#    y 0.000000 1.776420 0.000000 
#    z 0.000000 0.000000 1.610900 
# 
# From -- ./inp_files/22751.got.cif
#   From: 2010.05.17/outbox.cif.g08.bks.cpg/sg50_12_cif.got.tgz:22751.got - 2010.06.03 11:33:33.
