data_PCOD9398973
_publ_section_title
;
Structure prediction by ZEFSAII (Michael W. Deem and Ramdas Pophale) SiO2 
 PCOD9398973
Probable space group: P M M A
;
_chemical_formula_sum "Si O2"
_cell_formula_units_Z 64
_cell_length_a 25.989619
_cell_length_b 9.225258
_cell_length_c 17.463621
_cell_angle_alpha 90.000000
_cell_angle_beta 90.000000
_cell_angle_gamma 90.000000
_cell_volume 4187.094197
_symmetry_space_group_name_H-M "P M M A"
_symmetry_group_IT_number 51
_symmetry_cell_setting 'orthorhombic'
loop_
_space_group_symop_operation_xyz
x,y,z
1/2-x,-y,z
1/2+x,-y,-z
-x,y,-z
-x,-y,-z
1/2+x,y,-z
1/2-x,y,z
x,-y,z
loop_
_atom_site_type_symbol
_atom_site_label
_atom_site_fract_x
_atom_site_fract_y
_atom_site_fract_z
Si Si1 0.691013 0.826035 0.422549
Si Si2 0.437853 0.172096 0.847546
Si Si3 0.097202 0.326409 0.309064
Si Si4 0.562561 0.333097 0.998182
Si Si5 0.503411 0.673667 0.410873
Si Si6 0.404629 0.174715 0.680227
Si Si7 0.561012 0.828143 0.842857
Si Si8 0.809424 0.326281 0.583194
O O1 0.750000 0.787086 0.402904
O O2 0.649552 0.786076 0.358402
O O3 0.678059 0.750644 0.503027
O O4 0.688909 0.000000 0.432476
O O5 0.410079 0.216483 0.769145
O O6 0.499196 0.195737 0.835589
O O7 0.430735 0.000000 0.860108
O O8 0.420879 0.258149 0.922821
O O9 0.097539 0.500000 0.295372
O O10 0.087677 0.244070 0.230072
O O11 0.149913 0.285291 0.351735
O O12 0.049694 0.295386 0.366430
O O13 0.578852 0.500000 0.993792
O O14 0.577840 0.245298 0.922436
O O15 0.500000 0.330471 0.000000
O O16 0.500000 0.716079 0.500000
O O17 0.511860 0.500000 0.407998
O O18 0.549718 0.753224 0.368053
O O19 0.410493 0.000000 0.677023
O O20 0.569598 0.000000 0.845004
O O21 0.750000 0.291955 0.602514
O O22 0.813375 0.500000 0.572532
#
# Coordination Sequence:
#
# PCOD9398973 Si02
#       8
#     8   8   8   8   8   8   8   8
#     4   9  18  32  49  68  90 118 155 198 237 269
#     4   9  17  29  43  63  91 121 152 185 223 270
#     4  10  19  30  45  66  93 121 152 190 230 272
#     4   9  17  28  44  65  90 120 152 184 224 269
#     4  10  20  31  43  62  91 124 154 185 225 272
#     4  10  19  31  46  66  92 122 154 188 226 272
#     4  10  18  29  45  65  92 123 153 185 224 271
#     4   9  18  33  51  68  88 118 157 198 237 274
#
# _framework density 15.285064
#
# number of rings (size 3 to 8) (size 9 to 14) (size 15 to 20)
#    0.000    2.500    1.250    1.500    0.000    4.750 
#    0.000    0.000    0.000    0.000    0.000    0.875 
#    0.000    3.000    0.000    0.000    0.000    0.000 
#
# Total GULP energy -356814.782414 kJ/mol
# GULP energy per Si atom -5575.230975 kJ/mol
# Density = 1.525027 g / cm^3
# Si number density = 15.285064 Si / 1000 Ang^3
#
#
#
# Elastic Constant Matrix: (Units=GPa)
#
#
# Indices 1 2 3 4 5 6 
#
# 1 69.4288 40.5928 74.8172 0.0000 0.0000 0.0000
# 2 40.5928 42.8002 69.0864 0.0000 0.0000 0.0000
# 3 74.8172 69.0864 180.0100 0.0000 0.0000 0.0000
# 4 0.0000 0.0000 0.0000 29.1236 0.0000 0.0000
# 5 0.0000 0.0000 0.0000 0.0000 18.4968 0.0000
# 6 0.0000 0.0000 0.0000 0.0000 0.0000 15.2598
#
#
#
# Elastic Compliance Matrix: (Units=1/GPa)
#
#
# Indices 1 2 3 4 5 6 
#
# 1 0.033706 -0.024585 -0.004574 0.000000 0.000000 0.000000
# 2 -0.024585 0.079337 -0.020231 0.000000 0.000000 0.000000
# 3 -0.004574 -0.020231 0.015221 0.000000 0.000000 0.000000
# 4 0.000000 0.000000 0.000000 0.034336 0.000000 0.000000
# 5 0.000000 0.000000 0.000000 0.000000 0.054063 0.000000
# 6 0.000000 0.000000 0.000000 0.000000 0.000000 0.065532
#
#
# Mechanical properties :
#
#
# Convention : Reuss Voigt Hill
#
# Bulk Modulus (GPa) = 33.91574 73.47019 53.69296
# Shear Modulus (GPa) = 12.79420 19.75888 16.27654
#
# Velocity S-wave (km/s) = 2.89630 3.59930 3.26677
# Velocity P-wave (km/s) = 5.78115 8.08977 7.03086
#
# Compressibility (1/GPa) = 0.02948484
#
# Stress axis : x y z
#
# Youngs Moduli (GPa) = 29.66840 12.60443 65.70081
#
# Poissons Ratio (x) = 0.30988 0.30048
# Poissons Ratio (y) = 0.72940 1.32917
# Poissons Ratio (z) = 0.13569 0.25500
#
# Static dielectric constant tensor:
#      x y z
#    x 1.493600 0.000000 0.000000 
#    y 0.000000 1.510670 0.000000 
#    z 0.000000 0.000000 1.491260 
# 
# From -- ./inp_files/30904.got.cif
#   From: 2010.05.17/outbox.cif.g08.bks.cpg/sg51_16_cif.got.tgz:30904.got - 2010.06.03 11:52:47.
