data_PCOD9398671
_publ_section_title
;
Structure prediction by ZEFSAII (Michael W. Deem and Ramdas Pophale) SiO2 
 PCOD9398671
Probable space group: P M M A
;
_chemical_formula_sum "Si O2"
_cell_formula_units_Z 48
_cell_length_a 18.523759
_cell_length_b 7.454491
_cell_length_c 13.619411
_cell_angle_alpha 90.000000
_cell_angle_beta 90.000000
_cell_angle_gamma 90.000000
_cell_volume 1880.639020
_symmetry_space_group_name_H-M "P M M A"
_symmetry_group_IT_number 51
_symmetry_cell_setting 'orthorhombic'
loop_
_space_group_symop_operation_xyz
x,y,z
1/2-x,-y,z
1/2+x,-y,-z
-x,y,-z
-x,-y,-z
1/2+x,y,-z
1/2-x,y,z
x,-y,z
loop_
_atom_site_type_symbol
_atom_site_label
_atom_site_fract_x
_atom_site_fract_y
_atom_site_fract_z
Si Si1 0.485731 0.795120 0.383560
Si Si2 0.171258 0.208109 0.411988
Si Si3 0.865735 0.721121 0.157832
Si Si4 0.672146 0.280685 0.936821
Si Si5 0.520562 0.296239 0.884788
Si Si6 0.645302 0.702480 0.364873
O O1 0.500000 0.805464 0.500000
O O2 0.405008 0.716373 0.371483
O O3 0.558311 0.697579 0.352324
O O4 0.486182 0.000000 0.346436
O O5 0.250000 0.286445 0.386087
O O6 0.164364 0.209634 0.531445
O O7 0.171630 0.000000 0.382601
O O8 0.865663 0.500000 0.158657
O O9 0.833240 0.770409 0.052221
O O10 0.830325 0.778819 0.259999
O O11 0.948529 0.788373 0.157145
O O12 0.750000 0.225482 0.897277
O O13 0.668720 0.500000 0.935063
O O14 0.600343 0.215524 0.881583
O O15 0.525342 0.500000 0.846117
O O16 0.500000 0.308819 0.000000
O O17 0.671139 0.500000 0.374296
#
# Coordination Sequence:
#
# PCOD9398671 Si02
#       6
#     8   8   8   8   8   8
#     4   8  15  29  46  60  76 103 139 173 200 231
#     4   9  18  32  47  61  79 105 136 170 206 241
#     4   8  14  22  31  48  77 106 127 154 196 239
#     4   8  12  18  30  47  67  96 134 168 192 220
#     4   7  10  18  30  42  61  94 132 161 185 219
#     4  10  18  26  40  63  88 112 134 160 201 249
#
# _framework density 25.523237999999999
#
# number of rings (size 3 to 8) (size 9 to 14) (size 15 to 20)
#    0.000    3.667    0.000    3.500    0.000    4.000 
#    0.000    1.667    0.000    1.000    0.000    2.333 
#    0.000   24.000    0.000    1.333    0.000    0.000 
#
# Total GULP energy -267530.878685 kJ/mol
# GULP energy per Si atom -5573.559973 kJ/mol
# Density = 2.546515 g / cm^3
# Si number density = 25.523238 Si / 1000 Ang^3
#
#
#
# Elastic Constant Matrix: (Units=GPa)
#
#
# Indices 1 2 3 4 5 6 
#
# 1 256.5893 16.5419 -6.0312 0.0000 0.0000 0.0000
# 2 16.5419 78.2093 -1.1393 0.0000 0.0000 0.0000
# 3 -6.0312 -1.1393 48.6180 0.0000 0.0000 0.0000
# 4 0.0000 0.0000 0.0000 7.7276 0.0000 0.0000
# 5 0.0000 0.0000 0.0000 0.0000 -11.0909 0.0000
# 6 0.0000 0.0000 0.0000 0.0000 0.0000 -36.3190
#
#
#
# Elastic Compliance Matrix: (Units=1/GPa)
#
#
# Indices 1 2 3 4 5 6 
#
# 1 0.003962 -0.000831 0.000472 0.000000 0.000000 0.000000
# 2 -0.000831 0.012965 0.000201 0.000000 0.000000 0.000000
# 3 0.000472 0.000201 0.020632 0.000000 0.000000 0.000000
# 4 0.000000 0.000000 0.000000 0.129406 0.000000 0.000000
# 5 0.000000 0.000000 0.000000 0.000000 -0.090164 0.000000
# 6 0.000000 0.000000 0.000000 0.000000 0.000000 -0.027534
#
#
# Mechanical properties :
#
#
# Convention : Reuss Voigt Hill
#
# Bulk Modulus (GPa) = 26.85145 44.68435 35.76790
# Shear Modulus (GPa) = 80.64854 16.99989 48.82422
#
# Velocity S-wave (km/s) = 5.62732 2.58360 4.37845
# Velocity P-wave (km/s) = 7.26398 5.14250 6.29328
#
# Compressibility (1/GPa) = 0.03724193
#
# Stress axis : x y z
#
# Youngs Moduli (GPa) = 252.40075 77.13121 48.46890
#
# Poissons Ratio (x) = 0.06410 -0.02288
# Poissons Ratio (y) = 0.20977 -0.00973
# Poissons Ratio (z) = -0.11914 -0.01548
#
# Static dielectric constant tensor:
#      x y z
#    x 2.058440 0.000000 0.000000 
#    y 0.000000 1.955740 0.000000 
#    z 0.000000 0.000000 2.013630 
# 
# From -- ./inp_files/33643.got.cif
#   From: 2010.05.17/outbox.cif.g08.bks.cpg/sg51_17_cif.got.tgz:33643.got - 2010.06.03 11:52:47.
