data_PCOD9398853
_publ_section_title
;
Structure prediction by ZEFSAII (Michael W. Deem and Ramdas Pophale) SiO2 
 PCOD9398853
Probable space group: P M M A
;
_chemical_formula_sum "Si O2"
_cell_formula_units_Z 64
_cell_length_a 21.213455
_cell_length_b 8.449326
_cell_length_c 21.513567
_cell_angle_alpha 90.000000
_cell_angle_beta 90.000000
_cell_angle_gamma 90.000000
_cell_volume 3856.078774
_symmetry_space_group_name_H-M "P M M A"
_symmetry_group_IT_number 51
_symmetry_cell_setting 'orthorhombic'
loop_
_space_group_symop_operation_xyz
x,y,z
1/2-x,-y,z
1/2+x,-y,-z
-x,y,-z
-x,-y,-z
1/2+x,y,-z
1/2-x,y,z
x,-y,z
loop_
_atom_site_type_symbol
_atom_site_label
_atom_site_fract_x
_atom_site_fract_y
_atom_site_fract_z
Si Si1 0.500842 0.806956 0.325827
Si Si2 0.508800 0.180931 0.192320
Si Si3 0.643437 0.310708 0.341775
Si Si4 0.556641 0.809342 0.545383
Si Si5 0.180893 0.691022 0.520696
Si Si6 0.318852 0.686091 0.920151
Si Si7 0.541495 0.808239 0.059022
Si Si8 0.159576 0.179401 0.788304
O O1 0.480847 0.750974 0.256517
O O2 0.570387 0.742045 0.340878
O O3 0.457307 0.760753 0.383704
O O4 0.504630 0.000000 0.323570
O O5 0.509307 0.253371 0.123281
O O6 0.583459 0.176411 0.207524
O O7 0.485227 0.000000 0.186689
O O8 0.647270 0.500000 0.337481
O O9 0.671944 0.258942 0.407424
O O10 0.674931 0.238931 0.280283
O O11 0.500000 0.753247 0.500000
O O12 0.622946 0.752498 0.519267
O O13 0.555581 0.000000 0.543759
O O14 0.250000 0.742317 0.498657
O O15 0.178861 0.500000 0.520307
O O16 0.250000 0.747008 0.942941
O O17 0.321489 0.500000 0.932914
O O18 0.384754 0.760229 0.943657
O O19 0.319329 0.714951 0.845786
O O20 0.540900 0.000000 0.062641
O O21 0.500000 0.759227 0.000000
O O22 0.180663 0.000000 0.798324
#
# Coordination Sequence:
#
# PCOD9398853 Si02
#       8
#     8   8   8   8   8   8   8   8
#     4   9  16  28  46  67  92 119 151 193 238 282
#     4   7  12  24  42  64  90 118 145 180 226 273
#     4  10  18  28  44  65  90 122 159 194 232 277
#     4  10  19  31  49  71  91 114 153 203 245 283
#     4  10  22  36  46  61  90 125 158 195 243 298
#     4  10  20  32  46  67  96 129 165 202 238 281
#     4   9  17  30  49  73  99 128 162 198 236 284
#     4   9  17  29  45  64  90 124 161 196 231 271
#
# _framework density 16.597170999999999
#
# number of rings (size 3 to 8) (size 9 to 14) (size 15 to 20)
#    0.000    2.750    1.250    2.625    0.000    3.250 
#    0.000    1.250    0.000    0.000    0.000    0.875 
#    0.000    7.000    0.000    0.000    0.000    0.000 
#
# Total GULP energy -356326.854300 kJ/mol
# GULP energy per Si atom -5567.607098 kJ/mol
# Density = 1.655940 g / cm^3
# Si number density = 16.597171 Si / 1000 Ang^3
#
#
#
# Elastic Constant Matrix: (Units=GPa)
#
#
# Indices 1 2 3 4 5 6 
#
# 1 95.5989 6.3204 65.8020 0.0000 0.0000 0.0000
# 2 6.3204 9.4824 12.8075 0.0000 0.0000 0.0000
# 3 65.8020 12.8075 130.7985 0.0000 0.0000 0.0000
# 4 0.0000 0.0000 0.0000 16.6284 0.0000 0.0000
# 5 0.0000 0.0000 0.0000 0.0000 6.9186 0.0000
# 6 0.0000 0.0000 0.0000 0.0000 0.0000 23.1940
#
#
#
# Elastic Compliance Matrix: (Units=1/GPa)
#
#
# Indices 1 2 3 4 5 6 
#
# 1 0.016002 0.000239 -0.008074 0.000000 0.000000 0.000000
# 2 0.000239 0.121534 -0.012021 0.000000 0.000000 0.000000
# 3 -0.008074 -0.012021 0.012884 0.000000 0.000000 0.000000
# 4 0.000000 0.000000 0.000000 0.060138 0.000000 0.000000
# 5 0.000000 0.000000 0.000000 0.000000 0.144538 0.000000
# 6 0.000000 0.000000 0.000000 0.000000 0.000000 0.043115
#
#
# Mechanical properties :
#
#
# Convention : Reuss Voigt Hill
#
# Bulk Modulus (GPa) = 9.03263 45.08218 27.05741
# Shear Modulus (GPa) = 10.53022 19.41154 14.97088
#
# Velocity S-wave (km/s) = 2.52158 3.42361 3.00661
# Velocity P-wave (km/s) = 3.73255 6.54596 5.32830
#
# Compressibility (1/GPa) = 0.11070967
#
# Stress axis : x y z
#
# Youngs Moduli (GPa) = 62.49341 8.22812 77.61573
#
# Poissons Ratio (x) = -0.00197 0.62663
# Poissons Ratio (y) = -0.01492 0.93298
# Poissons Ratio (z) = 0.50454 0.09891
#
# Static dielectric constant tensor:
#      x y z
#    x 1.551330 0.000000 0.000000 
#    y 0.000000 1.572240 0.000000 
#    z 0.000000 0.000000 1.594200 
# 
# From -- ./inp_files/34063.got.cif
#   From: 2010.05.17/outbox.cif.g08.bks.cpg/sg51_18_cif.got.tgz:34063.got - 2010.06.03 11:52:47.
