data_PCOD9398320
_publ_section_title
;
Structure prediction by ZEFSAII (Michael W. Deem and Ramdas Pophale) SiO2 
 PCOD9398320
Probable space group: P B A N
;
_chemical_formula_sum "Si O2"
_cell_formula_units_Z 40
_cell_length_a 9.000000
_cell_length_b 18.000000
_cell_length_c 12.000000
_cell_angle_alpha 90.000000
_cell_angle_beta 90.000000
_cell_angle_gamma 90.000000
_cell_volume 1944.000000
_symmetry_space_group_name_H-M "P B A N"
_symmetry_group_IT_number 50
_space_group.IT_coordinate_system_code '2'
_symmetry_cell_setting 'orthorhombic'
loop_
_space_group_symop_operation_xyz
x,y,z
1/2-x,1/2-y,z
x,1/2-y,-z
1/2-x,y,-z
-x,-y,-z
1/2+x,1/2+y,-z
-x,1/2+y,z
1/2+x,-y,z
loop_
_atom_site_type_symbol
_atom_site_label
_atom_site_fract_x
_atom_site_fract_y
_atom_site_fract_z
Si Si1 0.378976 0.894927 0.427397
Si Si2 0.427932 0.581512 0.990793
Si Si3 0.370419 0.442494 0.591629
Si Si4 0.042747 0.174125 0.216001
Si Si5 0.395875 0.342686 0.807593
O O1 0.250000 0.855187 0.500000
O O2 0.480824 0.928480 0.523794
O O3 0.477882 0.852970 0.335621
O O4 0.324691 0.973531 0.374370
O O5 0.514049 0.625428 0.088417
O O6 0.250000 0.576112 0.000000
O O7 0.500000 0.500000 0.000000
O O8 0.458452 0.626289 0.876867
O O9 0.250000 0.415984 0.500000
O O10 0.398648 0.396342 0.701976
O O11 0.216725 0.164132 0.181957
O O12 0.030004 0.262921 0.215401
#
# Coordination Sequence:
#
# PCOD9398320 Si02
#       5
#     8   8   8   8   8
#     4  10  22  38  65  98 133 178 226 286 331 398
#     4  12  27  46  73 100 131 175 230 288 345 415
#     4  10  20  40  65  94 133 177 229 274 333 397
#     4  11  24  44  66 101 139 180 228 277 350 411
#     4  11  24  43  69  97 139 185 222 283 343 418
#
# _framework density 20.576132000000001
#
# number of rings (size 3 to 8) (size 9 to 14) (size 15 to 20)
#    0.000    1.200    2.000    3.600    2.800    4.000 
#    0.000    1.000    0.000    0.000    0.000    0.000 
#    0.000    0.000    0.000    0.000    0.000    0.000 
#
# Total GULP energy -222720.834665 kJ/mol
# GULP energy per Si atom -5568.020867 kJ/mol
# Density = 2.052930 g / cm^3
# Si number density = 20.576132 Si / 1000 Ang^3
#
#
#
# Elastic Constant Matrix: (Units=GPa)
#
#
# Indices 1 2 3 4 5 6 
#
# 1 87.5026 22.4686 -2.8021 0.0000 0.0000 0.0000
# 2 22.4686 112.8810 35.3702 0.0000 0.0000 0.0000
# 3 -2.8021 35.3702 25.8643 0.0000 0.0000 0.0000
# 4 0.0000 0.0000 0.0000 28.0224 0.0000 0.0000
# 5 0.0000 0.0000 0.0000 0.0000 37.2935 0.0000
# 6 0.0000 0.0000 0.0000 0.0000 0.0000 20.9308
#
#
#
# Elastic Compliance Matrix: (Units=1/GPa)
#
#
# Indices 1 2 3 4 5 6 
#
# 1 0.013076 -0.005331 0.008707 0.000000 0.000000 0.000000
# 2 -0.005331 0.017675 -0.024748 0.000000 0.000000 0.000000
# 3 0.008707 -0.024748 0.073450 0.000000 0.000000 0.000000
# 4 0.000000 0.000000 0.000000 0.035686 0.000000 0.000000
# 5 0.000000 0.000000 0.000000 0.000000 0.026814 0.000000
# 6 0.000000 0.000000 0.000000 0.000000 0.000000 0.047777
#
#
# Mechanical properties :
#
#
# Convention : Reuss Voigt Hill
#
# Bulk Modulus (GPa) = 16.27169 37.36905 26.82037
# Shear Modulus (GPa) = 18.00460 28.66343 23.33402
#
# Velocity S-wave (km/s) = 2.96129 3.73640 3.37119
# Velocity P-wave (km/s) = 4.42917 6.06754 5.31190
#
# Compressibility (1/GPa) = 0.06145642
#
# Stress axis : x y z
#
# Youngs Moduli (GPa) = 76.47662 56.57861 13.61467
#
# Poissons Ratio (x) = 0.30161 -0.11854
# Poissons Ratio (y) = 0.40769 0.33694
# Poissons Ratio (z) = -0.66587 1.40021
#
# Static dielectric constant tensor:
#      x y z
#    x 1.758160 0.000000 0.000000 
#    y 0.000000 2.442200 0.000000 
#    z 0.000000 0.000000 1.773070 
# 
# From -- ./inp_files/18718.got.cif
#   From: 2010.05.17/outbox.ucp.g08.bks.cvg/sg50_10_cif.got.tgz:18718.got - 2010.06.11 16:26:39.
