data_PCOD9398358
_publ_section_title
;
Structure prediction by ZEFSAII (Michael W. Deem and Ramdas Pophale) SiO2 
 PCOD9398358
Probable space group: P M M A
;
_chemical_formula_sum "Si O2"
_cell_formula_units_Z 40
_cell_length_a 8.521735
_cell_length_b 27.177672
_cell_length_c 9.223054
_cell_angle_alpha 90.000000
_cell_angle_beta 90.000000
_cell_angle_gamma 90.000000
_cell_volume 2136.067780
_symmetry_space_group_name_H-M "P M M A"
_symmetry_group_IT_number 51
_symmetry_cell_setting 'orthorhombic'
loop_
_space_group_symop_operation_xyz
x,y,z
1/2-x,-y,z
1/2+x,-y,-z
-x,y,-z
-x,-y,-z
1/2+x,y,-z
1/2-x,y,z
x,-y,z
loop_
_atom_site_type_symbol
_atom_site_label
_atom_site_fract_x
_atom_site_fract_y
_atom_site_fract_z
Si Si1 0.439675 0.500000 0.163456
Si Si2 0.060395 0.402756 0.336670
Si Si3 0.560513 0.209415 0.664519
Si Si4 0.936077 0.000000 0.333806
Si Si5 0.560180 0.694373 0.837073
Si Si6 0.562067 0.898595 0.665686
O O1 0.250000 0.500000 0.160712
O O2 0.491580 0.548973 0.248379
O O3 0.500000 0.500000 0.000000
O O4 0.250000 0.402871 0.339399
O O5 0.008845 0.353042 0.255465
O O6 0.000000 0.404057 0.500000
O O7 0.500000 0.214384 0.500000
O O8 0.750000 0.210407 0.658933
O O9 0.506304 0.255161 0.760675
O O10 0.515433 0.155237 0.724502
O O11 0.000000 0.000000 0.500000
O O12 0.995046 0.051330 0.266462
O O13 0.750000 0.000000 0.339579
O O14 0.750000 0.694607 0.838814
O O15 0.500000 0.690938 0.000000
O O16 0.500000 0.897510 0.500000
O O17 0.750000 0.902252 0.663824
#
# Coordination Sequence:
#
# PCOD9398358 Si02
#       6
#     4   8   8   4   8   8
#     4  10  21  36  54  80 110 142 177 214 252 298
#     4  10  21  36  55  79 107 136 173 214 254 300
#     4   9  18  31  48  70  96 125 162 203 246 296
#     4  10  16  22  34  56  87 120 153 190 232 284
#     4  10  21  36  52  74 101 131 167 208 251 301
#     4   9  15  24  38  58  86 119 152 191 237 286
#
# _framework density 18.725998000000001
#
# number of rings (size 3 to 8) (size 9 to 14) (size 15 to 20)
#    0.000    2.400    0.000    4.200    0.000    3.200 
#    0.000    0.000    0.000    0.000    0.000    0.700 
#    0.000    0.000    0.000    0.000    0.000    0.000 
#
# Total GULP energy -223076.629473 kJ/mol
# GULP energy per Si atom -5576.915737 kJ/mol
# Density = 1.868338 g / cm^3
# Si number density = 18.725998 Si / 1000 Ang^3
#
#
#
# Elastic Constant Matrix: (Units=GPa)
#
#
# Indices 1 2 3 4 5 6 
#
# 1 29.2510 40.8067 14.6098 0.0000 0.0000 0.0000
# 2 40.8067 240.0309 94.5283 0.0000 0.0000 0.0000
# 3 14.6098 94.5283 111.0095 0.0000 0.0000 0.0000
# 4 0.0000 0.0000 0.0000 31.7734 0.0000 0.0000
# 5 0.0000 0.0000 0.0000 0.0000 25.6301 0.0000
# 6 0.0000 0.0000 0.0000 0.0000 0.0000 7.4786
#
#
#
# Elastic Compliance Matrix: (Units=1/GPa)
#
#
# Indices 1 2 3 4 5 6 
#
# 1 0.044874 -0.007979 0.000888 0.000000 0.000000 0.000000
# 2 -0.007979 0.007687 -0.005495 0.000000 0.000000 0.000000
# 3 0.000888 -0.005495 0.013571 0.000000 0.000000 0.000000
# 4 0.000000 0.000000 0.000000 0.031473 0.000000 0.000000
# 5 0.000000 0.000000 0.000000 0.000000 0.039017 0.000000
# 6 0.000000 0.000000 0.000000 0.000000 0.000000 0.133715
#
#
# Mechanical properties :
#
#
# Convention : Reuss Voigt Hill
#
# Bulk Modulus (GPa) = 24.41419 75.57567 49.99493
# Shear Modulus (GPa) = 16.17279 28.33284 22.25282
#
# Velocity S-wave (km/s) = 2.94199 3.89398 3.45097
# Velocity P-wave (km/s) = 4.96047 7.78869 6.52955
#
# Compressibility (1/GPa) = 0.04095978
#
# Stress axis : x y z
#
# Youngs Moduli (GPa) = 22.28474 130.09396 73.68701
#
# Poissons Ratio (x) = 1.03797 -0.06545
# Poissons Ratio (y) = 0.17780 0.40494
# Poissons Ratio (z) = -0.01979 0.71493
#
# Static dielectric constant tensor:
#      x y z
#    x 1.642350 0.000000 0.000000 
#    y 0.000000 1.711960 0.000000 
#    z 0.000000 0.000000 1.583070 
# 
# From -- ./inp_files/5626.got.cif
#   From: 2010.05.17/outbox.cif.g08.bks.cpg/sg51_3_cif.got.tgz:5626.got - 2010.06.03 11:52:47.
