data_PCOD9398321
_publ_section_title
;
Structure prediction by ZEFSAII (Michael W. Deem and Ramdas Pophale) SiO2 
 PCOD9398321
Probable space group: P B A N
;
_chemical_formula_sum "Si O2"
_cell_formula_units_Z 48
_cell_length_a 12.000000
_cell_length_b 24.000000
_cell_length_c 9.000000
_cell_angle_alpha 90.000000
_cell_angle_beta 90.000000
_cell_angle_gamma 90.000000
_cell_volume 2592.000000
_symmetry_space_group_name_H-M "P B A N"
_symmetry_group_IT_number 50
_space_group.IT_coordinate_system_code '2'
_symmetry_cell_setting 'orthorhombic'
loop_
_space_group_symop_operation_xyz
x,y,z
1/2-x,1/2-y,z
x,1/2-y,-z
1/2-x,y,-z
-x,-y,-z
1/2+x,1/2+y,-z
-x,1/2+y,z
1/2+x,-y,z
loop_
_atom_site_type_symbol
_atom_site_label
_atom_site_fract_x
_atom_site_fract_y
_atom_site_fract_z
Si Si1 0.438888 0.199668 0.103984
Si Si2 0.140299 0.850417 0.905594
Si Si3 0.058134 0.974922 0.848657
Si Si4 0.956206 0.217099 0.344996
Si Si5 0.411273 0.099918 0.620901
Si Si6 0.845393 0.909197 0.280220
O O1 0.489853 0.235276 0.240348
O O2 0.377682 0.144946 0.176675
O O3 0.385586 0.250000 0.000000
O O4 0.534268 0.172561 0.998875
O O5 0.126741 0.917724 0.886084
O O6 0.140129 0.814313 0.752151
O O7 0.250000 0.839096 0.000000
O O8 0.978475 0.947272 0.718052
O O9 0.124588 0.029881 0.789686
O O10 0.000000 0.000000 0.000000
O O11 0.930398 0.250000 0.500000
O O12 0.038542 0.162935 0.362727
O O13 0.285735 0.097011 0.684225
O O14 0.406326 0.091010 0.442274
#
# Coordination Sequence:
#
# PCOD9398321 Si02
#       6
#     8   8   8   8   8   8
#     4  10  21  39  61  91 130 167 204 269 319 379
#     4  10  23  42  63  93 126 169 215 266 327 377
#     4  11  23  40  64  90 129 169 214 273 318 377
#     4  10  20  41  68  90 129 166 212 262 322 385
#     4  10  24  41  63  98 125 171 214 264 326 388
#     4  11  22  41  65  91 132 168 217 262 323 396
#
# _framework density 18.518519000000001
#
# number of rings (size 3 to 8) (size 9 to 14) (size 15 to 20)
#    0.000    1.667    3.333    0.500    2.333    3.667 
#    0.000    5.833    0.000    0.000    0.000    0.000 
#    0.000    0.000    0.000    0.000    0.000    0.000 
#
# Total GULP energy -267302.188374 kJ/mol
# GULP energy per Si atom -5568.795591 kJ/mol
# Density = 1.847637 g / cm^3
# Si number density = 18.518519 Si / 1000 Ang^3
#
#
#
# Elastic Constant Matrix: (Units=GPa)
#
#
# Indices 1 2 3 4 5 6 
#
# 1 70.8606 41.7121 39.5997 0.0000 0.0000 0.0000
# 2 41.7121 188.9099 61.2879 0.0000 0.0000 0.0000
# 3 39.5997 61.2879 138.6576 0.0000 0.0000 0.0000
# 4 0.0000 0.0000 0.0000 61.7847 0.0000 0.0000
# 5 0.0000 0.0000 0.0000 0.0000 31.7417 0.0000
# 6 0.0000 0.0000 0.0000 0.0000 0.0000 20.0647
#
#
#
# Elastic Compliance Matrix: (Units=1/GPa)
#
#
# Indices 1 2 3 4 5 6 
#
# 1 0.017880 -0.002675 -0.003924 0.000000 0.000000 0.000000
# 2 -0.002675 0.006580 -0.002144 0.000000 0.000000 0.000000
# 3 -0.003924 -0.002144 0.009281 0.000000 0.000000 0.000000
# 4 0.000000 0.000000 0.000000 0.016185 0.000000 0.000000
# 5 0.000000 0.000000 0.000000 0.000000 0.031504 0.000000
# 6 0.000000 0.000000 0.000000 0.000000 0.000000 0.049839
#
#
# Mechanical properties :
#
#
# Convention : Reuss Voigt Hill
#
# Bulk Modulus (GPa) = 61.52528 75.95860 68.74194
# Shear Modulus (GPa) = 32.43115 39.77347 36.10231
#
# Velocity S-wave (km/s) = 4.18937 4.63943 4.42013
# Velocity P-wave (km/s) = 7.52973 8.35498 7.95307
#
# Compressibility (1/GPa) = 0.01625348
#
# Stress axis : x y z
#
# Youngs Moduli (GPa) = 55.92953 151.97889 107.75238
#
# Poissons Ratio (x) = 0.40652 0.42282
# Poissons Ratio (y) = 0.14960 0.23107
# Poissons Ratio (z) = 0.21947 0.32591
#
# Static dielectric constant tensor:
#      x y z
#    x 1.663530 0.000000 0.000000 
#    y 0.000000 1.621180 0.000000 
#    z 0.000000 0.000000 1.681500 
# 
# From -- ./inp_files/11562.got.cif
#   From: 2010.05.17/outbox.ucp.g08.bks.cvg/sg50_6_cif.got.tgz:11562.got - 2010.06.11 16:26:39.
