data_PCOD9398115
_publ_section_title
;
Structure prediction by ZEFSAII (Michael W. Deem and Ramdas Pophale) SiO2 
 PCOD9398115
Probable space group: P B A N
;
_chemical_formula_sum "Si O2"
_cell_formula_units_Z 40
_cell_length_a 9.377705
_cell_length_b 22.460677
_cell_length_c 8.296508
_cell_angle_alpha 90.000000
_cell_angle_beta 90.000000
_cell_angle_gamma 90.000000
_cell_volume 1747.490186
_symmetry_space_group_name_H-M "P B A N"
_symmetry_group_IT_number 50
_space_group.IT_coordinate_system_code '2'
_symmetry_cell_setting 'orthorhombic'
loop_
_space_group_symop_operation_xyz
x,y,z
1/2-x,1/2-y,z
x,1/2-y,-z
1/2-x,y,-z
-x,-y,-z
1/2+x,1/2+y,-z
-x,1/2+y,z
1/2+x,-y,z
loop_
_atom_site_type_symbol
_atom_site_label
_atom_site_fract_x
_atom_site_fract_y
_atom_site_fract_z
Si Si1 0.557699 0.688618 0.606023
Si Si2 0.256946 0.377974 0.813039
Si Si3 0.628304 0.519261 0.622978
Si Si4 0.560486 0.392200 0.667472
Si Si5 0.709426 0.317754 0.171898
O O1 0.548975 0.750000 0.500000
O O2 0.709713 0.674263 0.688921
O O3 0.508518 0.631468 0.499346
O O4 0.448944 0.684479 0.757388
O O5 0.149635 0.432811 0.765781
O O6 0.421405 0.394653 0.780031
O O7 0.250000 0.361263 0.000000
O O8 0.750000 0.538222 0.500000
O O9 0.500000 0.500000 0.500000
O O10 0.648973 0.452950 0.689603
O O11 0.679682 0.343800 0.702191
O O12 0.750000 0.250000 0.156414
O O13 0.750000 0.347191 0.000000
#
# Coordination Sequence:
#
# PCOD9398115 Si02
#       5
#     8   8   8   8   8
#     4  12  24  46  74 101 139 196 245 293 364 449
#     4  12  28  48  70 108 147 190 248 313 377 436
#     4  12  23  46  73 103 140 188 246 302 361 447
#     4  12  25  44  74 101 142 192 247 295 361 448
#     4  11  24  43  67 105 143 177 231 298 362 428
#
# _framework density 22.889973000000001
#
# number of rings (size 3 to 8) (size 9 to 14) (size 15 to 20)
#    0.000    0.200    6.000    3.600    0.000    3.200 
#    0.000    1.000    0.000    0.000    0.000    0.000 
#    0.000    0.000    0.000    0.000    0.000    0.000 
#
# Total GULP energy -222841.236690 kJ/mol
# GULP energy per Si atom -5571.030917 kJ/mol
# Density = 2.283787 g / cm^3
# Si number density = 22.889973 Si / 1000 Ang^3
#
#
#
# Elastic Constant Matrix: (Units=GPa)
#
#
# Indices 1 2 3 4 5 6 
#
# 1 63.0120 10.3438 5.9490 0.0000 0.0000 0.0000
# 2 10.3438 102.3197 18.2728 0.0000 0.0000 0.0000
# 3 5.9490 18.2728 92.4874 0.0000 0.0000 0.0000
# 4 0.0000 0.0000 0.0000 7.8152 0.0000 0.0000
# 5 0.0000 0.0000 0.0000 0.0000 135.7755 0.0000
# 6 0.0000 0.0000 0.0000 0.0000 0.0000 5.2369
#
#
#
# Elastic Compliance Matrix: (Units=1/GPa)
#
#
# Indices 1 2 3 4 5 6 
#
# 1 0.016187 -0.001504 -0.000744 0.000000 0.000000 0.000000
# 2 -0.001504 0.010270 -0.001932 0.000000 0.000000 0.000000
# 3 -0.000744 -0.001932 0.011242 0.000000 0.000000 0.000000
# 4 0.000000 0.000000 0.000000 0.127956 0.000000 0.000000
# 5 0.000000 0.000000 0.000000 0.000000 0.007365 0.000000
# 6 0.000000 0.000000 0.000000 0.000000 0.000000 0.190954
#
#
# Mechanical properties :
#
#
# Convention : Reuss Voigt Hill
#
# Bulk Modulus (GPa) = 34.08404 36.32782 35.20593
# Shear Modulus (GPa) = 13.08509 44.64909 28.86709
#
# Velocity S-wave (km/s) = 2.39352 4.42135 3.55508
# Velocity P-wave (km/s) = 4.74987 6.47839 5.68026
#
# Compressibility (1/GPa) = 0.02933925
#
# Stress axis : x y z
#
# Youngs Moduli (GPa) = 61.77775 97.36736 88.95266
#
# Poissons Ratio (x) = 0.14639 0.06619
# Poissons Ratio (y) = 0.09288 0.17189
# Poissons Ratio (z) = 0.04597 0.18815
#
# Static dielectric constant tensor:
#      x y z
#    x 2.071850 0.000000 0.000000 
#    y 0.000000 2.021220 0.000000 
#    z 0.000000 0.000000 2.334380 
# 
# From -- ./inp_files/9552.got.cif
#   From: 2010.05.17/outbox.cif.g08.bks.cpg/sg50_5_cif.got.tgz:9552.got - 2010.06.03 11:33:33.
