data_PCOD9398659
_publ_section_title
;
Structure prediction by ZEFSAII (Michael W. Deem and Ramdas Pophale) SiO2 
 PCOD9398659
Probable space group: P M M A
;
_chemical_formula_sum "Si O2"
_cell_formula_units_Z 40
_cell_length_a 25.882631
_cell_length_b 7.450407
_cell_length_c 10.623036
_cell_angle_alpha 90.000000
_cell_angle_beta 90.000000
_cell_angle_gamma 90.000000
_cell_volume 2048.505206
_symmetry_space_group_name_H-M "P M M A"
_symmetry_group_IT_number 51
_symmetry_cell_setting 'orthorhombic'
loop_
_space_group_symop_operation_xyz
x,y,z
1/2-x,-y,z
1/2+x,-y,-z
-x,y,-z
-x,-y,-z
1/2+x,y,-z
1/2-x,y,z
x,-y,z
loop_
_atom_site_type_symbol
_atom_site_label
_atom_site_fract_x
_atom_site_fract_y
_atom_site_fract_z
Si Si1 0.862163 0.219878 0.278828
Si Si2 0.250000 0.704648 0.983072
Si Si3 0.467167 0.780947 0.122537
Si Si4 0.138430 0.214943 0.013130
Si Si5 0.250000 0.798601 0.698354
Si Si6 0.527247 0.780648 0.371879
O O1 0.806289 0.282551 0.329383
O O2 0.913159 0.274471 0.353843
O O3 0.860352 0.000000 0.278324
O O4 0.867804 0.276132 0.132289
O O5 0.250000 0.500000 0.941835
O O6 0.303435 0.739826 0.053576
O O7 0.250000 0.811484 0.851672
O O8 0.408475 0.720666 0.099100
O O9 0.494613 0.722112 0.250104
O O10 0.467502 0.000000 0.125524
O O11 0.500000 0.728384 0.000000
O O12 0.134641 0.000000 0.009147
O O13 0.250000 0.000000 0.644934
O O14 0.500000 0.722176 0.500000
O O15 0.527407 0.000000 0.371785
#
# Coordination Sequence:
#
# PCOD9398659 Si02
#       6
#     8   4   8   8   4   8
#     4   8  12  20  34  54  78 105 137 168 200 248
#     4  10  18  26  38  61  90 110 132 176 230 256
#     4   9  14  22  38  59  81 112 146 168 195 253
#     4   9  15  25  42  60  82 112 147 173 200 252
#     4   8  14  24  40  59  78 108 144 172 204 252
#     4   9  15  21  32  56  89 113 133 172 220 249
#
# _framework density 19.526433999999998
#
# number of rings (size 3 to 8) (size 9 to 14) (size 15 to 20)
#    0.000    3.200    2.000    2.100    0.000    0.000 
#    0.000    0.000    0.000    1.800    0.000    7.000 
#    0.000   26.400    0.000    0.000    0.000    0.000 
#
# Total GULP energy -222891.324540 kJ/mol
# GULP energy per Si atom -5572.283114 kJ/mol
# Density = 1.948199 g / cm^3
# Si number density = 19.526434 Si / 1000 Ang^3
#
#
#
# Elastic Constant Matrix: (Units=GPa)
#
#
# Indices 1 2 3 4 5 6 
#
# 1 252.0665 3.2053 88.9539 0.0000 0.0000 0.0000
# 2 3.2053 60.2251 3.3813 0.0000 0.0000 0.0000
# 3 88.9539 3.3813 98.8713 0.0000 0.0000 0.0000
# 4 0.0000 0.0000 0.0000 -13.0359 0.0000 0.0000
# 5 0.0000 0.0000 0.0000 0.0000 21.9202 0.0000
# 6 0.0000 0.0000 0.0000 0.0000 0.0000 -43.6676
#
#
#
# Elastic Compliance Matrix: (Units=1/GPa)
#
#
# Indices 1 2 3 4 5 6 
#
# 1 0.005813 -0.000016 -0.005229 0.000000 0.000000 0.000000
# 2 -0.000016 0.016636 -0.000555 0.000000 0.000000 0.000000
# 3 -0.005229 -0.000555 0.014838 0.000000 0.000000 0.000000
# 4 0.000000 0.000000 0.000000 -0.076711 0.000000 0.000000
# 5 0.000000 0.000000 0.000000 0.000000 0.045620 0.000000
# 6 0.000000 0.000000 0.000000 0.000000 0.000000 -0.022900
#
#
# Mechanical properties :
#
#
# Convention : Reuss Voigt Hill
#
# Bulk Modulus (GPa) = 38.92944 66.91600 52.92272
# Shear Modulus (GPa) = 1446.25565 14.08483 730.17024
#
# Velocity S-wave (km/s) = 27.24470 2.68866 19.35849
# Velocity P-wave (km/s) = 31.77543 6.63192 22.95278
#
# Compressibility (1/GPa) = 0.02568750
#
# Stress axis : x y z
#
# Youngs Moduli (GPa) = 172.03486 60.10929 67.39552
#
# Poissons Ratio (x) = 0.00095 0.35242
# Poissons Ratio (y) = 0.00271 0.03739
# Poissons Ratio (z) = 0.89960 0.03335
#
# Static dielectric constant tensor:
#      x y z
#    x 1.736180 0.000000 0.000000 
#    y 0.000000 1.718640 0.000000 
#    z 0.000000 0.000000 1.620200 
# 
# From -- ./inp_files/12213.got.cif
#   From: 2010.05.17/outbox.cif.g08.bks.cpg/sg51_7_cif.got.tgz:12213.got - 2010.06.03 11:52:47.
