data_PCOD9398017
_publ_section_title
;
Structure prediction by ZEFSAII (Michael W. Deem and Ramdas Pophale) SiO2 
 PCOD9398017
Probable space group: P B A N
;
_chemical_formula_sum "Si O2"
_cell_formula_units_Z 26
_cell_length_a 14.547056
_cell_length_b 15.443355
_cell_length_c 5.031297
_cell_angle_alpha 90.000000
_cell_angle_beta 90.000000
_cell_angle_gamma 90.000000
_cell_volume 1130.307789
_symmetry_space_group_name_H-M "P B A N"
_symmetry_group_IT_number 50
_space_group.IT_coordinate_system_code '2'
_symmetry_cell_setting 'orthorhombic'
loop_
_space_group_symop_operation_xyz
x,y,z
1/2-x,1/2-y,z
x,1/2-y,-z
1/2-x,y,-z
-x,-y,-z
1/2+x,1/2+y,-z
-x,1/2+y,z
1/2+x,-y,z
loop_
_atom_site_type_symbol
_atom_site_label
_atom_site_fract_x
_atom_site_fract_y
_atom_site_fract_z
Si Si1 0.750000 0.250000 0.500000
Si Si2 0.606816 0.156401 0.875665
Si Si3 0.080377 0.308901 0.741797
Si Si4 0.250000 0.413482 0.500000
Si Si5 0.750000 0.029821 0.000000
O O1 0.682396 0.185763 0.659652
O O2 0.504771 0.126655 0.799966
O O3 0.661649 0.089875 0.058954
O O4 0.586695 0.250000 0.000000
O O5 0.044187 0.250000 0.500000
O O6 0.168866 0.355850 0.622375
O O7 0.104708 0.250000 0.000000
O O8 0.221070 0.472891 0.252111
#
# Coordination Sequence:
#
# PCOD9398017 Si02
#       5
#     2   8   8   4   4
#     4  12  16  40  68 102 132 166 238 286 346 396
#     4  11  23  39  72 103 132 184 238 290 343 406
#     4  11  25  46  73  99 131 182 248 293 330 409
#     4  12  28  44  65 101 144 192 220 278 362 410
#     4  12  25  42  67 102 152 180 216 288 355 428
#
# _framework density 23.002586000000001
#
# number of rings (size 3 to 8) (size 9 to 14) (size 15 to 20)
#    0.000    0.615    4.615    3.231    0.000    3.692 
#    0.000    0.000    0.000    0.000    0.000    0.000 
#    0.000    0.000    0.000    0.000    0.000    0.000 
#
# Total GULP energy -145191.663961 kJ/mol
# GULP energy per Si atom -5584.294768 kJ/mol
# Density = 2.295023 g / cm^3
# Si number density = 23.002586 Si / 1000 Ang^3
#
#
#
# Elastic Constant Matrix: (Units=GPa)
#
#
# Indices 1 2 3 4 5 6 
#
# 1 197.8292 49.5906 37.6402 0.0000 0.0000 0.0000
# 2 49.5906 58.6057 30.5501 0.0000 0.0000 0.0000
# 3 37.6402 30.5501 118.8153 0.0000 0.0000 0.0000
# 4 0.0000 0.0000 0.0000 13.9937 0.0000 0.0000
# 5 0.0000 0.0000 0.0000 0.0000 43.3238 0.0000
# 6 0.0000 0.0000 0.0000 0.0000 0.0000 -33.8326
#
#
#
# Elastic Compliance Matrix: (Units=1/GPa)
#
#
# Indices 1 2 3 4 5 6 
#
# 1 0.006472 -0.005090 -0.000742 0.000000 0.000000 0.000000
# 2 -0.005090 0.023707 -0.004483 0.000000 0.000000 0.000000
# 3 -0.000742 -0.004483 0.009804 0.000000 0.000000 0.000000
# 4 0.000000 0.000000 0.000000 0.071461 0.000000 0.000000
# 5 0.000000 0.000000 0.000000 0.000000 0.023082 0.000000
# 6 0.000000 0.000000 0.000000 0.000000 0.000000 -0.029557
#
#
# Mechanical properties :
#
#
# Convention : Reuss Voigt Hill
#
# Bulk Modulus (GPa) = 51.66910 67.86800 59.76855
# Shear Modulus (GPa) = 37.86479 21.86158 29.86318
#
# Velocity S-wave (km/s) = 4.06163 3.08619 3.60704
# Velocity P-wave (km/s) = 6.67135 6.50139 6.58691
#
# Compressibility (1/GPa) = 0.01935393
#
# Stress axis : x y z
#
# Youngs Moduli (GPa) = 154.51605 42.18163 101.99830
#
# Poissons Ratio (x) = 0.21469 0.07564
# Poissons Ratio (y) = 0.78644 0.45728
# Poissons Ratio (z) = 0.11458 0.18911
#
# Static dielectric constant tensor:
#      x y z
#    x 2.044450 0.000000 0.000000 
#    y 0.000000 1.954050 0.000000 
#    z 0.000000 0.000000 1.955950 
# 
# From -- ./inp_files/2807.got.cif
#   From: 2010.05.17/outbox.cif.g08.bks.cpg/sg50_2_cif.got.tgz:2807.got - 2010.06.03 11:33:33.
