data_PCOD9398424
_publ_section_title
;
Structure prediction by ZEFSAII (Michael W. Deem and Ramdas Pophale) SiO2 
 PCOD9398424
Probable space group: P M M A
;
_chemical_formula_sum "Si O2"
_cell_formula_units_Z 32
_cell_length_a 16.487791
_cell_length_b 14.275154
_cell_length_c 6.852063
_cell_angle_alpha 90.000000
_cell_angle_beta 90.000000
_cell_angle_gamma 90.000000
_cell_volume 1612.740986
_symmetry_space_group_name_H-M "P M M A"
_symmetry_group_IT_number 51
_symmetry_cell_setting 'orthorhombic'
loop_
_space_group_symop_operation_xyz
x,y,z
1/2-x,-y,z
1/2+x,-y,-z
-x,y,-z
-x,-y,-z
1/2+x,y,-z
1/2-x,y,z
x,-y,z
loop_
_atom_site_type_symbol
_atom_site_label
_atom_site_fract_x
_atom_site_fract_y
_atom_site_fract_z
Si Si1 0.345472 0.500000 0.452243
Si Si2 0.750000 0.795669 0.369612
Si Si3 0.619936 0.295341 0.644536
Si Si4 0.250000 0.500000 0.828600
Si Si5 0.750000 0.700994 0.971710
Si Si6 0.000000 0.152080 0.500000
Si Si7 0.750000 0.000000 0.259214
Si Si8 0.563321 0.000000 0.191803
O O1 0.250000 0.500000 0.375272
O O2 0.390301 0.405929 0.388971
O O3 0.327406 0.500000 0.683127
O O4 0.825257 0.743163 0.466953
O O5 0.750000 0.906778 0.392954
O O6 0.750000 0.774997 0.142894
O O7 0.672090 0.285065 0.838172
O O8 0.546721 0.224700 0.639602
O O9 0.250000 0.404223 0.945987
O O10 0.046099 0.086450 0.657801
O O11 0.661464 0.000000 0.147619
O O12 0.500000 0.000000 0.000000
#
# Coordination Sequence:
#
# PCOD9398424 Si02
#       8
#     4   4   8   2   4   4   2   4
#     4  10  17  37  61  91 128 167 213 275 320 378
#     4  11  21  40  61  97 124 168 223 274 326 392
#     4  11  22  39  63  94 131 171 213 273 329 395
#     4  10  16  34  64  92 126 158 220 286 314 372
#     4  11  20  34  66  94 117 171 225 259 325 401
#     4  11  26  45  64  94 140 173 210 275 342 400
#     4  12  24  44  76  92 136 174 220 284 348 390
#     4  11  27  49  71 100 134 176 225 285 337 405
#
# _framework density 19.841998
#
# number of rings (size 3 to 8) (size 9 to 14) (size 15 to 20)
#    0.375    0.750    7.500    0.750    3.500    0.500 
#    0.000    5.000    0.000    1.500    0.000    0.000 
#    0.000    0.000    0.000    0.000    0.000    0.000 
#
# Total GULP energy -178241.127160 kJ/mol
# GULP energy per Si atom -5570.035224 kJ/mol
# Density = 1.979684 g / cm^3
# Si number density = 19.841998 Si / 1000 Ang^3
#
#
#
# Elastic Constant Matrix: (Units=GPa)
#
#
# Indices 1 2 3 4 5 6 
#
# 1 64.7846 38.0212 10.1475 0.0000 0.0000 0.0000
# 2 38.0212 177.3240 25.6254 0.0000 0.0000 0.0000
# 3 10.1475 25.6254 88.2760 0.0000 0.0000 0.0000
# 4 0.0000 0.0000 0.0000 7.8504 0.0000 0.0000
# 5 0.0000 0.0000 0.0000 0.0000 1.8361 0.0000
# 6 0.0000 0.0000 0.0000 0.0000 0.0000 29.8292
#
#
#
# Elastic Compliance Matrix: (Units=1/GPa)
#
#
# Indices 1 2 3 4 5 6 
#
# 1 0.017738 -0.003662 -0.000976 0.000000 0.000000 0.000000
# 2 -0.003662 0.006642 -0.001507 0.000000 0.000000 0.000000
# 3 -0.000976 -0.001507 0.011878 0.000000 0.000000 0.000000
# 4 0.000000 0.000000 0.000000 0.127382 0.000000 0.000000
# 5 0.000000 0.000000 0.000000 0.000000 0.544628 0.000000
# 6 0.000000 0.000000 0.000000 0.000000 0.000000 0.033524
#
#
# Mechanical properties :
#
#
# Convention : Reuss Voigt Hill
#
# Bulk Modulus (GPa) = 41.72333 53.10809 47.41571
# Shear Modulus (GPa) = 6.56106 25.00918 15.78512
#
# Velocity S-wave (km/s) = 1.82039 3.55409 2.82359
# Velocity P-wave (km/s) = 5.04895 6.60800 5.88037
#
# Compressibility (1/GPa) = 0.02396740
#
# Stress axis : x y z
#
# Youngs Moduli (GPa) = 56.37622 150.54658 84.19055
#
# Poissons Ratio (x) = 0.55134 0.08216
# Poissons Ratio (y) = 0.20647 0.12689
# Poissons Ratio (z) = 0.05502 0.22691
#
# Static dielectric constant tensor:
#      x y z
#    x 1.940280 0.000000 0.000000 
#    y 0.000000 1.724170 0.000000 
#    z 0.000000 0.000000 1.678270 
# 
# From -- ./inp_files/1890.got.cif
#   From: 2010.05.17/outbox.cif.g08.bks.cpg/sg51_1_cif.got.tgz:1890.got - 2010.06.03 11:52:47.
