data_PCOD9398835
_publ_section_title
;
Structure prediction by ZEFSAII (Michael W. Deem and Ramdas Pophale) SiO2 
 PCOD9398835
Probable space group: P M M A
;
_chemical_formula_sum "Si O2"
_cell_formula_units_Z 64
_cell_length_a 24.138720
_cell_length_b 17.970898
_cell_length_c 7.246125
_cell_angle_alpha 90.000000
_cell_angle_beta 90.000000
_cell_angle_gamma 90.000000
_cell_volume 3143.328990
_symmetry_space_group_name_H-M "P M M A"
_symmetry_group_IT_number 51
_symmetry_cell_setting 'orthorhombic'
loop_
_space_group_symop_operation_xyz
x,y,z
1/2-x,-y,z
1/2+x,-y,-z
-x,y,-z
-x,-y,-z
1/2+x,y,-z
1/2-x,y,z
x,-y,z
loop_
_atom_site_type_symbol
_atom_site_label
_atom_site_fract_x
_atom_site_fract_y
_atom_site_fract_z
Si Si1 0.112737 0.582910 0.165634
Si Si2 0.905539 0.198418 0.777398
Si Si3 0.574633 0.213641 0.220763
Si Si4 0.991491 0.916154 0.777191
Si Si5 0.814054 0.419643 0.467247
Si Si6 0.689393 0.745569 0.318073
Si Si7 0.485875 0.667900 0.299718
Si Si8 0.688888 0.718047 0.897351
O O1 0.117353 0.500000 0.088611
O O2 0.141070 0.582236 0.369409
O O3 0.049240 0.609421 0.181756
O O4 0.149868 0.646409 0.073172
O O5 0.943190 0.262395 0.685716
O O6 0.842503 0.225723 0.759702
O O7 0.931346 0.118807 0.730754
O O8 0.915046 0.203646 0.001080
O O9 0.535863 0.145659 0.285072
O O10 0.629957 0.215666 0.344425
O O11 0.541114 0.291574 0.229040
O O12 0.998941 0.000000 0.710654
O O13 0.000000 0.918412 0.000000
O O14 0.750000 0.421338 0.536115
O O15 0.821627 0.500000 0.368375
O O16 0.818261 0.342228 0.360162
O O17 0.750000 0.768383 0.395726
O O18 0.694412 0.753691 0.097299
O O19 0.500000 0.636268 0.500000
O O20 0.750000 0.697505 0.831482
#
# Coordination Sequence:
#
# PCOD9398835 Si02
#       8
#     8   8   8   8   8   8   8   8
#     4  10  20  31  42  60  85 111 141 177 217 257
#     4   8  16  29  45  64  87 112 139 173 208 245
#     4   9  16  29  46  63  87 113 138 173 211 248
#     4   8  13  23  43  67  86 111 144 170 198 243
#     4   9  17  29  43  59  82 111 142 178 217 254
#     4   9  17  29  46  65  83 108 143 178 212 251
#     4  10  18  28  44  62  82 110 142 175 210 250
#     4   9  17  29  46  65  84 110 143 177 212 248
#
# _framework density 20.360579999999999
#
# number of rings (size 3 to 8) (size 9 to 14) (size 15 to 20)
#    0.000    3.000    0.000    2.250    0.000    1.500 
#    0.000    1.875    0.000   16.500    0.000    5.250 
#    0.000    0.000    0.000   17.875    0.000   24.000 
#
# Total GULP energy -356326.802928 kJ/mol
# GULP energy per Si atom -5567.606296 kJ/mol
# Density = 2.031424 g / cm^3
# Si number density = 20.360580 Si / 1000 Ang^3
#
#
#
# Elastic Constant Matrix: (Units=GPa)
#
#
# Indices 1 2 3 4 5 6 
#
# 1 91.7036 48.0940 -3.6749 0.0000 0.0000 0.0000
# 2 48.0940 94.3092 -8.9452 0.0000 0.0000 0.0000
# 3 -3.6749 -8.9452 31.8951 0.0000 0.0000 0.0000
# 4 0.0000 0.0000 0.0000 -0.5398 0.0000 0.0000
# 5 0.0000 0.0000 0.0000 0.0000 18.8944 0.0000
# 6 0.0000 0.0000 0.0000 0.0000 0.0000 17.8823
#
#
#
# Elastic Compliance Matrix: (Units=1/GPa)
#
#
# Indices 1 2 3 4 5 6 
#
# 1 0.014892 -0.007634 -0.000425 0.000000 0.000000 0.000000
# 2 -0.007634 0.014807 0.003273 0.000000 0.000000 0.000000
# 3 -0.000425 0.003273 0.032222 0.000000 0.000000 0.000000
# 4 0.000000 0.000000 0.000000 -1.852608 0.000000 0.000000
# 5 0.000000 0.000000 0.000000 0.000000 0.052926 0.000000
# 6 0.000000 0.000000 0.000000 0.000000 0.000000 0.055921
#
#
# Mechanical properties :
#
#
# Convention : Reuss Voigt Hill
#
# Bulk Modulus (GPa) = 19.10325 32.09507 25.59916
# Shear Modulus (GPa) = -3.02148 19.40964 8.19408
#
# Velocity S-wave (km/s) = -1.21951 3.09090 2.00829
# Velocity P-wave (km/s) = 2.72395 5.34189 4.24003
#
# Compressibility (1/GPa) = 0.05234711
#
# Stress axis : x y z
#
# Youngs Moduli (GPa) = 67.15216 67.53490 31.03494
#
# Poissons Ratio (x) = 0.51559 0.01320
# Poissons Ratio (y) = 0.51267 -0.10158
# Poissons Ratio (z) = 0.02856 -0.22105
#
# Static dielectric constant tensor:
#      x y z
#    x 1.824500 0.000000 0.000000 
#    y 0.000000 1.706230 0.000000 
#    z 0.000000 0.000000 1.815280 
# 
# From -- ./inp_files/12514.got.cif
#   From: 2010.05.17/outbox.cif.g08.bks.cpg/sg51_7_cif.got.tgz:12514.got - 2010.06.03 11:52:47.
