data_PCOD9398266
_publ_section_title
;
Structure prediction by ZEFSAII (Michael W. Deem and Ramdas Pophale) SiO2 
 PCOD9398266
Probable space group: P B A N
;
_chemical_formula_sum "Si O2"
_cell_formula_units_Z 32
_cell_length_a 5.593229
_cell_length_b 16.466199
_cell_length_c 16.994157
_cell_angle_alpha 90.000000
_cell_angle_beta 90.000000
_cell_angle_gamma 90.000000
_cell_volume 1565.148634
_symmetry_space_group_name_H-M "P B A N"
_symmetry_group_IT_number 50
_space_group.IT_coordinate_system_code '2'
_symmetry_cell_setting 'orthorhombic'
loop_
_space_group_symop_operation_xyz
x,y,z
1/2-x,1/2-y,z
x,1/2-y,-z
1/2-x,y,-z
-x,-y,-z
1/2+x,1/2+y,-z
-x,1/2+y,z
1/2+x,-y,z
loop_
_atom_site_type_symbol
_atom_site_label
_atom_site_fract_x
_atom_site_fract_y
_atom_site_fract_z
Si Si1 0.750000 0.750000 0.500000
Si Si2 0.750000 0.750000 0.000000
Si Si3 0.893603 0.330941 0.123824
Si Si4 0.923936 0.050331 0.734120
Si Si5 0.865306 0.162129 0.584658
Si Si6 0.750000 0.451711 0.000000
O O1 0.624570 0.689198 0.440861
O O2 0.592695 0.804387 0.940319
O O3 0.750000 0.250000 0.143957
O O4 0.964602 0.378597 0.201633
O O5 0.733866 0.394553 0.075923
O O6 0.884066 0.094560 0.650322
O O7 0.668262 0.002932 0.743162
O O8 0.750000 0.250000 0.608873
O O9 0.750000 0.138225 0.500000
O O10 0.500000 0.500000 0.000000
#
# Coordination Sequence:
#
# PCOD9398266 Si02
#       6
#     2   2   8   8   8   4
#     4   8  18  38  76  98 132 182 252 288 336 404
#     4  12  24  46  80 100 136 180 270 294 368 422
#     4  12  26  47  72 104 134 191 244 293 353 438
#     4  12  30  47  68 107 151 189 234 300 371 423
#     4   9  21  43  73 106 140 192 245 291 349 429
#     4  12  24  42  69  99 138 170 218 286 360 418
#
# _framework density 20.445343999999999
#
# number of rings (size 3 to 8) (size 9 to 14) (size 15 to 20)
#    0.000    1.250    2.500    3.000   10.500    2.000 
#    0.000    0.000    0.000    0.000    0.000    0.000 
#    0.000    0.000    0.000    0.000    0.000    0.000 
#
# Total GULP energy -178266.684966 kJ/mol
# GULP energy per Si atom -5570.833905 kJ/mol
# Density = 2.039881 g / cm^3
# Si number density = 20.445344 Si / 1000 Ang^3
#
#
#
# Elastic Constant Matrix: (Units=GPa)
#
#
# Indices 1 2 3 4 5 6 
#
# 1 123.5502 78.3040 47.9174 0.0000 0.0000 0.0000
# 2 78.3040 134.5424 72.6973 0.0000 0.0000 0.0000
# 3 47.9174 72.6973 131.5001 0.0000 0.0000 0.0000
# 4 0.0000 0.0000 0.0000 157.9895 0.0000 0.0000
# 5 0.0000 0.0000 0.0000 0.0000 30.1639 0.0000
# 6 0.0000 0.0000 0.0000 0.0000 0.0000 33.5285
#
#
#
# Elastic Compliance Matrix: (Units=1/GPa)
#
#
# Indices 1 2 3 4 5 6 
#
# 1 0.012881 -0.007073 -0.000783 0.000000 0.000000 0.000000
# 2 -0.007073 0.014483 -0.005429 0.000000 0.000000 0.000000
# 3 -0.000783 -0.005429 0.010891 0.000000 0.000000 0.000000
# 4 0.000000 0.000000 0.000000 0.006330 0.000000 0.000000
# 5 0.000000 0.000000 0.000000 0.000000 0.033152 0.000000
# 6 0.000000 0.000000 0.000000 0.000000 0.000000 0.029825
#
#
# Mechanical properties :
#
#
# Convention : Reuss Voigt Hill
#
# Bulk Modulus (GPa) = 85.59116 87.49224 86.54170
# Shear Modulus (GPa) = 36.22465 57.04799 46.63632
#
# Velocity S-wave (km/s) = 4.21382 5.28803 4.78119
# Velocity P-wave (km/s) = 8.10119 8.95380 8.53814
#
# Compressibility (1/GPa) = 0.01168345
#
# Stress axis : x y z
#
# Youngs Moduli (GPa) = 77.63607 69.04745 91.81634
#
# Poissons Ratio (x) = 0.48840 0.07191
# Poissons Ratio (y) = 0.54915 0.49848
# Poissons Ratio (z) = 0.06081 0.37486
#
# Static dielectric constant tensor:
#      x y z
#    x 1.827990 0.000000 0.000000 
#    y 0.000000 1.722370 0.000000 
#    z 0.000000 0.000000 1.795740 
# 
# From -- ./inp_files/23755.got.cif
#   From: 2010.05.17/outbox.cif.g08.bks.cpg/sg50_12_cif.got.tgz:23755.got - 2010.06.03 11:33:33.
