data_PCOD9398863
_publ_section_title
;
Structure prediction by ZEFSAII (Michael W. Deem and Ramdas Pophale) SiO2 
 PCOD9398863
Probable space group: P M M A
;
_chemical_formula_sum "Si O2"
_cell_formula_units_Z 48
_cell_length_a 23.890046
_cell_length_b 7.652203
_cell_length_c 13.901605
_cell_angle_alpha 90.000000
_cell_angle_beta 90.000000
_cell_angle_gamma 90.000000
_cell_volume 2541.373008
_symmetry_space_group_name_H-M "P M M A"
_symmetry_group_IT_number 51
_symmetry_cell_setting 'orthorhombic'
loop_
_space_group_symop_operation_xyz
x,y,z
1/2-x,-y,z
1/2+x,-y,-z
-x,y,-z
-x,-y,-z
1/2+x,y,-z
1/2-x,y,z
x,-y,z
loop_
_atom_site_type_symbol
_atom_site_label
_atom_site_fract_x
_atom_site_fract_y
_atom_site_fract_z
Si Si1 0.982244 0.707704 0.103518
Si Si2 0.568843 0.206353 0.403619
Si Si3 0.250000 0.791305 0.749940
Si Si4 0.871394 0.210931 0.206292
Si Si5 0.250000 0.287326 0.521979
Si Si6 0.361219 0.698812 0.418590
Si Si7 0.041948 0.287772 0.297185
O O1 0.992456 0.500000 0.101866
O O2 0.018139 0.776072 0.194598
O O3 0.916812 0.733968 0.127569
O O4 0.000000 0.779717 0.000000
O O5 0.603051 0.265317 0.309226
O O6 0.594079 0.302228 0.494592
O O7 0.504604 0.235407 0.375800
O O8 0.578004 0.000000 0.418583
O O9 0.307741 0.723788 0.795837
O O10 0.250000 0.763870 0.634337
O O11 0.250000 0.000000 0.764116
O O12 0.870649 0.000000 0.205849
O O13 0.250000 0.500000 0.522661
O O14 0.194830 0.223602 0.465246
O O15 0.346625 0.500000 0.391339
O O16 0.397012 0.776636 0.330585
O O17 0.043516 0.500000 0.295518
#
# Coordination Sequence:
#
# PCOD9398863 Si02
#       7
#     8   8   4   8   4   8   8
#     4   9  18  33  52  71  91 118 155 200 247 288
#     4  10  18  28  44  67  94 122 153 187 224 269
#     4  10  18  32  48  67  98 130 158 187 228 275
#     4   9  18  30  47  70  96 125 154 187 231 283
#     4  10  20  30  44  65  90 126 166 193 216 265
#     4  10  19  30  43  62  90 124 157 186 223 270
#     4   9  18  31  46  64  90 121 151 189 236 281
#
# _framework density 18.887429000000001
#
# number of rings (size 3 to 8) (size 9 to 14) (size 15 to 20)
#    0.000    2.500    1.667    1.000    0.000    4.333 
#    0.000    0.000    0.000    1.000    0.000    3.500 
#    0.000    0.000    0.000    0.000    0.000    0.000 
#
# Total GULP energy -267596.139045 kJ/mol
# GULP energy per Si atom -5574.919563 kJ/mol
# Density = 1.884444 g / cm^3
# Si number density = 18.887429 Si / 1000 Ang^3
#
#
#
# Elastic Constant Matrix: (Units=GPa)
#
#
# Indices 1 2 3 4 5 6 
#
# 1 133.8850 -4.5575 75.8766 0.0000 0.0000 0.0000
# 2 -4.5575 37.0243 -0.8927 0.0000 0.0000 0.0000
# 3 75.8766 -0.8927 87.8568 0.0000 0.0000 0.0000
# 4 0.0000 0.0000 0.0000 0.0730 0.0000 0.0000
# 5 0.0000 0.0000 0.0000 0.0000 19.8072 0.0000
# 6 0.0000 0.0000 0.0000 0.0000 0.0000 9.3862
#
#
#
# Elastic Compliance Matrix: (Units=1/GPa)
#
#
# Indices 1 2 3 4 5 6 
#
# 1 0.014713 0.001505 -0.012691 0.000000 0.000000 0.000000
# 2 0.001505 0.027170 -0.001024 0.000000 0.000000 0.000000
# 3 -0.012691 -0.001024 0.022332 0.000000 0.000000 0.000000
# 4 0.000000 0.000000 0.000000 13.701041 0.000000 0.000000
# 5 0.000000 0.000000 0.000000 0.000000 0.050487 0.000000
# 6 0.000000 0.000000 0.000000 0.000000 0.000000 0.106539
#
#
# Mechanical properties :
#
#
# Convention : Reuss Voigt Hill
#
# Bulk Modulus (GPa) = 25.12868 44.40210 34.76539
# Shear Modulus (GPa) = 0.35817 18.40926 9.38371
#
# Velocity S-wave (km/s) = 0.43594 3.12538 2.23137
# Velocity P-wave (km/s) = 3.68602 6.04846 5.00852
#
# Compressibility (1/GPa) = 0.03979516
#
# Stress axis : x y z
#
# Youngs Moduli (GPa) = 67.96764 36.80552 44.77780
#
# Poissons Ratio (x) = -0.05539 0.56829
# Poissons Ratio (y) = -0.10229 0.04584
# Poissons Ratio (z) = 0.86260 0.03768
#
# Static dielectric constant tensor:
#      x y z
#    x 1.695360 0.000000 0.000000 
#    y 0.000000 1.688500 0.000000 
#    z 0.000000 0.000000 1.647720 
# 
# From -- ./inp_files/25518.got.cif
#   From: 2010.05.17/outbox.cif.g08.bks.cpg/sg51_13_cif.got.tgz:25518.got - 2010.06.03 11:52:47.
