data_PCOD9398599
_publ_section_title
;
Structure prediction by ZEFSAII (Michael W. Deem and Ramdas Pophale) SiO2 
 PCOD9398599
Probable space group: P M M A
;
_chemical_formula_sum "Si O2"
_cell_formula_units_Z 56
_cell_length_a 20.028928
_cell_length_b 7.656215
_cell_length_c 18.181598
_cell_angle_alpha 90.000000
_cell_angle_beta 90.000000
_cell_angle_gamma 90.000000
_cell_volume 2788.071309
_symmetry_space_group_name_H-M "P M M A"
_symmetry_group_IT_number 51
_symmetry_cell_setting 'orthorhombic'
loop_
_space_group_symop_operation_xyz
x,y,z
1/2-x,-y,z
1/2+x,-y,-z
-x,y,-z
-x,-y,-z
1/2+x,y,-z
1/2-x,y,z
x,-y,z
loop_
_atom_site_type_symbol
_atom_site_label
_atom_site_fract_x
_atom_site_fract_y
_atom_site_fract_z
Si Si1 0.597573 0.197818 0.451324
Si Si2 0.673340 0.213962 0.890008
Si Si3 0.325896 0.214114 0.688323
Si Si4 0.571365 0.213498 0.186419
Si Si5 0.042288 0.696210 0.397782
Si Si6 0.924674 0.213187 0.020448
Si Si7 0.424361 0.209963 0.237204
O O1 0.647564 0.273551 0.391133
O O2 0.524578 0.193477 0.412280
O O3 0.586977 0.288690 0.529337
O O4 0.618100 0.000000 0.467887
O O5 0.750000 0.271274 0.893157
O O6 0.634565 0.270847 0.816238
O O7 0.673749 0.000000 0.890311
O O8 0.629013 0.269715 0.959963
O O9 0.250000 0.266111 0.701958
O O10 0.376263 0.271216 0.752139
O O11 0.328335 0.000000 0.687000
O O12 0.589649 0.267891 0.103900
O O13 0.496467 0.270484 0.207075
O O14 0.570891 0.000000 0.187087
O O15 0.016945 0.500000 0.391899
O O16 0.079252 0.742409 0.322760
O O17 0.924615 0.000000 0.019123
O O18 0.000000 0.267318 0.000000
O O19 0.424973 0.000000 0.232824
#
# Coordination Sequence:
#
# PCOD9398599 Si02
#       7
#     8   8   8   8   8   8   8
#     4  10  18  32  53  75 101 132 164 198 250 305
#     4   9  17  27  42  68 101 133 168 211 256 303
#     4   9  17  28  44  70 102 131 162 200 242 293
#     4   9  15  24  42  68  96 131 168 201 240 294
#     4  11  21  32  50  76 101 124 165 216 252 287
#     4   9  14  22  38  64  99 134 163 196 247 302
#     4  10  17  30  50  71  98 134 171 204 249 301
#
# _framework density 20.085570000000001
#
# number of rings (size 3 to 8) (size 9 to 14) (size 15 to 20)
#    0.000    2.429    2.857    2.571    0.000    0.571 
#    0.000    3.571    0.000    6.429    0.000    2.000 
#    0.000    0.000    0.000    0.000    0.000    0.000 
#
# Total GULP energy -312546.640868 kJ/mol
# GULP energy per Si atom -5581.190016 kJ/mol
# Density = 2.003985 g / cm^3
# Si number density = 20.085570 Si / 1000 Ang^3
#
#
#
# Elastic Constant Matrix: (Units=GPa)
#
#
# Indices 1 2 3 4 5 6 
#
# 1 154.5041 4.8021 96.7139 0.0000 0.0000 0.0000
# 2 4.8021 40.4651 3.2360 0.0000 0.0000 0.0000
# 3 96.7139 3.2360 179.6702 0.0000 0.0000 0.0000
# 4 0.0000 0.0000 0.0000 -34.1484 0.0000 0.0000
# 5 0.0000 0.0000 0.0000 0.0000 30.3273 0.0000
# 6 0.0000 0.0000 0.0000 0.0000 0.0000 -18.6015
#
#
#
# Elastic Compliance Matrix: (Units=1/GPa)
#
#
# Indices 1 2 3 4 5 6 
#
# 1 0.009784 -0.000741 -0.005253 0.000000 0.000000 0.000000
# 2 -0.000741 0.024804 -0.000048 0.000000 0.000000 0.000000
# 3 -0.005253 -0.000048 0.008394 0.000000 0.000000 0.000000
# 4 0.000000 0.000000 0.000000 -0.029284 0.000000 0.000000
# 5 0.000000 0.000000 0.000000 0.000000 0.032974 0.000000
# 6 0.000000 0.000000 0.000000 0.000000 0.000000 -0.053759
#
#
# Mechanical properties :
#
#
# Convention : Reuss Voigt Hill
#
# Bulk Modulus (GPa) = 32.36406 64.90483 48.63445
# Shear Modulus (GPa) = 326.88322 13.50796 170.19559
#
# Velocity S-wave (km/s) = 12.77101 2.59611 9.21516
# Velocity P-wave (km/s) = 15.28440 6.43201 11.72569
#
# Compressibility (1/GPa) = 0.03089847
#
# Stress axis : x y z
#
# Youngs Moduli (GPa) = 102.21260 40.31542 119.12949
#
# Poissons Ratio (x) = 0.02987 0.62579
# Poissons Ratio (y) = 0.07573 0.00571
# Poissons Ratio (z) = 0.53692 0.00193
#
# Static dielectric constant tensor:
#      x y z
#    x 1.673100 0.000000 0.000000 
#    y 0.000000 1.723830 0.000000 
#    z 0.000000 0.000000 1.701470 
# 
# From -- ./inp_files/30395.got.cif
#   From: 2010.05.17/outbox.cif.g08.bks.cpg/sg51_16_cif.got.tgz:30395.got - 2010.06.03 11:52:47.
