data_PCOD9398630
_publ_section_title
;
Structure prediction by ZEFSAII (Michael W. Deem and Ramdas Pophale) SiO2 
 PCOD9398630
Probable space group: P M M A
;
_chemical_formula_sum "Si O2"
_cell_formula_units_Z 64
_cell_length_a 16.216324
_cell_length_b 21.275532
_cell_length_c 8.608005
_cell_angle_alpha 90.000000
_cell_angle_beta 90.000000
_cell_angle_gamma 90.000000
_cell_volume 2969.855726
_symmetry_space_group_name_H-M "P M M A"
_symmetry_group_IT_number 51
_symmetry_cell_setting 'orthorhombic'
loop_
_space_group_symop_operation_xyz
x,y,z
1/2-x,-y,z
1/2+x,-y,-z
-x,y,-z
-x,-y,-z
1/2+x,y,-z
1/2-x,y,z
x,-y,z
loop_
_atom_site_type_symbol
_atom_site_label
_atom_site_fract_x
_atom_site_fract_y
_atom_site_fract_z
Si Si1 0.409188 0.281384 0.935061
Si Si2 0.103200 0.072381 0.664319
Si Si3 0.594797 0.570424 0.549368
Si Si4 0.087395 0.891544 0.317697
Si Si5 0.843924 0.367529 0.837906
Si Si6 0.341021 0.766547 0.329975
Si Si7 0.659463 0.689750 0.367361
Si Si8 0.898856 0.138839 0.013639
O O1 0.409300 0.289363 0.751791
O O2 0.500000 0.281729 0.000000
O O3 0.368098 0.346988 0.990871
O O4 0.372195 0.212761 0.981129
O O5 0.127657 0.092864 0.486925
O O6 0.003004 0.078648 0.672605
O O7 0.126962 0.000000 0.681586
O O8 0.128807 0.110088 0.820395
O O9 0.500000 0.573696 0.500000
O O10 0.625980 0.500000 0.520668
O O11 0.602697 0.587070 0.731824
O O12 0.642503 0.624250 0.454413
O O13 0.086202 0.815756 0.312813
O O14 0.125749 0.900393 0.143321
O O15 0.750000 0.388967 0.827068
O O16 0.850977 0.298037 0.761935
O O17 0.250000 0.793852 0.291280
O O18 0.338499 0.743828 0.505334
O O19 0.750000 0.687905 0.291136
O O20 0.000000 0.138361 0.000000
#
# Coordination Sequence:
#
# PCOD9398630 Si02
#       8
#     8   8   8   8   8   8   8   8
#     4  11  20  34  54  84 120 148 188 239 305 360
#     4  10  21  33  50  78 109 144 189 239 294 359
#     4  10  21  39  60  85 115 153 198 239 284 341
#     4  10  17  32  51  74 105 142 182 230 292 350
#     4  10  20  35  56  83 115 150 186 234 290 347
#     4   9  18  33  52  77 107 139 183 231 286 350
#     4  10  21  36  56  83 116 156 193 239 298 354
#     4   9  19  31  49  78 111 144 183 235 295 364
#
# _framework density 21.549868
#
# number of rings (size 3 to 8) (size 9 to 14) (size 15 to 20)
#    0.000    2.125    1.250    3.750    0.000    4.750 
#    9.000    0.625    0.000    5.250    0.000    0.000 
#    0.000    0.000    0.000    0.000    0.000    0.000 
#
# Total GULP energy -356363.489176 kJ/mol
# GULP energy per Si atom -5568.179518 kJ/mol
# Density = 2.150082 g / cm^3
# Si number density = 21.549868 Si / 1000 Ang^3
#
#
#
# Elastic Constant Matrix: (Units=GPa)
#
#
# Indices 1 2 3 4 5 6 
#
# 1 22.7869 11.5900 -0.9125 0.0000 0.0000 0.0000
# 2 11.5900 66.3199 16.0355 0.0000 0.0000 0.0000
# 3 -0.9125 16.0355 116.5132 0.0000 0.0000 0.0000
# 4 0.0000 0.0000 0.0000 24.0462 0.0000 0.0000
# 5 0.0000 0.0000 0.0000 0.0000 19.7794 0.0000
# 6 0.0000 0.0000 0.0000 0.0000 0.0000 26.5686
#
#
#
# Elastic Compliance Matrix: (Units=1/GPa)
#
#
# Indices 1 2 3 4 5 6 
#
# 1 0.048452 -0.008854 0.001598 0.000000 0.000000 0.000000
# 2 -0.008854 0.017215 -0.002439 0.000000 0.000000 0.000000
# 3 0.001598 -0.002439 0.008931 0.000000 0.000000 0.000000
# 4 0.000000 0.000000 0.000000 0.041587 0.000000 0.000000
# 5 0.000000 0.000000 0.000000 0.000000 0.050558 0.000000
# 6 0.000000 0.000000 0.000000 0.000000 0.000000 0.037638
#
#
# Mechanical properties :
#
#
# Convention : Reuss Voigt Hill
#
# Bulk Modulus (GPa) = 18.11288 28.78289 23.44788
# Shear Modulus (GPa) = 20.64639 26.00598 23.32618
#
# Velocity S-wave (km/s) = 3.09864 3.47764 3.29360
# Velocity P-wave (km/s) = 4.60710 5.43238 5.03667
#
# Compressibility (1/GPa) = 0.05520934
#
# Stress axis : x y z
#
# Youngs Moduli (GPa) = 20.63895 58.08766 111.97122
#
# Poissons Ratio (x) = 0.51430 -0.17893
# Poissons Ratio (y) = 0.18273 0.27306
# Poissons Ratio (z) = -0.03298 0.14166
#
# Static dielectric constant tensor:
#      x y z
#    x 1.603220 0.000000 0.000000 
#    y 0.000000 1.754720 0.000000 
#    z 0.000000 0.000000 1.886100 
# 
# From -- ./inp_files/10088.got.cif
#   From: 2010.05.17/outbox.cif.g08.bks.cpg/sg51_6_cif.got.tgz:10088.got - 2010.06.03 11:52:47.
