data_PCOD9398934
_publ_section_title
;
Structure prediction by ZEFSAII (Michael W. Deem and Ramdas Pophale) SiO2 
 PCOD9398934
Probable space group: P M M A
;
_chemical_formula_sum "Si O2"
_cell_formula_units_Z 36
_cell_length_a 24.448897
_cell_length_b 11.553603
_cell_length_c 7.491814
_cell_angle_alpha 90.000000
_cell_angle_beta 90.000000
_cell_angle_gamma 90.000000
_cell_volume 2116.234050
_symmetry_space_group_name_H-M "P M M A"
_symmetry_group_IT_number 51
_symmetry_cell_setting 'orthorhombic'
loop_
_space_group_symop_operation_xyz
x,y,z
1/2-x,-y,z
1/2+x,-y,-z
-x,y,-z
-x,-y,-z
1/2+x,y,-z
1/2-x,y,z
x,-y,z
loop_
_atom_site_type_symbol
_atom_site_label
_atom_site_fract_x
_atom_site_fract_y
_atom_site_fract_z
Si Si1 0.367296 0.703756 0.181182
Si Si2 0.186049 0.863092 0.455517
Si Si3 0.689582 0.500000 0.649323
Si Si4 0.847050 0.500000 0.267346
Si Si5 0.688701 0.752680 0.162690
Si Si6 0.436542 0.500000 0.043030
O O1 0.358825 0.794478 0.339692
O O2 0.320005 0.610210 0.227162
O O3 0.353654 0.767602 0.997211
O O4 0.418124 0.616355 0.150428
O O5 0.250000 0.831075 0.411084
O O6 0.178348 0.827532 0.661449
O O7 0.181128 0.000000 0.431207
O O8 0.750000 0.500000 0.571154
O O9 0.647678 0.500000 0.482666
O O10 0.816105 0.381803 0.219779
O O11 0.900667 0.500000 0.140547
O O12 0.750000 0.778103 0.099088
O O13 0.500000 0.500000 0.000000
#
# Coordination Sequence:
#
# PCOD9398934 Si02
#       6
#     8   8   4   4   8   4
#     4  10  20  32  52  74 104 141 177 214 269 313
#     4  10  20  32  48  74 109 145 177 209 250 313
#     4  11  17  27  49  80 111 134 161 206 260 334
#     4  10  18  28  51  74 101 132 163 205 271 312
#     4  10  18  29  46  72 106 139 167 202 250 315
#     4   9  21  39  55  78 106 133 181 232 278 320
#
# _framework density 17.01135
#
# number of rings (size 3 to 8) (size 9 to 14) (size 15 to 20)
#    0.000    2.000    2.222    3.667    0.000    0.889 
#    0.000    4.444    0.000    0.667    0.000    6.222 
#    0.000    0.000    0.000    0.000    0.000    0.000 
#
# Total GULP energy -200474.846863 kJ/mol
# GULP energy per Si atom -5568.745746 kJ/mol
# Density = 1.697263 g / cm^3
# Si number density = 17.011350 Si / 1000 Ang^3
#
#
#
# Elastic Constant Matrix: (Units=GPa)
#
#
# Indices 1 2 3 4 5 6 
#
# 1 63.7005 16.8436 17.0290 0.0000 0.0000 0.0000
# 2 16.8436 57.1931 11.3187 0.0000 0.0000 0.0000
# 3 17.0290 11.3187 63.4633 0.0000 0.0000 0.0000
# 4 0.0000 0.0000 0.0000 -10.8629 0.0000 0.0000
# 5 0.0000 0.0000 0.0000 0.0000 12.8519 0.0000
# 6 0.0000 0.0000 0.0000 0.0000 0.0000 10.6066
#
#
#
# Elastic Compliance Matrix: (Units=1/GPa)
#
#
# Indices 1 2 3 4 5 6 
#
# 1 0.017961 -0.004494 -0.004018 0.000000 0.000000 0.000000
# 2 -0.004494 0.019249 -0.002227 0.000000 0.000000 0.000000
# 3 -0.004018 -0.002227 0.017232 0.000000 0.000000 0.000000
# 4 0.000000 0.000000 0.000000 -0.092056 0.000000 0.000000
# 5 0.000000 0.000000 0.000000 0.000000 0.077810 0.000000
# 6 0.000000 0.000000 0.000000 0.000000 0.000000 0.094281
#
#
# Mechanical properties :
#
#
# Convention : Reuss Voigt Hill
#
# Bulk Modulus (GPa) = 30.33644 30.52663 30.43153
# Shear Modulus (GPa) = 29.95016 11.79680 20.87348
#
# Velocity S-wave (km/s) = 4.20050 2.63623 3.50670
# Velocity P-wave (km/s) = 6.43408 5.22016 5.85865
#
# Compressibility (1/GPa) = 0.03296366
#
# Stress axis : x y z
#
# Youngs Moduli (GPa) = 55.67628 51.95076 58.03005
#
# Poissons Ratio (x) = 0.23349 0.23316
# Poissons Ratio (y) = 0.25023 0.12924
# Poissons Ratio (z) = 0.22370 0.11570
#
# Static dielectric constant tensor:
#      x y z
#    x 1.553110 0.000000 0.000000 
#    y 0.000000 1.584510 0.000000 
#    z 0.000000 0.000000 1.628040 
# 
# From -- ./inp_files/10579.got.cif
#   From: 2010.05.17/outbox.cif.g08.bks.cpg/sg51_6_cif.got.tgz:10579.got - 2010.06.03 11:52:47.
