data_PCOD9398016
_publ_section_title
;
Structure prediction by ZEFSAII (Michael W. Deem and Ramdas Pophale) SiO2 
 PCOD9398016
Probable space group: P B A N
;
_chemical_formula_sum "Si O2"
_cell_formula_units_Z 26
_cell_length_a 19.081232
_cell_length_b 7.256182
_cell_length_c 8.771416
_cell_angle_alpha 90.000000
_cell_angle_beta 90.000000
_cell_angle_gamma 90.000000
_cell_volume 1214.462999
_symmetry_space_group_name_H-M "P B A N"
_symmetry_group_IT_number 50
_space_group.IT_coordinate_system_code '2'
_symmetry_cell_setting 'orthorhombic'
loop_
_space_group_symop_operation_xyz
x,y,z
1/2-x,1/2-y,z
x,1/2-y,-z
1/2-x,y,-z
-x,-y,-z
1/2+x,1/2+y,-z
-x,1/2+y,z
1/2+x,-y,z
loop_
_atom_site_type_symbol
_atom_site_label
_atom_site_fract_x
_atom_site_fract_y
_atom_site_fract_z
Si Si1 0.909782 0.889392 0.675211
Si Si2 0.951530 0.253772 0.824997
Si Si3 0.358344 0.021373 0.346754
Si Si4 0.250000 0.750000 0.500000
O O1 0.848560 0.736923 0.692852
O O2 0.904179 0.964320 0.503210
O O3 0.981227 0.782156 0.716862
O O4 0.911512 0.066486 0.782432
O O5 0.900625 0.422312 0.786794
O O6 0.973856 0.250000 0.000000
O O7 0.295563 0.887913 0.395690
#
# Coordination Sequence:
#
# PCOD9398016 Si02
#       4
#     8   8   8   2
#     4  11  23  39  67 102 130 171 209 273 338 403
#     4  12  23  39  66 105 143 165 202 269 346 414
#     4  11  25  40  68  91 131 171 230 270 321 382
#     4  12  24  50  62  92 122 180 238 288 308 380
#
# _framework density 21.408636999999999
#
# number of rings (size 3 to 8) (size 9 to 14) (size 15 to 20)
#    0.000    0.615    6.154    1.846    4.308    2.462 
#    0.000    0.769    0.000    0.000   16.000    0.000 
#    0.000    0.000    0.000    0.000    0.000    0.000 
#
# Total GULP energy -145170.451611 kJ/mol
# GULP energy per Si atom -5583.478908 kJ/mol
# Density = 2.135991 g / cm^3
# Si number density = 21.408637 Si / 1000 Ang^3
#
#
#
# Elastic Constant Matrix: (Units=GPa)
#
#
# Indices 1 2 3 4 5 6 
#
# 1 41.8455 11.8065 29.5776 0.0000 0.0000 0.0000
# 2 11.8065 142.5288 27.2494 0.0000 0.0000 0.0000
# 3 29.5776 27.2494 81.9787 0.0000 0.0000 0.0000
# 4 0.0000 0.0000 0.0000 11.6801 0.0000 0.0000
# 5 0.0000 0.0000 0.0000 0.0000 5.3199 0.0000
# 6 0.0000 0.0000 0.0000 0.0000 0.0000 24.2388
#
#
#
# Elastic Compliance Matrix: (Units=1/GPa)
#
#
# Indices 1 2 3 4 5 6 
#
# 1 0.032108 -0.000475 -0.011427 0.000000 0.000000 0.000000
# 2 -0.000475 0.007499 -0.002321 0.000000 0.000000 0.000000
# 3 -0.011427 -0.002321 0.017093 0.000000 0.000000 0.000000
# 4 0.000000 0.000000 0.000000 0.085616 0.000000 0.000000
# 5 0.000000 0.000000 0.000000 0.000000 0.187972 0.000000
# 6 0.000000 0.000000 0.000000 0.000000 0.000000 0.041256
#
#
# Mechanical properties :
#
#
# Convention : Reuss Voigt Hill
#
# Bulk Modulus (GPa) = 35.39330 44.84669 40.11999
# Shear Modulus (GPa) = 12.21277 21.42908 16.82092
#
# Velocity S-wave (km/s) = 2.39102 3.16722 2.80609
# Velocity P-wave (km/s) = 4.91841 5.86246 5.41106
#
# Compressibility (1/GPa) = 0.02825394
#
# Stress axis : x y z
#
# Youngs Moduli (GPa) = 31.14484 133.34607 58.50511
#
# Poissons Ratio (x) = 0.06336 0.66851
# Poissons Ratio (y) = 0.01480 0.13581
# Poissons Ratio (z) = 0.35588 0.30954
#
# Static dielectric constant tensor:
#      x y z
#    x 1.801910 0.000000 0.000000 
#    y 0.000000 1.845680 0.000000 
#    z 0.000000 0.000000 1.733670 
# 
# From -- ./inp_files/8903.got.cif
#   From: 2010.05.17/outbox.cif.g08.bks.cpg/sg50_5_cif.got.tgz:8903.got - 2010.06.03 11:33:33.
