data_PCOD9398560
_publ_section_title
;
Structure prediction by ZEFSAII (Michael W. Deem and Ramdas Pophale) SiO2 
 PCOD9398560
Probable space group: P M M A
;
_chemical_formula_sum "Si O2"
_cell_formula_units_Z 64
_cell_length_a 8.425529
_cell_length_b 19.823344
_cell_length_c 24.333560
_cell_angle_alpha 90.000000
_cell_angle_beta 90.000000
_cell_angle_gamma 90.000000
_cell_volume 4064.243746
_symmetry_space_group_name_H-M "P M M A"
_symmetry_group_IT_number 51
_symmetry_cell_setting 'orthorhombic'
loop_
_space_group_symop_operation_xyz
x,y,z
1/2-x,-y,z
1/2+x,-y,-z
-x,y,-z
-x,-y,-z
1/2+x,y,-z
1/2-x,y,z
x,-y,z
loop_
_atom_site_type_symbol
_atom_site_label
_atom_site_fract_x
_atom_site_fract_y
_atom_site_fract_z
Si Si1 0.940224 0.786062 0.060459
Si Si2 0.056747 0.423833 0.226071
Si Si3 0.556692 0.074578 0.241019
Si Si4 0.059399 0.292786 0.164718
Si Si5 0.560330 0.422796 0.439352
Si Si6 0.439543 0.344180 0.335046
Si Si7 0.440057 0.217900 0.726474
Si Si8 0.056924 0.074666 0.887479
O O1 0.750000 0.786616 0.061077
O O2 0.998095 0.861285 0.077826
O O3 0.999376 0.734967 0.107065
O O4 0.000000 0.769138 0.000000
O O5 0.250000 0.425608 0.226912
O O6 0.999489 0.500000 0.218400
O O7 0.011461 0.369457 0.179781
O O8 0.005673 0.392488 0.284640
O O9 0.750000 0.074437 0.241986
O O10 0.504125 0.140189 0.274551
O O11 0.511995 0.082845 0.176701
O O12 0.503597 0.000000 0.259152
O O13 0.250000 0.288737 0.166833
O O14 0.991028 0.247427 0.214241
O O15 0.500000 0.404324 0.500000
O O16 0.750000 0.423235 0.439914
O O17 0.504349 0.500000 0.428016
O O18 0.502370 0.373160 0.391971
O O19 0.250000 0.345973 0.335661
O O20 0.492963 0.269014 0.318761
O O21 0.250000 0.219022 0.723275
O O22 0.250000 0.074755 0.888800
O O23 0.004024 0.000000 0.905944
#
# Coordination Sequence:
#
# PCOD9398560 Si02
#       8
#     8   8   8   8   8   8   8   8
#     4  11  21  33  48  65  85 113 145 183 224 270
#     4   8  15  28  47  69  90 114 144 180 224 269
#     4   8  13  23  42  66  89 117 153 188 227 277
#     4  10  19  31  47  67  90 114 143 181 226 280
#     4  10  20  33  49  70  98 134 173 208 240 277
#     4  10  19  30  46  70 100 132 163 197 233 275
#     4  10  17  28  47  69  93 123 156 194 236 275
#     4   8  14  26  44  64  85 112 146 181 219 265
#
# _framework density 15.747087000000001
#
# number of rings (size 3 to 8) (size 9 to 14) (size 15 to 20)
#    0.000    2.625    1.250    3.750    0.000    1.500 
#    0.000    0.000    0.000   11.250    0.000    0.000 
#    0.000    0.500    0.000    1.375    0.000    2.000 
#
# Total GULP energy -356690.399211 kJ/mol
# GULP energy per Si atom -5573.287488 kJ/mol
# Density = 1.571125 g / cm^3
# Si number density = 15.747087 Si / 1000 Ang^3
#
#
#
# Elastic Constant Matrix: (Units=GPa)
#
#
# Indices 1 2 3 4 5 6 
#
# 1 27.9995 18.2438 22.2524 0.0000 0.0000 0.0000
# 2 18.2438 136.6515 73.2219 0.0000 0.0000 0.0000
# 3 22.2524 73.2219 109.2124 0.0000 0.0000 0.0000
# 4 0.0000 0.0000 0.0000 24.7107 0.0000 0.0000
# 5 0.0000 0.0000 0.0000 0.0000 20.6291 0.0000
# 6 0.0000 0.0000 0.0000 0.0000 0.0000 9.7929
#
#
#
# Elastic Compliance Matrix: (Units=1/GPa)
#
#
# Indices 1 2 3 4 5 6 
#
# 1 0.042846 -0.001627 -0.007639 0.000000 0.000000 0.000000
# 2 -0.001627 0.011483 -0.007367 0.000000 0.000000 0.000000
# 3 -0.007639 -0.007367 0.015652 0.000000 0.000000 0.000000
# 4 0.000000 0.000000 0.000000 0.040468 0.000000 0.000000
# 5 0.000000 0.000000 0.000000 0.000000 0.048475 0.000000
# 6 0.000000 0.000000 0.000000 0.000000 0.000000 0.102115
#
#
# Mechanical properties :
#
#
# Convention : Reuss Voigt Hill
#
# Bulk Modulus (GPa) = 27.23712 55.69996 41.46854
# Shear Modulus (GPa) = 16.31085 21.70290 19.00687
#
# Velocity S-wave (km/s) = 3.22188 3.71646 3.47797
# Velocity P-wave (km/s) = 5.58344 7.33924 6.52071
#
# Compressibility (1/GPa) = 0.03671460
#
# Stress axis : x y z
#
# Youngs Moduli (GPa) = 23.33926 87.08853 63.88840
#
# Poissons Ratio (x) = 0.14168 0.48807
# Poissons Ratio (y) = 0.03797 0.47067
# Poissons Ratio (z) = 0.17830 0.64159
#
# Static dielectric constant tensor:
#      x y z
#    x 1.542090 0.000000 0.000000 
#    y 0.000000 1.557700 0.000000 
#    z 0.000000 0.000000 1.483920 
# 
# From -- ./inp_files/32585.got.cif
#   From: 2010.05.17/outbox.cif.g08.bks.cpg/sg51_17_cif.got.tgz:32585.got - 2010.06.03 11:52:47.
