data_PCOD9398648
_publ_section_title
;
Structure prediction by ZEFSAII (Michael W. Deem and Ramdas Pophale) SiO2 
 PCOD9398648
Probable space group: P M M A
;
_chemical_formula_sum "Si O2"
_cell_formula_units_Z 56
_cell_length_a 18.212013
_cell_length_b 9.095142
_cell_length_c 22.748379
_cell_angle_alpha 90.000000
_cell_angle_beta 90.000000
_cell_angle_gamma 90.000000
_cell_volume 3768.060705
_symmetry_space_group_name_H-M "P M M A"
_symmetry_group_IT_number 51
_symmetry_cell_setting 'orthorhombic'
loop_
_space_group_symop_operation_xyz
x,y,z
1/2-x,-y,z
1/2+x,-y,-z
-x,y,-z
-x,-y,-z
1/2+x,y,-z
1/2-x,y,z
x,-y,z
loop_
_atom_site_type_symbol
_atom_site_label
_atom_site_fract_x
_atom_site_fract_y
_atom_site_fract_z
Si Si1 0.250000 0.678233 0.189568
Si Si2 0.333385 0.174982 0.538353
Si Si3 0.332720 0.174591 0.975000
Si Si4 0.978367 0.669351 0.430658
Si Si5 0.469737 0.330416 0.932641
Si Si6 0.750000 0.677351 0.674883
Si Si7 0.375488 0.825512 0.401475
Si Si8 0.626354 0.321764 0.901360
O O1 0.250000 0.500000 0.189958
O O2 0.250000 0.724866 0.256958
O O3 0.178355 0.722890 0.152283
O O4 0.250000 0.219665 0.552710
O O5 0.397708 0.260048 0.572011
O O6 0.346502 0.197822 0.468390
O O7 0.340808 0.000000 0.548473
O O8 0.250000 0.206680 0.954470
O O9 0.396609 0.234920 0.932948
O O10 0.340668 0.000000 0.982222
O O11 0.343974 0.251174 0.038452
O O12 0.978750 0.500000 0.411459
O O13 0.000000 0.672091 0.500000
O O14 0.042118 0.762017 0.399280
O O15 0.452284 0.500000 0.919231
O O16 0.540447 0.281781 0.895224
O O17 0.500000 0.326199 0.000000
O O18 0.750000 0.500000 0.671613
O O19 0.678956 0.741574 0.641952
O O20 0.374362 0.000000 0.390573
O O21 0.629094 0.500000 0.907784
#
# Coordination Sequence:
#
# PCOD9398648 Si02
#       8
#     4   8   8   8   8   4   8   8
#     4   9  18  31  47  63  81 109 143 181 220 251
#     4   9  16  27  42  61  85 116 148 172 204 254
#     4  10  18  25  36  58  85 111 137 165 203 248
#     4   9  17  27  40  62  85 109 141 178 216 252
#     4   8  15  25  39  58  76 102 139 170 200 244
#     4  11  21  31  45  65  85 109 145 185 222 257
#     4  10  18  31  45  58  81 116 148 177 213 253
#     4   9  16  29  45  57  75 107 143 174 207 249
#
# _framework density 14.861756
#
# number of rings (size 3 to 8) (size 9 to 14) (size 15 to 20)
#    0.000    2.714    1.429    2.357    0.000    6.000 
#    0.000    1.429    0.000    0.000    0.000    0.000 
#    0.000    1.143    0.000   10.571    0.000    3.571 
#
# Total GULP energy -311859.898692 kJ/mol
# GULP energy per Si atom -5568.926762 kJ/mol
# Density = 1.482793 g / cm^3
# Si number density = 14.861756 Si / 1000 Ang^3
#
#
#
# Elastic Constant Matrix: (Units=GPa)
#
#
# Indices 1 2 3 4 5 6 
#
# 1 162.7724 64.2939 42.2513 0.0000 0.0000 0.0000
# 2 64.2939 55.7044 24.8021 0.0000 0.0000 0.0000
# 3 42.2513 24.8021 44.4206 0.0000 0.0000 0.0000
# 4 0.0000 0.0000 0.0000 8.6658 0.0000 0.0000
# 5 0.0000 0.0000 0.0000 0.0000 9.3094 0.0000
# 6 0.0000 0.0000 0.0000 0.0000 0.0000 24.3934
#
#
#
# Elastic Compliance Matrix: (Units=1/GPa)
#
#
# Indices 1 2 3 4 5 6 
#
# 1 0.012048 -0.011716 -0.004918 0.000000 0.000000 0.000000
# 2 -0.011716 0.035284 -0.008557 0.000000 0.000000 0.000000
# 3 -0.004918 -0.008557 0.031968 0.000000 0.000000 0.000000
# 4 0.000000 0.000000 0.000000 0.115396 0.000000 0.000000
# 5 0.000000 0.000000 0.000000 0.000000 0.107418 0.000000
# 6 0.000000 0.000000 0.000000 0.000000 0.000000 0.040995
#
#
# Mechanical properties :
#
#
# Convention : Reuss Voigt Hill
#
# Bulk Modulus (GPa) = 34.58064 58.39911 46.48988
# Shear Modulus (GPa) = 12.40297 17.24374 14.82335
#
# Velocity S-wave (km/s) = 2.89200 3.40998 3.16162
# Velocity P-wave (km/s) = 5.87114 7.40838 6.68410
#
# Compressibility (1/GPa) = 0.02891791
#
# Stress axis : x y z
#
# Youngs Moduli (GPa) = 83.00291 28.34120 31.28155
#
# Poissons Ratio (x) = 0.33204 0.15384
# Poissons Ratio (y) = 0.97245 0.26768
# Poissons Ratio (z) = 0.40820 0.24252
#
# Static dielectric constant tensor:
#      x y z
#    x 1.518480 0.000000 0.000000 
#    y 0.000000 1.495880 0.000000 
#    z 0.000000 0.000000 1.457180 
# 
# From -- ./inp_files/34037.got.cif
#   From: 2010.05.17/outbox.cif.g08.bks.cpg/sg51_18_cif.got.tgz:34037.got - 2010.06.03 11:52:47.
