data_PCOD9398544
_publ_section_title
;
Structure prediction by ZEFSAII (Michael W. Deem and Ramdas Pophale) SiO2 
 PCOD9398544
Probable space group: P M M A
;
_chemical_formula_sum "Si O2"
_cell_formula_units_Z 56
_cell_length_a 18.427341
_cell_length_b 8.851287
_cell_length_c 22.718538
_cell_angle_alpha 90.000000
_cell_angle_beta 90.000000
_cell_angle_gamma 90.000000
_cell_volume 3705.522676
_symmetry_space_group_name_H-M "P M M A"
_symmetry_group_IT_number 51
_symmetry_cell_setting 'orthorhombic'
loop_
_space_group_symop_operation_xyz
x,y,z
1/2-x,-y,z
1/2+x,-y,-z
-x,y,-z
-x,-y,-z
1/2+x,y,-z
1/2-x,y,z
x,-y,z
loop_
_atom_site_type_symbol
_atom_site_label
_atom_site_fract_x
_atom_site_fract_y
_atom_site_fract_z
Si Si1 0.250000 0.818051 0.178738
Si Si2 0.330816 0.317368 0.530340
Si Si3 0.331379 0.182175 0.968962
Si Si4 0.018835 0.674978 0.570012
Si Si5 0.482860 0.174661 0.929754
Si Si6 0.750000 0.816380 0.685865
Si Si7 0.372812 0.819496 0.404339
Si Si8 0.629585 0.320605 0.904270
O O1 0.250000 0.767720 0.246664
O O2 0.179773 0.755734 0.144715
O O3 0.250000 0.000000 0.175940
O O4 0.250000 0.277653 0.550824
O O5 0.335790 0.500000 0.525538
O O6 0.398115 0.269440 0.571444
O O7 0.343159 0.250170 0.465345
O O8 0.250000 0.215735 0.947691
O O9 0.398939 0.225153 0.927189
O O10 0.337119 0.000000 0.977515
O O11 0.343101 0.259470 0.032264
O O12 0.014965 0.500000 0.588419
O O13 0.000000 0.679545 0.500000
O O14 0.956015 0.767577 0.601687
O O15 0.545322 0.272048 0.899639
O O16 0.489247 0.000000 0.910761
O O17 0.500000 0.178210 0.000000
O O18 0.679197 0.769406 0.648767
O O19 0.750000 0.000000 0.686453
O O20 0.369416 0.000000 0.409007
O O21 0.637102 0.500000 0.902374
#
# Coordination Sequence:
#
# PCOD9398544 Si02
#       8
#     4   8   8   8   8   4   8   8
#     4  11  21  35  49  57  75 111 149 181 216 257
#     4   9  16  26  40  58  82 113 142 165 194 238
#     4   9  16  27  44  63  85 116 147 170 197 243
#     4   8  15  26  38  56  80 107 139 165 194 243
#     4   8  15  27  42  60  81 112 147 168 196 248
#     4   9  20  33  45  61  79 105 143 183 216 251
#     4  10  17  28  42  58  80 104 135 174 213 248
#     4  11  20  29  41  61  85 108 138 179 219 249
#
# _framework density 15.112577
#
# number of rings (size 3 to 8) (size 9 to 14) (size 15 to 20)
#    0.000    2.714    1.429    3.643    0.000    5.143 
#    0.000    2.857    0.000    0.000    0.000    0.000 
#    0.000    1.143    0.000    5.429    0.000    3.143 
#
# Total GULP energy -311776.166642 kJ/mol
# GULP energy per Si atom -5567.431547 kJ/mol
# Density = 1.507818 g / cm^3
# Si number density = 15.112577 Si / 1000 Ang^3
#
#
#
# Elastic Constant Matrix: (Units=GPa)
#
#
# Indices 1 2 3 4 5 6 
#
# 1 167.3609 36.7979 41.0193 0.0000 0.0000 0.0000
# 2 36.7979 37.1292 20.6499 0.0000 0.0000 0.0000
# 3 41.0193 20.6499 46.3173 0.0000 0.0000 0.0000
# 4 0.0000 0.0000 0.0000 -4.9309 0.0000 0.0000
# 5 0.0000 0.0000 0.0000 0.0000 11.9479 0.0000
# 6 0.0000 0.0000 0.0000 0.0000 0.0000 14.7430
#
#
#
# Elastic Compliance Matrix: (Units=1/GPa)
#
#
# Indices 1 2 3 4 5 6 
#
# 1 0.008420 -0.005582 -0.004968 0.000000 0.000000 0.000000
# 2 -0.005582 0.039513 -0.012673 0.000000 0.000000 0.000000
# 3 -0.004968 -0.012673 0.031640 0.000000 0.000000 0.000000
# 4 0.000000 0.000000 0.000000 -0.202801 0.000000 0.000000
# 5 0.000000 0.000000 0.000000 0.000000 0.083697 0.000000
# 6 0.000000 0.000000 0.000000 0.000000 0.000000 0.067829
#
#
# Mechanical properties :
#
#
# Convention : Reuss Voigt Hill
#
# Bulk Modulus (GPa) = 30.18670 49.74907 39.96788
# Shear Modulus (GPa) = 58.28331 14.50800 36.39566
#
# Velocity S-wave (km/s) = 6.21690 3.10174 4.91277
# Velocity P-wave (km/s) = 8.45878 6.76891 7.66059
#
# Compressibility (1/GPa) = 0.03312717
#
# Stress axis : x y z
#
# Youngs Moduli (GPa) = 118.76332 25.30798 31.60506
#
# Poissons Ratio (x) = 0.14126 0.15703
# Poissons Ratio (y) = 0.66290 0.40054
# Poissons Ratio (z) = 0.59007 0.32073
#
# Static dielectric constant tensor:
#      x y z
#    x 1.569970 0.000000 0.000000 
#    y 0.000000 1.504940 0.000000 
#    z 0.000000 0.000000 1.454830 
# 
# From -- ./inp_files/34039.got.cif
#   From: 2010.05.17/outbox.cif.g08.bks.cpg/sg51_18_cif.got.tgz:34039.got - 2010.06.03 11:52:47.
