data_PCOD9398242
_publ_section_title
;
Structure prediction by ZEFSAII (Michael W. Deem and Ramdas Pophale) SiO2 
 PCOD9398242
Probable space group: P B A N
;
_chemical_formula_sum "Si O2"
_cell_formula_units_Z 32
_cell_length_a 5.102890
_cell_length_b 26.273487
_cell_length_c 11.227211
_cell_angle_alpha 90.000000
_cell_angle_beta 90.000000
_cell_angle_gamma 90.000000
_cell_volume 1505.240196
_symmetry_space_group_name_H-M "P B A N"
_symmetry_group_IT_number 50
_space_group.IT_coordinate_system_code '2'
_symmetry_cell_setting 'orthorhombic'
loop_
_space_group_symop_operation_xyz
x,y,z
1/2-x,1/2-y,z
x,1/2-y,-z
1/2-x,y,-z
-x,-y,-z
1/2+x,1/2+y,-z
-x,1/2+y,z
1/2+x,-y,z
loop_
_atom_site_type_symbol
_atom_site_label
_atom_site_fract_x
_atom_site_fract_y
_atom_site_fract_z
Si Si1 0.320840 0.191256 0.753822
Si Si2 0.180999 0.858323 0.138259
Si Si3 0.250000 0.568322 0.500000
Si Si4 0.250000 0.140652 0.500000
Si Si5 0.688719 0.469650 0.237414
O O1 0.250000 0.250000 0.769476
O O2 0.615004 0.178083 0.792874
O O3 0.288542 0.174242 0.617194
O O4 0.113567 0.158337 0.830601
O O5 0.235963 0.915442 0.183154
O O6 0.250000 0.854591 0.000000
O O7 0.500335 0.604404 0.481564
O O8 0.297253 0.536454 0.619358
O O9 0.401502 0.488161 0.202085
#
# Coordination Sequence:
#
# PCOD9398242 Si02
#       5
#     8   8   4   4   8
#     4  12  25  45  72 101 134 175 221 276 338 397
#     4  12  27  47  68  97 137 180 227 275 322 392
#     4  12  22  41  69  97 138 173 213 277 340 394
#     4  12  21  43  70  99 136 173 210 277 345 394
#     4  12  24  42  68  99 131 176 222 273 336 392
#
# _framework density 21.259066000000001
#
# number of rings (size 3 to 8) (size 9 to 14) (size 15 to 20)
#    0.000    0.000    5.000    5.625    0.000    4.000 
#    0.000    3.750    0.000    0.000    0.000    0.000 
#    0.000    0.000    0.000    0.000    0.000    0.000 
#
# Total GULP energy -179359.097728 kJ/mol
# GULP energy per Si atom -5604.971804 kJ/mol
# Density = 2.121068 g / cm^3
# Si number density = 21.259066 Si / 1000 Ang^3
#
#
#
# Elastic Constant Matrix: (Units=GPa)
#
#
# Indices 1 2 3 4 5 6 
#
# 1 50.3224 -14.9279 -11.2012 0.0000 0.0000 0.0000
# 2 -14.9279 74.6963 -13.3302 0.0000 0.0000 0.0000
# 3 -11.2012 -13.3302 84.7630 0.0000 0.0000 0.0000
# 4 0.0000 0.0000 0.0000 -7.6749 0.0000 0.0000
# 5 0.0000 0.0000 0.0000 0.0000 16.4565 0.0000
# 6 0.0000 0.0000 0.0000 0.0000 0.0000 25.8192
#
#
#
# Elastic Compliance Matrix: (Units=1/GPa)
#
#
# Indices 1 2 3 4 5 6 
#
# 1 0.022219 0.005108 0.003740 0.000000 0.000000 0.000000
# 2 0.005108 0.014948 0.003026 0.000000 0.000000 0.000000
# 3 0.003740 0.003026 0.012768 0.000000 0.000000 0.000000
# 4 0.000000 0.000000 0.000000 -0.130296 0.000000 0.000000
# 5 0.000000 0.000000 0.000000 0.000000 0.060766 0.000000
# 6 0.000000 0.000000 0.000000 0.000000 0.000000 0.038731
#
#
# Mechanical properties :
#
#
# Convention : Reuss Voigt Hill
#
# Bulk Modulus (GPa) = 13.57187 14.54035 14.05611
# Shear Modulus (GPa) = 250.61248 23.53624 137.07436
#
# Velocity S-wave (km/s) = 10.86926 3.33094 8.03854
# Velocity P-wave (km/s) = 12.80309 4.65274 9.63242
#
# Compressibility (1/GPa) = 0.07368182
#
# Stress axis : x y z
#
# Youngs Moduli (GPa) = 45.00559 66.89712 78.32316
#
# Poissons Ratio (x) = -0.34170 -0.29289
# Poissons Ratio (y) = -0.22988 -0.23699
# Poissons Ratio (z) = -0.16830 -0.20242
#
# Static dielectric constant tensor:
#      x y z
#    x 1.731320 0.000000 0.000000 
#    y 0.000000 1.728410 0.000000 
#    z 0.000000 0.000000 1.746610 
# 
# From -- ./inp_files/17581.got.cif
#   From: 2010.05.17/outbox.cif.g08.bks.cpg/sg50_9_cif.got.tgz:17581.got - 2010.06.03 11:33:33.
