data_PCOD9398188
_publ_section_title
;
Structure prediction by ZEFSAII (Michael W. Deem and Ramdas Pophale) SiO2 
 PCOD9398188
Probable space group: P B A N
;
_chemical_formula_sum "Si O2"
_cell_formula_units_Z 34
_cell_length_a 10.748275
_cell_length_b 10.250327
_cell_length_c 14.166176
_cell_angle_alpha 90.000000
_cell_angle_beta 90.000000
_cell_angle_gamma 90.000000
_cell_volume 1560.734832
_symmetry_space_group_name_H-M "P B A N"
_symmetry_group_IT_number 50
_space_group.IT_coordinate_system_code '2'
_symmetry_cell_setting 'orthorhombic'
loop_
_space_group_symop_operation_xyz
x,y,z
1/2-x,1/2-y,z
x,1/2-y,-z
1/2-x,y,-z
-x,-y,-z
1/2+x,1/2+y,-z
-x,1/2+y,z
1/2+x,-y,z
loop_
_atom_site_type_symbol
_atom_site_label
_atom_site_fract_x
_atom_site_fract_y
_atom_site_fract_z
Si Si1 0.909948 0.424610 0.148439
Si Si2 0.475374 0.250000 0.500000
Si Si3 0.111799 0.278989 0.889230
Si Si4 0.750000 0.250000 0.000000
Si Si5 0.827962 0.129223 0.650616
Si Si6 0.250000 0.445232 0.500000
O O1 0.933495 0.572156 0.116257
O O2 0.824689 0.347640 0.071178
O O3 0.865293 0.444436 0.255445
O O4 0.024344 0.326451 0.158563
O O5 0.564017 0.311231 0.581935
O O6 0.374625 0.363733 0.476966
O O7 0.250000 0.250000 0.852754
O O8 0.112120 0.250000 0.000000
O O9 0.750000 0.250000 0.687720
O O10 0.736696 0.040292 0.588487
#
# Coordination Sequence:
#
# PCOD9398188 Si02
#       6
#     8   4   8   2   8   4
#     4  12  28  44  76 106 148 191 251 305 364 438
#     4  11  25  46  72 104 139 191 228 296 368 433
#     4  11  26  48  73 105 147 195 246 303 367 433
#     4  12  24  48  72 102 148 204 242 302 372 426
#     4  12  25  45  72 105 139 189 239 298 360 437
#     4  11  25  46  74 100 149 181 236 296 368 429
#
# _framework density 21.784611999999999
#
# number of rings (size 3 to 8) (size 9 to 14) (size 15 to 20)
#    0.000    0.471    4.706    2.824    6.588    1.882 
#    0.000    0.000    0.000    0.000    0.000    0.000 
#    0.000    0.000    0.000    0.000    0.000    0.000 
#
# Total GULP energy -189703.321106 kJ/mol
# GULP energy per Si atom -5579.509444 kJ/mol
# Density = 2.173503 g / cm^3
# Si number density = 21.784612 Si / 1000 Ang^3
#
#
#
# Elastic Constant Matrix: (Units=GPa)
#
#
# Indices 1 2 3 4 5 6 
#
# 1 42.5083 14.9997 1.5842 0.0000 0.0000 0.0000
# 2 14.9997 155.8433 18.4460 0.0000 0.0000 0.0000
# 3 1.5842 18.4460 101.8953 0.0000 0.0000 0.0000
# 4 0.0000 0.0000 0.0000 -90.7196 0.0000 0.0000
# 5 0.0000 0.0000 0.0000 0.0000 8.1897 0.0000
# 6 0.0000 0.0000 0.0000 0.0000 0.0000 18.2067
#
#
#
# Elastic Compliance Matrix: (Units=1/GPa)
#
#
# Indices 1 2 3 4 5 6 
#
# 1 0.024352 -0.002349 0.000047 0.000000 0.000000 0.000000
# 2 -0.002349 0.006784 -0.001192 0.000000 0.000000 0.000000
# 3 0.000047 -0.001192 0.010029 0.000000 0.000000 0.000000
# 4 0.000000 0.000000 0.000000 -0.011023 0.000000 0.000000
# 5 0.000000 0.000000 0.000000 0.000000 0.122104 0.000000
# 6 0.000000 0.000000 0.000000 0.000000 0.000000 0.054925
#
#
# Mechanical properties :
#
#
# Convention : Reuss Voigt Hill
#
# Bulk Modulus (GPa) = 29.25993 41.14521 35.20257
# Shear Modulus (GPa) = 22.16790 4.81649 13.49220
#
# Velocity S-wave (km/s) = 3.19344 1.48854 2.49136
# Velocity P-wave (km/s) = 5.20173 4.67789 4.94675
#
# Compressibility (1/GPa) = 0.03417644
#
# Stress axis : x y z
#
# Youngs Moduli (GPa) = 41.06425 147.40864 99.71106
#
# Poissons Ratio (x) = 0.34632 -0.00466
# Poissons Ratio (y) = 0.09648 0.11881
# Poissons Ratio (z) = -0.00192 0.17565
#
# Static dielectric constant tensor:
#      x y z
#    x 1.895080 0.000000 0.000000 
#    y 0.000000 1.199160 0.000000 
#    z 0.000000 0.000000 1.767570 
# 
# From -- ./inp_files/25691.got.cif
#   From: 2010.05.17/outbox.cif.g08.bks.cpg/sg50_13_cif.got.tgz:25691.got - 2010.06.03 11:33:33.
