data_PCOD9398902
_publ_section_title
;
Structure prediction by ZEFSAII (Michael W. Deem and Ramdas Pophale) SiO2 
 PCOD9398902
Probable space group: P M M A
;
_chemical_formula_sum "Si O2"
_cell_formula_units_Z 48
_cell_length_a 19.679497
_cell_length_b 9.463734
_cell_length_c 15.593855
_cell_angle_alpha 90.000000
_cell_angle_beta 90.000000
_cell_angle_gamma 90.000000
_cell_volume 2904.223334
_symmetry_space_group_name_H-M "P M M A"
_symmetry_group_IT_number 51
_symmetry_cell_setting 'orthorhombic'
loop_
_space_group_symop_operation_xyz
x,y,z
1/2-x,-y,z
1/2+x,-y,-z
-x,y,-z
-x,-y,-z
1/2+x,y,-z
1/2-x,y,z
x,-y,z
loop_
_atom_site_type_symbol
_atom_site_label
_atom_site_fract_x
_atom_site_fract_y
_atom_site_fract_z
Si Si1 0.170011 0.666207 0.076899
Si Si2 0.886673 0.335512 0.741081
Si Si3 0.906218 0.836287 0.577435
Si Si4 0.572119 0.833298 0.048753
Si Si5 0.451267 0.665792 0.776497
Si Si6 0.430677 0.165154 0.610816
O O1 0.250000 0.675441 0.061099
O O2 0.149375 0.500000 0.069833
O O3 0.153364 0.711688 0.174380
O O4 0.127964 0.760143 0.011124
O O5 0.871521 0.500000 0.726492
O O6 0.873272 0.251051 0.654040
O O7 0.966932 0.323416 0.763776
O O8 0.896694 0.788644 0.478989
O O9 0.987786 0.830546 0.594108
O O10 0.886200 0.000000 0.582581
O O11 0.567887 0.751961 0.138802
O O12 0.585004 0.000000 0.061224
O O13 0.500000 0.818722 0.000000
O O14 0.434581 0.500000 0.784029
O O15 0.418072 0.737143 0.692567
O O16 0.413892 0.000000 0.626911
#
# Coordination Sequence:
#
# PCOD9398902 Si02
#       6
#     8   8   8   8   8   8
#     4  10  21  37  54  72  99 134 169 208 254 302
#     4   9  17  28  44  68  95 125 161 201 242 291
#     4   8  14  24  40  61  90 128 159 189 235 288
#     4  11  22  34  51  74  99 131 169 211 257 305
#     4  10  18  28  46  70  97 128 163 204 250 299
#     4   8  14  25  39  61  94 126 158 195 238 288
#
# _framework density 16.527654999999999
#
# number of rings (size 3 to 8) (size 9 to 14) (size 15 to 20)
#    0.000    2.667    1.667    2.000    0.000    3.000 
#    0.000    3.333    0.000    0.000    0.000    1.167 
#    0.000    4.000    0.000    0.000    0.000    0.000 
#
# Total GULP energy -267443.986384 kJ/mol
# GULP energy per Si atom -5571.749716 kJ/mol
# Density = 1.649004 g / cm^3
# Si number density = 16.527655 Si / 1000 Ang^3
#
#
#
# Elastic Constant Matrix: (Units=GPa)
#
#
# Indices 1 2 3 4 5 6 
#
# 1 23.4813 30.6535 28.9049 0.0000 0.0000 0.0000
# 2 30.6535 106.7851 104.9452 0.0000 0.0000 0.0000
# 3 28.9049 104.9452 175.5431 0.0000 0.0000 0.0000
# 4 0.0000 0.0000 0.0000 37.0523 0.0000 0.0000
# 5 0.0000 0.0000 0.0000 0.0000 9.4392 0.0000
# 6 0.0000 0.0000 0.0000 0.0000 0.0000 9.6685
#
#
#
# Elastic Compliance Matrix: (Units=1/GPa)
#
#
# Indices 1 2 3 4 5 6 
#
# 1 0.068206 -0.020709 0.001150 0.000000 0.000000 0.000000
# 2 -0.020709 0.028991 -0.013922 0.000000 0.000000 0.000000
# 3 0.001150 -0.013922 0.013830 0.000000 0.000000 0.000000
# 4 0.000000 0.000000 0.000000 0.026989 0.000000 0.000000
# 5 0.000000 0.000000 0.000000 0.000000 0.105941 0.000000
# 6 0.000000 0.000000 0.000000 0.000000 0.000000 0.103428
#
#
# Mechanical properties :
#
#
# Convention : Reuss Voigt Hill
#
# Bulk Modulus (GPa) = 22.69355 70.53518 46.61437
# Shear Modulus (GPa) = 11.65399 20.65240 16.15320
#
# Velocity S-wave (km/s) = 2.65829 3.53876 3.12964
# Velocity P-wave (km/s) = 4.81482 7.71147 6.42842
#
# Compressibility (1/GPa) = 0.04406538
#
# Stress axis : x y z
#
# Youngs Moduli (GPa) = 14.66136 34.49289 72.30480
#
# Poissons Ratio (x) = 0.71432 -0.08313
# Poissons Ratio (y) = 0.30362 1.00663
# Poissons Ratio (z) = -0.01686 0.48021
#
# Static dielectric constant tensor:
#      x y z
#    x 1.535270 0.000000 0.000000 
#    y 0.000000 1.552570 0.000000 
#    z 0.000000 0.000000 1.560050 
# 
# From -- ./inp_files/25452.got.cif
#   From: 2010.05.17/outbox.cif.g08.bks.cpg/sg51_13_cif.got.tgz:25452.got - 2010.06.03 11:52:47.
