data_PCOD9398561
_publ_section_title
;
Structure prediction by ZEFSAII (Michael W. Deem and Ramdas Pophale) SiO2 
 PCOD9398561
Probable space group: P M M A
;
_chemical_formula_sum "Si O2"
_cell_formula_units_Z 48
_cell_length_a 24.372927
_cell_length_b 12.128886
_cell_length_c 10.287046
_cell_angle_alpha 90.000000
_cell_angle_beta 90.000000
_cell_angle_gamma 90.000000
_cell_volume 3041.020051
_symmetry_space_group_name_H-M "P M M A"
_symmetry_group_IT_number 51
_symmetry_cell_setting 'orthorhombic'
loop_
_space_group_symop_operation_xyz
x,y,z
1/2-x,-y,z
1/2+x,-y,-z
-x,y,-z
-x,-y,-z
1/2+x,y,-z
1/2-x,y,z
x,-y,z
loop_
_atom_site_type_symbol
_atom_site_label
_atom_site_fract_x
_atom_site_fract_y
_atom_site_fract_z
Si Si1 0.041789 0.625938 0.879635
Si Si2 0.357667 0.236966 0.975813
Si Si3 0.358853 0.238414 0.291622
Si Si4 0.465552 0.629684 0.369287
Si Si5 0.250000 0.374833 0.977566
Si Si6 0.186098 0.000000 0.293093
Si Si7 0.813451 0.000000 0.022444
Si Si8 0.750000 0.625545 0.707216
O O1 0.063731 0.500000 0.873600
O O2 0.006686 0.647500 0.751066
O O3 0.090005 0.711233 0.906651
O O4 0.000000 0.630603 0.000000
O O5 0.364746 0.243177 0.133437
O O6 0.304389 0.309005 0.940671
O O7 0.344483 0.111238 0.939655
O O8 0.412832 0.292554 0.352928
O O9 0.305102 0.309420 0.328536
O O10 0.345347 0.112213 0.329212
O O11 0.500000 0.647969 0.500000
O O12 0.448363 0.500000 0.365092
O O13 0.250000 0.500000 0.929918
O O14 0.250000 0.377633 0.135171
O O15 0.188750 0.000000 0.135318
O O16 0.250000 0.000000 0.337318
O O17 0.750000 0.000000 0.066899
O O18 0.750000 0.500000 0.659593
#
# Coordination Sequence:
#
# PCOD9398561 Si02
#       8
#     8   8   8   8   4   4   4   4
#     4  10  19  32  51  74 102 133 166 207 250 295
#     4  10  17  28  47  73 102 134 170 205 255 302
#     4  10  17  29  48  73 103 132 169 208 251 303
#     4  10  21  36  53  73 102 140 173 206 255 306
#     4   9  16  23  39  70 102 126 158 208 259 304
#     4   9  16  28  46  73 105 136 163 204 263 301
#     4   9  16  28  44  70 107 141 161 202 259 309
#     4   9  16  23  41  72 100 124 158 212 259 294
#
# _framework density 15.784178000000001
#
# number of rings (size 3 to 8) (size 9 to 14) (size 15 to 20)
#    0.000    2.333    3.333    1.000    0.000    1.333 
#    0.000    1.667    0.000    1.000    0.000    5.833 
#    0.000    0.000    0.000    0.000    0.000    0.000 
#
# Total GULP energy -267506.739946 kJ/mol
# GULP energy per Si atom -5573.057082 kJ/mol
# Density = 1.574825 g / cm^3
# Si number density = 15.784178 Si / 1000 Ang^3
#
#
#
# Elastic Constant Matrix: (Units=GPa)
#
#
# Indices 1 2 3 4 5 6 
#
# 1 135.1251 106.3819 37.6036 0.0000 0.0000 0.0000
# 2 106.3819 174.7322 32.4528 0.0000 0.0000 0.0000
# 3 37.6036 32.4528 54.6304 0.0000 0.0000 0.0000
# 4 0.0000 0.0000 0.0000 12.8530 0.0000 0.0000
# 5 0.0000 0.0000 0.0000 0.0000 10.2709 0.0000
# 6 0.0000 0.0000 0.0000 0.0000 0.0000 27.1166
#
#
#
# Elastic Compliance Matrix: (Units=1/GPa)
#
#
# Indices 1 2 3 4 5 6 
#
# 1 0.015673 -0.008473 -0.005755 0.000000 0.000000 0.000000
# 2 -0.008473 0.011014 -0.000710 0.000000 0.000000 0.000000
# 3 -0.005755 -0.000710 0.022688 0.000000 0.000000 0.000000
# 4 0.000000 0.000000 0.000000 0.077803 0.000000 0.000000
# 5 0.000000 0.000000 0.000000 0.000000 0.097363 0.000000
# 6 0.000000 0.000000 0.000000 0.000000 0.000000 0.036878
#
#
# Mechanical properties :
#
#
# Convention : Reuss Voigt Hill
#
# Bulk Modulus (GPa) = 51.28684 79.70716 65.49700
# Shear Modulus (GPa) = 16.79017 22.58472 19.68745
#
# Velocity S-wave (km/s) = 3.26503 3.78676 3.53553
# Velocity P-wave (km/s) = 6.83937 8.35028 7.63230
#
# Compressibility (1/GPa) = 0.01949818
#
# Stress axis : x y z
#
# Youngs Moduli (GPa) = 63.80454 90.79577 44.07662
#
# Poissons Ratio (x) = 0.76934 0.25364
# Poissons Ratio (y) = 0.54063 0.03130
# Poissons Ratio (z) = 0.36717 0.06449
#
# Static dielectric constant tensor:
#      x y z
#    x 1.507630 0.000000 0.000000 
#    y 0.000000 1.536850 0.000000 
#    z 0.000000 0.000000 1.504480 
# 
# From -- ./inp_files/18196.got.cif
#   From: 2010.05.17/outbox.cif.g08.bks.cpg/sg51_10_cif.got.tgz:18196.got - 2010.06.03 11:52:47.
