data_PCOD9398663
_publ_section_title
;
Structure prediction by ZEFSAII (Michael W. Deem and Ramdas Pophale) SiO2 
 PCOD9398663
Probable space group: P M M A
;
_chemical_formula_sum "Si O2"
_cell_formula_units_Z 56
_cell_length_a 8.632061
_cell_length_b 30.843976
_cell_length_c 13.950115
_cell_angle_alpha 90.000000
_cell_angle_beta 90.000000
_cell_angle_gamma 90.000000
_cell_volume 3714.177417
_symmetry_space_group_name_H-M "P M M A"
_symmetry_group_IT_number 51
_symmetry_cell_setting 'orthorhombic'
loop_
_space_group_symop_operation_xyz
x,y,z
1/2-x,-y,z
1/2+x,-y,-z
-x,y,-z
-x,-y,-z
1/2+x,y,-z
1/2-x,y,z
x,-y,z
loop_
_atom_site_type_symbol
_atom_site_label
_atom_site_fract_x
_atom_site_fract_y
_atom_site_fract_z
Si Si1 0.935918 0.409377 0.104609
Si Si2 0.435442 0.632573 0.603337
Si Si3 0.435705 0.450898 0.295121
Si Si4 0.437475 0.953265 0.109144
Si Si5 0.564436 0.234892 0.891808
Si Si6 0.563787 0.680072 0.204352
Si Si7 0.437063 0.140065 0.108649
O O1 0.750000 0.412650 0.106066
O O2 0.978748 0.359853 0.133913
O O3 0.004584 0.439104 0.188682
O O4 0.000000 0.419839 0.000000
O O5 0.500000 0.644633 0.500000
O O6 0.250000 0.631804 0.601193
O O7 0.494599 0.585100 0.634484
O O8 0.484087 0.664749 0.689358
O O9 0.250000 0.447662 0.296687
O O10 0.480771 0.500000 0.319952
O O11 0.250000 0.953288 0.106389
O O12 0.486346 0.906548 0.152201
O O13 0.486378 0.000000 0.152006
O O14 0.500000 0.953258 0.000000
O O15 0.750000 0.236017 0.896744
O O16 0.506401 0.275006 0.829846
O O17 0.515492 0.187245 0.852171
O O18 0.500000 0.239104 0.000000
O O19 0.750000 0.683474 0.202649
O O20 0.250000 0.139965 0.106257
O O21 0.500000 0.139921 0.000000
#
# Coordination Sequence:
#
# PCOD9398663 Si02
#       7
#     8   8   8   8   8   8   8
#     4  10  20  33  49  68  91 119 148 178 210 244
#     4  10  21  37  56  74  91 111 135 167 205 245
#     4  10  21  36  53  73  95 118 144 172 202 239
#     4   8  12  18  28  40  57  85 122 165 207 241
#     4  10  18  26  39  58  82 112 141 173 210 246
#     4   9  19  33  47  65  86 108 137 170 203 242
#     4   8  14  22  30  45  68  94 129 168 205 243
#
# _framework density 15.077363
#
# number of rings (size 3 to 8) (size 9 to 14) (size 15 to 20)
#    0.000    2.714    0.000    3.000    0.000    6.857 
#    0.000    0.000    0.000    0.000    0.000    0.000 
#    0.000    0.000    0.000    0.000    0.000    0.714 
#
# Total GULP energy -311766.234381 kJ/mol
# GULP energy per Si atom -5567.254185 kJ/mol
# Density = 1.504305 g / cm^3
# Si number density = 15.077363 Si / 1000 Ang^3
#
#
#
# Elastic Constant Matrix: (Units=GPa)
#
#
# Indices 1 2 3 4 5 6 
#
# 1 21.1475 22.0865 11.0396 0.0000 0.0000 0.0000
# 2 22.0865 135.4273 21.7389 0.0000 0.0000 0.0000
# 3 11.0396 21.7389 48.9723 0.0000 0.0000 0.0000
# 4 0.0000 0.0000 0.0000 7.2154 0.0000 0.0000
# 5 0.0000 0.0000 0.0000 0.0000 20.0672 0.0000
# 6 0.0000 0.0000 0.0000 0.0000 0.0000 12.6611
#
#
#
# Elastic Compliance Matrix: (Units=1/GPa)
#
#
# Indices 1 2 3 4 5 6 
#
# 1 0.061310 -0.008377 -0.010102 0.000000 0.000000 0.000000
# 2 -0.008377 0.009095 -0.002149 0.000000 0.000000 0.000000
# 3 -0.010102 -0.002149 0.023651 0.000000 0.000000 0.000000
# 4 0.000000 0.000000 0.000000 0.138593 0.000000 0.000000
# 5 0.000000 0.000000 0.000000 0.000000 0.049832 0.000000
# 6 0.000000 0.000000 0.000000 0.000000 0.000000 0.078982
#
#
# Mechanical properties :
#
#
# Convention : Reuss Voigt Hill
#
# Bulk Modulus (GPa) = 18.93970 35.03079 26.98524
# Shear Modulus (GPa) = 11.89570 18.03421 14.96496
#
# Velocity S-wave (km/s) = 2.81192 3.46224 3.15389
# Velocity P-wave (km/s) = 4.80952 6.26636 5.58564
#
# Compressibility (1/GPa) = 0.05279914
#
# Stress axis : x y z
#
# Youngs Moduli (GPa) = 16.31068 109.94806 42.28170
#
# Poissons Ratio (x) = 0.92106 0.42713
# Poissons Ratio (y) = 0.13664 0.09086
# Poissons Ratio (z) = 0.16477 0.23627
#
# Static dielectric constant tensor:
#      x y z
#    x 1.514690 0.000000 0.000000 
#    y 0.000000 1.560920 0.000000 
#    z 0.000000 0.000000 1.464090 
# 
# From -- ./inp_files/22512.got.cif
#   From: 2010.05.17/outbox.cif.g08.bks.cpg/sg51_12_cif.got.tgz:22512.got - 2010.06.03 11:52:47.
