data_PCOD9398746
_publ_section_title
;
Structure prediction by ZEFSAII (Michael W. Deem and Ramdas Pophale) SiO2 
 PCOD9398746
Probable space group: P M M A
;
_chemical_formula_sum "Si O2"
_cell_formula_units_Z 64
_cell_length_a 19.500533
_cell_length_b 7.500237
_cell_length_c 22.624458
_cell_angle_alpha 90.000000
_cell_angle_beta 90.000000
_cell_angle_gamma 90.000000
_cell_volume 3309.021986
_symmetry_space_group_name_H-M "P M M A"
_symmetry_group_IT_number 51
_symmetry_cell_setting 'orthorhombic'
loop_
_space_group_symop_operation_xyz
x,y,z
1/2-x,-y,z
1/2+x,-y,-z
-x,y,-z
-x,-y,-z
1/2+x,y,-z
1/2-x,y,z
x,-y,z
loop_
_atom_site_type_symbol
_atom_site_label
_atom_site_fract_x
_atom_site_fract_y
_atom_site_fract_z
Si Si1 0.423828 0.207098 0.194933
Si Si2 0.637351 0.296784 0.266089
Si Si3 0.324118 0.715845 0.607817
Si Si4 0.986104 0.218496 0.688996
Si Si5 0.076240 0.785877 0.983888
Si Si6 0.171248 0.218880 0.090782
Si Si7 0.575994 0.711782 0.151601
Si Si8 0.024521 0.789163 0.562598
O O1 0.431333 0.277614 0.261812
O O2 0.370132 0.283389 0.148435
O O3 0.499826 0.215503 0.165646
O O4 0.405627 0.000000 0.201467
O O5 0.662825 0.500000 0.260684
O O6 0.672726 0.216962 0.324049
O O7 0.558094 0.291730 0.286823
O O8 0.630704 0.218309 0.200224
O O9 0.250000 0.768815 0.582166
O O10 0.326036 0.500000 0.610317
O O11 0.394025 0.768486 0.574852
O O12 0.984126 0.277121 0.620917
O O13 0.989628 0.000000 0.690523
O O14 0.093561 0.744076 0.916259
O O15 0.073806 0.000000 0.988560
O O16 0.130596 0.722756 0.032262
O O17 0.000000 0.718743 0.000000
O O18 0.250000 0.273541 0.090784
O O19 0.169740 0.000000 0.091091
O O20 0.571664 0.500000 0.161169
O O21 0.000000 0.713255 0.500000
O O22 0.010763 0.000000 0.561037
#
# Coordination Sequence:
#
# PCOD9398746 Si02
#       8
#     8   8   8   8   8   8   8   8
#     4   9  15  27  46  65  84 108 143 182 221 259
#     4   8  15  27  41  61  88 113 139 176 221 264
#     4   9  17  30  48  68  91 122 161 199 231 269
#     4   8  14  24  42  65  86 110 141 178 214 253
#     4  10  18  30  46  63  83 111 148 184 221 268
#     4   9  17  29  45  63  82 106 139 180 224 266
#     4  10  18  27  43  67  90 111 142 182 223 265
#     4   9  17  29  45  68  99 129 155 186 228 276
#
# _framework density 19.341062999999998
#
# number of rings (size 3 to 8) (size 9 to 14) (size 15 to 20)
#    0.000    3.000    1.250    0.375    0.000    1.250 
#    0.000    0.625    0.000    3.000    0.000    3.500 
#    0.000    0.000    0.000    0.000    0.000    0.000 
#
# Total GULP energy -356332.003193 kJ/mol
# GULP energy per Si atom -5567.687550 kJ/mol
# Density = 1.929704 g / cm^3
# Si number density = 19.341063 Si / 1000 Ang^3
#
#
#
# Elastic Constant Matrix: (Units=GPa)
#
#
# Indices 1 2 3 4 5 6 
#
# 1 89.8594 -3.3430 74.3558 0.0000 0.0000 0.0000
# 2 -3.3430 54.4833 2.5354 0.0000 0.0000 0.0000
# 3 74.3558 2.5354 199.0075 0.0000 0.0000 0.0000
# 4 0.0000 0.0000 0.0000 125.6506 0.0000 0.0000
# 5 0.0000 0.0000 0.0000 0.0000 18.6369 0.0000
# 6 0.0000 0.0000 0.0000 0.0000 0.0000 8.1472
#
#
#
# Elastic Compliance Matrix: (Units=1/GPa)
#
#
# Indices 1 2 3 4 5 6 
#
# 1 0.016197 0.001276 -0.006068 0.000000 0.000000 0.000000
# 2 0.001276 0.018466 -0.000712 0.000000 0.000000 0.000000
# 3 -0.006068 -0.000712 0.007301 0.000000 0.000000 0.000000
# 4 0.000000 0.000000 0.000000 0.007959 0.000000 0.000000
# 5 0.000000 0.000000 0.000000 0.000000 0.053657 0.000000
# 6 0.000000 0.000000 0.000000 0.000000 0.000000 0.122741
#
#
# Mechanical properties :
#
#
# Convention : Reuss Voigt Hill
#
# Bulk Modulus (GPa) = 32.30373 54.49407 43.39890
# Shear Modulus (GPa) = 20.19002 48.47376 34.33189
#
# Velocity S-wave (km/s) = 3.23444 5.01169 4.21774
# Velocity P-wave (km/s) = 5.53960 7.85658 6.79754
#
# Compressibility (1/GPa) = 0.03095618
#
# Stress axis : x y z
#
# Youngs Moduli (GPa) = 61.73956 54.15448 136.96338
#
# Poissons Ratio (x) = -0.06911 0.83110
# Poissons Ratio (y) = -0.07879 0.09753
# Poissons Ratio (z) = 0.37464 0.03856
#
# Static dielectric constant tensor:
#      x y z
#    x 1.652270 0.000000 0.000000 
#    y 0.000000 1.737310 0.000000 
#    z 0.000000 0.000000 1.727520 
# 
# From -- ./inp_files/35906.got.cif
#   From: 2010.05.17/outbox.cif.g08.bks.cpg/sg51_18_cif.got.tgz:35906.got - 2010.06.03 11:52:47.
