data_PCOD9398707
_publ_section_title
;
Structure prediction by ZEFSAII (Michael W. Deem and Ramdas Pophale) SiO2 
 PCOD9398707
Probable space group: P M M A
;
_chemical_formula_sum "Si O2"
_cell_formula_units_Z 56
_cell_length_a 29.576732
_cell_length_b 7.549806
_cell_length_c 14.083819
_cell_angle_alpha 90.000000
_cell_angle_beta 90.000000
_cell_angle_gamma 90.000000
_cell_volume 3144.896906
_symmetry_space_group_name_H-M "P M M A"
_symmetry_group_IT_number 51
_symmetry_cell_setting 'orthorhombic'
loop_
_space_group_symop_operation_xyz
x,y,z
1/2-x,-y,z
1/2+x,-y,-z
-x,y,-z
-x,-y,-z
1/2+x,y,-z
1/2-x,y,z
x,-y,z
loop_
_atom_site_type_symbol
_atom_site_label
_atom_site_fract_x
_atom_site_fract_y
_atom_site_fract_z
Si Si1 0.530255 0.786650 0.213960
Si Si2 0.109805 0.294445 0.305032
Si Si3 0.198667 0.716765 0.218461
Si Si4 0.894507 0.788563 0.082011
Si Si5 0.559558 0.214782 0.888455
Si Si6 0.300519 0.712393 0.001091
Si Si7 0.521931 0.709089 0.595442
O O1 0.578486 0.723498 0.174476
O O2 0.492234 0.739189 0.135218
O O3 0.511891 0.723519 0.315132
O O4 0.530604 0.000000 0.220982
O O5 0.115355 0.500000 0.332346
O O6 0.159811 0.218255 0.289473
O O7 0.088216 0.286323 0.199791
O O8 0.070726 0.215349 0.372084
O O9 0.250000 0.767778 0.242015
O O10 0.197054 0.500000 0.218225
O O11 0.189540 0.774288 0.109276
O O12 0.841497 0.756352 0.068451
O O13 0.900498 0.000000 0.081722
O O14 0.919826 0.721307 0.987184
O O15 0.562435 0.000000 0.886704
O O16 0.250000 0.775459 0.975067
O O17 0.298621 0.500000 0.005975
O O18 0.500000 0.784442 0.500000
O O19 0.529385 0.500000 0.579269
#
# Coordination Sequence:
#
# PCOD9398707 Si02
#       7
#     8   8   8   8   8   8   8
#     4   9  18  30  43  61  84 111 143 171 203 253
#     4   9  15  25  42  60  80 109 140 169 205 252
#     4   8  13  22  37  57  80 106 137 169 198 236
#     4  10  18  27  41  61  86 114 143 175 207 239
#     4   9  16  26  39  57  85 115 139 167 203 239
#     4   9  17  28  41  58  83 115 147 176 206 242
#     4   9  18  31  45  63  85 106 135 178 224 262
#
# _framework density 17.806622999999998
#
# number of rings (size 3 to 8) (size 9 to 14) (size 15 to 20)
#    0.000    3.000    1.429    1.286    0.000    2.857 
#    0.000    0.000    0.000    4.714    0.000    1.000 
#    0.000    3.429    0.000    0.000    0.000    0.000 
#
# Total GULP energy -311921.068821 kJ/mol
# GULP energy per Si atom -5570.019086 kJ/mol
# Density = 1.776609 g / cm^3
# Si number density = 17.806623 Si / 1000 Ang^3
#
#
#
# Elastic Constant Matrix: (Units=GPa)
#
#
# Indices 1 2 3 4 5 6 
#
# 1 151.4492 0.8921 57.3433 0.0000 0.0000 0.0000
# 2 0.8921 40.4459 -2.3877 0.0000 0.0000 0.0000
# 3 57.3433 -2.3877 56.5775 0.0000 0.0000 0.0000
# 4 0.0000 0.0000 0.0000 6.6396 0.0000 0.0000
# 5 0.0000 0.0000 0.0000 0.0000 21.5480 0.0000
# 6 0.0000 0.0000 0.0000 0.0000 0.0000 13.5195
#
#
#
# Elastic Compliance Matrix: (Units=1/GPa)
#
#
# Indices 1 2 3 4 5 6 
#
# 1 0.010746 -0.000882 -0.010929 0.000000 0.000000 0.000000
# 2 -0.000882 0.024859 0.001943 0.000000 0.000000 0.000000
# 3 -0.010929 0.001943 0.028833 0.000000 0.000000 0.000000
# 4 0.000000 0.000000 0.000000 0.150612 0.000000 0.000000
# 5 0.000000 0.000000 0.000000 0.000000 0.046408 0.000000
# 6 0.000000 0.000000 0.000000 0.000000 0.000000 0.073967
#
#
# Mechanical properties :
#
#
# Convention : Reuss Voigt Hill
#
# Bulk Modulus (GPa) = 22.37000 40.01866 31.19433
# Shear Modulus (GPa) = 13.51125 21.18307 17.34716
#
# Velocity S-wave (km/s) = 2.75758 3.45282 3.12460
# Velocity P-wave (km/s) = 4.76749 6.19829 5.52937
#
# Compressibility (1/GPa) = 0.04470272
#
# Stress axis : x y z
#
# Youngs Moduli (GPa) = 93.05786 40.22761 34.68188
#
# Poissons Ratio (x) = 0.03549 0.37903
# Poissons Ratio (y) = 0.08209 -0.06739
# Poissons Ratio (z) = 1.01700 -0.07817
#
# Static dielectric constant tensor:
#      x y z
#    x 1.669680 0.000000 0.000000 
#    y 0.000000 1.674690 0.000000 
#    z 0.000000 0.000000 1.585520 
# 
# From -- ./inp_files/26488.got.cif
#   From: 2010.05.17/outbox.cif.g08.bks.cpg/sg51_14_cif.got.tgz:26488.got - 2010.06.03 11:52:47.
