data_PCOD9398868
_publ_section_title
;
Structure prediction by ZEFSAII (Michael W. Deem and Ramdas Pophale) SiO2 
 PCOD9398868
Probable space group: P M M A
;
_chemical_formula_sum "Si O2"
_cell_formula_units_Z 64
_cell_length_a 18.503209
_cell_length_b 19.607676
_cell_length_c 9.490893
_cell_angle_alpha 90.000000
_cell_angle_beta 90.000000
_cell_angle_gamma 90.000000
_cell_volume 3443.342742
_symmetry_space_group_name_H-M "P M M A"
_symmetry_group_IT_number 51
_symmetry_cell_setting 'orthorhombic'
loop_
_space_group_symop_operation_xyz
x,y,z
1/2-x,-y,z
1/2+x,-y,-z
-x,y,-z
-x,-y,-z
1/2+x,y,-z
1/2-x,y,z
x,-y,z
loop_
_atom_site_type_symbol
_atom_site_label
_atom_site_fract_x
_atom_site_fract_y
_atom_site_fract_z
Si Si1 0.015094 0.651086 0.665182
Si Si2 0.068511 0.420432 0.103402
Si Si3 0.832758 0.700975 0.983165
Si Si4 0.329530 0.331357 0.695150
Si Si5 0.056646 0.221567 0.205321
Si Si6 0.880321 0.925912 0.465686
Si Si7 0.513858 0.074775 0.738551
Si Si8 0.828934 0.216368 0.542910
O O1 0.959006 0.601026 0.741626
O O2 0.003645 0.722592 0.750760
O O3 0.000000 0.660421 0.500000
O O4 0.097180 0.625576 0.684449
O O5 0.085162 0.500000 0.093813
O O6 0.135368 0.372782 0.061314
O O7 0.000000 0.405741 0.000000
O O8 0.750000 0.711064 0.933392
O O9 0.892046 0.752229 0.919391
O O10 0.830828 0.702699 0.151477
O O11 0.250000 0.364411 0.679097
O O12 0.336706 0.274085 0.574861
O O13 0.108607 0.221870 0.342451
O O14 0.028236 0.145219 0.181171
O O15 0.935995 0.921255 0.336151
O O16 0.833952 0.858142 0.473481
O O17 0.929398 0.925710 0.607731
O O18 0.843557 0.000000 0.459886
O O19 0.520603 0.000000 0.809169
O O20 0.750000 0.224203 0.609736
#
# Coordination Sequence:
#
# PCOD9398868 Si02
#       8
#     8   8   8   8   8   8   8   8
#     4  11  20  34  56  83 109 144 179 220 275 320
#     4  10  21  38  59  83 111 139 179 220 255 314
#     4  10  21  37  56  79 110 143 177 221 272 321
#     4  10  20  34  51  76 108 139 176 218 268 324
#     4  10  19  29  52  79 104 136 185 228 269 321
#     4   8  14  24  39  62  92 130 170 214 268 319
#     4   8  14  25  42  66  99 132 171 222 267 312
#     4  10  18  28  44  70 101 132 171 224 274 317
#
# _framework density 18.586589
#
# number of rings (size 3 to 8) (size 9 to 14) (size 15 to 20)
#    0.000    2.375    2.500    1.875    1.750    0.750 
#    0.000    0.000    0.000    2.250    0.000    4.375 
#    0.000    0.000    0.000    0.000    0.000    0.000 
#
# Total GULP energy -356593.615514 kJ/mol
# GULP energy per Si atom -5571.775242 kJ/mol
# Density = 1.854429 g / cm^3
# Si number density = 18.586589 Si / 1000 Ang^3
#
#
#
# Elastic Constant Matrix: (Units=GPa)
#
#
# Indices 1 2 3 4 5 6 
#
# 1 69.0664 -6.6682 7.8647 0.0000 0.0000 0.0000
# 2 -6.6682 52.9834 -1.0454 0.0000 0.0000 0.0000
# 3 7.8647 -1.0454 44.3495 0.0000 0.0000 0.0000
# 4 0.0000 0.0000 0.0000 8.9423 0.0000 0.0000
# 5 0.0000 0.0000 0.0000 0.0000 21.6067 0.0000
# 6 0.0000 0.0000 0.0000 0.0000 0.0000 -13.6417
#
#
#
# Elastic Compliance Matrix: (Units=1/GPa)
#
#
# Indices 1 2 3 4 5 6 
#
# 1 0.014953 0.001830 -0.002608 0.000000 0.000000 0.000000
# 2 0.001830 0.019107 0.000126 0.000000 0.000000 0.000000
# 3 -0.002608 0.000126 0.023014 0.000000 0.000000 0.000000
# 4 0.000000 0.000000 0.000000 0.111828 0.000000 0.000000
# 5 0.000000 0.000000 0.000000 0.000000 0.046282 0.000000
# 6 0.000000 0.000000 0.000000 0.000000 0.000000 -0.073305
#
#
# Mechanical properties :
#
#
# Convention : Reuss Voigt Hill
#
# Bulk Modulus (GPa) = 17.93131 18.52239 18.22685
# Shear Modulus (GPa) = 30.90768 14.46466 22.68617
#
# Velocity S-wave (km/s) = 4.08229 2.79271 3.49745
# Velocity P-wave (km/s) = 5.64700 4.51509 5.11246
#
# Compressibility (1/GPa) = 0.05576837
#
# Stress axis : x y z
#
# Youngs Moduli (GPa) = 66.87808 52.33767 43.45234
#
# Poissons Ratio (x) = -0.09580 0.11334
# Poissons Ratio (y) = -0.12241 -0.00547
# Poissons Ratio (z) = 0.17445 -0.00658
#
# Static dielectric constant tensor:
#      x y z
#    x 1.669860 0.000000 0.000000 
#    y 0.000000 1.650690 0.000000 
#    z 0.000000 0.000000 1.639050 
# 
# From -- ./inp_files/10049.got.cif
#   From: 2010.05.17/outbox.cif.g08.bks.cpg/sg51_6_cif.got.tgz:10049.got - 2010.06.03 11:52:47.
