data_PCOD9398824
_publ_section_title
;
Structure prediction by ZEFSAII (Michael W. Deem and Ramdas Pophale) SiO2 
 PCOD9398824
Probable space group: P M M A
;
_chemical_formula_sum "Si O2"
_cell_formula_units_Z 56
_cell_length_a 22.529626
_cell_length_b 8.992463
_cell_length_c 18.039091
_cell_angle_alpha 90.000000
_cell_angle_beta 90.000000
_cell_angle_gamma 90.000000
_cell_volume 3654.662620
_symmetry_space_group_name_H-M "P M M A"
_symmetry_group_IT_number 51
_symmetry_cell_setting 'orthorhombic'
loop_
_space_group_symop_operation_xyz
x,y,z
1/2-x,-y,z
1/2+x,-y,-z
-x,y,-z
-x,-y,-z
1/2+x,y,-z
1/2-x,y,z
x,-y,z
loop_
_atom_site_type_symbol
_atom_site_label
_atom_site_fract_x
_atom_site_fract_y
_atom_site_fract_z
Si Si1 0.099448 0.821039 0.371783
Si Si2 0.464243 0.175938 0.827572
Si Si3 0.067607 0.170964 0.531494
Si Si4 0.679714 0.676447 0.749521
Si Si5 0.930578 0.328362 0.024486
Si Si6 0.601858 0.175988 0.876179
Si Si7 0.973356 0.323163 0.327139
O O1 0.105421 0.785427 0.459277
O O2 0.151645 0.758131 0.321448
O O3 0.038125 0.748984 0.342682
O O4 0.094547 0.000000 0.365062
O O5 0.429314 0.245754 0.896882
O O6 0.534636 0.196620 0.845216
O O7 0.451336 0.257357 0.750563
O O8 0.453621 0.000000 0.821981
O O9 0.067219 0.273095 0.603561
O O10 0.000000 0.172981 0.500000
O O11 0.080670 0.000000 0.552119
O O12 0.750000 0.700507 0.754122
O O13 0.668222 0.500000 0.744376
O O14 0.646404 0.742043 0.821051
O O15 0.912043 0.500000 0.030416
O O16 0.897010 0.244112 0.958488
O O17 0.000000 0.327261 0.000000
O O18 0.613451 0.000000 0.877665
O O19 0.978721 0.500000 0.323754
#
# Coordination Sequence:
#
# PCOD9398824 Si02
#       7
#     8   8   8   8   8   8   8
#     4  10  19  32  47  62  84 118 153 189 229 270
#     4  10  18  28  43  64  91 121 154 185 219 268
#     4   8  16  29  43  60  85 115 149 183 221 269
#     4  11  23  35  48  67  90 118 155 198 236 269
#     4   9  17  28  43  63  88 116 148 185 224 268
#     4  10  19  31  47  63  85 119 154 188 227 270
#     4  11  19  26  42  66  92 120 151 184 223 269
#
# _framework density 15.322891
#
# number of rings (size 3 to 8) (size 9 to 14) (size 15 to 20)
#    0.000    2.143    1.429    4.286    0.000    7.143 
#    0.000    0.000    0.000    0.000    0.000    0.000 
#    0.000    1.143    0.000    8.286    0.000    6.857 
#
# Total GULP energy -312284.464085 kJ/mol
# GULP energy per Si atom -5576.508287 kJ/mol
# Density = 1.528802 g / cm^3
# Si number density = 15.322891 Si / 1000 Ang^3
#
#
#
# Elastic Constant Matrix: (Units=GPa)
#
#
# Indices 1 2 3 4 5 6 
#
# 1 34.7243 35.1271 37.9845 0.0000 0.0000 0.0000
# 2 35.1271 114.9635 91.2506 0.0000 0.0000 0.0000
# 3 37.9845 91.2506 159.1471 0.0000 0.0000 0.0000
# 4 0.0000 0.0000 0.0000 11.4629 0.0000 0.0000
# 5 0.0000 0.0000 0.0000 0.0000 10.6256 0.0000
# 6 0.0000 0.0000 0.0000 0.0000 0.0000 4.0008
#
#
#
# Elastic Compliance Matrix: (Units=1/GPa)
#
#
# Indices 1 2 3 4 5 6 
#
# 1 0.043832 -0.009340 -0.005107 0.000000 0.000000 0.000000
# 2 -0.009340 0.017954 -0.008065 0.000000 0.000000 0.000000
# 3 -0.005107 -0.008065 0.012127 0.000000 0.000000 0.000000
# 4 0.000000 0.000000 0.000000 0.087238 0.000000 0.000000
# 5 0.000000 0.000000 0.000000 0.000000 0.094112 0.000000
# 6 0.000000 0.000000 0.000000 0.000000 0.000000 0.249950
#
#
# Mechanical properties :
#
#
# Convention : Reuss Voigt Hill
#
# Bulk Modulus (GPa) = 34.61405 70.83993 52.72699
# Shear Modulus (GPa) = 8.93074 14.84939 11.89006
#
# Velocity S-wave (km/s) = 2.41682 3.11641 2.78864
# Velocity P-wave (km/s) = 5.51605 7.69943 6.69731
#
# Compressibility (1/GPa) = 0.02889001
#
# Stress axis : x y z
#
# Youngs Moduli (GPa) = 22.81423 55.69913 82.46387
#
# Poissons Ratio (x) = 0.52021 0.42111
# Poissons Ratio (y) = 0.21308 0.66507
# Poissons Ratio (z) = 0.11650 0.44921
#
# Static dielectric constant tensor:
#      x y z
#    x 1.475590 0.000000 0.000000 
#    y 0.000000 1.507960 0.000000 
#    z 0.000000 0.000000 1.526280 
# 
# From -- ./inp_files/30463.got.cif
#   From: 2010.05.17/outbox.cif.g08.bks.cpg/sg51_16_cif.got.tgz:30463.got - 2010.06.03 11:52:47.
