data_PCOD9398591
_publ_section_title
;
Structure prediction by ZEFSAII (Michael W. Deem and Ramdas Pophale) SiO2 
 PCOD9398591
Probable space group: P M M A
;
_chemical_formula_sum "Si O2"
_cell_formula_units_Z 48
_cell_length_a 7.535319
_cell_length_b 15.167567
_cell_length_c 20.995823
_cell_angle_alpha 90.000000
_cell_angle_beta 90.000000
_cell_angle_gamma 90.000000
_cell_volume 2399.664172
_symmetry_space_group_name_H-M "P M M A"
_symmetry_group_IT_number 51
_symmetry_cell_setting 'orthorhombic'
loop_
_space_group_symop_operation_xyz
x,y,z
1/2-x,-y,z
1/2+x,-y,-z
-x,y,-z
-x,-y,-z
1/2+x,y,-z
1/2-x,y,z
x,-y,z
loop_
_atom_site_type_symbol
_atom_site_label
_atom_site_fract_x
_atom_site_fract_y
_atom_site_fract_z
Si Si1 0.040671 0.782132 0.308610
Si Si2 0.462152 0.784405 0.070434
Si Si3 0.465564 0.596829 0.113475
Si Si4 0.539707 0.901105 0.426527
Si Si5 0.534165 0.403166 0.736396
Si Si6 0.967661 0.898744 0.809536
O O1 0.250000 0.774605 0.295797
O O2 0.969497 0.682883 0.301017
O O3 0.970949 0.845989 0.252957
O O4 0.021551 0.828943 0.376265
O O5 0.250000 0.779689 0.077852
O O6 0.530992 0.684104 0.078138
O O7 0.526172 0.846432 0.127467
O O8 0.500000 0.818335 0.000000
O O9 0.250000 0.595489 0.109378
O O10 0.528437 0.500000 0.091798
O O11 0.508569 0.606836 0.188557
O O12 0.500000 0.879897 0.500000
O O13 0.750000 0.905972 0.419871
O O14 0.466284 0.000000 0.413353
O O15 0.750000 0.405434 0.732831
O O16 0.471156 0.500000 0.715329
O O17 0.750000 0.899532 0.809304
O O18 0.025130 0.000000 0.808876
#
# Coordination Sequence:
#
# PCOD9398591 Si02
#       6
#     8   8   8   8   8   8
#     4  10  17  29  53  80 101 126 162 204 247 289
#     4  10  19  31  45  63  88 121 159 199 244 292
#     4   8  13  24  43  65  89 117 152 195 241 290
#     4  10  21  36  53  76 107 139 167 197 237 285
#     4   8  13  23  44  74 101 124 157 200 242 289
#     4   9  17  29  46  68  92 120 159 203 243 288
#
# _framework density 20.002797999999999
#
# number of rings (size 3 to 8) (size 9 to 14) (size 15 to 20)
#    0.000    2.833    1.667    2.000    0.000    2.333 
#    0.000    0.833    0.000    2.000    0.000    2.333 
#    0.000    0.000    0.000    0.000    0.000    0.000 
#
# Total GULP energy -267783.686080 kJ/mol
# GULP energy per Si atom -5578.826793 kJ/mol
# Density = 1.995727 g / cm^3
# Si number density = 20.002798 Si / 1000 Ang^3
#
#
#
# Elastic Constant Matrix: (Units=GPa)
#
#
# Indices 1 2 3 4 5 6 
#
# 1 46.6114 8.2041 -8.0147 0.0000 0.0000 0.0000
# 2 8.2041 172.1243 85.2084 0.0000 0.0000 0.0000
# 3 -8.0147 85.2084 98.2820 0.0000 0.0000 0.0000
# 4 0.0000 0.0000 0.0000 22.9375 0.0000 0.0000
# 5 0.0000 0.0000 0.0000 0.0000 11.1311 0.0000
# 6 0.0000 0.0000 0.0000 0.0000 0.0000 -1.1662
#
#
#
# Elastic Compliance Matrix: (Units=1/GPa)
#
#
# Indices 1 2 3 4 5 6 
#
# 1 0.022925 -0.003536 0.004935 0.000000 0.000000 0.000000
# 2 -0.003536 0.010723 -0.009585 0.000000 0.000000 0.000000
# 3 0.004935 -0.009585 0.018887 0.000000 0.000000 0.000000
# 4 0.000000 0.000000 0.000000 0.043597 0.000000 0.000000
# 5 0.000000 0.000000 0.000000 0.000000 0.089838 0.000000
# 6 0.000000 0.000000 0.000000 0.000000 0.000000 -0.857505
#
#
# Mechanical properties :
#
#
# Convention : Reuss Voigt Hill
#
# Bulk Modulus (GPa) = 27.65225 54.20150 40.92688
# Shear Modulus (GPa) = -7.77475 22.02181 7.12353
#
# Velocity S-wave (km/s) = -1.97364 3.32164 1.88918
# Velocity P-wave (km/s) = 2.94287 6.47046 5.02630
#
# Compressibility (1/GPa) = 0.03616342
#
# Stress axis : x y z
#
# Youngs Moduli (GPa) = 43.62087 93.25437 52.94527
#
# Poissons Ratio (x) = 0.32971 -0.26127
# Poissons Ratio (y) = 0.15423 0.50749
# Poissons Ratio (z) = -0.21526 0.89387
#
# Static dielectric constant tensor:
#      x y z
#    x 1.760490 0.000000 0.000000 
#    y 0.000000 1.737930 0.000000 
#    z 0.000000 0.000000 1.727720 
# 
# From -- ./inp_files/31582.got.cif
#   From: 2010.05.17/outbox.cif.g08.bks.cpg/sg51_16_cif.got.tgz:31582.got - 2010.06.03 11:52:47.
