data_PCOD9398611
_publ_section_title
;
Structure prediction by ZEFSAII (Michael W. Deem and Ramdas Pophale) SiO2 
 PCOD9398611
Probable space group: P M M A
;
_chemical_formula_sum "Si O2"
_cell_formula_units_Z 56
_cell_length_a 14.265117
_cell_length_b 19.061480
_cell_length_c 9.586764
_cell_angle_alpha 90.000000
_cell_angle_beta 90.000000
_cell_angle_gamma 90.000000
_cell_volume 2606.777670
_symmetry_space_group_name_H-M "P M M A"
_symmetry_group_IT_number 51
_symmetry_cell_setting 'orthorhombic'
loop_
_space_group_symop_operation_xyz
x,y,z
1/2-x,-y,z
1/2+x,-y,-z
-x,y,-z
-x,-y,-z
1/2+x,y,-z
1/2-x,y,z
x,-y,z
loop_
_atom_site_type_symbol
_atom_site_label
_atom_site_fract_x
_atom_site_fract_y
_atom_site_fract_z
Si Si1 0.360932 0.921691 0.687345
Si Si2 0.858029 0.266129 0.797281
Si Si3 0.359191 0.707858 0.730161
Si Si4 0.364224 0.579522 0.246478
Si Si5 0.593992 0.818757 0.063598
Si Si6 0.141732 0.188438 0.469630
Si Si7 0.135913 0.422306 0.571362
O O1 0.250000 0.927605 0.662250
O O2 0.366898 0.875755 0.828955
O O3 0.399030 0.877333 0.555697
O O4 0.400639 0.000000 0.701051
O O5 0.750000 0.277828 0.751648
O O6 0.892393 0.346132 0.824405
O O7 0.902899 0.222507 0.668106
O O8 0.855806 0.214816 0.929944
O O9 0.250000 0.705491 0.781533
O O10 0.419812 0.750130 0.840262
O O11 0.355903 0.750963 0.586153
O O12 0.396002 0.632809 0.685384
O O13 0.250000 0.575305 0.237547
O O14 0.396465 0.500000 0.204810
O O15 0.389698 0.590233 0.410442
O O16 0.500000 0.849190 0.000000
O O17 0.250000 0.169411 0.434625
O O18 0.250000 0.418679 0.573538
O O19 0.106080 0.500000 0.608725
#
# Coordination Sequence:
#
# PCOD9398611 Si02
#       7
#     8   8   8   8   8   8   8
#     4   9  18  36  60  81 102 129 159 195 246 308
#     4  10  17  30  52  77 102 131 168 212 252 296
#     4   9  15  29  49  69  94 127 165 208 252 304
#     4   8  13  22  42  75 106 127 155 208 272 310
#     4  11  23  35  48  70 103 141 177 205 242 288
#     4   8  14  26  50  78  97 117 155 203 249 294
#     4   8  12  20  41  73  99 119 154 210 268 309
#
# _framework density 21.48246
#
# number of rings (size 3 to 8) (size 9 to 14) (size 15 to 20)
#    0.000    3.000    1.429    3.000    0.000    0.286 
#    0.000    4.286    0.000    8.571    0.000    2.000 
#    0.000    0.000    0.000    0.000    0.000    0.000 
#
# Total GULP energy -311852.942793 kJ/mol
# GULP energy per Si atom -5568.802550 kJ/mol
# Density = 2.143357 g / cm^3
# Si number density = 21.482460 Si / 1000 Ang^3
#
#
#
# Elastic Constant Matrix: (Units=GPa)
#
#
# Indices 1 2 3 4 5 6 
#
# 1 43.5159 2.8370 8.1221 0.0000 0.0000 0.0000
# 2 2.8370 164.0225 49.1046 0.0000 0.0000 0.0000
# 3 8.1221 49.1046 82.8520 0.0000 0.0000 0.0000
# 4 0.0000 0.0000 0.0000 15.8512 0.0000 0.0000
# 5 0.0000 0.0000 0.0000 0.0000 17.1371 0.0000
# 6 0.0000 0.0000 0.0000 0.0000 0.0000 5.6366
#
#
#
# Elastic Compliance Matrix: (Units=1/GPa)
#
#
# Indices 1 2 3 4 5 6 
#
# 1 0.023424 0.000343 -0.002500 0.000000 0.000000 0.000000
# 2 0.000343 0.007417 -0.004429 0.000000 0.000000 0.000000
# 3 -0.002500 -0.004429 0.014940 0.000000 0.000000 0.000000
# 4 0.000000 0.000000 0.000000 0.063087 0.000000 0.000000
# 5 0.000000 0.000000 0.000000 0.000000 0.058353 0.000000
# 6 0.000000 0.000000 0.000000 0.000000 0.000000 0.177413
#
#
# Mechanical properties :
#
#
# Convention : Reuss Voigt Hill
#
# Bulk Modulus (GPa) = 30.66617 45.61307 38.13962
# Shear Modulus (GPa) = 13.56208 23.08010 18.32109
#
# Velocity S-wave (km/s) = 2.51531 3.28131 2.92351
# Velocity P-wave (km/s) = 4.76883 5.96949 5.40262
#
# Compressibility (1/GPa) = 0.03260922
#
# Stress axis : x y z
#
# Youngs Moduli (GPa) = 42.69073 134.82778 66.93441
#
# Poissons Ratio (x) = -0.04627 0.16732
# Poissons Ratio (y) = -0.01465 0.29648
# Poissons Ratio (z) = 0.10671 0.59721
#
# Static dielectric constant tensor:
#      x y z
#    x 1.896510 0.000000 0.000000 
#    y 0.000000 1.820260 0.000000 
#    z 0.000000 0.000000 1.737130 
# 
# From -- ./inp_files/8577.got.cif
#   From: 2010.05.17/outbox.cif.g08.bks.cpg/sg51_5_cif.got.tgz:8577.got - 2010.06.03 11:52:47.
