data_PCOD9398200
_publ_section_title
;
Structure prediction by ZEFSAII (Michael W. Deem and Ramdas Pophale) SiO2 
 PCOD9398200
Probable space group: P B A N
;
_chemical_formula_sum "Si O2"
_cell_formula_units_Z 40
_cell_length_a 10.992996
_cell_length_b 13.994736
_cell_length_c 10.672610
_cell_angle_alpha 90.000000
_cell_angle_beta 90.000000
_cell_angle_gamma 90.000000
_cell_volume 1641.917833
_symmetry_space_group_name_H-M "P B A N"
_symmetry_group_IT_number 50
_space_group.IT_coordinate_system_code '2'
_symmetry_cell_setting 'orthorhombic'
loop_
_space_group_symop_operation_xyz
x,y,z
1/2-x,1/2-y,z
x,1/2-y,-z
1/2-x,y,-z
-x,-y,-z
1/2+x,1/2+y,-z
-x,1/2+y,z
1/2+x,-y,z
loop_
_atom_site_type_symbol
_atom_site_label
_atom_site_fract_x
_atom_site_fract_y
_atom_site_fract_z
Si Si1 0.250000 0.750000 0.278928
Si Si2 0.575760 0.398818 0.622699
Si Si3 0.127696 0.380421 0.581096
Si Si4 0.250000 0.250000 0.778928
Si Si5 0.627696 0.119579 0.918904
Si Si6 0.424240 0.101182 0.122699
O O1 0.311311 0.669745 0.361853
O O2 0.349792 0.805310 0.192302
O O3 0.509291 0.630479 0.493812
O O4 0.618343 0.508840 0.620078
O O5 0.500000 0.388986 0.750000
O O6 0.250000 0.370107 0.500000
O O7 0.150208 0.305310 0.692302
O O8 0.381657 0.508840 0.879921
O O9 0.311311 0.330255 0.861853
O O10 0.509291 0.130479 0.006188
O O11 0.750000 0.129893 0.000000
#
# Coordination Sequence:
#
# PCOD9398200 Si02
#       6
#     4   8   8   4   8   8
#     4  12  25  50  79 112 148 201 252 321 362 454
#     4  11  26  47  76 106 151 205 242 313 388 444
#     4  11  25  50  71 109 153 194 256 311 373 455
#     4  12  25  50  79 112 148 201 252 321 362 454
#     4  11  25  50  71 109 153 194 256 311 373 455
#     4  11  26  47  76 106 151 205 242 313 388 444
#
# _framework density 24.361754000000001
#
# number of rings (size 3 to 8) (size 9 to 14) (size 15 to 20)
#    0.000    0.800    4.000    1.800    0.000    1.600 
#   14.400    0.000    0.000    0.000    0.000    0.000 
#    0.000    0.000    0.000    0.000    0.000    0.000 
#
# Total GULP energy -224401.679338 kJ/mol
# GULP energy per Si atom -5610.041983 kJ/mol
# Density = 2.430631 g / cm^3
# Si number density = 24.361754 Si / 1000 Ang^3
#
#
#
# Elastic Constant Matrix: (Units=GPa)
#
#
# Indices 1 2 3 4 5 6 
#
# 1 71.2185 67.5485 59.2772 0.0000 0.0000 0.0000
# 2 67.5485 200.7507 83.1674 0.0000 0.0000 0.0000
# 3 59.2772 83.1674 106.1505 0.0000 0.0000 0.0000
# 4 0.0000 0.0000 0.0000 32.5160 0.0000 0.0000
# 5 0.0000 0.0000 0.0000 0.0000 28.4952 0.0000
# 6 0.0000 0.0000 0.0000 0.0000 0.0000 13.8408
#
#
#
# Elastic Compliance Matrix: (Units=1/GPa)
#
#
# Indices 1 2 3 4 5 6 
#
# 1 0.028710 -0.004469 -0.012531 0.000000 0.000000 0.000000
# 2 -0.004469 0.008071 -0.003828 0.000000 0.000000 0.000000
# 3 -0.012531 -0.003828 0.019417 0.000000 0.000000 0.000000
# 4 0.000000 0.000000 0.000000 0.030754 0.000000 0.000000
# 5 0.000000 0.000000 0.000000 0.000000 0.035094 0.000000
# 6 0.000000 0.000000 0.000000 0.000000 0.000000 0.072250
#
#
# Mechanical properties :
#
#
# Convention : Reuss Voigt Hill
#
# Bulk Modulus (GPa) = 68.76411 88.67844 78.72128
# Shear Modulus (GPa) = 20.76426 26.17885 23.47155
#
# Velocity S-wave (km/s) = 2.92264 3.28165 3.10733
# Velocity P-wave (km/s) = 6.29894 7.13012 6.72738
#
# Compressibility (1/GPa) = 0.01454247
#
# Stress axis : x y z
#
# Youngs Moduli (GPa) = 34.83129 123.90374 51.50064
#
# Poissons Ratio (x) = 0.55371 0.64535
# Poissons Ratio (y) = 0.15566 0.19713
# Poissons Ratio (z) = 0.43647 0.47428
#
# Static dielectric constant tensor:
#      x y z
#    x 1.884930 0.000000 0.000000 
#    y 0.000000 1.914690 0.000000 
#    z 0.000000 0.000000 1.955640 
# 
# From -- ./inp_files/20027.got.cif
#   From: 2010.05.17/outbox.cif.g08.bks.cpg/sg50_11_cif.got.tgz:20027.got - 2010.06.03 11:33:33.
