data_PCOD9398167
_publ_section_title
;
Structure prediction by ZEFSAII (Michael W. Deem and Ramdas Pophale) SiO2 
 PCOD9398167
Probable space group: P B A N
;
_chemical_formula_sum "Si O2"
_cell_formula_units_Z 58
_cell_length_a 8.075987
_cell_length_b 18.404973
_cell_length_c 17.555185
_cell_angle_alpha 90.000000
_cell_angle_beta 90.000000
_cell_angle_gamma 90.000000
_cell_volume 2609.373253
_symmetry_space_group_name_H-M "P B A N"
_symmetry_group_IT_number 50
_space_group.IT_coordinate_system_code '2'
_symmetry_cell_setting 'orthorhombic'
loop_
_space_group_symop_operation_xyz
x,y,z
1/2-x,1/2-y,z
x,1/2-y,-z
1/2-x,y,-z
-x,-y,-z
1/2+x,1/2+y,-z
-x,1/2+y,z
1/2+x,-y,z
loop_
_atom_site_type_symbol
_atom_site_label
_atom_site_fract_x
_atom_site_fract_y
_atom_site_fract_z
Si Si1 0.450166 0.667066 0.515145
Si Si2 0.057260 0.080664 0.023435
Si Si3 0.090667 0.925401 0.659149
Si Si4 0.070094 0.827185 0.109921
Si Si5 0.481792 0.910237 0.635205
Si Si6 0.415934 0.210939 0.243793
Si Si7 0.250000 0.750000 0.000000
Si Si8 0.080178 0.856494 0.818833
O O1 0.504157 0.750000 0.500000
O O2 0.250000 0.667049 0.500000
O O3 0.485660 0.631246 0.597303
O O4 0.523066 0.616625 0.449425
O O5 0.016971 0.107677 0.109238
O O6 0.250000 0.090219 0.000000
O O7 0.943166 0.126590 0.966082
O O8 0.000000 0.000000 0.000000
O O9 0.285748 0.915395 0.647408
O O10 0.045753 0.906378 0.745363
O O11 0.050725 0.009323 0.645529
O O12 0.224704 0.855518 0.159304
O O13 0.908860 0.829673 0.161994
O O14 0.110087 0.750863 0.068705
O O15 0.536813 0.847449 0.693637
O O16 0.250000 0.250000 0.266450
O O17 0.538066 0.276452 0.217549
#
# Coordination Sequence:
#
# PCOD9398167 Si02
#       8
#     8   8   8   8   8   8   2   8
#     4   9  19  42  73 105 141 186 238 289 350 426
#     4  12  27  45  69 102 143 189 239 294 367 435
#     4  11  25  42  72 106 142 188 238 290 362 425
#     4  12  22  43  68  98 133 183 235 296 357 420
#     4  11  25  44  71 104 148 189 235 293 356 434
#     4  12  26  43  68 105 144 184 243 301 359 425
#     4  12  20  40  70  92 128 174 230 290 352 420
#     4  12  24  44  70 101 138 187 243 302 356 435
#
# _framework density 22.22756
#
# number of rings (size 3 to 8) (size 9 to 14) (size 15 to 20)
#    0.000    0.690    4.138    2.897    3.862    2.207 
#    0.000    1.379    0.000    0.000    0.000    0.000 
#    0.000    0.000    0.000    0.000    0.000    0.000 
#
# Total GULP energy -323099.259199 kJ/mol
# GULP energy per Si atom -5570.676883 kJ/mol
# Density = 2.217697 g / cm^3
# Si number density = 22.227560 Si / 1000 Ang^3
#
#
#
# Elastic Constant Matrix: (Units=GPa)
#
#
# Indices 1 2 3 4 5 6 
#
# 1 46.0647 33.9682 40.1640 0.0000 0.0000 0.0000
# 2 33.9682 155.5907 94.4284 0.0000 0.0000 0.0000
# 3 40.1640 94.4284 201.1732 0.0000 0.0000 0.0000
# 4 0.0000 0.0000 0.0000 223.3529 0.0000 0.0000
# 5 0.0000 0.0000 0.0000 0.0000 14.3690 0.0000
# 6 0.0000 0.0000 0.0000 0.0000 0.0000 25.0954
#
#
#
# Elastic Compliance Matrix: (Units=1/GPa)
#
#
# Indices 1 2 3 4 5 6 
#
# 1 0.027784 -0.003774 -0.003775 0.000000 0.000000 0.000000
# 2 -0.003774 0.009500 -0.003706 0.000000 0.000000 0.000000
# 3 -0.003775 -0.003706 0.007464 0.000000 0.000000 0.000000
# 4 0.000000 0.000000 0.000000 0.004477 0.000000 0.000000
# 5 0.000000 0.000000 0.000000 0.000000 0.069594 0.000000
# 6 0.000000 0.000000 0.000000 0.000000 0.000000 0.039848
#
#
# Mechanical properties :
#
#
# Convention : Reuss Voigt Hill
#
# Bulk Modulus (GPa) = 44.97035 82.21664 63.59350
# Shear Modulus (GPa) = 26.51254 68.18133 47.34694
#
# Velocity S-wave (km/s) = 3.45741 5.54444 4.62031
# Velocity P-wave (km/s) = 6.01780 8.83497 7.55879
#
# Compressibility (1/GPa) = 0.02223687
#
# Stress axis : x y z
#
# Youngs Moduli (GPa) = 35.99256 105.26164 133.97665
#
# Poissons Ratio (x) = 0.39730 0.50580
# Poissons Ratio (y) = 0.13585 0.49648
# Poissons Ratio (z) = 0.13588 0.39007
#
# Static dielectric constant tensor:
#      x y z
#    x 1.829800 0.000000 0.000000 
#    y 0.000000 2.104080 0.000000 
#    z 0.000000 0.000000 1.870660 
# 
# From -- ./inp_files/28891.got.cif
#   From: 2010.05.17/outbox.cif.g08.bks.cpg/sg50_15_cif.got.tgz:28891.got - 2010.06.03 11:33:33.
