data_PCOD9398210
_publ_section_title
;
Structure prediction by ZEFSAII (Michael W. Deem and Ramdas Pophale) SiO2 
 PCOD9398210
Probable space group: P B A N
;
_chemical_formula_sum "Si O2"
_cell_formula_units_Z 18
_cell_length_a 11.227839
_cell_length_b 5.142128
_cell_length_c 13.459283
_cell_angle_alpha 90.000000
_cell_angle_beta 90.000000
_cell_angle_gamma 90.000000
_cell_volume 777.071506
_symmetry_space_group_name_H-M "P B A N"
_symmetry_group_IT_number 50
_space_group.IT_coordinate_system_code '2'
_symmetry_cell_setting 'orthorhombic'
loop_
_space_group_symop_operation_xyz
x,y,z
1/2-x,1/2-y,z
x,1/2-y,-z
1/2-x,y,-z
-x,-y,-z
1/2+x,1/2+y,-z
-x,1/2+y,z
1/2+x,-y,z
loop_
_atom_site_type_symbol
_atom_site_label
_atom_site_fract_x
_atom_site_fract_y
_atom_site_fract_z
Si Si1 0.750000 0.250000 0.682047
Si Si2 0.078430 0.750000 0.500000
Si Si3 0.750000 0.750000 0.000000
Si Si4 0.087048 0.465801 0.168175
O O1 0.851356 0.196759 0.601683
O O2 0.809541 0.470141 0.751271
O O3 0.000000 0.500000 0.500000
O O4 0.837139 0.573447 0.932605
O O5 0.994801 0.707616 0.175929
#
# Coordination Sequence:
#
# PCOD9398210 Si02
#       4
#     4   4   2   8
#     4  11  26  47  76 108 150 195 246 307 378 452
#     4  11  26  47  74 110 148 193 246 305 372 452
#     4  12  28  50  76 110 152 202 260 326 388 458
#     4  12  27  47  73 107 146 195 251 311 379 453
#
# _framework density 23.163893000000002
#
# number of rings (size 3 to 8) (size 9 to 14) (size 15 to 20)
#    0.000    0.444    0.000    6.667    0.000   16.889 
#    0.000    0.000    0.000    0.000    0.000    0.000 
#    0.000    0.000    0.000    0.000    0.000    0.000 
#
# Total GULP energy -100487.256056 kJ/mol
# GULP energy per Si atom -5582.625336 kJ/mol
# Density = 2.311117 g / cm^3
# Si number density = 23.163893 Si / 1000 Ang^3
#
#
#
# Elastic Constant Matrix: (Units=GPa)
#
#
# Indices 1 2 3 4 5 6 
#
# 1 163.1041 113.2805 98.1191 0.0000 0.0000 0.0000
# 2 113.2805 199.9859 68.3456 0.0000 0.0000 0.0000
# 3 98.1191 68.3456 194.0500 0.0000 0.0000 0.0000
# 4 0.0000 0.0000 0.0000 -61.2167 0.0000 0.0000
# 5 0.0000 0.0000 0.0000 0.0000 174.0217 0.0000
# 6 0.0000 0.0000 0.0000 0.0000 0.0000 22.8789
#
#
#
# Elastic Compliance Matrix: (Units=1/GPa)
#
#
# Indices 1 2 3 4 5 6 
#
# 1 0.012777 -0.005718 -0.004447 0.000000 0.000000 0.000000
# 2 -0.005718 0.008243 -0.000012 0.000000 0.000000 0.000000
# 3 -0.004447 -0.000012 0.007406 0.000000 0.000000 0.000000
# 4 0.000000 0.000000 0.000000 -0.016335 0.000000 0.000000
# 5 0.000000 0.000000 0.000000 0.000000 0.005746 0.000000
# 6 0.000000 0.000000 0.000000 0.000000 0.000000 0.043708
#
#
# Mechanical properties :
#
#
# Convention : Reuss Voigt Hill
#
# Bulk Modulus (GPa) = 123.86998 124.07005 123.97002
# Shear Modulus (GPa) = 59.10770 45.62979 52.36874
#
# Velocity S-wave (km/s) = 5.05693 4.44313 4.75994
# Velocity P-wave (km/s) = 9.36420 8.94427 9.15665
#
# Compressibility (1/GPa) = 0.00807298
#
# Stress axis : x y z
#
# Youngs Moduli (GPa) = 78.26280 121.30905 135.02393
#
# Poissons Ratio (x) = 0.69364 0.60043
# Poissons Ratio (y) = 0.44750 0.00164
# Poissons Ratio (z) = 0.34802 0.00147
#
# Static dielectric constant tensor:
#      x y z
#    x 1.831690 0.000000 0.000000 
#    y 0.000000 1.846400 0.000000 
#    z 0.000000 0.000000 1.819160 
# 
# From -- ./inp_files/17201.got.cif
#   From: 2010.05.17/outbox.cif.g08.bks.cpg/sg50_9_cif.got.tgz:17201.got - 2010.06.03 11:33:33.
