data_PCOD9398522
_publ_section_title
;
Structure prediction by ZEFSAII (Michael W. Deem and Ramdas Pophale) SiO2 
 PCOD9398522
Probable space group: P M M A
;
_chemical_formula_sum "Si O2"
_cell_formula_units_Z 56
_cell_length_a 21.713171
_cell_length_b 7.420215
_cell_length_c 14.928142
_cell_angle_alpha 90.000000
_cell_angle_beta 90.000000
_cell_angle_gamma 90.000000
_cell_volume 2405.168455
_symmetry_space_group_name_H-M "P M M A"
_symmetry_group_IT_number 51
_symmetry_cell_setting 'orthorhombic'
loop_
_space_group_symop_operation_xyz
x,y,z
1/2-x,-y,z
1/2+x,-y,-z
-x,y,-z
-x,-y,-z
1/2+x,y,-z
1/2-x,y,z
x,-y,z
loop_
_atom_site_type_symbol
_atom_site_label
_atom_site_fract_x
_atom_site_fract_y
_atom_site_fract_z
Si Si1 0.636725 0.207211 0.666977
Si Si2 0.681045 0.715301 0.278168
Si Si3 0.956321 0.780386 0.916655
Si Si4 0.177265 0.299586 0.527348
Si Si5 0.507414 0.221494 0.601556
Si Si6 0.054838 0.215040 0.772108
Si Si7 0.180702 0.780085 0.141196
O O1 0.666561 0.210294 0.568628
O O2 0.570369 0.286428 0.646143
O O3 0.672219 0.277475 0.753859
O O4 0.625435 0.000000 0.691773
O O5 0.750000 0.777735 0.253529
O O6 0.684492 0.500000 0.290295
O O7 0.663226 0.791350 0.377085
O O8 0.626289 0.748005 0.208086
O O9 0.884190 0.723873 0.907002
O O10 0.999108 0.720169 0.833728
O O11 0.953862 0.000000 0.917629
O O12 0.000000 0.727174 0.000000
O O13 0.250000 0.318785 0.534030
O O14 0.148878 0.500000 0.522042
O O15 0.500000 0.281124 0.500000
O O16 0.456607 0.281391 0.671547
O O17 0.508150 0.000000 0.598188
O O18 0.048850 0.000000 0.773138
O O19 0.250000 0.721854 0.111361
O O20 0.181944 0.000000 0.136233
#
# Coordination Sequence:
#
# PCOD9398522 Si02
#       7
#     8   8   8   8   8   8   8
#     4  10  17  27  44  69  97 127 168 210 249 296
#     4   9  19  35  51  68  97 138 176 210 254 304
#     4   9  17  31  50  73 103 138 167 202 260 316
#     4   9  18  31  44  62  95 136 171 205 251 302
#     4   9  16  25  40  65  98 130 158 196 245 288
#     4  10  18  31  51  75 100 128 169 213 251 298
#     4   9  16  27  45  70  98 128 166 209 251 303
#
# _framework density 23.283193000000001
#
# number of rings (size 3 to 8) (size 9 to 14) (size 15 to 20)
#    0.000    2.714    1.429    2.143    0.000    2.857 
#    0.000    2.857    0.000    5.571    0.000    0.000 
#    0.000    2.286    0.000    0.000    0.000    0.000 
#
# Total GULP energy -311790.682980 kJ/mol
# GULP energy per Si atom -5567.690768 kJ/mol
# Density = 2.323020 g / cm^3
# Si number density = 23.283193 Si / 1000 Ang^3
#
#
#
# Elastic Constant Matrix: (Units=GPa)
#
#
# Indices 1 2 3 4 5 6 
#
# 1 220.1458 -0.3822 74.7225 0.0000 0.0000 0.0000
# 2 -0.3822 72.8530 4.5024 0.0000 0.0000 0.0000
# 3 74.7225 4.5024 67.6207 0.0000 0.0000 0.0000
# 4 0.0000 0.0000 0.0000 -12.1327 0.0000 0.0000
# 5 0.0000 0.0000 0.0000 0.0000 27.3678 0.0000
# 6 0.0000 0.0000 0.0000 0.0000 0.0000 -6.9110
#
#
#
# Elastic Compliance Matrix: (Units=1/GPa)
#
#
# Indices 1 2 3 4 5 6 
#
# 1 0.007290 0.000538 -0.008091 0.000000 0.000000 0.000000
# 2 0.000538 0.013823 -0.001515 0.000000 0.000000 0.000000
# 3 -0.008091 -0.001515 0.023830 0.000000 0.000000 0.000000
# 4 0.000000 0.000000 0.000000 -0.082422 0.000000 0.000000
# 5 0.000000 0.000000 0.000000 0.000000 0.036539 0.000000
# 6 0.000000 0.000000 0.000000 0.000000 0.000000 -0.144696
#
#
# Mechanical properties :
#
#
# Convention : Reuss Voigt Hill
#
# Bulk Modulus (GPa) = 37.30434 57.58943 47.44689
# Shear Modulus (GPa) = -42.17099 20.44995 -10.86052
#
# Velocity S-wave (km/s) = -4.26046 2.96685 -2.16210
# Velocity P-wave (km/s) = 2.85399 6.04353 3.76690
#
# Compressibility (1/GPa) = 0.02680653
#
# Stress axis : x y z
#
# Youngs Moduli (GPa) = 137.18021 72.34457 41.96373
#
# Poissons Ratio (x) = -0.03894 0.33953
# Poissons Ratio (y) = -0.07384 0.06358
# Poissons Ratio (z) = 1.10994 0.10961
#
# Static dielectric constant tensor:
#      x y z
#    x 1.957840 0.000000 0.000000 
#    y 0.000000 1.925460 0.000000 
#    z 0.000000 0.000000 1.955010 
# 
# From -- ./inp_files/25648.got.cif
#   From: 2010.05.17/outbox.cif.g08.bks.cpg/sg51_13_cif.got.tgz:25648.got - 2010.06.03 11:52:47.
