data_PCOD9398771
_publ_section_title
;
Structure prediction by ZEFSAII (Michael W. Deem and Ramdas Pophale) SiO2 
 PCOD9398771
Probable space group: P M M A
;
_chemical_formula_sum "Si O2"
_cell_formula_units_Z 36
_cell_length_a 9.158132
_cell_length_b 13.111688
_cell_length_c 20.324544
_cell_angle_alpha 90.000000
_cell_angle_beta 90.000000
_cell_angle_gamma 90.000000
_cell_volume 2440.542168
_symmetry_space_group_name_H-M "P M M A"
_symmetry_group_IT_number 51
_symmetry_cell_setting 'orthorhombic'
loop_
_space_group_symop_operation_xyz
x,y,z
1/2-x,-y,z
1/2+x,-y,-z
-x,y,-z
-x,-y,-z
1/2+x,y,-z
1/2-x,y,z
x,-y,z
loop_
_atom_site_type_symbol
_atom_site_label
_atom_site_fract_x
_atom_site_fract_y
_atom_site_fract_z
Si Si1 0.072587 0.804346 0.841304
Si Si2 0.073305 0.000000 0.928819
Si Si3 0.074203 0.382577 0.930110
Si Si4 0.918176 0.124193 0.566069
Si Si5 0.575725 0.878195 0.299755
O O1 0.250000 0.805327 0.838950
O O2 0.030778 0.899817 0.887234
O O3 0.027297 0.699329 0.875691
O O4 0.023769 0.822664 0.766534
O O5 0.250000 0.000000 0.935531
O O6 0.000000 0.000000 0.000000
O O7 0.250000 0.375287 0.937399
O O8 0.038958 0.500000 0.913005
O O9 0.000000 0.359137 0.000000
O O10 0.750000 0.155694 0.565151
O O11 0.000000 0.158440 0.500000
O O12 0.996637 0.155101 0.633568
O O13 0.921880 0.000000 0.565507
O O14 0.750000 0.863866 0.307209
O O15 0.552356 0.000000 0.290516
#
# Coordination Sequence:
#
# PCOD9398771 Si02
#       5
#     8   4   8   8   8
#     4   9  16  27  42  58  78 105 136 166 201 245
#     4  10  18  28  40  56  77 104 135 166 199 240
#     4   9  17  29  44  60  78 102 134 172 210 246
#     4   9  16  25  37  55  79 107 137 166 192 226
#     4   9  15  25  40  55  74 104 136 164 196 235
#
# _framework density 14.750819999999999
#
# number of rings (size 3 to 8) (size 9 to 14) (size 15 to 20)
#    0.000    2.889    1.111    1.333    0.000    2.667 
#    0.000    2.222    0.000    0.000    0.000    0.000 
#    0.000    0.889    0.000    1.556    0.000    2.222 
#
# Total GULP energy -200492.804983 kJ/mol
# GULP energy per Si atom -5569.244583 kJ/mol
# Density = 1.471725 g / cm^3
# Si number density = 14.750820 Si / 1000 Ang^3
#
#
#
# Elastic Constant Matrix: (Units=GPa)
#
#
# Indices 1 2 3 4 5 6 
#
# 1 34.8979 26.4850 55.5521 0.0000 0.0000 0.0000
# 2 26.4850 61.7486 67.7915 0.0000 0.0000 0.0000
# 3 55.5521 67.7915 181.3826 0.0000 0.0000 0.0000
# 4 0.0000 0.0000 0.0000 15.7103 0.0000 0.0000
# 5 0.0000 0.0000 0.0000 0.0000 27.5054 0.0000
# 6 0.0000 0.0000 0.0000 0.0000 0.0000 6.6900
#
#
#
# Elastic Compliance Matrix: (Units=1/GPa)
#
#
# Indices 1 2 3 4 5 6 
#
# 1 0.058877 -0.009253 -0.014574 0.000000 0.000000 0.000000
# 2 -0.009253 0.028918 -0.007974 0.000000 0.000000 0.000000
# 3 -0.014574 -0.007974 0.012957 0.000000 0.000000 0.000000
# 4 0.000000 0.000000 0.000000 0.063652 0.000000 0.000000
# 5 0.000000 0.000000 0.000000 0.000000 0.036357 0.000000
# 6 0.000000 0.000000 0.000000 0.000000 0.000000 0.149476
#
#
# Mechanical properties :
#
#
# Convention : Reuss Voigt Hill
#
# Bulk Modulus (GPa) = 26.91812 64.18736 45.55274
# Shear Modulus (GPa) = 11.73096 18.52785 15.12940
#
# Velocity S-wave (km/s) = 2.82312 3.54793 3.20608
# Velocity P-wave (km/s) = 5.37725 7.77127 6.68235
#
# Compressibility (1/GPa) = 0.03714969
#
# Stress axis : x y z
#
# Youngs Moduli (GPa) = 16.98460 34.58055 77.17794
#
# Poissons Ratio (x) = 0.31998 1.12478
# Poissons Ratio (y) = 0.15716 0.61542
# Poissons Ratio (z) = 0.24753 0.27575
#
# Static dielectric constant tensor:
#      x y z
#    x 1.492680 0.000000 0.000000 
#    y 0.000000 1.476080 0.000000 
#    z 0.000000 0.000000 1.481960 
# 
# From -- ./inp_files/31300.got.cif
#   From: 2010.05.17/outbox.cif.g08.bks.cpg/sg51_16_cif.got.tgz:31300.got - 2010.06.03 11:52:47.
