data_PCOD9398090
_publ_section_title
;
Structure prediction by ZEFSAII (Michael W. Deem and Ramdas Pophale) SiO2 
 PCOD9398090
Probable space group: P B A N
;
_chemical_formula_sum "Si O2"
_cell_formula_units_Z 20
_cell_length_a 12.855157
_cell_length_b 13.213916
_cell_length_c 4.880205
_cell_angle_alpha 90.000000
_cell_angle_beta 90.000000
_cell_angle_gamma 90.000000
_cell_volume 828.985611
_symmetry_space_group_name_H-M "P B A N"
_symmetry_group_IT_number 50
_space_group.IT_coordinate_system_code '2'
_symmetry_cell_setting 'orthorhombic'
loop_
_space_group_symop_operation_xyz
x,y,z
1/2-x,1/2-y,z
x,1/2-y,-z
1/2-x,y,-z
-x,-y,-z
1/2+x,1/2+y,-z
-x,1/2+y,z
1/2+x,-y,z
loop_
_atom_site_type_symbol
_atom_site_label
_atom_site_fract_x
_atom_site_fract_y
_atom_site_fract_z
Si Si1 0.750000 0.080470 0.000000
Si Si2 0.462441 0.250000 0.500000
Si Si3 0.400945 0.750000 0.000000
Si Si4 0.071317 0.037496 0.743929
O O1 0.683311 0.012578 0.795837
O O2 0.668023 0.160056 0.127222
O O3 0.532992 0.292396 0.251658
O O4 0.409741 0.343909 0.661710
O O5 0.000000 0.000000 0.500000
O O6 0.000000 0.000000 0.000000
#
# Coordination Sequence:
#
# PCOD9398090 Si02
#       4
#     4   4   4   8
#     4  11  24  44  72 119 154 204 271 329 408 494
#     4  12  22  47  70 113 156 206 262 331 409 488
#     4  11  24  40  76 111 150 205 272 328 392 495
#     4  12  25  44  72 111 157 205 261 339 407 482
#
# _framework density 24.125871
#
# number of rings (size 3 to 8) (size 9 to 14) (size 15 to 20)
#    0.000    0.400    8.000    0.000    0.000    8.000 
#    0.000    0.000    0.000   25.200    0.000    0.000 
#    0.000    0.000    0.000    0.000    0.000    0.000 
#
# Total GULP energy -111517.072976 kJ/mol
# GULP energy per Si atom -5575.853649 kJ/mol
# Density = 2.407096 g / cm^3
# Si number density = 24.125871 Si / 1000 Ang^3
#
#
#
# Elastic Constant Matrix: (Units=GPa)
#
#
# Indices 1 2 3 4 5 6 
#
# 1 96.9177 83.3483 55.2801 0.0000 0.0000 0.0000
# 2 83.3483 220.8645 53.6295 0.0000 0.0000 0.0000
# 3 55.2801 53.6295 177.2590 0.0000 0.0000 0.0000
# 4 0.0000 0.0000 0.0000 48.5680 0.0000 0.0000
# 5 0.0000 0.0000 0.0000 0.0000 32.4938 0.0000
# 6 0.0000 0.0000 0.0000 0.0000 0.0000 38.2340
#
#
#
# Elastic Compliance Matrix: (Units=1/GPa)
#
#
# Indices 1 2 3 4 5 6 
#
# 1 0.017245 -0.005614 -0.003679 0.000000 0.000000 0.000000
# 2 -0.005614 0.006715 -0.000281 0.000000 0.000000 0.000000
# 3 -0.003679 -0.000281 0.006874 0.000000 0.000000 0.000000
# 4 0.000000 0.000000 0.000000 0.020590 0.000000 0.000000
# 5 0.000000 0.000000 0.000000 0.000000 0.030775 0.000000
# 6 0.000000 0.000000 0.000000 0.000000 0.000000 0.026155
#
#
# Mechanical properties :
#
#
# Convention : Reuss Voigt Hill
#
# Bulk Modulus (GPa) = 85.58260 97.72853 91.65557
# Shear Modulus (GPa) = 38.05277 44.04471 41.04874
#
# Velocity S-wave (km/s) = 3.97578 4.27736 4.12933
# Velocity P-wave (km/s) = 7.52504 8.06165 7.79796
#
# Compressibility (1/GPa) = 0.01168462
#
# Stress axis : x y z
#
# Youngs Moduli (GPa) = 57.98775 148.93133 145.47968
#
# Poissons Ratio (x) = 0.83616 0.53528
# Poissons Ratio (y) = 0.32557 0.04082
# Poissons Ratio (z) = 0.21336 0.04178
#
# Static dielectric constant tensor:
#      x y z
#    x 1.958050 0.000000 0.000000 
#    y 0.000000 2.086880 0.000000 
#    z 0.000000 0.000000 1.852220 
# 
# From -- ./inp_files/1577.got.cif
#   From: 2010.05.17/outbox.cif.g08.bks.cpg/sg50_1_cif.got.tgz:1577.got - 2010.06.03 11:33:33.
