data_PCOD9398730
_publ_section_title
;
Structure prediction by ZEFSAII (Michael W. Deem and Ramdas Pophale) SiO2 
 PCOD9398730
Probable space group: P M M A
;
_chemical_formula_sum "Si O2"
_cell_formula_units_Z 64
_cell_length_a 8.557641
_cell_length_b 30.698504
_cell_length_c 13.844453
_cell_angle_alpha 90.000000
_cell_angle_beta 90.000000
_cell_angle_gamma 90.000000
_cell_volume 3637.031620
_symmetry_space_group_name_H-M "P M M A"
_symmetry_group_IT_number 51
_symmetry_cell_setting 'orthorhombic'
loop_
_space_group_symop_operation_xyz
x,y,z
1/2-x,-y,z
1/2+x,-y,-z
-x,y,-z
-x,-y,-z
1/2+x,y,-z
1/2-x,y,z
x,-y,z
loop_
_atom_site_type_symbol
_atom_site_label
_atom_site_fract_x
_atom_site_fract_y
_atom_site_fract_z
Si Si1 0.562943 0.862398 0.890779
Si Si2 0.060116 0.641240 0.301964
Si Si3 0.437376 0.730661 0.396723
Si Si4 0.939211 0.770287 0.804146
Si Si5 0.064026 0.682083 0.894021
Si Si6 0.565117 0.452130 0.694999
Si Si7 0.424820 0.551839 0.902779
Si Si8 0.437123 0.047412 0.889850
O O1 0.750000 0.863918 0.893522
O O2 0.513538 0.818272 0.837354
O O3 0.502590 0.907888 0.846399
O O4 0.500000 0.859620 0.000000
O O5 0.250000 0.640674 0.297763
O O6 0.010409 0.681698 0.368248
O O7 0.004942 0.594392 0.342603
O O8 0.000911 0.652252 0.193661
O O9 0.500000 0.744048 0.500000
O O10 0.250000 0.730301 0.400120
O O11 0.484340 0.760539 0.306411
O O12 0.750000 0.766828 0.811605
O O13 0.010039 0.731335 0.867767
O O14 0.250000 0.679864 0.894371
O O15 0.000000 0.671127 0.000000
O O16 0.750000 0.454034 0.676469
O O17 0.498254 0.500000 0.667521
O O18 0.534167 0.446120 0.809465
O O19 0.250000 0.569382 0.884267
O O20 0.406948 0.500000 0.918932
O O21 0.500000 0.570313 0.000000
O O22 0.250000 0.049958 0.892562
O O23 0.481424 0.000000 0.847192
O O24 0.500000 0.046950 0.000000
#
# Coordination Sequence:
#
# PCOD9398730 Si02
#       8
#     8   8   8   8   8   8   8   8
#     4  10  18  27  42  64  93 130 166 200 237 275
#     4   9  19  35  51  69  94 119 146 183 221 261
#     4   9  18  34  54  73  93 116 143 180 227 277
#     4   9  19  34  49  69  97 124 153 192 236 281
#     4  11  21  32  48  68  92 124 158 189 223 268
#     4   9  17  30  48  66  83 108 141 174 211 254
#     4   9  16  25  37  54  78 108 140 173 206 239
#     4   9  16  25  37  55  84 125 171 213 245 272
#
# _framework density 17.596768000000001
#
# number of rings (size 3 to 8) (size 9 to 14) (size 15 to 20)
#    0.000    2.625    0.000    4.125    0.000    7.250 
#    0.000    0.000    0.000    0.375    0.000    0.000 
#    0.000    0.500    0.000    1.125    0.000    2.500 
#
# Total GULP energy -356611.160140 kJ/mol
# GULP energy per Si atom -5572.049377 kJ/mol
# Density = 1.755672 g / cm^3
# Si number density = 17.596768 Si / 1000 Ang^3
#
#
#
# Elastic Constant Matrix: (Units=GPa)
#
#
# Indices 1 2 3 4 5 6 
#
# 1 26.7904 25.3883 5.1235 0.0000 0.0000 0.0000
# 2 25.3883 171.7676 25.9962 0.0000 0.0000 0.0000
# 3 5.1235 25.9962 44.3400 0.0000 0.0000 0.0000
# 4 0.0000 0.0000 0.0000 -126.2529 0.0000 0.0000
# 5 0.0000 0.0000 0.0000 0.0000 16.4215 0.0000
# 6 0.0000 0.0000 0.0000 0.0000 0.0000 19.8043
#
#
#
# Elastic Compliance Matrix: (Units=1/GPa)
#
#
# Indices 1 2 3 4 5 6 
#
# 1 0.043484 -0.006218 -0.001379 0.000000 0.000000 0.000000
# 2 -0.006218 0.007278 -0.003548 0.000000 0.000000 0.000000
# 3 -0.001379 -0.003548 0.024793 0.000000 0.000000 0.000000
# 4 0.000000 0.000000 0.000000 -0.007921 0.000000 0.000000
# 5 0.000000 0.000000 0.000000 0.000000 0.060896 0.000000
# 6 0.000000 0.000000 0.000000 0.000000 0.000000 0.050494
#
#
# Mechanical properties :
#
#
# Convention : Reuss Voigt Hill
#
# Bulk Modulus (GPa) = 18.77478 39.54601 29.16039
# Shear Modulus (GPa) = 22.82383 -5.57944 8.62219
#
# Velocity S-wave (km/s) = 3.60536 -1.78258 2.21597
# Velocity P-wave (km/s) = 5.29378 4.27615 4.81194
#
# Compressibility (1/GPa) = 0.05326296
#
# Stress axis : x y z
#
# Youngs Moduli (GPa) = 22.99720 137.40055 40.33434
#
# Poissons Ratio (x) = 0.85442 0.05561
# Poissons Ratio (y) = 0.14301 0.14313
# Poissons Ratio (z) = 0.03171 0.48756
#
# Static dielectric constant tensor:
#      x y z
#    x 1.687370 0.000000 0.000000 
#    y 0.000000 1.672640 0.000000 
#    z 0.000000 0.000000 1.582340 
# 
# From -- ./inp_files/14807.got.cif
#   From: 2010.05.17/outbox.cif.g08.bks.cpg/sg51_8_cif.got.tgz:14807.got - 2010.06.03 11:52:47.
