data_PCOD9398216
_publ_section_title
;
Structure prediction by ZEFSAII (Michael W. Deem and Ramdas Pophale) SiO2 
 PCOD9398216
Probable space group: P B A N
;
_chemical_formula_sum "Si O2"
_cell_formula_units_Z 30
_cell_length_a 19.438824
_cell_length_b 4.928427
_cell_length_c 12.392809
_cell_angle_alpha 90.000000
_cell_angle_beta 90.000000
_cell_angle_gamma 90.000000
_cell_volume 1187.266113
_symmetry_space_group_name_H-M "P B A N"
_symmetry_group_IT_number 50
_space_group.IT_coordinate_system_code '2'
_symmetry_cell_setting 'orthorhombic'
loop_
_space_group_symop_operation_xyz
x,y,z
1/2-x,1/2-y,z
x,1/2-y,-z
1/2-x,y,-z
-x,-y,-z
1/2+x,1/2+y,-z
-x,1/2+y,z
1/2+x,-y,z
loop_
_atom_site_type_symbol
_atom_site_label
_atom_site_fract_x
_atom_site_fract_y
_atom_site_fract_z
Si Si1 0.250000 0.750000 0.000000
Si Si2 0.955128 0.390342 0.300662
Si Si3 0.750000 0.250000 0.636844
Si Si4 0.750000 0.750000 0.228412
Si Si5 0.871968 0.250000 0.500000
Si Si6 0.365815 0.125036 0.892134
O O1 0.197134 0.563956 0.932812
O O2 0.916769 0.422504 0.416066
O O3 0.915107 0.480519 0.192774
O O4 0.023114 0.576367 0.299636
O O5 0.721791 0.498171 0.704301
O O6 0.813948 0.391288 0.574794
O O7 0.681013 0.648786 0.167463
O O8 0.399682 0.250000 0.000000
#
# Coordination Sequence:
#
# PCOD9398216 Si02
#       6
#     2   8   4   4   4   8
#     4  12  24  46  80 116 148 188 244 342 400 444
#     4  12  31  51  75 106 156 214 258 308 374 476
#     4  11  27  41  83 116 148 190 250 340 390 452
#     4  12  23  47  72 118 152 188 244 324 404 452
#     4  11  26  50  78 112 152 197 264 322 392 453
#     4  12  27  45  80 112 154 198 258 320 402 466
#
# _framework density 25.268135000000001
#
# number of rings (size 3 to 8) (size 9 to 14) (size 15 to 20)
#    0.000    0.267    5.333    1.600    7.467    5.333 
#    0.000    0.000    0.000    0.000    0.000    0.000 
#    0.000    0.000    0.000    0.000    0.000    0.000 
#
# Total GULP energy -167446.699784 kJ/mol
# GULP energy per Si atom -5581.556659 kJ/mol
# Density = 2.521062 g / cm^3
# Si number density = 25.268135 Si / 1000 Ang^3
#
#
#
# Elastic Constant Matrix: (Units=GPa)
#
#
# Indices 1 2 3 4 5 6 
#
# 1 88.4895 3.5837 63.7628 0.0000 0.0000 0.0000
# 2 3.5837 56.0890 26.2689 0.0000 0.0000 0.0000
# 3 63.7628 26.2689 177.3835 0.0000 0.0000 0.0000
# 4 0.0000 0.0000 0.0000 31.5235 0.0000 0.0000
# 5 0.0000 0.0000 0.0000 0.0000 22.9903 0.0000
# 6 0.0000 0.0000 0.0000 0.0000 0.0000 26.5177
#
#
#
# Elastic Compliance Matrix: (Units=1/GPa)
#
#
# Indices 1 2 3 4 5 6 
#
# 1 0.015406 0.001729 -0.005794 0.000000 0.000000 0.000000
# 2 0.001729 0.019352 -0.003487 0.000000 0.000000 0.000000
# 3 -0.005794 -0.003487 0.008237 0.000000 0.000000 0.000000
# 4 0.000000 0.000000 0.000000 0.031722 0.000000 0.000000
# 5 0.000000 0.000000 0.000000 0.000000 0.043497 0.000000
# 6 0.000000 0.000000 0.000000 0.000000 0.000000 0.037711
#
#
# Mechanical properties :
#
#
# Convention : Reuss Voigt Hill
#
# Bulk Modulus (GPa) = 35.85540 56.57697 46.21619
# Shear Modulus (GPa) = 27.72786 31.42942 29.57864
#
# Velocity S-wave (km/s) = 3.31621 3.53063 3.42510
# Velocity P-wave (km/s) = 5.37437 6.24978 5.82853
#
# Compressibility (1/GPa) = 0.02788980
#
# Stress axis : x y z
#
# Youngs Moduli (GPa) = 64.91155 51.67530 121.40909
#
# Poissons Ratio (x) = -0.08936 0.70342
# Poissons Ratio (y) = -0.11224 0.42340
# Poissons Ratio (z) = 0.37609 0.18021
#
# Static dielectric constant tensor:
#      x y z
#    x 1.950940 0.000000 0.000000 
#    y 0.000000 2.013140 0.000000 
#    z 0.000000 0.000000 2.523610 
# 
# From -- ./inp_files/22094.got.cif
#   From: 2010.05.17/outbox.cif.g08.bks.cpg/sg50_12_cif.got.tgz:22094.got - 2010.06.03 11:33:33.
