data_PCOD9398737
_publ_section_title
;
Structure prediction by ZEFSAII (Michael W. Deem and Ramdas Pophale) SiO2 
 PCOD9398737
Probable space group: P M M A
;
_chemical_formula_sum "Si O2"
_cell_formula_units_Z 64
_cell_length_a 29.654833
_cell_length_b 7.680291
_cell_length_c 16.292596
_cell_angle_alpha 90.000000
_cell_angle_beta 90.000000
_cell_angle_gamma 90.000000
_cell_volume 3710.764958
_symmetry_space_group_name_H-M "P M M A"
_symmetry_group_IT_number 51
_symmetry_cell_setting 'orthorhombic'
loop_
_space_group_symop_operation_xyz
x,y,z
1/2-x,-y,z
1/2+x,-y,-z
-x,y,-z
-x,-y,-z
1/2+x,y,-z
1/2-x,y,z
x,-y,z
loop_
_atom_site_type_symbol
_atom_site_label
_atom_site_fract_x
_atom_site_fract_y
_atom_site_fract_z
Si Si1 0.142463 0.293886 0.667142
Si Si2 0.050185 0.709596 0.405569
Si Si3 0.301051 0.208046 0.826505
Si Si4 0.645770 0.793062 0.657081
Si Si5 0.304853 0.201606 0.003816
Si Si6 0.302425 0.213657 0.182933
Si Si7 0.801657 0.789860 0.496191
Si Si8 0.050305 0.287012 0.595453
O O1 0.138308 0.500000 0.672850
O O2 0.166511 0.235953 0.750137
O O3 0.173217 0.254391 0.588042
O O4 0.092292 0.223406 0.648880
O O5 0.049629 0.500000 0.406345
O O6 0.092569 0.765308 0.352183
O O7 0.057363 0.765829 0.500338
O O8 0.000113 0.768463 0.379784
O O9 0.250000 0.273321 0.809329
O O10 0.297381 0.000000 0.837280
O O11 0.317378 0.278759 0.915138
O O12 0.667515 0.725568 0.741100
O O13 0.670669 0.723769 0.575293
O O14 0.653910 0.000000 0.657521
O O15 0.250000 0.201005 0.003608
O O16 0.317550 0.276839 0.092560
O O17 0.320070 0.000000 0.004700
O O18 0.250000 0.261240 0.196044
O O19 0.303403 0.000000 0.180236
O O20 0.750000 0.727536 0.496704
O O21 0.800447 0.000000 0.500799
O O22 0.050532 0.500000 0.596164
#
# Coordination Sequence:
#
# PCOD9398737 Si02
#       8
#     8   8   8   8   8   8   8   8
#     4  11  20  30  44  63  83 108 145 182 211 245
#     4   9  16  31  49  60  77 109 144 177 215 259
#     4   9  17  29  44  63  88 115 142 173 210 251
#     4  10  18  27  42  67  91 110 138 177 213 242
#     4   7  11  22  41  62  82 109 145 176 201 240
#     4   8  13  23  41  64  89 116 144 172 203 245
#     4  10  20  31  40  55  87 125 148 163 195 245
#     4   8  16  30  47  61  76 106 146 181 213 252
#
# _framework density 17.247119999999999
#
# number of rings (size 3 to 8) (size 9 to 14) (size 15 to 20)
#    0.000    3.000    1.250    3.375    0.000    3.500 
#    0.000    2.500    0.000    1.875    0.000    2.625 
#    0.000    7.000    0.000    0.000    0.000    0.000 
#
# Total GULP energy -356535.816019 kJ/mol
# GULP energy per Si atom -5570.872125 kJ/mol
# Density = 1.720786 g / cm^3
# Si number density = 17.247120 Si / 1000 Ang^3
#
#
#
# Elastic Constant Matrix: (Units=GPa)
#
#
# Indices 1 2 3 4 5 6 
#
# 1 118.5787 -0.8803 91.9992 0.0000 0.0000 0.0000
# 2 -0.8803 27.5987 6.6463 0.0000 0.0000 0.0000
# 3 91.9992 6.6463 170.7319 0.0000 0.0000 0.0000
# 4 0.0000 0.0000 0.0000 -17.2243 0.0000 0.0000
# 5 0.0000 0.0000 0.0000 0.0000 8.5627 0.0000
# 6 0.0000 0.0000 0.0000 0.0000 0.0000 16.9839
#
#
#
# Elastic Compliance Matrix: (Units=1/GPa)
#
#
# Indices 1 2 3 4 5 6 
#
# 1 0.014646 0.002390 -0.007985 0.000000 0.000000 0.000000
# 2 0.002390 0.036966 -0.002727 0.000000 0.000000 0.000000
# 3 -0.007985 -0.002727 0.010266 0.000000 0.000000 0.000000
# 4 0.000000 0.000000 0.000000 -0.058057 0.000000 0.000000
# 5 0.000000 0.000000 0.000000 0.000000 0.116785 0.000000
# 6 0.000000 0.000000 0.000000 0.000000 0.000000 0.058879
#
#
# Mechanical properties :
#
#
# Convention : Reuss Voigt Hill
#
# Bulk Modulus (GPa) = 22.10686 56.93774 39.52230
# Shear Modulus (GPa) = 23.67329 16.27408 19.97368
#
# Velocity S-wave (km/s) = 3.70887 3.07511 3.40676
# Velocity P-wave (km/s) = 5.58449 6.75966 6.19998
#
# Compressibility (1/GPa) = 0.04523483
#
# Stress axis : x y z
#
# Youngs Moduli (GPa) = 68.27664 27.05154 97.40748
#
# Poissons Ratio (x) = -0.06466 0.77782
# Poissons Ratio (y) = -0.16319 0.26563
# Poissons Ratio (z) = 0.54520 0.07377
#
# Static dielectric constant tensor:
#      x y z
#    x 1.590560 0.000000 0.000000 
#    y 0.000000 1.651100 0.000000 
#    z 0.000000 0.000000 1.617650 
# 
# From -- ./inp_files/26650.got.cif
#   From: 2010.05.17/outbox.cif.g08.bks.cpg/sg51_14_cif.got.tgz:26650.got - 2010.06.03 11:52:47.
