data_PCOD9398161
_publ_section_title
;
Structure prediction by ZEFSAII (Michael W. Deem and Ramdas Pophale) SiO2 
 PCOD9398161
Probable space group: P B A N
;
_chemical_formula_sum "Si O2"
_cell_formula_units_Z 40
_cell_length_a 15.568760
_cell_length_b 8.756527
_cell_length_c 13.169563
_cell_angle_alpha 90.000000
_cell_angle_beta 90.000000
_cell_angle_gamma 90.000000
_cell_volume 1795.383705
_symmetry_space_group_name_H-M "P B A N"
_symmetry_group_IT_number 50
_space_group.IT_coordinate_system_code '2'
_symmetry_cell_setting 'orthorhombic'
loop_
_space_group_symop_operation_xyz
x,y,z
1/2-x,1/2-y,z
x,1/2-y,-z
1/2-x,y,-z
-x,-y,-z
1/2+x,1/2+y,-z
-x,1/2+y,z
1/2+x,-y,z
loop_
_atom_site_type_symbol
_atom_site_label
_atom_site_fract_x
_atom_site_fract_y
_atom_site_fract_z
Si Si1 0.325273 0.131298 0.704383
Si Si2 0.499009 0.792119 0.758607
Si Si3 0.235948 0.566580 0.118730
Si Si4 0.535561 0.454111 0.109083
Si Si5 0.343528 0.686180 0.387905
O O1 0.250000 0.250000 0.678712
O O2 0.410138 0.234093 0.718365
O O3 0.294024 0.036159 0.805922
O O4 0.338892 0.997220 0.621987
O O5 0.484775 0.721338 0.870295
O O6 0.419757 0.759276 0.685258
O O7 0.495604 0.968546 0.790071
O O8 0.250000 0.750000 0.133614
O O9 0.136247 0.523594 0.127632
O O10 0.250000 0.535596 0.000000
O O11 0.500000 0.500000 0.000000
O O12 0.250000 0.750000 0.357278
O O13 0.359714 0.750000 0.500000
#
# Coordination Sequence:
#
# PCOD9398161 Si02
#       5
#     8   8   8   8   8
#     4  12  24  46  73 108 148 190 241 308 376 439
#     4  12  25  45  73 104 147 191 243 305 365 441
#     4  11  25  41  67 102 148 204 256 296 365 446
#     4  12  25  42  66 106 150 198 249 304 360 432
#     4  11  27  52  79 103 142 191 242 311 382 448
#
# _framework density 22.279361000000002
#
# number of rings (size 3 to 8) (size 9 to 14) (size 15 to 20)
#    0.000    0.400    4.000    4.800    5.600    1.200 
#    0.000    2.000    0.000    0.000    0.000    0.000 
#    0.000    0.000    0.000    0.000    0.000    0.000 
#
# Total GULP energy -223455.446567 kJ/mol
# GULP energy per Si atom -5586.386164 kJ/mol
# Density = 2.222865 g / cm^3
# Si number density = 22.279361 Si / 1000 Ang^3
#
#
#
# Elastic Constant Matrix: (Units=GPa)
#
#
# Indices 1 2 3 4 5 6 
#
# 1 174.4958 27.1946 54.5716 0.0000 0.0000 0.0000
# 2 27.1946 92.6495 44.0434 0.0000 0.0000 0.0000
# 3 54.5716 44.0434 133.1131 0.0000 0.0000 0.0000
# 4 0.0000 0.0000 0.0000 28.5516 0.0000 0.0000
# 5 0.0000 0.0000 0.0000 0.0000 22.6453 0.0000
# 6 0.0000 0.0000 0.0000 0.0000 0.0000 -34.0208
#
#
#
# Elastic Compliance Matrix: (Units=1/GPa)
#
#
# Indices 1 2 3 4 5 6 
#
# 1 0.006620 -0.000775 -0.002458 0.000000 0.000000 0.000000
# 2 -0.000775 0.012899 -0.003950 0.000000 0.000000 0.000000
# 3 -0.002458 -0.003950 0.009827 0.000000 0.000000 0.000000
# 4 0.000000 0.000000 0.000000 0.035024 0.000000 0.000000
# 5 0.000000 0.000000 0.000000 0.000000 0.044159 0.000000
# 6 0.000000 0.000000 0.000000 0.000000 0.000000 -0.029394
#
#
# Mechanical properties :
#
#
# Convention : Reuss Voigt Hill
#
# Bulk Modulus (GPa) = 66.75368 72.43085 69.59226
# Shear Modulus (GPa) = 50.76444 21.73182 36.24813
#
# Velocity S-wave (km/s) = 4.77859 3.12657 4.03796
# Velocity P-wave (km/s) = 7.77648 6.75387 7.28315
#
# Compressibility (1/GPa) = 0.01498045
#
# Stress axis : x y z
#
# Youngs Moduli (GPa) = 151.05382 77.52779 101.76098
#
# Poissons Ratio (x) = 0.06007 0.25009
# Poissons Ratio (y) = 0.11704 0.40197
# Poissons Ratio (z) = 0.37124 0.30624
#
# Static dielectric constant tensor:
#      x y z
#    x 2.014930 0.000000 0.000000 
#    y 0.000000 1.812540 0.000000 
#    z 0.000000 0.000000 1.811140 
# 
# From -- ./inp_files/26289.got.cif
#   From: 2010.05.17/outbox.cif.g08.bks.cpg/sg50_14_cif.got.tgz:26289.got - 2010.06.03 11:33:33.
