data_PCOD9398157
_publ_section_title
;
Structure prediction by ZEFSAII (Michael W. Deem and Ramdas Pophale) SiO2 
 PCOD9398157
Probable space group: P B A N
;
_chemical_formula_sum "Si O2"
_cell_formula_units_Z 34
_cell_length_a 17.514730
_cell_length_b 18.533913
_cell_length_c 4.972123
_cell_angle_alpha 90.000000
_cell_angle_beta 90.000000
_cell_angle_gamma 90.000000
_cell_volume 1614.033077
_symmetry_space_group_name_H-M "P B A N"
_symmetry_group_IT_number 50
_space_group.IT_coordinate_system_code '2'
_symmetry_cell_setting 'orthorhombic'
loop_
_space_group_symop_operation_xyz
x,y,z
1/2-x,1/2-y,z
x,1/2-y,-z
1/2-x,y,-z
-x,-y,-z
1/2+x,1/2+y,-z
-x,1/2+y,z
1/2+x,-y,z
loop_
_atom_site_type_symbol
_atom_site_label
_atom_site_fract_x
_atom_site_fract_y
_atom_site_fract_z
Si Si1 0.750000 0.250000 0.000000
Si Si2 0.486613 0.702211 0.731449
Si Si3 0.066700 0.443992 0.921619
Si Si4 0.833451 0.976168 0.412378
Si Si5 0.173709 0.855627 0.665162
O O1 0.813098 0.187985 0.065014
O O2 0.526170 0.750000 0.500000
O O3 0.531317 0.631068 0.824652
O O4 0.409357 0.672173 0.582875
O O5 0.475407 0.750000 0.000000
O O6 0.114118 0.476969 0.675079
O O7 0.123184 0.435172 0.174864
O O8 0.000000 0.500000 0.000000
O O9 0.750000 0.949046 0.500000
O O10 0.824123 0.058921 0.313551
O O11 0.250000 0.831518 0.500000
#
# Coordination Sequence:
#
# PCOD9398157 Si02
#       5
#     2   8   8   8   8
#     4  12  22  40  56  98 148 192 214 252 334 440
#     4  12  26  43  68  99 142 183 233 288 356 413
#     4  12  25  46  72 103 141 184 237 294 343 413
#     4  11  26  44  73 101 139 183 239 285 347 407
#     4  11  25  38  62  95 147 189 225 259 333 427
#
# _framework density 21.065245000000001
#
# number of rings (size 3 to 8) (size 9 to 14) (size 15 to 20)
#    0.000    0.471    3.529    4.588    9.882    0.000 
#    0.000    0.000    0.000   10.588    0.000    0.000 
#    0.000    0.000    0.000    0.000    0.000    0.000 
#
# Total GULP energy -189572.602804 kJ/mol
# GULP energy per Si atom -5575.664788 kJ/mol
# Density = 2.101730 g / cm^3
# Si number density = 21.065245 Si / 1000 Ang^3
#
#
#
# Elastic Constant Matrix: (Units=GPa)
#
#
# Indices 1 2 3 4 5 6 
#
# 1 126.3328 72.8651 56.0342 0.0000 0.0000 0.0000
# 2 72.8651 97.4182 40.6475 0.0000 0.0000 0.0000
# 3 56.0342 40.6475 113.9640 0.0000 0.0000 0.0000
# 4 0.0000 0.0000 0.0000 45.4521 0.0000 0.0000
# 5 0.0000 0.0000 0.0000 0.0000 2470.5375 0.0000
# 6 0.0000 0.0000 0.0000 0.0000 0.0000 14.2862
#
#
#
# Elastic Compliance Matrix: (Units=1/GPa)
#
#
# Indices 1 2 3 4 5 6 
#
# 1 0.015370 -0.009802 -0.004061 0.000000 0.000000 0.000000
# 2 -0.009802 0.018311 -0.001711 0.000000 0.000000 0.000000
# 3 -0.004061 -0.001711 0.011382 0.000000 0.000000 0.000000
# 4 0.000000 0.000000 0.000000 0.022001 0.000000 0.000000
# 5 0.000000 0.000000 0.000000 0.000000 0.000405 0.000000
# 6 0.000000 0.000000 0.000000 0.000000 0.000000 0.069997
#
#
# Mechanical properties :
#
#
# Convention : Reuss Voigt Hill
#
# Bulk Modulus (GPa) = 71.87156 75.20094 73.53625
# Shear Modulus (GPa) = 28.85943 517.26638 273.06290
#
# Velocity S-wave (km/s) = 3.70537 15.68718 11.39775
# Velocity P-wave (km/s) = 7.24562 19.07598 14.42900
#
# Compressibility (1/GPa) = 0.01391371
#
# Stress axis : x y z
#
# Youngs Moduli (GPa) = 65.05984 54.61329 87.85808
#
# Poissons Ratio (x) = 0.53532 0.35682
# Poissons Ratio (y) = 0.63771 0.15036
# Poissons Ratio (z) = 0.26423 0.09346
#
# Static dielectric constant tensor:
#      x y z
#    x 1.798110 0.000000 0.000000 
#    y 0.000000 1.727110 0.000000 
#    z 0.000000 0.000000 1.935160 
# 
# From -- ./inp_files/4173.got.cif
#   From: 2010.05.17/outbox.cif.g08.bks.cpg/sg50_3_cif.got.tgz:4173.got - 2010.06.03 11:33:33.
