data_PCOD9398984
_publ_section_title
;
Structure prediction by ZEFSAII (Michael W. Deem and Ramdas Pophale) SiO2 
 PCOD9398984
Probable space group: P M M A
;
_chemical_formula_sum "Si O2"
_cell_formula_units_Z 56
_cell_length_a 8.740155
_cell_length_b 19.177543
_cell_length_c 19.638366
_cell_angle_alpha 90.000000
_cell_angle_beta 90.000000
_cell_angle_gamma 90.000000
_cell_volume 3291.678793
_symmetry_space_group_name_H-M "P M M A"
_symmetry_group_IT_number 51
_symmetry_cell_setting 'orthorhombic'
loop_
_space_group_symop_operation_xyz
x,y,z
1/2-x,-y,z
1/2+x,-y,-z
-x,y,-z
-x,-y,-z
1/2+x,y,-z
1/2-x,y,z
x,-y,z
loop_
_atom_site_type_symbol
_atom_site_label
_atom_site_fract_x
_atom_site_fract_y
_atom_site_fract_z
Si Si1 0.932699 0.289456 0.926390
Si Si2 0.432882 0.682229 0.427806
Si Si3 0.436597 0.078847 0.289890
Si Si4 0.065893 0.845826 0.428209
Si Si5 0.432668 0.656447 0.712577
Si Si6 0.565129 0.788036 0.791238
Si Si7 0.065624 0.579125 0.849623
O O1 0.750000 0.291126 0.930244
O O2 0.977636 0.234092 0.867705
O O3 0.991961 0.364039 0.899169
O O4 0.000000 0.273749 0.000000
O O5 0.500000 0.657985 0.500000
O O6 0.250000 0.678827 0.429411
O O7 0.478290 0.764312 0.420211
O O8 0.495678 0.643797 0.361207
O O9 0.250000 0.077534 0.290250
O O10 0.484425 0.109505 0.363247
O O11 0.482167 0.135405 0.233237
O O12 0.490144 0.000000 0.279239
O O13 0.250000 0.848042 0.430917
O O14 0.000000 0.870974 0.500000
O O15 0.250000 0.659207 0.706643
O O16 0.494834 0.730012 0.741385
O O17 0.472584 0.601345 0.771975
O O18 0.750000 0.783151 0.785293
O O19 0.250000 0.583585 0.856100
O O20 0.018008 0.500000 0.863605
#
# Coordination Sequence:
#
# PCOD9398984 Si02
#       7
#     8   8   8   8   8   8   8
#     4  10  20  33  53  77 102 129 160 194 234 282
#     4  10  18  29  45  67  95 125 162 209 251 288
#     4   9  16  28  47  68  91 123 163 204 244 284
#     4   9  17  28  42  62  90 123 157 196 240 283
#     4  10  18  29  49  73  95 125 161 198 242 286
#     4   9  17  32  50  70  94 124 161 201 238 281
#     4   9  19  35  53  75 104 133 160 191 230 281
#
# _framework density 17.012595999999998
#
# number of rings (size 3 to 8) (size 9 to 14) (size 15 to 20)
#    0.000    2.571    1.429    1.286    0.000    2.571 
#    0.000    0.000    0.000    2.143    0.000    0.000 
#    0.000    0.000    0.000    0.000    0.000    0.429 
#
# Total GULP energy -312230.123911 kJ/mol
# GULP energy per Si atom -5575.537927 kJ/mol
# Density = 1.697387 g / cm^3
# Si number density = 17.012596 Si / 1000 Ang^3
#
#
#
# Elastic Constant Matrix: (Units=GPa)
#
#
# Indices 1 2 3 4 5 6 
#
# 1 14.2678 7.2269 28.4692 0.0000 0.0000 0.0000
# 2 7.2269 56.5451 34.0669 0.0000 0.0000 0.0000
# 3 28.4692 34.0669 139.2982 0.0000 0.0000 0.0000
# 4 0.0000 0.0000 0.0000 14.6806 0.0000 0.0000
# 5 0.0000 0.0000 0.0000 0.0000 30.1597 0.0000
# 6 0.0000 0.0000 0.0000 0.0000 0.0000 11.5587
#
#
#
# Elastic Compliance Matrix: (Units=1/GPa)
#
#
# Indices 1 2 3 4 5 6 
#
# 1 0.118373 -0.000649 -0.024034 0.000000 0.000000 0.000000
# 2 -0.000649 0.020745 -0.004941 0.000000 0.000000 0.000000
# 3 -0.024034 -0.004941 0.013299 0.000000 0.000000 0.000000
# 4 0.000000 0.000000 0.000000 0.068117 0.000000 0.000000
# 5 0.000000 0.000000 0.000000 0.000000 0.033157 0.000000
# 6 0.000000 0.000000 0.000000 0.000000 0.000000 0.086515
#
#
# Mechanical properties :
#
#
# Convention : Reuss Voigt Hill
#
# Bulk Modulus (GPa) = 10.73318 38.84855 24.79086
# Shear Modulus (GPa) = 11.61417 20.63634 16.12526
#
# Velocity S-wave (km/s) = 2.61565 3.48660 3.08204
# Velocity P-wave (km/s) = 3.92999 6.25246 5.22198
#
# Compressibility (1/GPa) = 0.09316905
#
# Stress axis : x y z
#
# Youngs Moduli (GPa) = 8.44790 48.20540 75.19349
#
# Poissons Ratio (x) = 0.03130 1.80718
# Poissons Ratio (y) = 0.00548 0.37150
# Poissons Ratio (z) = 0.20303 0.23816
#
# Static dielectric constant tensor:
#      x y z
#    x 1.570100 0.000000 0.000000 
#    y 0.000000 1.568750 0.000000 
#    z 0.000000 0.000000 1.578160 
# 
# From -- ./inp_files/28162.got.cif
#   From: 2010.05.17/outbox.cif.g08.bks.cpg/sg51_15_cif.got.tgz:28162.got - 2010.06.03 11:52:47.
