data_PCOD9398261
_publ_section_title
;
Structure prediction by ZEFSAII (Michael W. Deem and Ramdas Pophale) SiO2 
 PCOD9398261
Probable space group: P B A N
;
_chemical_formula_sum "Si O2"
_cell_formula_units_Z 24
_cell_length_a 5.225037
_cell_length_b 13.594293
_cell_length_c 13.159803
_cell_angle_alpha 90.000000
_cell_angle_beta 90.000000
_cell_angle_gamma 90.000000
_cell_volume 934.749807
_symmetry_space_group_name_H-M "P B A N"
_symmetry_group_IT_number 50
_space_group.IT_coordinate_system_code '2'
_symmetry_cell_setting 'orthorhombic'
loop_
_space_group_symop_operation_xyz
x,y,z
1/2-x,1/2-y,z
x,1/2-y,-z
1/2-x,y,-z
-x,-y,-z
1/2+x,1/2+y,-z
-x,1/2+y,z
1/2+x,-y,z
loop_
_atom_site_type_symbol
_atom_site_label
_atom_site_fract_x
_atom_site_fract_y
_atom_site_fract_z
Si Si1 0.092702 0.337954 0.821541
Si Si2 0.250000 0.250000 0.500000
Si Si3 0.532989 0.067930 0.616164
Si Si4 0.250000 0.437603 0.000000
Si Si5 0.750000 0.250000 0.000000
O O1 0.250000 0.250000 0.769973
O O2 0.965354 0.400834 0.734738
O O3 0.917884 0.308653 0.918044
O O4 0.302600 0.388053 0.890799
O O5 0.437741 0.169265 0.558487
O O6 0.811267 0.015798 0.599719
O O7 0.500000 0.500000 0.000000
#
# Coordination Sequence:
#
# PCOD9398261 Si02
#       5
#     8   2   8   4   2
#     4  12  25  45  71 110 160 215 268 331 396 479
#     4  12  28  58  92 118 168 206 268 358 424 490
#     4  12  30  53  83 124 160 212 276 336 418 499
#     4  12  24  40  63  99 146 198 258 318 378 466
#     4  12  24  44  80 110 168 228 276 320 412 470
#
# _framework density 25.675321
#
# number of rings (size 3 to 8) (size 9 to 14) (size 15 to 20)
#    0.000    0.000    5.000    4.000    4.667    2.667 
#    0.000    0.000    0.000    0.000    0.000    0.000 
#    0.000    0.000    0.000    0.000    0.000    0.000 
#
# Total GULP energy -133679.269643 kJ/mol
# GULP energy per Si atom -5569.969568 kJ/mol
# Density = 2.561688 g / cm^3
# Si number density = 25.675321 Si / 1000 Ang^3
#
#
#
# Elastic Constant Matrix: (Units=GPa)
#
#
# Indices 1 2 3 4 5 6 
#
# 1 113.5284 26.8813 -14.0642 0.0000 0.0000 0.0000
# 2 26.8813 108.0178 9.0740 0.0000 0.0000 0.0000
# 3 -14.0642 9.0740 92.1875 0.0000 0.0000 0.0000
# 4 0.0000 0.0000 0.0000 48.9449 0.0000 0.0000
# 5 0.0000 0.0000 0.0000 0.0000 1.1877 0.0000
# 6 0.0000 0.0000 0.0000 0.0000 0.0000 -271.5091
#
#
#
# Elastic Compliance Matrix: (Units=1/GPa)
#
#
# Indices 1 2 3 4 5 6 
#
# 1 0.009622 -0.002539 0.001718 0.000000 0.000000 0.000000
# 2 -0.002539 0.010005 -0.001372 0.000000 0.000000 0.000000
# 3 0.001718 -0.001372 0.011245 0.000000 0.000000 0.000000
# 4 0.000000 0.000000 0.000000 0.020431 0.000000 0.000000
# 5 0.000000 0.000000 0.000000 0.000000 0.841985 0.000000
# 6 0.000000 0.000000 0.000000 0.000000 0.000000 -0.003683
#
#
# Mechanical properties :
#
#
# Convention : Reuss Voigt Hill
#
# Bulk Modulus (GPa) = 37.75650 39.72398 38.74024
# Shear Modulus (GPa) = 5.53820 -24.81913 -9.64047
#
# Velocity S-wave (km/s) = 1.47027 -3.11248 -1.93982
# Velocity P-wave (km/s) = 4.19757 1.60890 3.17869
#
# Compressibility (1/GPa) = 0.02648550
#
# Stress axis : x y z
#
# Youngs Moduli (GPa) = 103.92469 99.95168 88.93164
#
# Poissons Ratio (x) = 0.25377 -0.15278
# Poissons Ratio (y) = 0.26386 0.12202
# Poissons Ratio (z) = -0.17853 0.13714
#
# Static dielectric constant tensor:
#      x y z
#    x 2.666050 0.000000 0.000000 
#    y 0.000000 1.592310 0.000000 
#    z 0.000000 0.000000 1.888400 
# 
# From -- ./inp_files/23541.got.cif
#   From: 2010.05.17/outbox.cif.g08.bks.cpg/sg50_12_cif.got.tgz:23541.got - 2010.06.03 11:33:33.
