data_PCOD9398514
_publ_section_title
;
Structure prediction by ZEFSAII (Michael W. Deem and Ramdas Pophale) SiO2 
 PCOD9398514
Probable space group: P M M A
;
_chemical_formula_sum "Si O2"
_cell_formula_units_Z 64
_cell_length_a 31.231626
_cell_length_b 7.408473
_cell_length_c 15.090436
_cell_angle_alpha 90.000000
_cell_angle_beta 90.000000
_cell_angle_gamma 90.000000
_cell_volume 3491.604830
_symmetry_space_group_name_H-M "P M M A"
_symmetry_group_IT_number 51
_symmetry_cell_setting 'orthorhombic'
loop_
_space_group_symop_operation_xyz
x,y,z
1/2-x,-y,z
1/2+x,-y,-z
-x,y,-z
-x,-y,-z
1/2+x,y,-z
1/2-x,y,z
x,-y,z
loop_
_atom_site_type_symbol
_atom_site_label
_atom_site_fract_x
_atom_site_fract_y
_atom_site_fract_z
Si Si1 0.437271 0.718804 0.140838
Si Si2 0.297414 0.709946 0.984905
Si Si3 0.123299 0.790460 0.303596
Si Si4 0.609244 0.278961 0.040570
Si Si5 0.063724 0.220528 0.451096
Si Si6 0.533096 0.709392 0.163053
Si Si7 0.702234 0.218606 0.807544
Si Si8 0.027145 0.782197 0.632644
O O1 0.437776 0.500000 0.143612
O O2 0.414056 0.781958 0.229904
O O3 0.486345 0.784460 0.137468
O O4 0.409776 0.773124 0.055343
O O5 0.250000 0.788395 0.965530
O O6 0.295558 0.500000 0.958867
O O7 0.341949 0.785675 0.947261
O O8 0.303021 0.717506 0.091539
O O9 0.103856 0.714230 0.394096
O O10 0.165156 0.712198 0.256621
O O11 0.133143 0.000000 0.321312
O O12 0.611194 0.500000 0.041416
O O13 0.574601 0.217055 0.112902
O O14 0.058695 0.275230 0.553224
O O15 0.020236 0.274151 0.399638
O O16 0.064035 0.000000 0.450113
O O17 0.531178 0.500000 0.135695
O O18 0.537060 0.718729 0.268964
O O19 0.750000 0.268122 0.778035
O O20 0.699672 0.000000 0.811416
O O21 0.027172 0.000000 0.635309
#
# Coordination Sequence:
#
# PCOD9398514 Si02
#       8
#     8   8   8   8   8   8   8   8
#     4  10  18  28  41  59  84 115 145 168 196 240
#     4   9  16  27  44  62  79 105 142 176 202 238
#     4  10  17  27  44  62  83 111 140 167 201 247
#     4   9  17  29  42  58  84 115 142 168 204 248
#     4   8  15  27  44  61  79 107 137 166 205 246
#     4  10  19  29  42  60  84 114 143 173 208 243
#     4   9  17  27  40  61  87 109 130 165 210 248
#     4   9  16  29  45  60  80 106 139 174 205 242
#
# _framework density 18.329681000000001
#
# number of rings (size 3 to 8) (size 9 to 14) (size 15 to 20)
#    0.000    2.750    2.500    1.125    0.000    1.500 
#    0.000    3.125    0.000    1.500    0.000    0.875 
#    0.000    1.000    0.000    0.000    0.000    0.000 
#
# Total GULP energy -356847.402323 kJ/mol
# GULP energy per Si atom -5575.740661 kJ/mol
# Density = 1.828796 g / cm^3
# Si number density = 18.329681 Si / 1000 Ang^3
#
#
#
# Elastic Constant Matrix: (Units=GPa)
#
#
# Indices 1 2 3 4 5 6 
#
# 1 148.9707 1.3193 34.9424 0.0000 0.0000 0.0000
# 2 1.3193 60.0107 -9.0147 0.0000 0.0000 0.0000
# 3 34.9424 -9.0147 42.3042 0.0000 0.0000 0.0000
# 4 0.0000 0.0000 0.0000 -33.1483 0.0000 0.0000
# 5 0.0000 0.0000 0.0000 0.0000 25.8612 0.0000
# 6 0.0000 0.0000 0.0000 0.0000 0.0000 3.9899
#
#
#
# Elastic Compliance Matrix: (Units=1/GPa)
#
#
# Indices 1 2 3 4 5 6 
#
# 1 0.008418 -0.001270 -0.007224 0.000000 0.000000 0.000000
# 2 -0.001270 0.017406 0.004758 0.000000 0.000000 0.000000
# 3 -0.007224 0.004758 0.030619 0.000000 0.000000 0.000000
# 4 0.000000 0.000000 0.000000 -0.030167 0.000000 0.000000
# 5 0.000000 0.000000 0.000000 0.000000 0.038668 0.000000
# 6 0.000000 0.000000 0.000000 0.000000 0.000000 0.250633
#
#
# Mechanical properties :
#
#
# Convention : Reuss Voigt Hill
#
# Bulk Modulus (GPa) = 20.41979 33.97551 27.19765
# Shear Modulus (GPa) = 14.73301 14.27647 14.50474
#
# Velocity S-wave (km/s) = 2.83818 2.79386 2.81610
# Velocity P-wave (km/s) = 4.68026 5.38364 5.04422
#
# Compressibility (1/GPa) = 0.04897210
#
# Stress axis : x y z
#
# Youngs Moduli (GPa) = 118.78648 57.45004 32.65916
#
# Poissons Ratio (x) = 0.07298 0.23593
# Poissons Ratio (y) = 0.15089 -0.15541
# Poissons Ratio (z) = 0.85813 -0.27337
#
# Static dielectric constant tensor:
#      x y z
#    x 1.664210 0.000000 0.000000 
#    y 0.000000 1.724680 0.000000 
#    z 0.000000 0.000000 1.601660 
# 
# From -- ./inp_files/26609.got.cif
#   From: 2010.05.17/outbox.cif.g08.bks.cpg/sg51_14_cif.got.tgz:26609.got - 2010.06.03 11:52:47.
