data_PCOD9398786
_publ_section_title
;
Structure prediction by ZEFSAII (Michael W. Deem and Ramdas Pophale) SiO2 
 PCOD9398786
Probable space group: P M M A
;
_chemical_formula_sum "Si O2"
_cell_formula_units_Z 56
_cell_length_a 7.831076
_cell_length_b 22.551242
_cell_length_c 19.097983
_cell_angle_alpha 90.000000
_cell_angle_beta 90.000000
_cell_angle_gamma 90.000000
_cell_volume 3372.713156
_symmetry_space_group_name_H-M "P M M A"
_symmetry_group_IT_number 51
_symmetry_cell_setting 'orthorhombic'
loop_
_space_group_symop_operation_xyz
x,y,z
1/2-x,-y,z
1/2+x,-y,-z
-x,y,-z
-x,-y,-z
1/2+x,y,-z
1/2-x,y,z
x,-y,z
loop_
_atom_site_type_symbol
_atom_site_label
_atom_site_fract_x
_atom_site_fract_y
_atom_site_fract_z
Si Si1 0.956171 0.318251 0.919176
Si Si2 0.044308 0.066556 0.419289
Si Si3 0.459896 0.181524 0.337576
Si Si4 0.447465 0.643845 0.715452
Si Si5 0.044425 0.434232 0.163900
Si Si6 0.546832 0.700214 0.580722
Si Si7 0.055198 0.242338 0.203312
O O1 0.750000 0.318032 0.912317
O O2 0.017511 0.380992 0.886484
O O3 0.022197 0.264542 0.869893
O O4 0.000000 0.312737 0.000000
O O5 0.250000 0.065454 0.414082
O O6 0.982584 0.119376 0.369697
O O7 0.000000 0.079633 0.500000
O O8 0.980723 0.000000 0.403187
O O9 0.250000 0.181919 0.336306
O O10 0.513308 0.236316 0.387579
O O11 0.520515 0.195776 0.258582
O O12 0.250000 0.656670 0.729834
O O13 0.496729 0.584927 0.757149
O O14 0.477475 0.649714 0.632938
O O15 0.555215 0.696658 0.751349
O O16 0.250000 0.435145 0.158955
O O17 0.980431 0.500000 0.146668
O O18 0.500000 0.693948 0.500000
O O19 0.750000 0.699497 0.586424
O O20 0.250000 0.223473 0.189631
#
# Coordination Sequence:
#
# PCOD9398786 Si02
#       7
#     8   8   8   8   8   8   8
#     4   9  17  28  43  63  86 110 132 160 200 243
#     4   9  16  25  37  55  81 112 143 174 208 243
#     4   8  14  25  41  58  78 107 141 174 205 241
#     4  10  18  28  43  63  84 104 131 169 210 246
#     4   9  18  33  49  62  80 110 142 164 189 233
#     4  10  18  28  42  60  82 107 137 172 211 251
#     4   8  15  29  44  57  78 109 140 167 202 246
#
# _framework density 16.603842
#
# number of rings (size 3 to 8) (size 9 to 14) (size 15 to 20)
#    0.000    3.000    0.000    3.857    0.000    2.857 
#    0.000    2.857    0.000    0.429    0.000    0.000 
#    0.000    0.571    0.000    0.429    0.000    1.000 
#
# Total GULP energy -311749.332189 kJ/mol
# GULP energy per Si atom -5566.952361 kJ/mol
# Density = 1.656605 g / cm^3
# Si number density = 16.603842 Si / 1000 Ang^3
#
#
#
# Elastic Constant Matrix: (Units=GPa)
#
#
# Indices 1 2 3 4 5 6 
#
# 1 29.5513 0.6065 -0.6486 0.0000 0.0000 0.0000
# 2 0.6065 72.5498 62.9613 0.0000 0.0000 0.0000
# 3 -0.6486 62.9613 145.3154 0.0000 0.0000 0.0000
# 4 0.0000 0.0000 0.0000 21.5392 0.0000 0.0000
# 5 0.0000 0.0000 0.0000 0.0000 21.7569 0.0000
# 6 0.0000 0.0000 0.0000 0.0000 0.0000 3.5190
#
#
#
# Elastic Compliance Matrix: (Units=1/GPa)
#
#
# Indices 1 2 3 4 5 6 
#
# 1 0.033863 -0.000664 0.000439 0.000000 0.000000 0.000000
# 2 -0.000664 0.022103 -0.009579 0.000000 0.000000 0.000000
# 3 0.000439 -0.009579 0.011034 0.000000 0.000000 0.000000
# 4 0.000000 0.000000 0.000000 0.046427 0.000000 0.000000
# 5 0.000000 0.000000 0.000000 0.000000 0.045962 0.000000
# 6 0.000000 0.000000 0.000000 0.000000 0.000000 0.284174
#
#
# Mechanical properties :
#
#
# Convention : Reuss Voigt Hill
#
# Bulk Modulus (GPa) = 21.10135 41.47276 31.28706
# Shear Modulus (GPa) = 10.43909 21.66282 16.05096
#
# Velocity S-wave (km/s) = 2.51014 3.61596 3.11256
# Velocity P-wave (km/s) = 4.59754 6.51657 5.63928
#
# Compressibility (1/GPa) = 0.04739033
#
# Stress axis : x y z
#
# Youngs Moduli (GPa) = 29.53099 45.24361 90.62853
#
# Poissons Ratio (x) = 0.03004 -0.03977
# Poissons Ratio (y) = 0.01960 0.86817
# Poissons Ratio (z) = -0.01296 0.43341
#
# Static dielectric constant tensor:
#      x y z
#    x 1.610440 0.000000 0.000000 
#    y 0.000000 1.566330 0.000000 
#    z 0.000000 0.000000 1.582390 
# 
# From -- ./inp_files/28515.got.cif
#   From: 2010.05.17/outbox.cif.g08.bks.cpg/sg51_15_cif.got.tgz:28515.got - 2010.06.03 11:52:47.
