data_PCOD9398633
_publ_section_title
;
Structure prediction by ZEFSAII (Michael W. Deem and Ramdas Pophale) SiO2 
 PCOD9398633
Probable space group: P M M A
;
_chemical_formula_sum "Si O2"
_cell_formula_units_Z 52
_cell_length_a 18.702557
_cell_length_b 12.587997
_cell_length_c 12.893441
_cell_angle_alpha 90.000000
_cell_angle_beta 90.000000
_cell_angle_gamma 90.000000
_cell_volume 3035.473565
_symmetry_space_group_name_H-M "P M M A"
_symmetry_group_IT_number 51
_symmetry_cell_setting 'orthorhombic'
loop_
_space_group_symop_operation_xyz
x,y,z
1/2-x,-y,z
1/2+x,-y,-z
-x,y,-z
-x,-y,-z
1/2+x,y,-z
1/2-x,y,z
x,-y,z
loop_
_atom_site_type_symbol
_atom_site_label
_atom_site_fract_x
_atom_site_fract_y
_atom_site_fract_z
Si Si1 0.056948 0.000000 0.093158
Si Si2 0.095584 0.625595 0.405371
Si Si3 0.471138 0.000000 0.332947
Si Si4 0.169192 0.000000 0.463168
Si Si5 0.975632 0.772404 0.318628
Si Si6 0.330450 0.624827 0.181555
Si Si7 0.053097 0.230811 0.095776
Si Si8 0.833222 0.773281 0.421516
O O1 0.023718 0.000000 0.208267
O O2 0.091686 0.115620 0.086273
O O3 0.000000 0.000000 0.000000
O O4 0.087700 0.500000 0.427795
O O5 0.140825 0.637371 0.298966
O O6 0.138375 0.690201 0.492534
O O7 0.020021 0.683259 0.381457
O O8 0.390250 0.000000 0.373980
O O9 0.505467 0.888563 0.365902
O O10 0.161505 0.107422 0.530778
O O11 0.250000 0.000000 0.420344
O O12 0.890718 0.761265 0.329403
O O13 0.006157 0.768359 0.201720
O O14 0.250000 0.666852 0.173549
O O15 0.329678 0.500000 0.159685
O O16 0.386339 0.682134 0.107685
O O17 0.000000 0.246019 0.000000
O O18 0.750000 0.754667 0.395972
#
# Coordination Sequence:
#
# PCOD9398633 Si02
#       8
#     4   8   4   4   8   8   8   8
#     4   8  16  31  49  72 102 130 163 203 251 302
#     4  10  20  34  52  73 100 135 172 207 247 302
#     4  10  17  32  54  75  97 137 171 211 256 291
#     4  10  21  33  48  77 109 135 168 212 258 303
#     4  10  20  33  53  76  98 133 174 211 249 300
#     4   9  18  33  52  75 101 129 165 210 261 308
#     4   9  18  34  54  76 100 130 169 211 255 301
#     4  11  22  34  48  71 105 138 167 204 250 300
#
# _framework density 17.130769999999998
#
# number of rings (size 3 to 8) (size 9 to 14) (size 15 to 20)
#    0.000    2.308    1.538    1.385    0.000    3.077 
#    0.000    1.154    0.000    0.000    0.000    7.538 
#    0.000    0.000    0.000    0.000    0.000    0.000 
#
# Total GULP energy -289679.250056 kJ/mol
# GULP energy per Si atom -5570.754809 kJ/mol
# Density = 1.709178 g / cm^3
# Si number density = 17.130770 Si / 1000 Ang^3
#
#
#
# Elastic Constant Matrix: (Units=GPa)
#
#
# Indices 1 2 3 4 5 6 
#
# 1 144.1013 45.9289 39.2820 0.0000 0.0000 0.0000
# 2 45.9289 88.9741 23.6905 0.0000 0.0000 0.0000
# 3 39.2820 23.6905 50.0556 0.0000 0.0000 0.0000
# 4 0.0000 0.0000 0.0000 -2.0093 0.0000 0.0000
# 5 0.0000 0.0000 0.0000 0.0000 13.6273 0.0000
# 6 0.0000 0.0000 0.0000 0.0000 0.0000 21.8137
#
#
#
# Elastic Compliance Matrix: (Units=1/GPa)
#
#
# Indices 1 2 3 4 5 6 
#
# 1 0.009647 -0.003391 -0.005965 0.000000 0.000000 0.000000
# 2 -0.003391 0.014052 -0.003989 0.000000 0.000000 0.000000
# 3 -0.005965 -0.003989 0.026547 0.000000 0.000000 0.000000
# 4 0.000000 0.000000 0.000000 -0.497683 0.000000 0.000000
# 5 0.000000 0.000000 0.000000 0.000000 0.073382 0.000000
# 6 0.000000 0.000000 0.000000 0.000000 0.000000 0.045843
#
#
# Mechanical properties :
#
#
# Convention : Reuss Voigt Hill
#
# Bulk Modulus (GPa) = 42.45526 55.65932 49.05729
# Shear Modulus (GPa) = -17.02592 18.30165 0.63787
#
# Velocity S-wave (km/s) = -3.15601 3.27211 0.61087
# Velocity P-wave (km/s) = 3.39946 6.84375 5.40339
#
# Compressibility (1/GPa) = 0.02355420
#
# Stress axis : x y z
#
# Youngs Moduli (GPa) = 103.66350 71.16423 37.66877
#
# Poissons Ratio (x) = 0.24134 0.22471
# Poissons Ratio (y) = 0.35155 0.15027
# Poissons Ratio (z) = 0.61838 0.28389
#
# Static dielectric constant tensor:
#      x y z
#    x 1.570720 0.000000 0.000000 
#    y 0.000000 1.610350 0.000000 
#    z 0.000000 0.000000 1.574520 
# 
# From -- ./inp_files/25134.got.cif
#   From: 2010.05.17/outbox.cif.g08.bks.cpg/sg51_13_cif.got.tgz:25134.got - 2010.06.03 11:52:47.
