data_PCOD9398338
_publ_section_title
;
Structure prediction by ZEFSAII (Michael W. Deem and Ramdas Pophale) SiO2 
 PCOD9398338
Probable space group: P M M A
;
_chemical_formula_sum "Si O2"
_cell_formula_units_Z 24
_cell_length_a 5.416052
_cell_length_b 30.994006
_cell_length_c 7.361980
_cell_angle_alpha 90.000000
_cell_angle_beta 90.000000
_cell_angle_gamma 90.000000
_cell_volume 1235.819864
_symmetry_space_group_name_H-M "P M M A"
_symmetry_group_IT_number 51
_symmetry_cell_setting 'orthorhombic'
loop_
_space_group_symop_operation_xyz
x,y,z
1/2-x,-y,z
1/2+x,-y,-z
-x,y,-z
-x,-y,-z
1/2+x,y,-z
1/2-x,y,z
x,-y,z
loop_
_atom_site_type_symbol
_atom_site_label
_atom_site_fract_x
_atom_site_fract_y
_atom_site_fract_z
Si Si1 0.250000 0.810731 0.717093
Si Si2 0.750000 0.406181 0.880820
Si Si3 0.250000 0.500000 0.121818
Si Si4 0.250000 0.000000 0.622125
Si Si5 0.250000 0.225658 0.296794
Si Si6 0.250000 0.906342 0.621388
Si Si7 0.250000 0.325500 0.384538
O O1 0.250000 0.795087 0.502636
O O2 0.500818 0.791224 0.791262
O O3 0.250000 0.862209 0.732150
O O4 0.750000 0.364521 0.755705
O O5 0.500000 0.404808 0.000000
O O6 0.750000 0.453283 0.782010
O O7 0.500000 0.500000 0.000000
O O8 0.250000 0.046746 0.718221
O O9 0.500000 0.000000 0.500000
O O10 0.250000 0.277118 0.305530
O O11 0.500000 0.904627 0.500000
O O12 0.500000 0.328995 0.500000
#
# Coordination Sequence:
#
# PCOD9398338 Si02
#       7
#     4   4   2   2   4   4   4
#     4  10  14  23  36  51  75 107 146 176 224 266
#     4  10  21  38  57  78 101 134 169 202 240 296
#     4   8  16  34  58  74  94 130 172 198 228 288
#     4   8  16  20  24  38  56  82 126 176 224 240
#     4  10  16  25  37  57  83 109 142 179 228 263
#     4  10  14  20  29  40  60  91 129 181 211 261
#     4  12  21  33  51  77 105 131 159 206 255 285
#
# _framework density 19.420304999999999
#
# number of rings (size 3 to 8) (size 9 to 14) (size 15 to 20)
#    0.000    2.000    6.667    1.000    0.000    0.000 
#    0.000    0.833    0.000    0.000    0.000    0.000 
#    0.000    0.000    0.000    0.000    0.000    0.000 
#
# Total GULP energy -133631.747855 kJ/mol
# GULP energy per Si atom -5567.989494 kJ/mol
# Density = 1.937610 g / cm^3
# Si number density = 19.420305 Si / 1000 Ang^3
#
#
#
# Elastic Constant Matrix: (Units=GPa)
#
#
# Indices 1 2 3 4 5 6 
#
# 1 207.7693 56.3563 22.2968 0.0000 0.0000 0.0000
# 2 56.3563 258.2441 41.7755 0.0000 0.0000 0.0000
# 3 22.2968 41.7755 26.2630 0.0000 0.0000 0.0000
# 4 0.0000 0.0000 0.0000 -48.2814 0.0000 0.0000
# 5 0.0000 0.0000 0.0000 0.0000 -1.9547 0.0000
# 6 0.0000 0.0000 0.0000 0.0000 0.0000 34.9048
#
#
#
# Elastic Compliance Matrix: (Units=1/GPa)
#
#
# Indices 1 2 3 4 5 6 
#
# 1 0.005360 -0.000584 -0.003622 0.000000 0.000000 0.000000
# 2 -0.000584 0.005278 -0.007899 0.000000 0.000000 0.000000
# 3 -0.003622 -0.007899 0.053716 0.000000 0.000000 0.000000
# 4 0.000000 0.000000 0.000000 -0.020712 0.000000 0.000000
# 5 0.000000 0.000000 0.000000 0.000000 -0.511586 0.000000
# 6 0.000000 0.000000 0.000000 0.000000 0.000000 0.028649
#
#
# Mechanical properties :
#
#
# Convention : Reuss Voigt Hill
#
# Bulk Modulus (GPa) = 24.91035 81.45931 53.18483
# Shear Modulus (GPa) = -12.44700 21.72359 4.63830
#
# Velocity S-wave (km/s) = -2.53440 3.34818 1.54711
# Velocity P-wave (km/s) = 2.07137 7.54875 5.53508
#
# Compressibility (1/GPa) = 0.04014396
#
# Stress axis : x y z
#
# Youngs Moduli (GPa) = 186.56449 189.48273 18.61639
#
# Poissons Ratio (x) = 0.11062 0.06743
# Poissons Ratio (y) = 0.10892 0.14705
# Poissons Ratio (z) = 0.67573 1.49674
#
# Static dielectric constant tensor:
#      x y z
#    x 1.687130 0.000000 0.000000 
#    y 0.000000 1.711280 0.000000 
#    z 0.000000 0.000000 1.671850 
# 
# From -- ./inp_files/4222.got.cif
#   From: 2010.05.17/outbox.cif.g08.bks.cpg/sg51_3_cif.got.tgz:4222.got - 2010.06.03 11:52:47.
