data_PCOD9398608
_publ_section_title
;
Structure prediction by ZEFSAII (Michael W. Deem and Ramdas Pophale) SiO2 
 PCOD9398608
Probable space group: P M M A
;
_chemical_formula_sum "Si O2"
_cell_formula_units_Z 64
_cell_length_a 15.045550
_cell_length_b 14.426461
_cell_length_c 18.717957
_cell_angle_alpha 90.000000
_cell_angle_beta 90.000000
_cell_angle_gamma 90.000000
_cell_volume 4062.808193
_symmetry_space_group_name_H-M "P M M A"
_symmetry_group_IT_number 51
_symmetry_cell_setting 'orthorhombic'
loop_
_space_group_symop_operation_xyz
x,y,z
1/2-x,-y,z
1/2+x,-y,-z
-x,y,-z
-x,-y,-z
1/2+x,y,-z
1/2-x,y,z
x,-y,z
loop_
_atom_site_type_symbol
_atom_site_label
_atom_site_fract_x
_atom_site_fract_y
_atom_site_fract_z
Si Si1 0.352641 0.112314 0.947097
Si Si2 0.525760 0.112116 0.185507
Si Si3 0.958140 0.211997 0.332187
Si Si4 0.648955 0.393279 0.351214
Si Si5 0.351025 0.112678 0.108473
Si Si6 0.398702 0.606823 0.485438
Si Si7 0.653660 0.776269 0.604223
Si Si8 0.899180 0.894885 0.470693
O O1 0.250000 0.138408 0.935185
O O2 0.414462 0.141660 0.882097
O O3 0.356645 0.000000 0.947852
O O4 0.377433 0.141671 0.027673
O O5 0.555803 0.157499 0.258915
O O6 0.424992 0.139836 0.165322
O O7 0.529794 0.000000 0.191532
O O8 0.920861 0.316332 0.326184
O O9 0.905275 0.163248 0.397661
O O10 0.063352 0.207614 0.351422
O O11 0.750000 0.373835 0.327135
O O12 0.626116 0.500000 0.332428
O O13 0.647442 0.389099 0.437701
O O14 0.250000 0.143084 0.122625
O O15 0.350164 0.000000 0.107745
O O16 0.500000 0.639769 0.500000
O O17 0.402487 0.500000 0.461948
O O18 0.355192 0.673238 0.428135
O O19 0.750000 0.789003 0.640047
O O20 0.650491 0.842186 0.534246
O O21 0.000000 0.899859 0.500000
O O22 0.867510 0.000000 0.459031
#
# Coordination Sequence:
#
# PCOD9398608 Si02
#       8
#     8   8   8   8   8   8   8   8
#     4   8  14  26  44  66  91 119 152 188 224 263
#     4  10  19  29  44  66  95 129 158 183 220 267
#     4  11  21  33  46  67  93 120 151 191 232 276
#     4  10  20  34  52  70  87 110 143 188 243 292
#     4   8  14  26  45  67  92 123 157 190 221 257
#     4  10  17  30  52  73  89 105 135 189 247 290
#     4  11  21  33  47  64  87 118 156 195 232 274
#     4   9  18  33  47  57  78 116 159 197 228 257
#
# _framework density 15.752651
#
# number of rings (size 3 to 8) (size 9 to 14) (size 15 to 20)
#    0.000    2.375    2.500    2.250    0.000    4.000 
#    0.000    0.000    0.000    2.250    0.000    0.000 
#    0.000    2.000    0.000    2.750    0.000    0.250 
#
# Total GULP energy -356576.421678 kJ/mol
# GULP energy per Si atom -5571.506589 kJ/mol
# Density = 1.571680 g / cm^3
# Si number density = 15.752651 Si / 1000 Ang^3
#
#
#
# Elastic Constant Matrix: (Units=GPa)
#
#
# Indices 1 2 3 4 5 6 
#
# 1 61.9600 17.8332 11.5378 0.0000 0.0000 0.0000
# 2 17.8332 52.7601 15.7814 0.0000 0.0000 0.0000
# 3 11.5378 15.7814 45.3727 0.0000 0.0000 0.0000
# 4 0.0000 0.0000 0.0000 5.3880 0.0000 0.0000
# 5 0.0000 0.0000 0.0000 0.0000 8.4843 0.0000
# 6 0.0000 0.0000 0.0000 0.0000 0.0000 -5.8319
#
#
#
# Elastic Compliance Matrix: (Units=1/GPa)
#
#
# Indices 1 2 3 4 5 6 
#
# 1 0.018187 -0.005317 -0.002775 0.000000 0.000000 0.000000
# 2 -0.005317 0.022709 -0.006547 0.000000 0.000000 0.000000
# 3 -0.002775 -0.006547 0.025022 0.000000 0.000000 0.000000
# 4 0.000000 0.000000 0.000000 0.185598 0.000000 0.000000
# 5 0.000000 0.000000 0.000000 0.000000 0.117864 0.000000
# 6 0.000000 0.000000 0.000000 0.000000 0.000000 -0.171471
#
#
# Mechanical properties :
#
#
# Convention : Reuss Voigt Hill
#
# Bulk Modulus (GPa) = 27.29231 27.82194 27.55713
# Shear Modulus (GPa) = 20.88550 9.27078 15.07814
#
# Velocity S-wave (km/s) = 3.64516 2.42858 3.09719
# Velocity P-wave (km/s) = 5.92279 5.05609 5.50652
#
# Compressibility (1/GPa) = 0.03664035
#
# Stress axis : x y z
#
# Youngs Moduli (GPa) = 54.98561 44.03526 39.96419
#
# Poissons Ratio (x) = 0.23414 0.11091
# Poissons Ratio (y) = 0.29236 0.26163
# Poissons Ratio (z) = 0.15260 0.28828
#
# Static dielectric constant tensor:
#      x y z
#    x 1.588480 0.000000 0.000000 
#    y 0.000000 1.524730 0.000000 
#    z 0.000000 0.000000 1.503810 
# 
# From -- ./inp_files/29961.got.cif
#   From: 2010.05.17/outbox.cif.g08.bks.cpg/sg51_15_cif.got.tgz:29961.got - 2010.06.03 11:52:47.
