data_PCOD9398207
_publ_section_title
;
Structure prediction by ZEFSAII (Michael W. Deem and Ramdas Pophale) SiO2 
 PCOD9398207
Probable space group: P B A N
;
_chemical_formula_sum "Si O2"
_cell_formula_units_Z 56
_cell_length_a 8.111812
_cell_length_b 14.724137
_cell_length_c 22.384037
_cell_angle_alpha 90.000000
_cell_angle_beta 90.000000
_cell_angle_gamma 90.000000
_cell_volume 2673.536647
_symmetry_space_group_name_H-M "P B A N"
_symmetry_group_IT_number 50
_space_group.IT_coordinate_system_code '2'
_symmetry_cell_setting 'orthorhombic'
loop_
_space_group_symop_operation_xyz
x,y,z
1/2-x,1/2-y,z
x,1/2-y,-z
1/2-x,y,-z
-x,-y,-z
1/2+x,1/2+y,-z
-x,1/2+y,z
1/2+x,-y,z
loop_
_atom_site_type_symbol
_atom_site_label
_atom_site_fract_x
_atom_site_fract_y
_atom_site_fract_z
Si Si1 0.876503 0.178663 0.955289
Si Si2 0.428333 0.207782 0.228054
Si Si3 0.444065 0.737003 0.570799
Si Si4 0.047175 0.418784 0.661854
Si Si5 0.430083 0.381229 0.654952
Si Si6 0.051682 0.561471 0.845634
Si Si7 0.590717 0.112972 0.795421
O O1 0.750000 0.250000 0.923147
O O2 0.952829 0.106884 0.910930
O O3 0.971930 0.250000 0.000000
O O4 0.750000 0.127789 0.000000
O O5 0.250000 0.250000 0.237857
O O6 0.504232 0.178078 0.290988
O O7 0.413441 0.115870 0.191040
O O8 0.537629 0.283069 0.195343
O O9 0.250000 0.750000 0.583292
O O10 0.465138 0.750000 0.500000
O O11 0.491931 0.645552 0.606980
O O12 0.552339 0.817339 0.598651
O O13 0.240667 0.400564 0.671092
O O14 0.020418 0.523930 0.646724
O O15 0.952003 0.402968 0.724964
O O16 0.222979 0.589903 0.813795
O O17 0.017131 0.456014 0.835834
#
# Coordination Sequence:
#
# PCOD9398207 Si02
#       7
#     8   8   8   8   8   8   8
#     4   6  16  37  64  88 124 176 228 260 321 378
#     4  12  23  39  62  96 136 167 217 271 336 401
#     4  11  26  46  69  95 125 172 227 275 332 398
#     4  12  24  43  65  97 134 172 218 267 343 395
#     4  12  24  43  65  94 135 170 213 279 327 402
#     4  12  23  41  65  98 136 174 219 273 336 395
#     4  12  24  36  64 102 130 172 214 270 337 401
#
# _framework density 20.946038000000001
#
# number of rings (size 3 to 8) (size 9 to 14) (size 15 to 20)
#    0.857    0.143    4.286    4.286    2.000    1.714 
#    0.000    0.714    0.000    0.429    0.000    0.000 
#    0.000    0.000    0.000    0.000    0.000    0.000 
#
# Total GULP energy -312288.451178 kJ/mol
# GULP energy per Si atom -5576.579485 kJ/mol
# Density = 2.089836 g / cm^3
# Si number density = 20.946038 Si / 1000 Ang^3
#
#
#
# Elastic Constant Matrix: (Units=GPa)
#
#
# Indices 1 2 3 4 5 6 
#
# 1 55.0831 39.8480 23.1370 0.0000 0.0000 0.0000
# 2 39.8480 111.9233 35.9150 0.0000 0.0000 0.0000
# 3 23.1370 35.9150 103.4889 0.0000 0.0000 0.0000
# 4 0.0000 0.0000 0.0000 12.8369 0.0000 0.0000
# 5 0.0000 0.0000 0.0000 0.0000 -8.4230 0.0000
# 6 0.0000 0.0000 0.0000 0.0000 0.0000 27.5903
#
#
#
# Elastic Compliance Matrix: (Units=1/GPa)
#
#
# Indices 1 2 3 4 5 6 
#
# 1 0.025169 -0.008052 -0.002833 0.000000 0.000000 0.000000
# 2 -0.008052 0.012630 -0.002583 0.000000 0.000000 0.000000
# 3 -0.002833 -0.002583 0.011193 0.000000 0.000000 0.000000
# 4 0.000000 0.000000 0.000000 0.077901 0.000000 0.000000
# 5 0.000000 0.000000 0.000000 0.000000 -0.118722 0.000000
# 6 0.000000 0.000000 0.000000 0.000000 0.000000 0.036245
#
#
# Mechanical properties :
#
#
# Convention : Reuss Voigt Hill
#
# Bulk Modulus (GPa) = 45.33792 52.03282 48.68537
# Shear Modulus (GPa) = 63.53021 17.84051 40.68536
#
# Velocity S-wave (km/s) = 5.51328 2.92162 4.41204
# Velocity P-wave (km/s) = 7.88799 6.02299 7.01772
#
# Compressibility (1/GPa) = 0.02205659
#
# Stress axis : x y z
#
# Youngs Moduli (GPa) = 39.73112 79.17454 89.34468
#
# Poissons Ratio (x) = 0.63751 0.25309
# Poissons Ratio (y) = 0.31991 0.23078
# Poissons Ratio (z) = 0.11255 0.20451
#
# Static dielectric constant tensor:
#      x y z
#    x 1.778250 0.000000 0.000000 
#    y 0.000000 1.760320 0.000000 
#    z 0.000000 0.000000 1.811620 
# 
# From -- ./inp_files/30637.got.cif
#   From: 2010.05.17/outbox.cif.g08.bks.cpg/sg50_16_cif.got.tgz:30637.got - 2010.06.03 11:33:33.
