data_PCOD9398647
_publ_section_title
;
Structure prediction by ZEFSAII (Michael W. Deem and Ramdas Pophale) SiO2 
 PCOD9398647
Probable space group: P M M A
;
_chemical_formula_sum "Si O2"
_cell_formula_units_Z 44
_cell_length_a 13.952435
_cell_length_b 16.971997
_cell_length_c 10.049028
_cell_angle_alpha 90.000000
_cell_angle_beta 90.000000
_cell_angle_gamma 90.000000
_cell_volume 2379.616714
_symmetry_space_group_name_H-M "P M M A"
_symmetry_group_IT_number 51
_symmetry_cell_setting 'orthorhombic'
loop_
_space_group_symop_operation_xyz
x,y,z
1/2-x,-y,z
1/2+x,-y,-z
-x,y,-z
-x,-y,-z
1/2+x,y,-z
1/2-x,y,z
x,-y,z
loop_
_atom_site_type_symbol
_atom_site_label
_atom_site_fract_x
_atom_site_fract_y
_atom_site_fract_z
Si Si1 0.595898 0.870465 0.053644
Si Si2 0.415788 0.301369 0.390814
Si Si3 0.750000 0.676286 0.238213
Si Si4 0.953480 0.308589 0.131079
Si Si5 0.750000 0.868001 0.263188
Si Si6 0.250000 0.906664 0.156042
Si Si7 0.750000 0.592866 0.524031
Si Si8 0.750000 0.828861 0.564427
O O1 0.569888 0.782091 0.095808
O O2 0.658491 0.900165 0.179606
O O3 0.500000 0.911018 0.000000
O O4 0.661749 0.869709 0.923497
O O5 0.500000 0.301431 0.500000
O O6 0.470692 0.304300 0.250863
O O7 0.345326 0.375914 0.403512
O O8 0.344140 0.227333 0.418784
O O9 0.649172 0.654678 0.170088
O O10 0.750000 0.772042 0.248341
O O11 0.750000 0.637919 0.382995
O O12 0.000000 0.345726 0.000000
O O13 0.750000 0.874446 0.422823
O O14 0.250000 0.886472 0.310076
O O15 0.250000 0.000000 0.133809
O O16 0.750000 0.500000 0.507555
#
# Coordination Sequence:
#
# PCOD9398647 Si02
#       8
#     8   8   4   8   4   4   4   4
#     4   9  18  35  56  81 107 150 193 242 288 347
#     4  11  20  36  60  91 114 150 205 256 291 344
#     4  10  17  36  52  83 122 151 194 248 299 347
#     4  10  19  32  59  89 115 145 198 259 304 337
#     4   9  16  31  57  81 109 139 191 255 301 329
#     4  11  24  38  53  82 124 160 191 230 296 374
#     4  11  23  38  59  88 126 167 195 235 296 374
#     4  11  20  33  56  84 118 151 193 258 304 342
#
# _framework density 18.490372000000001
#
# number of rings (size 3 to 8) (size 9 to 14) (size 15 to 20)
#    0.000    1.818    3.636    3.818    0.000    2.182 
#    0.000    1.818    0.000    7.091    0.000    0.000 
#    0.000    0.000    0.000    0.000    0.000    0.000 
#
# Total GULP energy -245122.017798 kJ/mol
# GULP energy per Si atom -5570.954950 kJ/mol
# Density = 1.844829 g / cm^3
# Si number density = 18.490372 Si / 1000 Ang^3
#
#
#
# Elastic Constant Matrix: (Units=GPa)
#
#
# Indices 1 2 3 4 5 6 
#
# 1 166.4027 23.8037 83.8696 0.0000 0.0000 0.0000
# 2 23.8037 55.1338 17.9921 0.0000 0.0000 0.0000
# 3 83.8696 17.9921 176.7872 0.0000 0.0000 0.0000
# 4 0.0000 0.0000 0.0000 11.6064 0.0000 0.0000
# 5 0.0000 0.0000 0.0000 0.0000 54.2894 0.0000
# 6 0.0000 0.0000 0.0000 0.0000 0.0000 28.7908
#
#
#
# Elastic Compliance Matrix: (Units=1/GPa)
#
#
# Indices 1 2 3 4 5 6 
#
# 1 0.008181 -0.002343 -0.003642 0.000000 0.000000 0.000000
# 2 -0.002343 0.019432 -0.000866 0.000000 0.000000 0.000000
# 3 -0.003642 -0.000866 0.007473 0.000000 0.000000 0.000000
# 4 0.000000 0.000000 0.000000 0.086159 0.000000 0.000000
# 5 0.000000 0.000000 0.000000 0.000000 0.018420 0.000000
# 6 0.000000 0.000000 0.000000 0.000000 0.000000 0.034733
#
#
# Mechanical properties :
#
#
# Convention : Reuss Voigt Hill
#
# Bulk Modulus (GPa) = 46.76872 72.18385 59.47628
# Shear Modulus (GPa) = 25.61104 37.11454 31.36279
#
# Velocity S-wave (km/s) = 3.72573 4.48508 4.12293
# Velocity P-wave (km/s) = 6.62243 8.12063 7.40949
#
# Compressibility (1/GPa) = 0.02138181
#
# Stress axis : x y z
#
# Youngs Moduli (GPa) = 122.24082 51.46160 133.82096
#
# Poissons Ratio (x) = 0.12059 0.48744
# Poissons Ratio (y) = 0.28644 0.11589
# Poissons Ratio (z) = 0.44526 0.04457
#
# Static dielectric constant tensor:
#      x y z
#    x 1.706020 0.000000 0.000000 
#    y 0.000000 1.390470 0.000000 
#    z 0.000000 0.000000 1.645080 
# 
# From -- ./inp_files/8186.got.cif
#   From: 2010.05.17/outbox.cif.g08.bks.cpg/sg51_5_cif.got.tgz:8186.got - 2010.06.03 11:52:47.
