data_PCOD9398662
_publ_section_title
;
Structure prediction by ZEFSAII (Michael W. Deem and Ramdas Pophale) SiO2 
 PCOD9398662
Probable space group: P M M A
;
_chemical_formula_sum "Si O2"
_cell_formula_units_Z 64
_cell_length_a 18.353338
_cell_length_b 14.046281
_cell_length_c 16.966097
_cell_angle_alpha 90.000000
_cell_angle_beta 90.000000
_cell_angle_gamma 90.000000
_cell_volume 4373.794366
_symmetry_space_group_name_H-M "P M M A"
_symmetry_group_IT_number 51
_symmetry_cell_setting 'orthorhombic'
loop_
_space_group_symop_operation_xyz
x,y,z
1/2-x,-y,z
1/2+x,-y,-z
-x,y,-z
-x,-y,-z
1/2+x,y,-z
1/2-x,y,z
x,-y,z
loop_
_atom_site_type_symbol
_atom_site_label
_atom_site_fract_x
_atom_site_fract_y
_atom_site_fract_z
Si Si1 0.338305 0.106178 0.924692
Si Si2 0.457359 0.614154 0.749741
Si Si3 0.837120 0.300528 0.148417
Si Si4 0.974401 0.614860 0.584552
Si Si5 0.332064 0.385521 0.324306
Si Si6 0.165930 0.613379 0.021895
Si Si7 0.837050 0.888275 0.890584
Si Si8 0.597968 0.704913 0.826822
O O1 0.250000 0.104383 0.922086
O O2 0.361166 0.191649 0.868066
O O3 0.364763 0.000000 0.904695
O O4 0.355517 0.126330 0.016538
O O5 0.466983 0.500000 0.760964
O O6 0.380369 0.648858 0.782161
O O7 0.471931 0.635162 0.657679
O O8 0.518551 0.671731 0.798679
O O9 0.750000 0.303376 0.160403
O O10 0.853245 0.354150 0.066064
O O11 0.971212 0.500000 0.578127
O O12 0.894242 0.645198 0.614070
O O13 0.000000 0.652463 0.500000
O O14 0.250000 0.364634 0.349910
O O15 0.338782 0.500000 0.313672
O O16 0.349313 0.337510 0.240679
O O17 0.250000 0.644526 0.035563
O O18 0.163039 0.500000 0.026767
O O19 0.116959 0.657861 0.089539
O O20 0.750000 0.868872 0.881326
O O21 0.884431 0.816052 0.839026
O O22 0.848411 0.000000 0.873412
#
# Coordination Sequence:
#
# PCOD9398662 Si02
#       8
#     8   8   8   8   8   8   8   8
#     4   8  14  27  46  63  79 108 153 195 227 258
#     4  10  21  33  45  64  89 118 147 180 227 273
#     4  10  19  32  46  61  85 117 154 194 228 260
#     4   8  15  30  48  63  85 116 143 170 214 272
#     4   9  16  25  41  66  91 114 143 181 217 253
#     4  10  18  26  39  58  81 117 158 184 206 248
#     4   9  16  27  44  64  86 116 155 192 225 261
#     4  11  18  28  42  60  90 119 149 183 221 261
#
# _framework density 14.632603
#
# number of rings (size 3 to 8) (size 9 to 14) (size 15 to 20)
#    0.000    2.625    1.250    4.125    0.000    2.250 
#    0.000    2.500    0.000    3.750    0.000    0.000 
#    0.000   12.500    0.000   14.750    0.000    0.000 
#
# Total GULP energy -356475.114641 kJ/mol
# GULP energy per Si atom -5569.923666 kJ/mol
# Density = 1.459930 g / cm^3
# Si number density = 14.632603 Si / 1000 Ang^3
#
#
#
# Elastic Constant Matrix: (Units=GPa)
#
#
# Indices 1 2 3 4 5 6 
#
# 1 54.4278 28.3446 51.0121 0.0000 0.0000 0.0000
# 2 28.3446 70.3478 29.7021 0.0000 0.0000 0.0000
# 3 51.0121 29.7021 83.3619 0.0000 0.0000 0.0000
# 4 0.0000 0.0000 0.0000 4.1874 0.0000 0.0000
# 5 0.0000 0.0000 0.0000 0.0000 10.7922 0.0000
# 6 0.0000 0.0000 0.0000 0.0000 0.0000 17.0235
#
#
#
# Elastic Compliance Matrix: (Units=1/GPa)
#
#
# Indices 1 2 3 4 5 6 
#
# 1 0.046552 -0.007921 -0.025665 0.000000 0.000000 0.000000
# 2 -0.007921 0.018080 -0.001595 0.000000 0.000000 0.000000
# 3 -0.025665 -0.001595 0.028269 0.000000 0.000000 0.000000
# 4 0.000000 0.000000 0.000000 0.238812 0.000000 0.000000
# 5 0.000000 0.000000 0.000000 0.000000 0.092660 0.000000
# 6 0.000000 0.000000 0.000000 0.000000 0.000000 0.058742
#
#
# Mechanical properties :
#
#
# Convention : Reuss Voigt Hill
#
# Bulk Modulus (GPa) = 44.36448 47.36168 45.86308
# Shear Modulus (GPa) = 8.91283 13.00586 10.95935
#
# Velocity S-wave (km/s) = 2.47069 2.98456 2.73970
# Velocity P-wave (km/s) = 6.20676 6.65690 6.43576
#
# Compressibility (1/GPa) = 0.02254055
#
# Stress axis : x y z
#
# Youngs Moduli (GPa) = 21.48144 55.31001 35.37411
#
# Poissons Ratio (x) = 0.43809 0.90786
# Poissons Ratio (y) = 0.17015 0.05642
# Poissons Ratio (z) = 0.55131 0.08822
#
# Static dielectric constant tensor:
#      x y z
#    x 1.509480 0.000000 0.000000 
#    y 0.000000 1.501230 0.000000 
#    z 0.000000 0.000000 1.461410 
# 
# From -- ./inp_files/25348.got.cif
#   From: 2010.05.17/outbox.cif.g08.bks.cpg/sg51_13_cif.got.tgz:25348.got - 2010.06.03 11:52:47.
