data_PCOD9398759
_publ_section_title
;
Structure prediction by ZEFSAII (Michael W. Deem and Ramdas Pophale) SiO2 
 PCOD9398759
Probable space group: P M M A
;
_chemical_formula_sum "Si O2"
_cell_formula_units_Z 52
_cell_length_a 9.244158
_cell_length_b 21.579706
_cell_length_c 14.187012
_cell_angle_alpha 90.000000
_cell_angle_beta 90.000000
_cell_angle_gamma 90.000000
_cell_volume 2830.113281
_symmetry_space_group_name_H-M "P M M A"
_symmetry_group_IT_number 51
_symmetry_cell_setting 'orthorhombic'
loop_
_space_group_symop_operation_xyz
x,y,z
1/2-x,-y,z
1/2+x,-y,-z
-x,y,-z
-x,-y,-z
1/2+x,y,-z
1/2-x,y,z
x,-y,z
loop_
_atom_site_type_symbol
_atom_site_label
_atom_site_fract_x
_atom_site_fract_y
_atom_site_fract_z
Si Si1 0.918792 0.610558 0.587183
Si Si2 0.920579 0.926317 0.400227
Si Si3 0.418699 0.500000 0.903072
Si Si4 0.076799 0.257774 0.102031
Si Si5 0.082891 0.392426 0.194825
Si Si6 0.082638 0.168848 0.758222
Si Si7 0.084027 0.740675 0.583463
O O1 0.750000 0.614313 0.563631
O O2 0.927183 0.589835 0.694795
O O3 0.000000 0.577974 0.500000
O O4 0.995827 0.677496 0.594439
O O5 0.750000 0.909941 0.411682
O O6 0.970227 0.889196 0.306217
O O7 0.000000 0.914069 0.500000
O O8 0.932219 0.000000 0.383674
O O9 0.250000 0.500000 0.915053
O O10 0.470888 0.562239 0.852959
O O11 0.500000 0.500000 0.000000
O O12 0.250000 0.251019 0.090694
O O13 0.053965 0.320854 0.164579
O O14 0.010771 0.198226 0.157287
O O15 0.000000 0.264821 0.000000
O O16 0.250000 0.404655 0.165735
O O17 0.250000 0.157436 0.788227
O O18 0.083602 0.222468 0.679466
O O19 0.250000 0.729943 0.556513
O O20 0.000000 0.775566 0.500000
#
# Coordination Sequence:
#
# PCOD9398759 Si02
#       7
#     8   8   4   8   8   8   8
#     4  10  19  33  53  80 112 146 181 218 264 322
#     4   9  18  33  53  80 116 156 195 233 276 329
#     4  12  26  42  65  90 113 144 187 234 284 338
#     4  11  23  39  59  83 111 144 183 232 289 343
#     4  10  22  41  62  85 115 149 186 229 280 334
#     4  10  20  33  51  78 110 147 187 230 280 331
#     4  10  18  27  44  72 107 142 177 217 261 315
#
# _framework density 18.373823999999999
#
# number of rings (size 3 to 8) (size 9 to 14) (size 15 to 20)
#    0.000    1.846    1.538    3.923    0.000    4.923 
#    0.000    0.385    0.000    0.462    0.000    0.000 
#    0.000    0.000    0.000    0.000    0.000    0.000 
#
# Total GULP energy -289682.365177 kJ/mol
# GULP energy per Si atom -5570.814715 kJ/mol
# Density = 1.833200 g / cm^3
# Si number density = 18.373824 Si / 1000 Ang^3
#
#
#
# Elastic Constant Matrix: (Units=GPa)
#
#
# Indices 1 2 3 4 5 6 
#
# 1 128.5061 45.2544 70.0574 0.0000 0.0000 0.0000
# 2 45.2544 63.7033 23.7043 0.0000 0.0000 0.0000
# 3 70.0574 23.7043 107.5474 0.0000 0.0000 0.0000
# 4 0.0000 0.0000 0.0000 50.1749 0.0000 0.0000
# 5 0.0000 0.0000 0.0000 0.0000 32.9202 0.0000
# 6 0.0000 0.0000 0.0000 0.0000 0.0000 20.6693
#
#
#
# Elastic Compliance Matrix: (Units=1/GPa)
#
#
# Indices 1 2 3 4 5 6 
#
# 1 0.014777 -0.007534 -0.007966 0.000000 0.000000 0.000000
# 2 -0.007534 0.020941 0.000292 0.000000 0.000000 0.000000
# 3 -0.007966 0.000292 0.014423 0.000000 0.000000 0.000000
# 4 0.000000 0.000000 0.000000 0.019930 0.000000 0.000000
# 5 0.000000 0.000000 0.000000 0.000000 0.030376 0.000000
# 6 0.000000 0.000000 0.000000 0.000000 0.000000 0.048381
#
#
# Mechanical properties :
#
#
# Convention : Reuss Voigt Hill
#
# Bulk Modulus (GPa) = 50.69348 64.19877 57.44612
# Shear Modulus (GPa) = 26.90789 31.46894 29.18842
#
# Velocity S-wave (km/s) = 3.83099 4.14297 3.99003
# Velocity P-wave (km/s) = 6.87158 7.60933 7.24984
#
# Compressibility (1/GPa) = 0.01972640
#
# Stress axis : x y z
#
# Youngs Moduli (GPa) = 67.67087 47.75316 69.33473
#
# Poissons Ratio (x) = 0.35976 0.55230
# Poissons Ratio (y) = 0.50981 -0.02024
# Poissons Ratio (z) = 0.53904 -0.01394
#
# Static dielectric constant tensor:
#      x y z
#    x 1.617770 0.000000 0.000000 
#    y 0.000000 1.658320 0.000000 
#    z 0.000000 0.000000 1.668390 
# 
# From -- ./inp_files/21508.got.cif
#   From: 2010.05.17/outbox.cif.g08.bks.cpg/sg51_11_cif.got.tgz:21508.got - 2010.06.03 11:52:47.
