data_PCOD9398788
_publ_section_title
;
Structure prediction by ZEFSAII (Michael W. Deem and Ramdas Pophale) SiO2 
 PCOD9398788
Probable space group: P M M A
;
_chemical_formula_sum "Si O2"
_cell_formula_units_Z 64
_cell_length_a 8.571642
_cell_length_b 18.979221
_cell_length_c 27.054968
_cell_angle_alpha 90.000000
_cell_angle_beta 90.000000
_cell_angle_gamma 90.000000
_cell_volume 4401.385736
_symmetry_space_group_name_H-M "P M M A"
_symmetry_group_IT_number 51
_symmetry_cell_setting 'orthorhombic'
loop_
_space_group_symop_operation_xyz
x,y,z
1/2-x,-y,z
1/2+x,-y,-z
-x,y,-z
-x,-y,-z
1/2+x,y,-z
1/2-x,y,z
x,-y,z
loop_
_atom_site_type_symbol
_atom_site_label
_atom_site_fract_x
_atom_site_fract_y
_atom_site_fract_z
Si Si1 0.059984 0.080119 0.744230
Si Si2 0.436864 0.417737 0.945971
Si Si3 0.936833 0.418030 0.247270
Si Si4 0.937049 0.167636 0.353485
Si Si5 0.434933 0.288806 0.295490
Si Si6 0.437052 0.081815 0.445319
Si Si7 0.564915 0.788346 0.198904
Si Si8 0.434703 0.658634 0.149558
O O1 0.250000 0.079337 0.744388
O O2 0.014138 0.116318 0.692233
O O3 0.012581 0.132009 0.789000
O O4 0.004690 0.000000 0.747937
O O5 0.250000 0.412964 0.945511
O O6 0.480217 0.500000 0.937621
O O7 0.506142 0.371196 0.902225
O O8 0.500000 0.397816 0.000000
O O9 0.750000 0.411802 0.250651
O O10 0.979818 0.500000 0.250418
O O11 0.015135 0.369756 0.289458
O O12 0.989368 0.386454 0.194279
O O13 0.750000 0.173984 0.352132
O O14 0.013021 0.243743 0.342740
O O15 0.991357 0.132023 0.403920
O O16 0.250000 0.282177 0.287816
O O17 0.527057 0.251380 0.250410
O O18 0.500000 0.098145 0.500000
O O19 0.250000 0.087006 0.444865
O O20 0.479933 0.000000 0.434595
O O21 0.750000 0.787418 0.190252
O O22 0.482253 0.740038 0.158408
O O23 0.250000 0.651694 0.153565
#
# Coordination Sequence:
#
# PCOD9398788 Si02
#       8
#     8   8   8   8   8   8   8   8
#     4   8  14  24  40  62  84 108 140 175 210 249
#     4  10  20  33  47  63  84 109 139 175 212 249
#     4  10  19  30  44  62  85 113 145 179 214 254
#     4  10  18  29  45  62  84 115 148 179 214 256
#     4  10  18  28  42  60  84 111 141 177 214 254
#     4  10  20  32  45  63  87 114 146 183 220 256
#     4   9  16  27  42  59  82 111 142 176 212 251
#     4  11  20  29  43  61  84 114 146 177 210 250
#
# _framework density 14.540875
#
# number of rings (size 3 to 8) (size 9 to 14) (size 15 to 20)
#    0.000    2.250    0.000    7.125    0.000    4.500 
#    0.000    0.000    0.000    7.500    0.000    0.000 
#    0.000    1.000    0.000    3.250    0.000    4.875 
#
# Total GULP energy -356738.436720 kJ/mol
# GULP energy per Si atom -5574.038074 kJ/mol
# Density = 1.450778 g / cm^3
# Si number density = 14.540875 Si / 1000 Ang^3
#
#
#
# Elastic Constant Matrix: (Units=GPa)
#
#
# Indices 1 2 3 4 5 6 
#
# 1 35.9207 23.4251 20.5379 0.0000 0.0000 0.0000
# 2 23.4251 108.9481 55.8087 0.0000 0.0000 0.0000
# 3 20.5379 55.8087 82.9770 0.0000 0.0000 0.0000
# 4 0.0000 0.0000 0.0000 27.9677 0.0000 0.0000
# 5 0.0000 0.0000 0.0000 0.0000 22.1865 0.0000
# 6 0.0000 0.0000 0.0000 0.0000 0.0000 13.0982
#
#
#
# Elastic Compliance Matrix: (Units=1/GPa)
#
#
# Indices 1 2 3 4 5 6 
#
# 1 0.033848 -0.004556 -0.005314 0.000000 0.000000 0.000000
# 2 -0.004556 0.014616 -0.008703 0.000000 0.000000 0.000000
# 3 -0.005314 -0.008703 0.019220 0.000000 0.000000 0.000000
# 4 0.000000 0.000000 0.000000 0.035756 0.000000 0.000000
# 5 0.000000 0.000000 0.000000 0.000000 0.045072 0.000000
# 6 0.000000 0.000000 0.000000 0.000000 0.000000 0.076347
#
#
# Mechanical properties :
#
#
# Convention : Reuss Voigt Hill
#
# Bulk Modulus (GPa) = 32.74426 47.48768 40.11597
# Shear Modulus (GPa) = 18.36988 21.18875 19.77932
#
# Velocity S-wave (km/s) = 3.55819 3.82145 3.69217
# Velocity P-wave (km/s) = 6.28081 7.22498 6.76937
#
# Compressibility (1/GPa) = 0.03053970
#
# Stress axis : x y z
#
# Youngs Moduli (GPa) = 29.54358 68.41639 52.02836
#
# Poissons Ratio (x) = 0.31169 0.27647
# Poissons Ratio (y) = 0.13459 0.45281
# Poissons Ratio (z) = 0.15699 0.59543
#
# Static dielectric constant tensor:
#      x y z
#    x 1.482680 0.000000 0.000000 
#    y 0.000000 1.509190 0.000000 
#    z 0.000000 0.000000 1.459600 
# 
# From -- ./inp_files/36471.got.cif
#   From: 2010.05.17/outbox.cif.g08.bks.cpg/sg51_19_cif.got.tgz:36471.got - 2010.06.03 11:52:47.
