data_PCOD9398412
_publ_section_title
;
Structure prediction by ZEFSAII (Michael W. Deem and Ramdas Pophale) SiO2 
 PCOD9398412
Probable space group: P M M A
;
_chemical_formula_sum "Si O2"
_cell_formula_units_Z 52
_cell_length_a 11.379658
_cell_length_b 9.323486
_cell_length_c 25.697955
_cell_angle_alpha 90.000000
_cell_angle_beta 90.000000
_cell_angle_gamma 90.000000
_cell_volume 2726.503738
_symmetry_space_group_name_H-M "P M M A"
_symmetry_group_IT_number 51
_symmetry_cell_setting 'orthorhombic'
loop_
_space_group_symop_operation_xyz
x,y,z
1/2-x,-y,z
1/2+x,-y,-z
-x,y,-z
-x,-y,-z
1/2+x,y,-z
1/2-x,y,z
x,-y,z
loop_
_atom_site_type_symbol
_atom_site_label
_atom_site_fract_x
_atom_site_fract_y
_atom_site_fract_z
Si Si1 0.750000 0.764495 0.760595
Si Si2 0.486796 0.327078 0.060206
Si Si3 0.882798 0.826798 0.469599
Si Si4 0.987375 0.160434 0.250376
Si Si5 0.750000 0.335997 0.645405
Si Si6 0.887445 0.836187 0.145807
Si Si7 0.992026 0.173260 0.636307
Si Si8 0.250000 0.328420 0.118841
O O1 0.628096 0.846742 0.753665
O O2 0.750000 0.663820 0.709113
O O3 0.750000 0.708104 0.819878
O O4 0.492829 0.500000 0.062828
O O5 0.585725 0.255587 0.095275
O O6 0.365541 0.278675 0.087851
O O7 0.500000 0.286061 0.000000
O O8 0.750000 0.774556 0.482612
O O9 0.000000 0.774380 0.500000
O O10 0.915730 0.800296 0.409406
O O11 0.879677 0.000000 0.477506
O O12 0.944327 0.232475 0.197548
O O13 0.961762 0.222517 0.307090
O O14 0.935768 0.000000 0.249574
O O15 0.750000 0.500000 0.627228
O O16 0.867054 0.251157 0.627775
O O17 0.750000 0.843910 0.154800
O O18 0.933487 0.000000 0.138953
O O19 0.971825 0.000000 0.638864
O O20 0.250000 0.500000 0.115639
#
# Coordination Sequence:
#
# PCOD9398412 Si02
#       8
#     4   8   8   8   4   8   8   4
#     4  10  16  30  51  75 104 140 170 216 260 322
#     4  10  22  38  57  77 100 132 172 217 263 314
#     4   9  18  31  51  83 117 146 182 233 284 324
#     4   9  17  30  49  76 106 138 174 215 260 315
#     4  10  20  31  50  81 114 145 179 222 274 327
#     4  10  21  36  53  75 105 138 172 213 263 318
#     4   9  18  32  53  79 109 145 184 224 270 323
#     4  10  19  33  53  78 101 127 166 214 261 307
#
# _framework density 19.072044000000002
#
# number of rings (size 3 to 8) (size 9 to 14) (size 15 to 20)
#    0.000    2.462    1.538    0.692    2.154    3.077 
#    0.000    3.462    0.000    0.923    0.000    0.000 
#    0.000    0.000    0.000    0.000    0.000    0.000 
#
# Total GULP energy -289491.984968 kJ/mol
# GULP energy per Si atom -5567.153557 kJ/mol
# Density = 1.902864 g / cm^3
# Si number density = 19.072044 Si / 1000 Ang^3
#
#
#
# Elastic Constant Matrix: (Units=GPa)
#
#
# Indices 1 2 3 4 5 6 
#
# 1 91.2564 11.9727 47.5065 0.0000 0.0000 0.0000
# 2 11.9727 20.5601 6.1671 0.0000 0.0000 0.0000
# 3 47.5065 6.1671 100.9759 0.0000 0.0000 0.0000
# 4 0.0000 0.0000 0.0000 10.1690 0.0000 0.0000
# 5 0.0000 0.0000 0.0000 0.0000 22.2450 0.0000
# 6 0.0000 0.0000 0.0000 0.0000 0.0000 17.7339
#
#
#
# Elastic Compliance Matrix: (Units=1/GPa)
#
#
# Indices 1 2 3 4 5 6 
#
# 1 0.015425 -0.006933 -0.006834 0.000000 0.000000 0.000000
# 2 -0.006933 0.052661 0.000045 0.000000 0.000000 0.000000
# 3 -0.006834 0.000045 0.013116 0.000000 0.000000 0.000000
# 4 0.000000 0.000000 0.000000 0.098338 0.000000 0.000000
# 5 0.000000 0.000000 0.000000 0.000000 0.044954 0.000000
# 6 0.000000 0.000000 0.000000 0.000000 0.000000 0.056389
#
#
# Mechanical properties :
#
#
# Convention : Reuss Voigt Hill
#
# Bulk Modulus (GPa) = 18.60118 38.23169 28.41644
# Shear Modulus (GPa) = 15.32585 19.83930 17.58258
#
# Velocity S-wave (km/s) = 2.83782 3.22876 3.03958
# Velocity P-wave (km/s) = 4.52901 5.83003 5.22021
#
# Compressibility (1/GPa) = 0.05376002
#
# Stress axis : x y z
#
# Youngs Moduli (GPa) = 64.82880 18.98927 76.24458
#
# Poissons Ratio (x) = 0.13165 0.52104
# Poissons Ratio (y) = 0.44944 -0.00346
# Poissons Ratio (z) = 0.44302 -0.00086
#
# Static dielectric constant tensor:
#      x y z
#    x 1.681890 0.000000 0.000000 
#    y 0.000000 1.658380 0.000000 
#    z 0.000000 0.000000 1.699270 
# 
# From -- ./inp_files/36588.got.cif
#   From: 2010.05.17/outbox.cif.g08.bks.cpg/sg51_19_cif.got.tgz:36588.got - 2010.06.03 11:52:47.
