data_PCOD9398334
_publ_section_title
;
Structure prediction by ZEFSAII (Michael W. Deem and Ramdas Pophale) SiO2 
 PCOD9398334
Probable space group: P B A N
;
_chemical_formula_sum "Si O2"
_cell_formula_units_Z 64
_cell_length_a 18.000000
_cell_length_b 9.000000
_cell_length_c 21.000000
_cell_angle_alpha 90.000000
_cell_angle_beta 90.000000
_cell_angle_gamma 90.000000
_cell_volume 3402.000000
_symmetry_space_group_name_H-M "P B A N"
_symmetry_group_IT_number 50
_space_group.IT_coordinate_system_code '2'
_symmetry_cell_setting 'orthorhombic'
loop_
_space_group_symop_operation_xyz
x,y,z
1/2-x,1/2-y,z
x,1/2-y,-z
1/2-x,y,-z
-x,-y,-z
1/2+x,1/2+y,-z
-x,1/2+y,z
1/2+x,-y,z
loop_
_atom_site_type_symbol
_atom_site_label
_atom_site_fract_x
_atom_site_fract_y
_atom_site_fract_z
Si Si1 0.661993 0.919290 0.503214
Si Si2 0.084088 0.933174 0.864269
Si Si3 0.420715 0.920750 0.609806
Si Si4 0.079620 0.564860 0.383390
Si Si5 0.167150 0.931311 0.740041
Si Si6 0.079437 0.926005 0.139319
Si Si7 0.165695 0.929986 0.263970
Si Si8 0.918518 0.428148 0.001610
O O1 0.632736 0.750000 0.500000
O O2 0.750000 0.914130 0.500000
O O3 0.629920 0.016612 0.446103
O O4 0.637877 0.997796 0.567691
O O5 0.138462 0.980441 0.808452
O O6 0.074407 0.754047 0.859098
O O7 0.116423 0.970104 0.934117
O O8 0.003318 0.007389 0.856743
O O9 0.424469 0.742373 0.609156
O O10 0.385608 0.969966 0.676827
O O11 0.501277 0.990900 0.602638
O O12 0.108170 0.525040 0.313228
O O13 0.168880 0.750674 0.738531
O O14 0.250419 0.984049 0.726952
O O15 0.128959 0.978244 0.197945
O O16 0.113618 0.967857 0.070417
O O17 0.926086 0.250000 0.000000
O O18 0.000000 0.500000 0.000000
#
# Coordination Sequence:
#
# PCOD9398334 Si02
#       8
#     8   8   8   8   8   8   8   8
#     4  11  24  41  60  83 111 139 168 207 254 303
#     4   9  16  28  47  70  97 128 165 207 249 297
#     4  11  22  37  58  81 106 137 175 215 255 303
#     4  11  22  37  58  81 106 137 175 215 255 303
#     4   9  18  32  50  73 101 133 168 208 255 304
#     4   9  16  28  47  70  97 128 165 207 249 297
#     4   9  18  32  50  73 101 133 168 208 255 304
#     4   8  14  24  41  67  95 125 161 202 248 294
#
# _framework density 18.812463000000001
#
# number of rings (size 3 to 8) (size 9 to 14) (size 15 to 20)
#    0.000    2.375    0.000    3.000    0.000    2.000 
#    0.000    1.875    0.000    7.500    0.000    0.000 
#    0.000   10.000    0.000    0.000    0.000    0.000 
#
# Total GULP energy -356714.144351 kJ/mol
# GULP energy per Si atom -5573.658505 kJ/mol
# Density = 1.876965 g / cm^3
# Si number density = 18.812463 Si / 1000 Ang^3
#
#
#
# Elastic Constant Matrix: (Units=GPa)
#
#
# Indices 1 2 3 4 5 6 
#
# 1 36.3576 1.0783 -28.4823 0.0000 0.0000 0.0000
# 2 1.0783 26.2691 -5.9909 0.0000 0.0000 0.0000
# 3 -28.4823 -5.9909 14.8303 0.0000 0.0000 0.0000
# 4 0.0000 0.0000 0.0000 17.0510 0.0000 0.0000
# 5 0.0000 0.0000 0.0000 0.0000-1276.8740 0.0000
# 6 0.0000 0.0000 0.0000 0.0000 0.0000 18.4198
#
#
#
# Elastic Compliance Matrix: (Units=1/GPa)
#
#
# Indices 1 2 3 4 5 6 
#
# 1 -0.043661 -0.019090 -0.091566 0.000000 0.000000 0.000000
# 2 -0.019090 0.033584 -0.023097 0.000000 0.000000 0.000000
# 3 -0.091566 -0.023097 -0.117758 0.000000 0.000000 0.000000
# 4 0.000000 0.000000 0.000000 0.058648 0.000000 0.000000
# 5 0.000000 0.000000 0.000000 0.000000 -0.000783 0.000000
# 6 0.000000 0.000000 0.000000 0.000000 0.000000 0.054289
#
#
# Mechanical properties :
#
#
# Convention : Reuss Voigt Hill
#
# Bulk Modulus (GPa) = -2.52944 1.18523 -0.67211
# Shear Modulus (GPa) = 41.65130 -240.89052 -99.61961
#
# Velocity S-wave (km/s) = 4.71045 -11.32812 -7.28485
# Velocity P-wave (km/s) = 5.31385 13.05643 8.43307
#
# Compressibility (1/GPa) = -0.39534380
#
# Stress axis : x y z
#
# Youngs Moduli (GPa) = -22.90352 29.77648 -8.49197
#
# Poissons Ratio (x) = 0.56845 -0.77758
# Poissons Ratio (y) = -0.43724 -0.19614
# Poissons Ratio (z) = -2.09718 0.68776
#
# Static dielectric constant tensor:
#      x y z
#    x 1.611120 0.000000 0.000000 
#    y 0.000000 1.616310 0.000000 
#    z 0.000000 0.000000 1.698310 
# 
# From -- ./inp_files/31099.got.cif
#   From: 2010.05.17/outbox.ucp.g08.bks.cvg/sg50_16_cif.got.tgz:31099.got - 2010.06.11 16:26:39.
