data_PCOD9398301
_publ_section_title
;
Structure prediction by ZEFSAII (Michael W. Deem and Ramdas Pophale) SiO2 
 PCOD9398301
Probable space group: P B A N
;
_chemical_formula_sum "Si O2"
_cell_formula_units_Z 20
_cell_length_a 12.228653
_cell_length_b 5.867663
_cell_length_c 11.794939
_cell_angle_alpha 90.000000
_cell_angle_beta 90.000000
_cell_angle_gamma 90.000000
_cell_volume 846.329509
_symmetry_space_group_name_H-M "P B A N"
_symmetry_group_IT_number 50
_space_group.IT_coordinate_system_code '2'
_symmetry_cell_setting 'orthorhombic'
loop_
_space_group_symop_operation_xyz
x,y,z
1/2-x,1/2-y,z
x,1/2-y,-z
1/2-x,y,-z
-x,-y,-z
1/2+x,1/2+y,-z
-x,1/2+y,z
1/2+x,-y,z
loop_
_atom_site_type_symbol
_atom_site_label
_atom_site_fract_x
_atom_site_fract_y
_atom_site_fract_z
Si Si1 0.250000 0.750000 0.000000
Si Si2 0.250000 0.250000 0.500000
Si Si3 0.551024 0.386158 0.137166
Si Si4 0.631595 0.134533 0.616129
O O1 0.328817 0.605653 0.918508
O O2 0.169708 0.387112 0.419696
O O3 0.494543 0.629738 0.107010
O O4 0.558839 0.370599 0.273520
O O5 0.750000 0.250000 0.641911
O O6 0.588607 0.250000 0.500000
#
# Coordination Sequence:
#
# PCOD9398301 Si02
#       4
#     2   2   8   8
#     4  12  28  58  74 100 156 194 236 336 340 424
#     4   8  18  36  72 100 148 202 230 268 392 424
#     4  12  29  47  77 112 138 193 252 292 371 435
#     4   9  20  40  68 106 145 194 229 295 368 433
#
# _framework density 23.631457000000001
#
# number of rings (size 3 to 8) (size 9 to 14) (size 15 to 20)
#    0.000    2.000    2.000    1.200   11.200    4.800 
#    0.000    0.000    0.000    0.000    0.000    0.000 
#    0.000    0.000    0.000    0.000    0.000    0.000 
#
# Total GULP energy -111624.663394 kJ/mol
# GULP energy per Si atom -5581.233170 kJ/mol
# Density = 2.357767 g / cm^3
# Si number density = 23.631457 Si / 1000 Ang^3
#
#
#
# Elastic Constant Matrix: (Units=GPa)
#
#
# Indices 1 2 3 4 5 6 
#
# 1 86.7415 65.1475 31.2832 0.0000 0.0000 0.0000
# 2 65.1475 174.1159 63.2843 0.0000 0.0000 0.0000
# 3 31.2832 63.2843 125.5045 0.0000 0.0000 0.0000
# 4 0.0000 0.0000 0.0000 163.1858 0.0000 0.0000
# 5 0.0000 0.0000 0.0000 0.0000 57.2583 0.0000
# 6 0.0000 0.0000 0.0000 0.0000 0.0000 -45.3748
#
#
#
# Elastic Compliance Matrix: (Units=1/GPa)
#
#
# Indices 1 2 3 4 5 6 
#
# 1 0.016181 -0.005618 -0.001200 0.000000 0.000000 0.000000
# 2 -0.005618 0.008983 -0.003129 0.000000 0.000000 0.000000
# 3 -0.001200 -0.003129 0.009845 0.000000 0.000000 0.000000
# 4 0.000000 0.000000 0.000000 0.006128 0.000000 0.000000
# 5 0.000000 0.000000 0.000000 0.000000 0.017465 0.000000
# 6 0.000000 0.000000 0.000000 0.000000 0.000000 -0.022039
#
#
# Mechanical properties :
#
#
# Convention : Reuss Voigt Hill
#
# Bulk Modulus (GPa) = 66.16639 78.42134 72.29386
# Shear Modulus (GPa) = 81.30749 50.12366 65.71558
#
# Velocity S-wave (km/s) = 5.87207 4.61049 5.27910
# Velocity P-wave (km/s) = 8.60436 7.84852 8.23512
#
# Compressibility (1/GPa) = 0.01511341
#
# Stress axis : x y z
#
# Youngs Moduli (GPa) = 61.80164 111.32626 101.57588
#
# Poissons Ratio (x) = 0.62542 0.12194
# Poissons Ratio (y) = 0.34720 0.31784
# Poissons Ratio (z) = 0.07419 0.34835
#
# Static dielectric constant tensor:
#      x y z
#    x 1.863710 0.000000 0.000000 
#    y 0.000000 1.938160 0.000000 
#    z 0.000000 0.000000 1.901650 
# 
# From -- ./inp_files/17265.got.cif
#   From: 2010.05.17/outbox.cif.g08.bks.cpg/sg50_9_cif.got.tgz:17265.got - 2010.06.03 11:33:33.
