data_PCOD9398903
_publ_section_title
;
Structure prediction by ZEFSAII (Michael W. Deem and Ramdas Pophale) SiO2 
 PCOD9398903
Probable space group: P M M A
;
_chemical_formula_sum "Si O2"
_cell_formula_units_Z 48
_cell_length_a 30.632788
_cell_length_b 9.477788
_cell_length_c 9.999270
_cell_angle_alpha 90.000000
_cell_angle_beta 90.000000
_cell_angle_gamma 90.000000
_cell_volume 2903.098763
_symmetry_space_group_name_H-M "P M M A"
_symmetry_group_IT_number 51
_symmetry_cell_setting 'orthorhombic'
loop_
_space_group_symop_operation_xyz
x,y,z
1/2-x,-y,z
1/2+x,-y,-z
-x,y,-z
-x,-y,-z
1/2+x,y,-z
1/2-x,y,z
x,-y,z
loop_
_atom_site_type_symbol
_atom_site_label
_atom_site_fract_x
_atom_site_fract_y
_atom_site_fract_z
Si Si1 0.115912 0.666319 0.035181
Si Si2 0.117417 0.665209 0.712465
Si Si3 0.201893 0.835976 0.709170
Si Si4 0.799092 0.836251 0.965789
Si Si5 0.520374 0.334193 0.353452
Si Si6 0.968572 0.834030 0.870910
O O1 0.113621 0.500000 0.065483
O O2 0.162043 0.734407 0.077971
O O3 0.076068 0.751662 0.098776
O O4 0.112869 0.682215 0.873460
O O5 0.124456 0.500000 0.686187
O O6 0.159608 0.750557 0.664669
O O7 0.071287 0.708300 0.649299
O O8 0.250000 0.783420 0.666530
O O9 0.198272 0.000000 0.671302
O O10 0.201588 0.831042 0.871702
O O11 0.750000 0.798147 0.920822
O O12 0.807520 0.000000 0.929590
O O13 0.500000 0.323723 0.500000
O O14 0.518733 0.500000 0.311325
O O15 0.493477 0.239297 0.251168
O O16 0.960626 0.000000 0.847432
O O17 0.000000 0.821365 0.000000
#
# Coordination Sequence:
#
# PCOD9398903 Si02
#       6
#     8   8   8   8   8   8
#     4  10  18  28  46  70  97 128 164 207 247 293
#     4   9  17  28  44  68  95 125 160 198 242 289
#     4   8  14  24  39  61  90 124 158 192 235 286
#     4   8  14  25  40  61  94 130 160 195 242 295
#     4  10  21  37  54  72  99 134 168 206 254 304
#     4  11  22  34  51  74  99 130 168 208 249 295
#
# _framework density 16.534058000000002
#
# number of rings (size 3 to 8) (size 9 to 14) (size 15 to 20)
#    0.000    2.667    1.667    2.000    0.000    3.000 
#    0.000    3.333    0.000    0.000    0.000    1.167 
#    0.000    6.667    0.000    0.000    0.000    0.000 
#
# Total GULP energy -267443.166196 kJ/mol
# GULP energy per Si atom -5571.732629 kJ/mol
# Density = 1.649643 g / cm^3
# Si number density = 16.534058 Si / 1000 Ang^3
#
#
#
# Elastic Constant Matrix: (Units=GPa)
#
#
# Indices 1 2 3 4 5 6 
#
# 1 194.8034 102.1063 31.7710 0.0000 0.0000 0.0000
# 2 102.1063 101.2464 33.2818 0.0000 0.0000 0.0000
# 3 31.7710 33.2818 25.1095 0.0000 0.0000 0.0000
# 4 0.0000 0.0000 0.0000 8.5505 0.0000 0.0000
# 5 0.0000 0.0000 0.0000 0.0000 9.8764 0.0000
# 6 0.0000 0.0000 0.0000 0.0000 0.0000 41.6219
#
#
#
# Elastic Compliance Matrix: (Units=1/GPa)
#
#
# Indices 1 2 3 4 5 6 
#
# 1 0.010917 -0.011464 0.001382 0.000000 0.000000 0.000000
# 2 -0.011464 0.029541 -0.024651 0.000000 0.000000 0.000000
# 3 0.001382 -0.024651 0.070751 0.000000 0.000000 0.000000
# 4 0.000000 0.000000 0.000000 0.116952 0.000000 0.000000
# 5 0.000000 0.000000 0.000000 0.000000 0.101251 0.000000
# 6 0.000000 0.000000 0.000000 0.000000 0.000000 0.024026
#
#
# Mechanical properties :
#
#
# Convention : Reuss Voigt Hill
#
# Bulk Modulus (GPa) = 23.95584 72.83083 48.39334
# Shear Modulus (GPa) = 11.44642 22.27644 16.86143
#
# Velocity S-wave (km/s) = 2.63400 3.67455 3.19689
# Velocity P-wave (km/s) = 4.87554 7.88338 6.55433
#
# Compressibility (1/GPa) = 0.04174347
#
# Stress axis : x y z
#
# Youngs Moduli (GPa) = 91.60281 33.85109 14.13407
#
# Poissons Ratio (x) = 0.38806 -0.01953
# Poissons Ratio (y) = 1.05010 0.34842
# Poissons Ratio (z) = -0.12657 0.83446
#
# Static dielectric constant tensor:
#      x y z
#    x 1.565880 0.000000 0.000000 
#    y 0.000000 1.551840 0.000000 
#    z 0.000000 0.000000 1.533050 
# 
# From -- ./inp_files/12803.got.cif
#   From: 2010.05.17/outbox.cif.g08.bks.cpg/sg51_7_cif.got.tgz:12803.got - 2010.06.03 11:52:47.
