data_PCOD9398368
_publ_section_title
;
Structure prediction by ZEFSAII (Michael W. Deem and Ramdas Pophale) SiO2 
 PCOD9398368
Probable space group: P M M A
;
_chemical_formula_sum "Si O2"
_cell_formula_units_Z 40
_cell_length_a 27.156662
_cell_length_b 9.377409
_cell_length_c 7.319976
_cell_angle_alpha 90.000000
_cell_angle_beta 90.000000
_cell_angle_gamma 90.000000
_cell_volume 1864.098695
_symmetry_space_group_name_H-M "P M M A"
_symmetry_group_IT_number 51
_symmetry_cell_setting 'orthorhombic'
loop_
_space_group_symop_operation_xyz
x,y,z
1/2-x,-y,z
1/2+x,-y,-z
-x,y,-z
-x,-y,-z
1/2+x,y,-z
1/2-x,y,z
x,-y,z
loop_
_atom_site_type_symbol
_atom_site_label
_atom_site_fract_x
_atom_site_fract_y
_atom_site_fract_z
Si Si1 0.643887 0.160783 0.002875
Si Si2 0.552974 0.660375 0.026814
Si Si3 0.443963 0.662872 0.537561
Si Si4 0.848300 0.834926 0.449671
Si Si5 0.250000 0.171341 0.964155
Si Si6 0.250000 0.671455 0.577368
O O1 0.599989 0.262226 0.946787
O O2 0.648421 0.164650 0.225790
O O3 0.698620 0.196119 0.934654
O O4 0.631560 0.000000 0.951472
O O5 0.549671 0.500000 0.953073
O O6 0.560243 0.653660 0.243511
O O7 0.500000 0.732490 0.000000
O O8 0.500000 0.712172 0.500000
O O9 0.439079 0.500000 0.467438
O O10 0.399036 0.764394 0.480843
O O11 0.800320 0.741582 0.497789
O O12 0.842811 0.000000 0.504953
O O13 0.250000 0.274519 0.788936
O O14 0.250000 0.000000 0.910963
O O15 0.250000 0.500000 0.564812
#
# Coordination Sequence:
#
# PCOD9398368 Si02
#       6
#     8   8   8   8   4   4
#     4   8  14  24  38  56  79 106 134 166 204 245
#     4   9  17  28  41  59  84 111 137 168 206 245
#     4   9  17  29  44  62  84 110 141 176 210 245
#     4   9  16  26  39  57  83 111 138 171 211 251
#     4   8  14  24  36  54  81 108 133 166 210 250
#     4  10  16  22  36  58  83 110 139 170 208 252
#
# _framework density 21.458093000000002
#
# number of rings (size 3 to 8) (size 9 to 14) (size 15 to 20)
#    0.000    3.200    0.000    2.700    0.000    5.600 
#    0.000    0.000    0.000    0.000    0.000    1.400 
#    0.000    9.600    0.000    0.000    0.000    0.000 
#
# Total GULP energy -223033.510374 kJ/mol
# GULP energy per Si atom -5575.837759 kJ/mol
# Density = 2.140925 g / cm^3
# Si number density = 21.458093 Si / 1000 Ang^3
#
#
#
# Elastic Constant Matrix: (Units=GPa)
#
#
# Indices 1 2 3 4 5 6 
#
# 1 236.5806 129.2246 -9.1664 0.0000 0.0000 0.0000
# 2 129.2246 133.3616 10.2401 0.0000 0.0000 0.0000
# 3 -9.1664 10.2401 68.5890 0.0000 0.0000 0.0000
# 4 0.0000 0.0000 0.0000 -4.8138 0.0000 0.0000
# 5 0.0000 0.0000 0.0000 0.0000 12.2355 0.0000
# 6 0.0000 0.0000 0.0000 0.0000 0.0000 40.6327
#
#
#
# Elastic Compliance Matrix: (Units=1/GPa)
#
#
# Indices 1 2 3 4 5 6 
#
# 1 0.009435 -0.009346 0.002656 0.000000 0.000000 0.000000
# 2 -0.009346 0.016844 -0.003764 0.000000 0.000000 0.000000
# 3 0.002656 -0.003764 0.015496 0.000000 0.000000 0.000000
# 4 0.000000 0.000000 0.000000 -0.207738 0.000000 0.000000
# 5 0.000000 0.000000 0.000000 0.000000 0.081729 0.000000
# 6 0.000000 0.000000 0.000000 0.000000 0.000000 0.024611
#
#
# Mechanical properties :
#
#
# Convention : Reuss Voigt Hill
#
# Bulk Modulus (GPa) = 47.92095 77.68086 62.80091
# Shear Modulus (GPa) = -157.43027 30.15976 -63.63525
#
# Velocity S-wave (km/s) = -8.57471 3.75309 -5.45160
# Velocity P-wave (km/s) = 8.69790 7.42029 3.20879
#
# Compressibility (1/GPa) = 0.02086770
#
# Stress axis : x y z
#
# Youngs Moduli (GPa) = 105.99051 59.36984 64.53078
#
# Poissons Ratio (x) = 0.55488 -0.17141
# Poissons Ratio (y) = 0.99060 0.24288
# Poissons Ratio (z) = -0.28153 0.22345
#
# Static dielectric constant tensor:
#      x y z
#    x 1.794020 0.000000 0.000000 
#    y 0.000000 1.738510 0.000000 
#    z 0.000000 0.000000 1.885860 
# 
# From -- ./inp_files/12223.got.cif
#   From: 2010.05.17/outbox.cif.g08.bks.cpg/sg51_7_cif.got.tgz:12223.got - 2010.06.03 11:52:47.
