data_PCOD9398559
_publ_section_title
;
Structure prediction by ZEFSAII (Michael W. Deem and Ramdas Pophale) SiO2 
 PCOD9398559
Probable space group: P M M A
;
_chemical_formula_sum "Si O2"
_cell_formula_units_Z 64
_cell_length_a 14.729614
_cell_length_b 19.814665
_cell_length_c 10.812204
_cell_angle_alpha 90.000000
_cell_angle_beta 90.000000
_cell_angle_gamma 90.000000
_cell_volume 3155.675452
_symmetry_space_group_name_H-M "P M M A"
_symmetry_group_IT_number 51
_symmetry_cell_setting 'orthorhombic'
loop_
_space_group_symop_operation_xyz
x,y,z
1/2-x,-y,z
1/2+x,-y,-z
-x,y,-z
-x,-y,-z
1/2+x,y,-z
1/2-x,y,z
x,-y,z
loop_
_atom_site_type_symbol
_atom_site_label
_atom_site_fract_x
_atom_site_fract_y
_atom_site_fract_z
Si Si1 0.639506 0.924333 0.100708
Si Si2 0.861160 0.214044 0.493204
Si Si3 0.611035 0.575768 0.360044
Si Si4 0.357097 0.282176 0.256012
Si Si5 0.139515 0.075125 0.612351
Si Si6 0.855256 0.286368 0.245537
Si Si7 0.361271 0.216444 0.003731
Si Si8 0.392529 0.423849 0.357590
O O1 0.750000 0.924943 0.099435
O O2 0.613259 0.912110 0.244329
O O3 0.611315 0.861334 0.017143
O O4 0.609792 0.000000 0.064788
O O5 0.750000 0.217192 0.494676
O O6 0.894105 0.248306 0.618824
O O7 0.888077 0.136330 0.475131
O O8 0.893214 0.253483 0.370830
O O9 0.641519 0.500000 0.329542
O O10 0.639858 0.633758 0.266711
O O11 0.640255 0.590935 0.501801
O O12 0.501742 0.575088 0.361686
O O13 0.250000 0.267910 0.255648
O O14 0.366972 0.362660 0.269004
O O15 0.393918 0.249785 0.130659
O O16 0.250000 0.074617 0.612136
O O17 0.109148 0.000000 0.576771
O O18 0.750000 0.265584 0.244378
O O19 0.891724 0.258851 0.116426
O O20 0.250000 0.217907 0.006125
O O21 0.362544 0.500000 0.324868
#
# Coordination Sequence:
#
# PCOD9398559 Si02
#       8
#     8   8   8   8   8   8   8   8
#     4   8  12  20  36  57  84 121 157 182 215 267
#     4   9  15  24  39  62  89 115 148 187 223 259
#     4   9  18  32  50  71  92 115 147 190 232 268
#     4  10  19  30  45  67  94 123 152 184 227 276
#     4   8  12  19  34  57  86 119 151 184 223 264
#     4  10  17  28  47  69  93 119 150 188 226 264
#     4   9  17  28  41  63  96 127 152 186 229 266
#     4   9  18  33  50  68  92 118 147 187 232 275
#
# _framework density 20.280919999999998
#
# number of rings (size 3 to 8) (size 9 to 14) (size 15 to 20)
#    0.000    3.000    2.500    1.500    0.000    0.500 
#    0.000    3.125    0.000    7.500    0.000    0.000 
#    0.000    6.000    0.000    0.000    0.000    0.000 
#
# Total GULP energy -356897.605900 kJ/mol
# GULP energy per Si atom -5576.525092 kJ/mol
# Density = 2.023476 g / cm^3
# Si number density = 20.280920 Si / 1000 Ang^3
#
#
#
# Elastic Constant Matrix: (Units=GPa)
#
#
# Indices 1 2 3 4 5 6 
#
# 1 61.4056 -7.3919 11.2479 0.0000 0.0000 0.0000
# 2 -7.3919 172.8403 103.5522 0.0000 0.0000 0.0000
# 3 11.2479 103.5522 143.8492 0.0000 0.0000 0.0000
# 4 0.0000 0.0000 0.0000 30.5540 0.0000 0.0000
# 5 0.0000 0.0000 0.0000 0.0000 -2.1888 0.0000
# 6 0.0000 0.0000 0.0000 0.0000 0.0000 55.7051
#
#
#
# Elastic Compliance Matrix: (Units=1/GPa)
#
#
# Indices 1 2 3 4 5 6 
#
# 1 0.017216 0.002713 -0.003299 0.000000 0.000000 0.000000
# 2 0.002713 0.010601 -0.007843 0.000000 0.000000 0.000000
# 3 -0.003299 -0.007843 0.012856 0.000000 0.000000 0.000000
# 4 0.000000 0.000000 0.000000 0.032729 0.000000 0.000000
# 5 0.000000 0.000000 0.000000 0.000000 -0.456880 0.000000
# 6 0.000000 0.000000 0.000000 0.000000 0.000000 0.017952
#
#
# Mechanical properties :
#
#
# Convention : Reuss Voigt Hill
#
# Bulk Modulus (GPa) = 41.99280 65.87905 53.93593
# Shear Modulus (GPa) = -14.67436 34.85986 10.09275
#
# Velocity S-wave (km/s) = -2.69282 4.15040 2.23322
# Velocity P-wave (km/s) = 3.32899 7.45128 5.77078
#
# Compressibility (1/GPa) = 0.02381361
#
# Stress axis : x y z
#
# Youngs Moduli (GPa) = 58.08549 94.33291 77.78608
#
# Poissons Ratio (x) = -0.25590 0.25662
# Poissons Ratio (y) = -0.15757 0.61010
# Poissons Ratio (z) = 0.19162 0.73988
#
# Static dielectric constant tensor:
#      x y z
#    x 1.775920 0.000000 0.000000 
#    y 0.000000 1.738890 0.000000 
#    z 0.000000 0.000000 1.693820 
# 
# From -- ./inp_files/18391.got.cif
#   From: 2010.05.17/outbox.cif.g08.bks.cpg/sg51_10_cif.got.tgz:18391.got - 2010.06.03 11:52:47.
