data_PCOD9398963
_publ_section_title
;
Structure prediction by ZEFSAII (Michael W. Deem and Ramdas Pophale) SiO2 
 PCOD9398963
Probable space group: P M M A
;
_chemical_formula_sum "Si O2"
_cell_formula_units_Z 64
_cell_length_a 8.993075
_cell_length_b 18.801418
_cell_length_c 27.085516
_cell_angle_alpha 90.000000
_cell_angle_beta 90.000000
_cell_angle_gamma 90.000000
_cell_volume 4579.688443
_symmetry_space_group_name_H-M "P M M A"
_symmetry_group_IT_number 51
_symmetry_cell_setting 'orthorhombic'
loop_
_space_group_symop_operation_xyz
x,y,z
1/2-x,-y,z
1/2+x,-y,-z
-x,y,-z
-x,-y,-z
1/2+x,y,-z
1/2-x,y,z
x,-y,z
loop_
_atom_site_type_symbol
_atom_site_label
_atom_site_fract_x
_atom_site_fract_y
_atom_site_fract_z
Si Si1 0.571423 0.416976 0.948572
Si Si2 0.579313 0.203586 0.797270
Si Si3 0.928364 0.919146 0.256581
Si Si4 0.078030 0.706021 0.304990
Si Si5 0.571456 0.165986 0.356367
Si Si6 0.930616 0.656979 0.846887
Si Si7 0.427584 0.916456 0.446726
Si Si8 0.072440 0.583442 0.751728
O O1 0.750000 0.413694 0.952765
O O2 0.529993 0.500000 0.941011
O O3 0.527577 0.372507 0.900396
O O4 0.500000 0.393011 0.000000
O O5 0.750000 0.184749 0.807690
O O6 0.488204 0.133073 0.785701
O O7 0.576251 0.249353 0.746435
O O8 0.525763 0.260828 0.837495
O O9 0.750000 0.919788 0.254474
O O10 0.968667 0.884598 0.309564
O O11 0.983149 0.000000 0.252881
O O12 0.250000 0.695547 0.318847
O O13 0.992798 0.756222 0.343512
O O14 0.998390 0.632527 0.290916
O O15 0.750000 0.168243 0.360068
O O16 0.499960 0.132198 0.404868
O O17 0.750000 0.653157 0.841689
O O18 0.002468 0.609943 0.803511
O O19 0.500000 0.902022 0.500000
O O20 0.250000 0.906436 0.448741
O O21 0.456449 0.000000 0.435234
O O22 0.250000 0.594383 0.753063
O O23 0.041968 0.500000 0.744845
#
# Coordination Sequence:
#
# PCOD9398963 Si02
#       8
#     8   8   8   8   8   8   8   8
#     4   9  17  28  41  57  78 104 134 168 203 238
#     4   8  15  26  39  56  76 100 132 167 198 232
#     4   9  17  27  39  57  81 108 135 162 196 240
#     4   9  17  29  43  59  81 109 140 171 205 247
#     4  10  18  29  45  62  83 111 142 175 211 249
#     4   9  17  29  43  57  77 108 141 169 202 245
#     4  10  20  32  45  62  85 113 146 182 216 250
#     4  10  19  28  40  61  86 110 139 174 208 243
#
# _framework density 13.97475
#
# number of rings (size 3 to 8) (size 9 to 14) (size 15 to 20)
#    0.000    2.750    0.000    3.000    0.000    7.000 
#    0.000    1.250    0.000    0.000    0.000    0.000 
#    0.000    1.000    0.000    3.000    0.000    4.875 
#
# Total GULP energy -356527.426016 kJ/mol
# GULP energy per Si atom -5570.741032 kJ/mol
# Density = 1.394294 g / cm^3
# Si number density = 13.974750 Si / 1000 Ang^3
#
#
#
# Elastic Constant Matrix: (Units=GPa)
#
#
# Indices 1 2 3 4 5 6 
#
# 1 48.4594 49.6486 40.0923 0.0000 0.0000 0.0000
# 2 49.6486 112.5528 63.1759 0.0000 0.0000 0.0000
# 3 40.0923 63.1759 94.3017 0.0000 0.0000 0.0000
# 4 0.0000 0.0000 0.0000 27.0949 0.0000 0.0000
# 5 0.0000 0.0000 0.0000 0.0000 21.9008 0.0000
# 6 0.0000 0.0000 0.0000 0.0000 0.0000 23.4160
#
#
#
# Elastic Compliance Matrix: (Units=1/GPa)
#
#
# Indices 1 2 3 4 5 6 
#
# 1 0.041634 -0.013510 -0.008650 0.000000 0.000000 0.000000
# 2 -0.013510 0.018623 -0.006732 0.000000 0.000000 0.000000
# 3 -0.008650 -0.006732 0.018792 0.000000 0.000000 0.000000
# 4 0.000000 0.000000 0.000000 0.036907 0.000000 0.000000
# 5 0.000000 0.000000 0.000000 0.000000 0.045660 0.000000
# 6 0.000000 0.000000 0.000000 0.000000 0.000000 0.042706
#
#
# Mechanical properties :
#
#
# Convention : Reuss Voigt Hill
#
# Bulk Modulus (GPa) = 47.02709 62.34974 54.68841
# Shear Modulus (GPa) = 18.57389 21.30881 19.94135
#
# Velocity S-wave (km/s) = 3.64964 3.90911 3.78160
# Velocity P-wave (km/s) = 7.17526 8.06770 7.63453
#
# Compressibility (1/GPa) = 0.02126434
#
# Stress axis : x y z
#
# Youngs Moduli (GPa) = 24.01898 53.69649 53.21431
#
# Poissons Ratio (x) = 0.72545 0.46028
# Poissons Ratio (y) = 0.32450 0.35826
# Poissons Ratio (z) = 0.20775 0.36151
#
# Static dielectric constant tensor:
#      x y z
#    x 1.471430 0.000000 0.000000 
#    y 0.000000 1.460830 0.000000 
#    z 0.000000 0.000000 1.437700 
# 
# From -- ./inp_files/35105.got.cif
#   From: 2010.05.17/outbox.cif.g08.bks.cpg/sg51_18_cif.got.tgz:35105.got - 2010.06.03 11:52:47.
