data_PCOD9398706
_publ_section_title
;
Structure prediction by ZEFSAII (Michael W. Deem and Ramdas Pophale) SiO2 
 PCOD9398706
Probable space group: P M M A
;
_chemical_formula_sum "Si O2"
_cell_formula_units_Z 64
_cell_length_a 9.090495
_cell_length_b 23.638246
_cell_length_c 17.978283
_cell_angle_alpha 90.000000
_cell_angle_beta 90.000000
_cell_angle_gamma 90.000000
_cell_volume 3863.233805
_symmetry_space_group_name_H-M "P M M A"
_symmetry_group_IT_number 51
_symmetry_cell_setting 'orthorhombic'
loop_
_space_group_symop_operation_xyz
x,y,z
1/2-x,-y,z
1/2+x,-y,-z
-x,y,-z
-x,-y,-z
1/2+x,y,-z
1/2-x,y,z
x,-y,z
loop_
_atom_site_type_symbol
_atom_site_label
_atom_site_fract_x
_atom_site_fract_y
_atom_site_fract_z
Si Si1 0.073066 0.185511 0.918570
Si Si2 0.425644 0.433026 0.579071
Si Si3 0.925249 0.251991 0.790343
Si Si4 0.416947 0.343793 0.698241
Si Si5 0.414464 0.746023 0.566018
Si Si6 0.424285 0.163291 0.342774
Si Si7 0.576511 0.933031 0.420364
Si Si8 0.426750 0.939299 0.918512
O O1 0.250000 0.189910 0.923833
O O2 0.035184 0.122349 0.886436
O O3 0.007031 0.232413 0.864532
O O4 0.000000 0.189191 0.000000
O O5 0.500000 0.418414 0.500000
O O6 0.250000 0.422331 0.572431
O O7 0.448632 0.500000 0.590725
O O8 0.475820 0.397487 0.651474
O O9 0.750000 0.254702 0.800063
O O10 0.955585 0.201734 0.729864
O O11 0.985504 0.311892 0.759535
O O12 0.250000 0.355569 0.725382
O O13 0.405754 0.296178 0.634464
O O14 0.500000 0.716173 0.500000
O O15 0.250000 0.762907 0.544839
O O16 0.511703 0.798940 0.590224
O O17 0.250000 0.156076 0.348123
O O18 0.505112 0.103904 0.354633
O O19 0.500000 0.920558 0.500000
O O20 0.750000 0.920720 0.425655
O O21 0.557718 0.000000 0.406836
O O22 0.250000 0.939276 0.926659
O O23 0.467715 0.000000 0.882197
O O24 0.500000 0.939776 0.000000
#
# Coordination Sequence:
#
# PCOD9398706 Si02
#       8
#     8   8   8   8   8   8   8   8
#     4  10  19  32  52  74  98 126 156 194 239 291
#     4   9  17  29  46  70 101 136 173 210 244 280
#     4  10  21  35  50  69  93 122 157 196 239 285
#     4   9  18  31  46  65  92 127 162 196 236 278
#     4  10  18  27  41  61  85 113 148 187 225 268
#     4  10  20  33  47  62  84 113 145 185 231 278
#     4  10  20  33  49  67  86 111 146 189 236 285
#     4   8  14  25  42  65  90 115 143 175 214 263
#
# _framework density 16.566431999999999
#
# number of rings (size 3 to 8) (size 9 to 14) (size 15 to 20)
#    0.000    2.500    0.000    2.625    0.000    3.750 
#    0.000    0.625    0.000    2.250    0.000    0.000 
#    0.000    0.500    0.000    1.375    0.000    2.000 
#
# Total GULP energy -356365.966526 kJ/mol
# GULP energy per Si atom -5568.218227 kJ/mol
# Density = 1.652873 g / cm^3
# Si number density = 16.566432 Si / 1000 Ang^3
#
#
#
# Elastic Constant Matrix: (Units=GPa)
#
#
# Indices 1 2 3 4 5 6 
#
# 1 58.7629 34.3892 38.9649 0.0000 0.0000 0.0000
# 2 34.3892 88.2412 38.0146 0.0000 0.0000 0.0000
# 3 38.9649 38.0146 55.2875 0.0000 0.0000 0.0000
# 4 0.0000 0.0000 0.0000 24.6628 0.0000 0.0000
# 5 0.0000 0.0000 0.0000 0.0000 21.2192 0.0000
# 6 0.0000 0.0000 0.0000 0.0000 0.0000 18.9902
#
#
#
# Elastic Compliance Matrix: (Units=1/GPa)
#
#
# Indices 1 2 3 4 5 6 
#
# 1 0.032925 -0.004028 -0.020435 0.000000 0.000000 0.000000
# 2 -0.004028 0.016595 -0.008572 0.000000 0.000000 0.000000
# 3 -0.020435 -0.008572 0.038383 0.000000 0.000000 0.000000
# 4 0.000000 0.000000 0.000000 0.040547 0.000000 0.000000
# 5 0.000000 0.000000 0.000000 0.000000 0.047127 0.000000
# 6 0.000000 0.000000 0.000000 0.000000 0.000000 0.052659
#
#
# Mechanical properties :
#
#
# Convention : Reuss Voigt Hill
#
# Bulk Modulus (GPa) = 45.80061 47.22544 46.51302
# Shear Modulus (GPa) = 16.57924 19.03598 17.80761
#
# Velocity S-wave (km/s) = 3.16693 3.39347 3.28216
# Velocity P-wave (km/s) = 6.40931 6.62743 6.51928
#
# Compressibility (1/GPa) = 0.02183377
#
# Stress axis : x y z
#
# Youngs Moduli (GPa) = 30.37217 60.25899 26.05343
#
# Poissons Ratio (x) = 0.24273 0.53240
# Poissons Ratio (y) = 0.12234 0.22332
# Poissons Ratio (z) = 0.62065 0.51651
#
# Static dielectric constant tensor:
#      x y z
#    x 1.574680 0.000000 0.000000 
#    y 0.000000 1.598290 0.000000 
#    z 0.000000 0.000000 1.874750 
# 
# From -- ./inp_files/32707.got.cif
#   From: 2010.05.17/outbox.cif.g08.bks.cpg/sg51_17_cif.got.tgz:32707.got - 2010.06.03 11:52:47.
