data_PCOD9398456
_publ_section_title
;
Structure prediction by ZEFSAII (Michael W. Deem and Ramdas Pophale) SiO2 
 PCOD9398456
Probable space group: P M M A
;
_chemical_formula_sum "Si O2"
_cell_formula_units_Z 40
_cell_length_a 8.727095
_cell_length_b 26.859501
_cell_length_c 9.441491
_cell_angle_alpha 90.000000
_cell_angle_beta 90.000000
_cell_angle_gamma 90.000000
_cell_volume 2213.136634
_symmetry_space_group_name_H-M "P M M A"
_symmetry_group_IT_number 51
_symmetry_cell_setting 'orthorhombic'
loop_
_space_group_symop_operation_xyz
x,y,z
1/2-x,-y,z
1/2+x,-y,-z
-x,y,-z
-x,-y,-z
1/2+x,y,-z
1/2-x,y,z
x,-y,z
loop_
_atom_site_type_symbol
_atom_site_label
_atom_site_fract_x
_atom_site_fract_y
_atom_site_fract_z
Si Si1 0.066425 0.445387 0.660190
Si Si2 0.433274 0.144813 0.843635
Si Si3 0.933775 0.758443 0.341604
Si Si4 0.933015 0.655659 0.660582
Si Si5 0.933415 0.942529 0.655714
O O1 0.250000 0.439896 0.652836
O O2 0.031592 0.500000 0.724046
O O3 0.000000 0.447148 0.500000
O O4 0.993930 0.395843 0.727259
O O5 0.250000 0.141268 0.849341
O O6 0.472989 0.193662 0.751773
O O7 0.499241 0.096298 0.766250
O O8 0.500000 0.149136 0.000000
O O9 0.750000 0.753414 0.350664
O O10 0.000000 0.765129 0.500000
O O11 0.003867 0.707444 0.278677
O O12 0.750000 0.655662 0.655793
O O13 0.000000 0.655831 0.500000
O O14 0.750000 0.938372 0.651292
O O15 0.000000 0.931586 0.500000
O O16 0.973225 0.000000 0.689960
#
# Coordination Sequence:
#
# PCOD9398456 Si02
#       5
#     8   8   8   8   8
#     4   9  15  22  33  51  80 118 156 196 244 298
#     4  11  24  39  57  80 108 142 177 218 265 313
#     4  10  20  34  52  74  99 131 171 213 258 307
#     4  10  17  25  40  61  87 121 160 204 250 298
#     4  10  21  38  61  87 114 144 178 216 257 305
#
# _framework density 18.073893999999999
#
# number of rings (size 3 to 8) (size 9 to 14) (size 15 to 20)
#    0.000    2.000    0.000    7.200    0.000    7.600 
#    0.000    0.000    0.000    0.000    0.000    0.000 
#    0.000    0.800    0.000    2.600    0.000    9.800 
#
# Total GULP energy -223155.239461 kJ/mol
# GULP energy per Si atom -5578.880987 kJ/mol
# Density = 1.803276 g / cm^3
# Si number density = 18.073894 Si / 1000 Ang^3
#
#
#
# Elastic Constant Matrix: (Units=GPa)
#
#
# Indices 1 2 3 4 5 6 
#
# 1 92.4488 73.7914 37.5924 0.0000 0.0000 0.0000
# 2 73.7914 171.6859 79.8746 0.0000 0.0000 0.0000
# 3 37.5924 79.8746 63.6519 0.0000 0.0000 0.0000
# 4 0.0000 0.0000 0.0000 -4.2208 0.0000 0.0000
# 5 0.0000 0.0000 0.0000 0.0000 20.9256 0.0000
# 6 0.0000 0.0000 0.0000 0.0000 0.0000 38.5033
#
#
#
# Elastic Compliance Matrix: (Units=1/GPa)
#
#
# Indices 1 2 3 4 5 6 
#
# 1 0.016575 -0.006175 -0.002041 0.000000 0.000000 0.000000
# 2 -0.006175 0.016295 -0.016802 0.000000 0.000000 0.000000
# 3 -0.002041 -0.016802 0.038000 0.000000 0.000000 0.000000
# 4 0.000000 0.000000 0.000000 -0.236921 0.000000 0.000000
# 5 0.000000 0.000000 0.000000 0.000000 0.047788 0.000000
# 6 0.000000 0.000000 0.000000 0.000000 0.000000 0.025972
#
#
# Mechanical properties :
#
#
# Convention : Reuss Voigt Hill
#
# Bulk Modulus (GPa) = 47.99451 78.92259 63.45855
# Shear Modulus (GPa) = -141.59839 20.14349 -60.72745
#
# Velocity S-wave (km/s) = -8.86083 3.34205 -5.80280
# Velocity P-wave (km/s) = 8.83591 7.65858 3.11606
#
# Compressibility (1/GPa) = 0.02083572
#
# Stress axis : x y z
#
# Youngs Moduli (GPa) = 60.33128 61.36790 26.31606
#
# Poissons Ratio (x) = 0.37892 0.05371
# Poissons Ratio (y) = 0.37252 0.44215
# Poissons Ratio (z) = 0.12313 1.03108
#
# Static dielectric constant tensor:
#      x y z
#    x 1.601910 0.000000 0.000000 
#    y 0.000000 1.684490 0.000000 
#    z 0.000000 0.000000 1.570940 
# 
# From -- ./inp_files/5500.got.cif
#   From: 2010.05.17/outbox.cif.g08.bks.cpg/sg51_3_cif.got.tgz:5500.got - 2010.06.03 11:52:47.
