data_PCOD9398626
_publ_section_title
;
Structure prediction by ZEFSAII (Michael W. Deem and Ramdas Pophale) SiO2 
 PCOD9398626
Probable space group: P M M A
;
_chemical_formula_sum "Si O2"
_cell_formula_units_Z 48
_cell_length_a 18.276249
_cell_length_b 14.750127
_cell_length_c 10.218078
_cell_angle_alpha 90.000000
_cell_angle_beta 90.000000
_cell_angle_gamma 90.000000
_cell_volume 2754.558750
_symmetry_space_group_name_H-M "P M M A"
_symmetry_group_IT_number 51
_symmetry_cell_setting 'orthorhombic'
loop_
_space_group_symop_operation_xyz
x,y,z
1/2-x,-y,z
1/2+x,-y,-z
-x,y,-z
-x,-y,-z
1/2+x,y,-z
1/2-x,y,z
x,-y,z
loop_
_atom_site_type_symbol
_atom_site_label
_atom_site_fract_x
_atom_site_fract_y
_atom_site_fract_z
Si Si1 0.967547 0.400226 0.713451
Si Si2 0.911087 0.103370 0.012462
Si Si3 0.590306 0.788267 0.763533
Si Si4 0.440020 0.891334 0.699597
Si Si5 0.831298 0.206675 0.492581
Si Si6 0.616328 0.399439 0.433086
O O1 0.956569 0.500000 0.772681
O O2 0.052609 0.389171 0.675265
O O3 0.937134 0.314019 0.789044
O O4 0.925544 0.399625 0.573446
O O5 0.882813 0.166703 0.897360
O O6 0.887317 0.000000 0.990222
O O7 0.898140 0.128220 0.163177
O O8 0.000000 0.104803 0.000000
O O9 0.518977 0.843540 0.711442
O O10 0.647997 0.789631 0.645807
O O11 0.392806 0.851027 0.582167
O O12 0.449360 0.000000 0.689876
O O13 0.750000 0.169780 0.473356
O O14 0.835754 0.309555 0.437595
O O15 0.649980 0.500000 0.418325
#
# Coordination Sequence:
#
# PCOD9398626 Si02
#       6
#     8   8   8   8   8   8
#     4   8  13  23  45  74  98 122 154 195 241 283
#     4   8  16  31  52  74  91 118 165 207 236 283
#     4  10  17  31  54  75  96 125 160 205 245 283
#     4  10  20  35  53  70  93 130 168 200 243 296
#     4  11  22  32  46  75 105 127 159 201 245 288
#     4   8  14  27  45  67  97 129 160 192 231 282
#
# _framework density 17.425657999999999
#
# number of rings (size 3 to 8) (size 9 to 14) (size 15 to 20)
#    0.000    2.833    1.667    3.000    0.000    2.667 
#    0.000    0.833    0.000    6.500    0.000    0.000 
#    0.000    2.667    0.000    0.000    0.000    0.000 
#
# Total GULP energy -267294.670444 kJ/mol
# GULP energy per Si atom -5568.638968 kJ/mol
# Density = 1.738600 g / cm^3
# Si number density = 17.425658 Si / 1000 Ang^3
#
#
#
# Elastic Constant Matrix: (Units=GPa)
#
#
# Indices 1 2 3 4 5 6 
#
# 1 28.5970 2.2187 -6.3722 0.0000 0.0000 0.0000
# 2 2.2187 77.7470 22.1533 0.0000 0.0000 0.0000
# 3 -6.3722 22.1533 48.7612 0.0000 0.0000 0.0000
# 4 0.0000 0.0000 0.0000 6.1321 0.0000 0.0000
# 5 0.0000 0.0000 0.0000 0.0000 4.9536 0.0000
# 6 0.0000 0.0000 0.0000 0.0000 0.0000 4.4614
#
#
#
# Elastic Compliance Matrix: (Units=1/GPa)
#
#
# Indices 1 2 3 4 5 6 
#
# 1 0.036526 -0.002760 0.006027 0.000000 0.000000 0.000000
# 2 -0.002760 0.014983 -0.007168 0.000000 0.000000 0.000000
# 3 0.006027 -0.007168 0.024552 0.000000 0.000000 0.000000
# 4 0.000000 0.000000 0.000000 0.163076 0.000000 0.000000
# 5 0.000000 0.000000 0.000000 0.000000 0.201875 0.000000
# 6 0.000000 0.000000 0.000000 0.000000 0.000000 0.224144
#
#
# Mechanical properties :
#
#
# Convention : Reuss Voigt Hill
#
# Bulk Modulus (GPa) = 14.64981 21.23386 17.94184
# Shear Modulus (GPa) = 7.18689 12.24978 9.71834
#
# Velocity S-wave (km/s) = 2.03304 2.65424 2.36413
# Velocity P-wave (km/s) = 3.73314 4.64814 4.21554
#
# Compressibility (1/GPa) = 0.06826025
#
# Stress axis : x y z
#
# Youngs Moduli (GPa) = 27.37795 66.74044 40.72940
#
# Poissons Ratio (x) = 0.18418 -0.24548
# Poissons Ratio (y) = 0.07555 0.29195
# Poissons Ratio (z) = -0.16501 0.47839
#
# Static dielectric constant tensor:
#      x y z
#    x 1.582530 0.000000 0.000000 
#    y 0.000000 1.623830 0.000000 
#    z 0.000000 0.000000 1.596920 
# 
# From -- ./inp_files/17389.got.cif
#   From: 2010.05.17/outbox.cif.g08.bks.cpg/sg51_9_cif.got.tgz:17389.got - 2010.06.03 11:52:47.
