data_PCOD9398830
_publ_section_title
;
Structure prediction by ZEFSAII (Michael W. Deem and Ramdas Pophale) SiO2 
 PCOD9398830
Probable space group: P M M A
;
_chemical_formula_sum "Si O2"
_cell_formula_units_Z 64
_cell_length_a 28.180596
_cell_length_b 18.202104
_cell_length_c 7.733427
_cell_angle_alpha 90.000000
_cell_angle_beta 90.000000
_cell_angle_gamma 90.000000
_cell_volume 3966.831522
_symmetry_space_group_name_H-M "P M M A"
_symmetry_group_IT_number 51
_symmetry_cell_setting 'orthorhombic'
loop_
_space_group_symop_operation_xyz
x,y,z
1/2-x,-y,z
1/2+x,-y,-z
-x,y,-z
-x,-y,-z
1/2+x,y,-z
1/2-x,y,z
x,-y,z
loop_
_atom_site_type_symbol
_atom_site_label
_atom_site_fract_x
_atom_site_fract_y
_atom_site_fract_z
Si Si1 0.195190 0.412776 0.974873
Si Si2 0.372341 0.657495 0.688847
Si Si3 0.074160 0.223130 0.861907
Si Si4 0.556014 0.916715 0.947059
Si Si5 0.024169 0.584253 0.690173
Si Si6 0.440587 0.674015 0.194947
Si Si7 0.024022 0.188985 0.327118
Si Si8 0.647453 0.412574 0.666846
O O1 0.250000 0.396195 0.936641
O O2 0.187089 0.500000 0.947256
O O3 0.160309 0.369507 0.847299
O O4 0.184644 0.399341 0.178224
O O5 0.389132 0.740960 0.728049
O O6 0.422592 0.614150 0.687338
O O7 0.347490 0.634654 0.508490
O O8 0.020848 0.215523 0.787949
O O9 0.083358 0.140388 0.928916
O O10 0.072073 0.278920 0.025189
O O11 0.553429 0.874608 0.764646
O O12 0.573567 0.000000 0.944464
O O13 0.500000 0.919514 0.000000
O O14 0.024700 0.500000 0.743851
O O15 0.000000 0.588997 0.500000
O O16 0.990032 0.631618 0.810167
O O17 0.445439 0.736869 0.343474
O O18 0.401669 0.614547 0.247157
O O19 0.000000 0.162282 0.500000
O O20 0.646207 0.500000 0.626605
#
# Coordination Sequence:
#
# PCOD9398830 Si02
#       8
#     8   8   8   8   8   8   8   8
#     4  10  23  41  56  72  96 130 178 232 279 319
#     4  12  21  35  54  77 102 134 177 219 266 324
#     4  10  20  31  47  69  96 134 174 210 257 304
#     4   8  16  30  47  65  94 136 178 210 247 300
#     4  11  21  30  43  69 104 137 171 212 256 310
#     4  11  18  31  45  64 101 139 174 206 250 313
#     4  10  18  28  43  66  98 136 176 216 252 298
#     4  11  22  35  52  73  99 134 176 222 266 307
#
# _framework density 16.133783000000001
#
# number of rings (size 3 to 8) (size 9 to 14) (size 15 to 20)
#    0.000    1.625    3.750    3.750    0.000    0.750 
#    0.000    1.875    0.000    0.000    0.000    0.000 
#    0.000    0.500    0.000    0.125    0.000    0.000 
#
# Total GULP energy -356772.324837 kJ/mol
# GULP energy per Si atom -5574.567576 kJ/mol
# Density = 1.609706 g / cm^3
# Si number density = 16.133783 Si / 1000 Ang^3
#
#
#
# Elastic Constant Matrix: (Units=GPa)
#
#
# Indices 1 2 3 4 5 6 
#
# 1 51.3257 20.9272 15.5714 0.0000 0.0000 0.0000
# 2 20.9272 103.7279 34.7647 0.0000 0.0000 0.0000
# 3 15.5714 34.7647 72.1193 0.0000 0.0000 0.0000
# 4 0.0000 0.0000 0.0000 13.0457 0.0000 0.0000
# 5 0.0000 0.0000 0.0000 0.0000 17.5355 0.0000
# 6 0.0000 0.0000 0.0000 0.0000 0.0000 9.8135
#
#
#
# Elastic Compliance Matrix: (Units=1/GPa)
#
#
# Indices 1 2 3 4 5 6 
#
# 1 0.021790 -0.003363 -0.003084 0.000000 0.000000 0.000000
# 2 -0.003363 0.012017 -0.005067 0.000000 0.000000 0.000000
# 3 -0.003084 -0.005067 0.016974 0.000000 0.000000 0.000000
# 4 0.000000 0.000000 0.000000 0.076654 0.000000 0.000000
# 5 0.000000 0.000000 0.000000 0.000000 0.057027 0.000000
# 6 0.000000 0.000000 0.000000 0.000000 0.000000 0.101900
#
#
# Mechanical properties :
#
#
# Convention : Reuss Voigt Hill
#
# Bulk Modulus (GPa) = 36.02960 41.07774 38.55367
# Shear Modulus (GPa) = 15.69168 18.47292 17.08230
#
# Velocity S-wave (km/s) = 3.12203 3.38743 3.25744
# Velocity P-wave (km/s) = 5.94780 6.38871 6.17219
#
# Compressibility (1/GPa) = 0.02775496
#
# Stress axis : x y z
#
# Youngs Moduli (GPa) = 45.89254 83.21430 58.91313
#
# Poissons Ratio (x) = 0.27982 0.18168
# Poissons Ratio (y) = 0.15432 0.29850
# Poissons Ratio (z) = 0.14152 0.42163
#
# Static dielectric constant tensor:
#      x y z
#    x 1.524060 0.000000 0.000000 
#    y 0.000000 1.550180 0.000000 
#    z 0.000000 0.000000 1.631490 
# 
# From -- ./inp_files/12517.got.cif
#   From: 2010.05.17/outbox.cif.g08.bks.cpg/sg51_7_cif.got.tgz:12517.got - 2010.06.03 11:52:47.
