data_PCOD9398324
_publ_section_title
;
Structure prediction by ZEFSAII (Michael W. Deem and Ramdas Pophale) SiO2 
 PCOD9398324
Probable space group: P B A N
;
_chemical_formula_sum "Si O2"
_cell_formula_units_Z 40
_cell_length_a 24.000000
_cell_length_b 9.000000
_cell_length_c 9.000000
_cell_angle_alpha 90.000000
_cell_angle_beta 90.000000
_cell_angle_gamma 90.000000
_cell_volume 1944.000000
_symmetry_space_group_name_H-M "P B A N"
_symmetry_group_IT_number 50
_space_group.IT_coordinate_system_code '2'
_symmetry_cell_setting 'orthorhombic'
loop_
_space_group_symop_operation_xyz
x,y,z
1/2-x,1/2-y,z
x,1/2-y,-z
1/2-x,y,-z
-x,-y,-z
1/2+x,1/2+y,-z
-x,1/2+y,z
1/2+x,-y,z
loop_
_atom_site_type_symbol
_atom_site_label
_atom_site_fract_x
_atom_site_fract_y
_atom_site_fract_z
Si Si1 0.091147 0.610670 0.105111
Si Si2 0.311653 0.415973 0.187566
Si Si3 0.933075 0.542738 0.194534
Si Si4 0.004795 0.729438 0.678203
Si Si5 0.191281 0.428353 0.173918
O O1 0.048665 0.675693 0.224060
O O2 0.140271 0.536555 0.198953
O O3 0.109310 0.750000 0.000000
O O4 0.065630 0.495048 0.982395
O O5 0.368915 0.489190 0.238259
O O6 0.251688 0.479738 0.231416
O O7 0.314782 0.241267 0.226163
O O8 0.309763 0.421662 0.007217
O O9 0.975383 0.436109 0.281952
O O10 0.948133 0.709929 0.244991
O O11 0.004126 0.750000 0.500000
#
# Coordination Sequence:
#
# PCOD9398324 Si02
#       5
#     8   8   8   8   8
#     4   9  19  35  56  84 111 142 187 235 281 339
#     4   8  15  29  53  83 109 135 179 233 274 333
#     4  10  21  37  56  82 111 142 190 234 277 335
#     4  11  23  38  54  79 112 154 188 227 282 339
#     4   8  14  29  54  83 109 137 175 228 291 320
#
# _framework density 20.576132000000001
#
# number of rings (size 3 to 8) (size 9 to 14) (size 15 to 20)
#    0.000    2.800    0.000    2.400    2.800    0.000 
#    7.200   17.000    0.000    2.400    0.000    0.000 
#    0.000    0.000    0.000    0.000    0.000    0.000 
#
# Total GULP energy -222701.423077 kJ/mol
# GULP energy per Si atom -5567.535577 kJ/mol
# Density = 2.052930 g / cm^3
# Si number density = 20.576132 Si / 1000 Ang^3
#
#
#
# Elastic Constant Matrix: (Units=GPa)
#
#
# Indices 1 2 3 4 5 6 
#
# 1 99.7167 35.1387 -6.9713 0.0000 0.0000 0.0000
# 2 35.1387 40.9369 19.3662 0.0000 0.0000 0.0000
# 3 -6.9713 19.3662 40.5243 0.0000 0.0000 0.0000
# 4 0.0000 0.0000 0.0000 13.2710 0.0000 0.0000
# 5 0.0000 0.0000 0.0000 0.0000 -0.0032 0.0000
# 6 0.0000 0.0000 0.0000 0.0000 0.0000 29.7669
#
#
#
# Elastic Compliance Matrix: (Units=1/GPa)
#
#
# Indices 1 2 3 4 5 6 
#
# 1 0.019303 -0.023439 0.014522 0.000000 0.000000 0.000000
# 2 -0.023439 0.060025 -0.032718 0.000000 0.000000 0.000000
# 3 0.014522 -0.032718 0.042810 0.000000 0.000000 0.000000
# 4 0.000000 0.000000 0.000000 0.075352 0.000000 0.000000
# 5 0.000000 0.000000 0.000000 0.000000********** 0.000000
# 6 0.000000 0.000000 0.000000 0.000000 0.000000 0.033594
#
#
# Mechanical properties :
#
#
# Convention : Reuss Voigt Hill
#
# Bulk Modulus (GPa) = 25.72741 30.69390 28.21066
# Shear Modulus (GPa) = -0.01615 17.51655 8.75020
#
# Velocity S-wave (km/s) = -0.08868 2.92088 2.06442
# Velocity P-wave (km/s) = 3.53839 5.13079 4.40711
#
# Compressibility (1/GPa) = 0.03886905
#
# Stress axis : x y z
#
# Youngs Moduli (GPa) = 51.80439 16.65961 23.35881
#
# Poissons Ratio (x) = 0.39049 -0.33922
# Poissons Ratio (y) = 1.21427 0.76425
# Poissons Ratio (z) = -0.75231 0.54507
#
# Static dielectric constant tensor:
#      x y z
#    x 1.846080 0.000000 0.000000 
#    y 0.000000 1.829280 0.000000 
#    z 0.000000 0.000000 1.687330 
# 
# From -- ./inp_files/15783.got.cif
#   From: 2010.05.17/outbox.ucp.g08.bks.cvg/sg50_8_cif.got.tgz:15783.got - 2010.06.11 16:26:39.
