data_PCOD9398598
_publ_section_title
;
Structure prediction by ZEFSAII (Michael W. Deem and Ramdas Pophale) SiO2 
 PCOD9398598
Probable space group: P M M A
;
_chemical_formula_sum "Si O2"
_cell_formula_units_Z 48
_cell_length_a 17.604450
_cell_length_b 13.079442
_cell_length_c 12.590299
_cell_angle_alpha 90.000000
_cell_angle_beta 90.000000
_cell_angle_gamma 90.000000
_cell_volume 2898.996705
_symmetry_space_group_name_H-M "P M M A"
_symmetry_group_IT_number 51
_symmetry_cell_setting 'orthorhombic'
loop_
_space_group_symop_operation_xyz
x,y,z
1/2-x,-y,z
1/2+x,-y,-z
-x,y,-z
-x,-y,-z
1/2+x,y,-z
1/2-x,y,z
x,-y,z
loop_
_atom_site_type_symbol
_atom_site_label
_atom_site_fract_x
_atom_site_fract_y
_atom_site_fract_z
Si Si1 0.117184 0.380559 0.200468
Si Si2 0.660629 0.615404 0.435477
Si Si3 0.946671 0.307328 0.252099
Si Si4 0.334360 0.228435 0.373929
Si Si5 0.512891 0.882256 0.625839
Si Si6 0.088541 0.616984 0.965311
O O1 0.134425 0.500000 0.215775
O O2 0.163500 0.305854 0.275187
O O3 0.028544 0.361464 0.232992
O O4 0.128835 0.355867 0.075818
O O5 0.750000 0.623882 0.406107
O O6 0.648669 0.500000 0.477225
O O7 0.605552 0.634480 0.336700
O O8 0.645387 0.700077 0.525094
O O9 0.906067 0.311509 0.137264
O O10 0.965399 0.196936 0.302516
O O11 0.250000 0.186594 0.389487
O O12 0.398790 0.144732 0.356750
O O13 0.500000 0.865125 0.500000
O O14 0.495634 0.000000 0.649828
O O15 0.108855 0.500000 0.935136
O O16 0.000000 0.615403 0.000000
#
# Coordination Sequence:
#
# PCOD9398598 Si02
#       6
#     8   8   8   8   8   8
#     4   9  17  28  47  72  98 132 167 195 227 279
#     4  10  19  29  43  68 101 131 155 186 235 296
#     4  10  17  30  50  69  95 129 161 206 244 286
#     4  10  20  33  48  70 101 132 159 195 246 298
#     4  10  20  35  52  73  96 121 165 217 252 292
#     4   8  14  26  45  70  98 128 162 195 229 277
#
# _framework density 16.557452999999999
#
# number of rings (size 3 to 8) (size 9 to 14) (size 15 to 20)
#    0.000    2.500    1.667    3.000    0.000    1.333 
#    0.000    3.333    0.000   14.000    0.000    0.000 
#    0.000    0.000    0.000    0.000    0.000    0.000 
#
# Total GULP energy -267394.343852 kJ/mol
# GULP energy per Si atom -5570.715497 kJ/mol
# Density = 1.651977 g / cm^3
# Si number density = 16.557453 Si / 1000 Ang^3
#
#
#
# Elastic Constant Matrix: (Units=GPa)
#
#
# Indices 1 2 3 4 5 6 
#
# 1 26.5198 8.4871 9.3454 0.0000 0.0000 0.0000
# 2 8.4871 70.2538 33.1880 0.0000 0.0000 0.0000
# 3 9.3454 33.1880 96.6245 0.0000 0.0000 0.0000
# 4 0.0000 0.0000 0.0000 20.3176 0.0000 0.0000
# 5 0.0000 0.0000 0.0000 0.0000 12.9150 0.0000
# 6 0.0000 0.0000 0.0000 0.0000 0.0000 6.0755
#
#
#
# Elastic Compliance Matrix: (Units=1/GPa)
#
#
# Indices 1 2 3 4 5 6 
#
# 1 0.039773 -0.003566 -0.002622 0.000000 0.000000 0.000000
# 2 -0.003566 0.017311 -0.005601 0.000000 0.000000 0.000000
# 3 -0.002622 -0.005601 0.012527 0.000000 0.000000 0.000000
# 4 0.000000 0.000000 0.000000 0.049218 0.000000 0.000000
# 5 0.000000 0.000000 0.000000 0.000000 0.077429 0.000000
# 6 0.000000 0.000000 0.000000 0.000000 0.000000 0.164597
#
#
# Mechanical properties :
#
#
# Convention : Reuss Voigt Hill
#
# Bulk Modulus (GPa) = 21.72382 32.82654 27.27518
# Shear Modulus (GPa) = 12.50697 17.35344 14.93021
#
# Velocity S-wave (km/s) = 2.75138 3.24091 3.00612
# Velocity P-wave (km/s) = 4.82102 5.82010 5.34396
#
# Compressibility (1/GPa) = 0.04603241
#
# Stress axis : x y z
#
# Youngs Moduli (GPa) = 25.14276 57.76739 79.82956
#
# Poissons Ratio (x) = 0.20601 0.20930
# Poissons Ratio (y) = 0.08966 0.44712
# Poissons Ratio (z) = 0.06592 0.32355
#
# Static dielectric constant tensor:
#      x y z
#    x 1.585810 0.000000 0.000000 
#    y 0.000000 1.527780 0.000000 
#    z 0.000000 0.000000 1.572390 
# 
# From -- ./inp_files/17372.got.cif
#   From: 2010.05.17/outbox.cif.g08.bks.cpg/sg51_9_cif.got.tgz:17372.got - 2010.06.03 11:52:47.
