data_PCOD9398535
_publ_section_title
;
Structure prediction by ZEFSAII (Michael W. Deem and Ramdas Pophale) SiO2 
 PCOD9398535
Probable space group: P M M A
;
_chemical_formula_sum "Si O2"
_cell_formula_units_Z 64
_cell_length_a 18.366455
_cell_length_b 9.276447
_cell_length_c 22.122653
_cell_angle_alpha 90.000000
_cell_angle_beta 90.000000
_cell_angle_gamma 90.000000
_cell_volume 3769.156880
_symmetry_space_group_name_H-M "P M M A"
_symmetry_group_IT_number 51
_symmetry_cell_setting 'orthorhombic'
loop_
_space_group_symop_operation_xyz
x,y,z
1/2-x,-y,z
1/2+x,-y,-z
-x,y,-z
-x,-y,-z
1/2+x,y,-z
1/2-x,y,z
x,-y,z
loop_
_atom_site_type_symbol
_atom_site_label
_atom_site_fract_x
_atom_site_fract_y
_atom_site_fract_z
Si Si1 0.978905 0.173000 0.432117
Si Si2 0.049005 0.669181 0.320744
Si Si3 0.164425 0.829064 0.240970
Si Si4 0.904353 0.830264 0.886447
Si Si5 0.103579 0.330072 0.748491
Si Si6 0.588339 0.334059 0.006722
Si Si7 0.168120 0.171657 0.634776
Si Si8 0.921150 0.829654 0.128382
O O1 0.895471 0.206872 0.413109
O O2 0.000000 0.215099 0.500000
O O3 0.028390 0.251328 0.382639
O O4 0.988051 0.000000 0.426929
O O5 0.059801 0.500000 0.330902
O O6 0.117367 0.741025 0.288525
O O7 0.979135 0.686217 0.276446
O O8 0.250000 0.807110 0.248521
O O9 0.139656 0.788439 0.173253
O O10 0.148387 0.000000 0.247576
O O11 0.990594 0.812298 0.872674
O O12 0.892569 0.000000 0.898704
O O13 0.884065 0.739476 0.945417
O O14 0.118902 0.500000 0.754658
O O15 0.152127 0.257691 0.696338
O O16 0.108719 0.249044 0.812199
O O17 0.610985 0.500000 0.012336
O O18 0.606294 0.243954 0.066698
O O19 0.500000 0.331871 0.000000
O O20 0.250000 0.201435 0.613219
O O21 0.162424 0.000000 0.647312
O O22 0.905720 0.000000 0.129500
#
# Coordination Sequence:
#
# PCOD9398535 Si02
#       8
#     8   8   8   8   8   8   8   8
#     4   9  18  34  57  82 108 140 177 214 252 297
#     4  10  20  33  51  75 105 136 169 212 258 307
#     4  10  20  34  52  73  99 135 178 221 264 311
#     4   9  17  29  45  66  93 126 166 213 262 311
#     4  10  19  30  48  74 102 133 167 207 257 307
#     4   9  17  27  41  64  94 125 158 204 259 313
#     4   9  18  33  53  77 105 136 171 210 252 301
#     4  10  17  27  46  70  96 127 164 211 261 308
#
# _framework density 16.979924
#
# number of rings (size 3 to 8) (size 9 to 14) (size 15 to 20)
#    0.000    2.500    1.250    1.500    0.000    4.250 
#    0.000    0.625    0.000    3.000    0.000    1.750 
#    0.000    0.000    0.000    0.000    0.000    0.000 
#
# Total GULP energy -356948.622155 kJ/mol
# GULP energy per Si atom -5577.322221 kJ/mol
# Density = 1.694128 g / cm^3
# Si number density = 16.979924 Si / 1000 Ang^3
#
#
#
# Elastic Constant Matrix: (Units=GPa)
#
#
# Indices 1 2 3 4 5 6 
#
# 1 59.5469 44.3576 55.3303 0.0000 0.0000 0.0000
# 2 44.3576 77.0404 80.6959 0.0000 0.0000 0.0000
# 3 55.3303 80.6959 160.7000 0.0000 0.0000 0.0000
# 4 0.0000 0.0000 0.0000 16.7598 0.0000 0.0000
# 5 0.0000 0.0000 0.0000 0.0000 14.0821 0.0000
# 6 0.0000 0.0000 0.0000 0.0000 0.0000 11.5486
#
#
#
# Elastic Compliance Matrix: (Units=1/GPa)
#
#
# Indices 1 2 3 4 5 6 
#
# 1 0.030326 -0.013763 -0.003530 0.000000 0.000000 0.000000
# 2 -0.013763 0.033629 -0.012148 0.000000 0.000000 0.000000
# 3 -0.003530 -0.012148 0.013539 0.000000 0.000000 0.000000
# 4 0.000000 0.000000 0.000000 0.059666 0.000000 0.000000
# 5 0.000000 0.000000 0.000000 0.000000 0.071012 0.000000
# 6 0.000000 0.000000 0.000000 0.000000 0.000000 0.086591
#
#
# Mechanical properties :
#
#
# Convention : Reuss Voigt Hill
#
# Bulk Modulus (GPa) = 53.73266 73.11720 63.42493
# Shear Modulus (GPa) = 13.89465 16.27167 15.08316
#
# Velocity S-wave (km/s) = 2.86370 3.09898 2.98366
# Velocity P-wave (km/s) = 6.53053 7.48060 7.02165
#
# Compressibility (1/GPa) = 0.01861065
#
# Stress axis : x y z
#
# Youngs Moduli (GPa) = 32.97477 29.73597 73.86260
#
# Poissons Ratio (x) = 0.40926 0.26077
# Poissons Ratio (y) = 0.45383 0.89731
# Poissons Ratio (z) = 0.11642 0.36124
#
# Static dielectric constant tensor:
#      x y z
#    x 1.567110 0.000000 0.000000 
#    y 0.000000 1.564230 0.000000 
#    z 0.000000 0.000000 1.544970 
# 
# From -- ./inp_files/33836.got.cif
#   From: 2010.05.17/outbox.cif.g08.bks.cpg/sg51_17_cif.got.tgz:33836.got - 2010.06.03 11:52:47.
