data_PCOD9398593
_publ_section_title
;
Structure prediction by ZEFSAII (Michael W. Deem and Ramdas Pophale) SiO2 
 PCOD9398593
Probable space group: P M M A
;
_chemical_formula_sum "Si O2"
_cell_formula_units_Z 64
_cell_length_a 16.911774
_cell_length_b 17.942070
_cell_length_c 12.968175
_cell_angle_alpha 90.000000
_cell_angle_beta 90.000000
_cell_angle_gamma 90.000000
_cell_volume 3934.962297
_symmetry_space_group_name_H-M "P M M A"
_symmetry_group_IT_number 51
_symmetry_cell_setting 'orthorhombic'
loop_
_space_group_symop_operation_xyz
x,y,z
1/2-x,-y,z
1/2+x,-y,-z
-x,y,-z
-x,-y,-z
1/2+x,y,-z
1/2-x,y,z
x,-y,z
loop_
_atom_site_type_symbol
_atom_site_label
_atom_site_fract_x
_atom_site_fract_y
_atom_site_fract_z
Si Si1 0.162796 0.650847 0.898089
Si Si2 0.505519 0.677312 0.873942
Si Si3 0.896056 0.913866 0.215424
Si Si4 0.838467 0.413272 0.879610
Si Si5 0.658464 0.909697 0.436153
Si Si6 0.654639 0.912433 0.664661
Si Si7 0.554514 0.155350 0.841818
Si Si8 0.335760 0.822709 0.969089
O O1 0.250000 0.643327 0.847714
O O2 0.159711 0.734632 0.946390
O O3 0.079578 0.644989 0.838426
O O4 0.160850 0.595967 0.995994
O O5 0.584670 0.632478 0.843605
O O6 0.516758 0.762177 0.837822
O O7 0.500000 0.675984 0.000000
O O8 0.888753 0.887950 0.333971
O O9 0.844122 0.864898 0.138610
O O10 0.984647 0.902971 0.175294
O O11 0.871701 0.000000 0.210743
O O12 0.750000 0.386457 0.847028
O O13 0.845653 0.500000 0.852765
O O14 0.750000 0.886376 0.423348
O O15 0.629180 0.887312 0.549514
O O16 0.658368 0.000000 0.439924
O O17 0.750000 0.909709 0.666608
O O18 0.617210 0.861937 0.752645
O O19 0.632308 0.000000 0.679387
O O20 0.597255 0.152078 0.952022
O O21 0.250000 0.838490 0.015969
#
# Coordination Sequence:
#
# PCOD9398593 Si02
#       8
#     8   8   8   8   8   8   8   8
#     4   9  17  30  45  62  88 125 164 196 233 280
#     4  10  17  30  45  62  93 130 160 188 233 279
#     4  11  22  33  48  67  87 117 158 210 253 284
#     4   9  17  28  46  71  93 121 164 201 228 269
#     4   8  16  34  53  66  83 110 152 203 253 298
#     4   9  19  34  50  66  86 117 157 201 247 298
#     4  12  20  31  45  68  95 124 154 189 241 300
#     4  11  21  33  47  63  90 127 163 194 235 291
#
# _framework density 16.26445
#
# number of rings (size 3 to 8) (size 9 to 14) (size 15 to 20)
#    0.000    2.125    3.750    2.250    0.000    5.500 
#    0.000    1.875    0.000    0.000    0.000    0.000 
#    0.000    0.000    0.000    3.375    0.000   18.625 
#
# Total GULP energy -356388.505332 kJ/mol
# GULP energy per Si atom -5568.570396 kJ/mol
# Density = 1.622743 g / cm^3
# Si number density = 16.264450 Si / 1000 Ang^3
#
#
#
# Elastic Constant Matrix: (Units=GPa)
#
#
# Indices 1 2 3 4 5 6 
#
# 1 100.5927 10.4151 14.1659 0.0000 0.0000 0.0000
# 2 10.4151 29.4947 8.3546 0.0000 0.0000 0.0000
# 3 14.1659 8.3546 46.8148 0.0000 0.0000 0.0000
# 4 0.0000 0.0000 0.0000 -1.4366 0.0000 0.0000
# 5 0.0000 0.0000 0.0000 0.0000 8.6829 0.0000
# 6 0.0000 0.0000 0.0000 0.0000 0.0000 19.6055
#
#
#
# Elastic Compliance Matrix: (Units=1/GPa)
#
#
# Indices 1 2 3 4 5 6 
#
# 1 0.010629 -0.002993 -0.002682 0.000000 0.000000 0.000000
# 2 -0.002993 0.036553 -0.005617 0.000000 0.000000 0.000000
# 3 -0.002682 -0.005617 0.023175 0.000000 0.000000 0.000000
# 4 0.000000 0.000000 0.000000 -0.696097 0.000000 0.000000
# 5 0.000000 0.000000 0.000000 0.000000 0.115169 0.000000
# 6 0.000000 0.000000 0.000000 0.000000 0.000000 0.051006
#
#
# Mechanical properties :
#
#
# Convention : Reuss Voigt Hill
#
# Bulk Modulus (GPa) = 20.93344 26.97481 23.95413
# Shear Modulus (GPa) = -11.87490 14.96813 1.54661
#
# Velocity S-wave (km/s) = -2.70499 3.03693 0.97621
# Velocity P-wave (km/s) = 1.77275 5.37758 4.00381
#
# Compressibility (1/GPa) = 0.04777045
#
# Stress axis : x y z
#
# Youngs Moduli (GPa) = 94.08489 27.35780 43.15031
#
# Poissons Ratio (x) = 0.08190 0.11573
# Poissons Ratio (y) = 0.28164 0.24239
# Poissons Ratio (z) = 0.25233 0.15368
#
# Static dielectric constant tensor:
#      x y z
#    x 1.639290 0.000000 0.000000 
#    y 0.000000 1.524810 0.000000 
#    z 0.000000 0.000000 1.524920 
# 
# From -- ./inp_files/17713.got.cif
#   From: 2010.05.17/outbox.cif.g08.bks.cpg/sg51_9_cif.got.tgz:17713.got - 2010.06.03 11:52:47.
