data_PCOD9398787
_publ_section_title
;
Structure prediction by ZEFSAII (Michael W. Deem and Ramdas Pophale) SiO2 
 PCOD9398787
Probable space group: P M M A
;
_chemical_formula_sum "Si O2"
_cell_formula_units_Z 52
_cell_length_a 8.050056
_cell_length_b 19.373526
_cell_length_c 19.423088
_cell_angle_alpha 90.000000
_cell_angle_beta 90.000000
_cell_angle_gamma 90.000000
_cell_volume 3029.185360
_symmetry_space_group_name_H-M "P M M A"
_symmetry_group_IT_number 51
_symmetry_cell_setting 'orthorhombic'
loop_
_space_group_symop_operation_xyz
x,y,z
1/2-x,-y,z
1/2+x,-y,-z
-x,y,-z
-x,-y,-z
1/2+x,y,-z
1/2-x,y,z
x,-y,z
loop_
_atom_site_type_symbol
_atom_site_label
_atom_site_fract_x
_atom_site_fract_y
_atom_site_fract_z
Si Si1 0.552746 0.349189 0.920697
Si Si2 0.445791 0.422532 0.713682
Si Si3 0.944641 0.285705 0.787911
Si Si4 0.053532 0.500000 0.920074
Si Si5 0.948917 0.354420 0.578517
Si Si6 0.049394 0.077065 0.420778
Si Si7 0.046764 0.213668 0.345494
O O1 0.750000 0.344066 0.920505
O O2 0.482893 0.295677 0.864330
O O3 0.509318 0.426410 0.894566
O O4 0.500000 0.340932 0.000000
O O5 0.250000 0.417279 0.730227
O O6 0.501961 0.500000 0.730928
O O7 0.539598 0.360663 0.751754
O O8 0.471309 0.407388 0.632628
O O9 0.750000 0.268926 0.795500
O O10 0.014302 0.233102 0.731138
O O11 0.250000 0.500000 0.914418
O O12 0.000000 0.500000 0.000000
O O13 0.750000 0.359647 0.584708
O O14 0.998976 0.277450 0.604524
O O15 0.000000 0.365095 0.500000
O O16 0.250000 0.076865 0.417370
O O17 0.988898 0.140584 0.374658
O O18 0.000000 0.088764 0.500000
O O19 0.990838 0.000000 0.401096
O O20 0.250000 0.212825 0.343855
#
# Coordination Sequence:
#
# PCOD9398787 Si02
#       7
#     8   8   8   4   8   8   8
#     4  10  19  31  46  65  86 111 142 178 221 266
#     4  10  21  34  46  62  82 105 138 181 225 264
#     4   9  19  33  48  63  83 114 146 177 216 262
#     4  10  18  28  42  60  84 110 137 172 215 260
#     4  10  19  31  47  63  81 109 143 181 220 259
#     4   9  16  26  43  67  94 121 146 174 209 249
#     4   8  15  29  45  63  87 114 145 176 210 253
#
# _framework density 17.166332000000001
#
# number of rings (size 3 to 8) (size 9 to 14) (size 15 to 20)
#    0.000    2.615    0.000    4.385    1.077    2.769 
#    0.000    3.077    0.000    0.000    0.000    0.000 
#    0.000    0.615    0.000    0.462    0.000    0.923 
#
# Total GULP energy -289855.096573 kJ/mol
# GULP energy per Si atom -5574.136473 kJ/mol
# Density = 1.712726 g / cm^3
# Si number density = 17.166332 Si / 1000 Ang^3
#
#
#
# Elastic Constant Matrix: (Units=GPa)
#
#
# Indices 1 2 3 4 5 6 
#
# 1 21.5825 -1.1400 -5.1123 0.0000 0.0000 0.0000
# 2 -1.1400 87.8452 31.2608 0.0000 0.0000 0.0000
# 3 -5.1123 31.2608 89.9853 0.0000 0.0000 0.0000
# 4 0.0000 0.0000 0.0000 27.3827 0.0000 0.0000
# 5 0.0000 0.0000 0.0000 0.0000 14.1179 0.0000
# 6 0.0000 0.0000 0.0000 0.0000 0.0000 7.7808
#
#
#
# Elastic Compliance Matrix: (Units=1/GPa)
#
#
# Indices 1 2 3 4 5 6 
#
# 1 0.046978 -0.000388 0.002804 0.000000 0.000000 0.000000
# 2 -0.000388 0.012993 -0.004536 0.000000 0.000000 0.000000
# 3 0.002804 -0.004536 0.012848 0.000000 0.000000 0.000000
# 4 0.000000 0.000000 0.000000 0.036519 0.000000 0.000000
# 5 0.000000 0.000000 0.000000 0.000000 0.070832 0.000000
# 6 0.000000 0.000000 0.000000 0.000000 0.000000 0.128521
#
#
# Mechanical properties :
#
#
# Convention : Reuss Voigt Hill
#
# Bulk Modulus (GPa) = 14.58193 27.71444 21.14818
# Shear Modulus (GPa) = 14.89026 21.48325 18.18676
#
# Velocity S-wave (km/s) = 2.94838 3.54146 3.25844
# Velocity P-wave (km/s) = 4.48369 5.73605 5.14810
#
# Compressibility (1/GPa) = 0.06857804
#
# Stress axis : x y z
#
# Youngs Moduli (GPa) = 21.28677 76.96626 77.83368
#
# Poissons Ratio (x) = 0.02987 -0.21822
# Poissons Ratio (y) = 0.00826 0.35303
# Poissons Ratio (z) = -0.05968 0.34910
#
# Static dielectric constant tensor:
#      x y z
#    x 1.606220 0.000000 0.000000 
#    y 0.000000 1.587570 0.000000 
#    z 0.000000 0.000000 1.631220 
# 
# From -- ./inp_files/32264.got.cif
#   From: 2010.05.17/outbox.cif.g08.bks.cpg/sg51_17_cif.got.tgz:32264.got - 2010.06.03 11:52:47.
