data_PCOD9398287
_publ_section_title
;
Structure prediction by ZEFSAII (Michael W. Deem and Ramdas Pophale) SiO2 
 PCOD9398287
Probable space group: P B A N
;
_chemical_formula_sum "Si O2"
_cell_formula_units_Z 32
_cell_length_a 13.223566
_cell_length_b 18.802136
_cell_length_c 4.845660
_cell_angle_alpha 90.000000
_cell_angle_beta 90.000000
_cell_angle_gamma 90.000000
_cell_volume 1204.782679
_symmetry_space_group_name_H-M "P B A N"
_symmetry_group_IT_number 50
_space_group.IT_coordinate_system_code '2'
_symmetry_cell_setting 'orthorhombic'
loop_
_space_group_symop_operation_xyz
x,y,z
1/2-x,1/2-y,z
x,1/2-y,-z
1/2-x,y,-z
-x,-y,-z
1/2+x,1/2+y,-z
-x,1/2+y,z
1/2+x,-y,z
loop_
_atom_site_type_symbol
_atom_site_label
_atom_site_fract_x
_atom_site_fract_y
_atom_site_fract_z
Si Si1 0.250000 0.250000 0.500000
Si Si2 0.250000 0.426308 0.000000
Si Si3 0.614144 0.122237 0.855898
Si Si4 0.750000 0.250000 0.000000
Si Si5 0.405496 0.324874 0.108251
Si Si6 0.388473 0.974368 0.611797
O O1 0.321397 0.298446 0.316555
O O2 0.343508 0.375546 0.898376
O O3 0.316860 0.468340 0.230879
O O4 0.678959 0.193930 0.840485
O O5 0.500682 0.137427 0.761630
O O6 0.657387 0.061000 0.662678
O O7 0.603382 0.089217 0.161715
O O8 0.447640 0.250000 0.000000
O O9 0.500000 0.000000 0.500000
#
# Coordination Sequence:
#
# PCOD9398287 Si02
#       6
#     2   4   8   2   8   8
#     4  12  26  44  80 124 160 212 282 346 430 514
#     4  12  26  50  82 122 178 224 292 360 446 532
#     4  12  30  55  84 123 171 229 290 364 441 530
#     4  12  30  58  88 122 176 226 298 370 432 526
#     4  12  26  49  79 125 165 224 290 359 441 513
#     4  12  29  53  83 123 175 229 291 359 445 539
#
# _framework density 26.560808000000002
#
# number of rings (size 3 to 8) (size 9 to 14) (size 15 to 20)
#    0.000    0.000    6.250    1.500    3.500    8.000 
#    0.000    0.000    0.000    0.000    0.000    0.000 
#    0.000    0.000    0.000    0.000    0.000    0.000 
#
# Total GULP energy -178907.634509 kJ/mol
# GULP energy per Si atom -5590.863578 kJ/mol
# Density = 2.650035 g / cm^3
# Si number density = 26.560808 Si / 1000 Ang^3
#
#
#
# Elastic Constant Matrix: (Units=GPa)
#
#
# Indices 1 2 3 4 5 6 
#
# 1 206.3844 81.7576 39.3608 0.0000 0.0000 0.0000
# 2 81.7576 156.6059 37.9436 0.0000 0.0000 0.0000
# 3 39.3608 37.9436 114.5209 0.0000 0.0000 0.0000
# 4 0.0000 0.0000 0.0000 61.5385 0.0000 0.0000
# 5 0.0000 0.0000 0.0000 0.0000 -6.4573 0.0000
# 6 0.0000 0.0000 0.0000 0.0000 0.0000 30.2155
#
#
#
# Elastic Compliance Matrix: (Units=1/GPa)
#
#
# Indices 1 2 3 4 5 6 
#
# 1 0.006247 -0.002980 -0.001160 0.000000 0.000000 0.000000
# 2 -0.002980 0.008365 -0.001747 0.000000 0.000000 0.000000
# 3 -0.001160 -0.001747 0.009709 0.000000 0.000000 0.000000
# 4 0.000000 0.000000 0.000000 0.016250 0.000000 0.000000
# 5 0.000000 0.000000 0.000000 0.000000 -0.154863 0.000000
# 6 0.000000 0.000000 0.000000 0.000000 0.000000 0.033096
#
#
# Mechanical properties :
#
#
# Convention : Reuss Voigt Hill
#
# Bulk Modulus (GPa) = 79.70014 88.40390 84.05202
# Shear Modulus (GPa) = -76.64072 38.28928 -19.17572
#
# Velocity S-wave (km/s) = -5.37750 3.80092 -2.68984
# Velocity P-wave (km/s) = 2.91287 7.25386 4.69754
#
# Compressibility (1/GPa) = 0.01254703
#
# Stress axis : x y z
#
# Youngs Moduli (GPa) = 160.07258 119.54992 102.99247
#
# Poissons Ratio (x) = 0.35631 0.11944
# Poissons Ratio (y) = 0.47708 0.17993
# Poissons Ratio (z) = 0.18563 0.20886
#
# Static dielectric constant tensor:
#      x y z
#    x 2.118030 0.000000 0.000000 
#    y 0.000000 2.241190 0.000000 
#    z 0.000000 0.000000 2.135160 
# 
# From -- ./inp_files/2994.got.cif
#   From: 2010.05.17/outbox.cif.g08.bks.cpg/sg50_2_cif.got.tgz:2994.got - 2010.06.03 11:33:33.
