data_PCOD9398377
_publ_section_title
;
Structure prediction by ZEFSAII (Michael W. Deem and Ramdas Pophale) SiO2 
 PCOD9398377
Probable space group: P M M A
;
_chemical_formula_sum "Si O2"
_cell_formula_units_Z 56
_cell_length_a 27.928335
_cell_length_b 7.526733
_cell_length_c 15.097982
_cell_angle_alpha 90.000000
_cell_angle_beta 90.000000
_cell_angle_gamma 90.000000
_cell_volume 3173.733520
_symmetry_space_group_name_H-M "P M M A"
_symmetry_group_IT_number 51
_symmetry_cell_setting 'orthorhombic'
loop_
_space_group_symop_operation_xyz
x,y,z
1/2-x,-y,z
1/2+x,-y,-z
-x,y,-z
-x,-y,-z
1/2+x,y,-z
1/2-x,y,z
x,-y,z
loop_
_atom_site_type_symbol
_atom_site_label
_atom_site_fract_x
_atom_site_fract_y
_atom_site_fract_z
Si Si1 0.564169 0.211986 0.182643
Si Si2 0.040551 0.783232 0.130559
Si Si3 0.434796 0.712545 0.428114
Si Si4 0.695426 0.782435 0.879075
Si Si5 0.121865 0.788341 0.264413
Si Si6 0.884935 0.783929 0.016429
Si Si7 0.540304 0.286662 0.379167
O O1 0.512769 0.281463 0.148215
O O2 0.565735 0.242214 0.287385
O O3 0.562981 0.000000 0.171065
O O4 0.605823 0.276703 0.116766
O O5 0.076049 0.722316 0.208540
O O6 0.067689 0.735330 0.040266
O O7 0.038898 0.000000 0.131703
O O8 0.438369 0.500000 0.431178
O O9 0.389719 0.752857 0.366308
O O10 0.434765 0.775685 0.529818
O O11 0.484924 0.778495 0.384366
O O12 0.750000 0.722262 0.885355
O O13 0.668835 0.725660 0.788054
O O14 0.661203 0.724665 0.960376
O O15 0.696145 0.000000 0.880026
O O16 0.122201 0.000000 0.254427
O O17 0.882159 0.000000 0.015324
O O18 0.538366 0.500000 0.382461
#
# Coordination Sequence:
#
# PCOD9398377 Si02
#       7
#     8   8   8   8   8   8   8
#     4  10  16  23  38  59  80 106 139 172 196 222
#     4   8  13  21  33  54  81 105 129 160 194 226
#     4   9  17  29  41  54  77 111 142 165 198 242
#     4   8  14  25  41  63  88 108 128 161 205 249
#     4   9  15  24  41  63  82 103 135 169 201 237
#     4   8  14  22  35  56  81 108 135 160 194 240
#     4   9  18  29  39  53  79 113 141 164 197 241
#
# _framework density 17.644833999999999
#
# number of rings (size 3 to 8) (size 9 to 14) (size 15 to 20)
#    0.000    3.286    1.429    3.000    0.000    2.286 
#    0.000    1.429    0.000    5.571    0.000    1.000 
#    0.000    5.714    0.000    0.000    0.000    0.000 
#
# Total GULP energy -311817.461660 kJ/mol
# GULP energy per Si atom -5568.168958 kJ/mol
# Density = 1.760467 g / cm^3
# Si number density = 17.644834 Si / 1000 Ang^3
#
#
#
# Elastic Constant Matrix: (Units=GPa)
#
#
# Indices 1 2 3 4 5 6 
#
# 1 98.4288 7.3674 77.7261 0.0000 0.0000 0.0000
# 2 7.3674 40.6877 -0.5941 0.0000 0.0000 0.0000
# 3 77.7261 -0.5941 159.4390 0.0000 0.0000 0.0000
# 4 0.0000 0.0000 0.0000 26.2137 0.0000 0.0000
# 5 0.0000 0.0000 0.0000 0.0000 13.9954 0.0000
# 6 0.0000 0.0000 0.0000 0.0000 0.0000 3.4974
#
#
#
# Elastic Compliance Matrix: (Units=1/GPa)
#
#
# Indices 1 2 3 4 5 6 
#
# 1 0.016921 -0.003185 -0.008261 0.000000 0.000000 0.000000
# 2 -0.003185 0.025178 0.001646 0.000000 0.000000 0.000000
# 3 -0.008261 0.001646 0.010305 0.000000 0.000000 0.000000
# 4 0.000000 0.000000 0.000000 0.038148 0.000000 0.000000
# 5 0.000000 0.000000 0.000000 0.000000 0.071452 0.000000
# 6 0.000000 0.000000 0.000000 0.000000 0.000000 0.285930
#
#
# Mechanical properties :
#
#
# Convention : Reuss Voigt Hill
#
# Bulk Modulus (GPa) = 30.48200 51.95049 41.21624
# Shear Modulus (GPa) = 10.44999 23.01170 16.73085
#
# Velocity S-wave (km/s) = 2.43624 3.61523 3.08263
# Velocity P-wave (km/s) = 5.02260 6.85075 6.00663
#
# Compressibility (1/GPa) = 0.03280625
#
# Stress axis : x y z
#
# Youngs Moduli (GPa) = 59.09643 39.71700 97.03678
#
# Poissons Ratio (x) = 0.12648 0.80163
# Poissons Ratio (y) = 0.18820 -0.15975
# Poissons Ratio (z) = 0.48820 -0.06539
#
# Static dielectric constant tensor:
#      x y z
#    x 1.581200 0.000000 0.000000 
#    y 0.000000 1.671280 0.000000 
#    z 0.000000 0.000000 1.653350 
# 
# From -- ./inp_files/26532.got.cif
#   From: 2010.05.17/outbox.cif.g08.bks.cpg/sg51_14_cif.got.tgz:26532.got - 2010.06.03 11:52:47.
