data_PCOD9398405
_publ_section_title
;
Structure prediction by ZEFSAII (Michael W. Deem and Ramdas Pophale) SiO2 
 PCOD9398405
Probable space group: P M M A
;
_chemical_formula_sum "Si O2"
_cell_formula_units_Z 32
_cell_length_a 15.093262
_cell_length_b 12.640917
_cell_length_c 8.781496
_cell_angle_alpha 90.000000
_cell_angle_beta 90.000000
_cell_angle_gamma 90.000000
_cell_volume 1675.445088
_symmetry_space_group_name_H-M "P M M A"
_symmetry_group_IT_number 51
_symmetry_cell_setting 'orthorhombic'
loop_
_space_group_symop_operation_xyz
x,y,z
1/2-x,-y,z
1/2+x,-y,-z
-x,y,-z
-x,-y,-z
1/2+x,y,-z
1/2-x,y,z
x,-y,z
loop_
_atom_site_type_symbol
_atom_site_label
_atom_site_fract_x
_atom_site_fract_y
_atom_site_fract_z
Si Si1 0.645369 0.732776 0.193439
Si Si2 0.994365 0.121719 0.681892
Si Si3 0.145786 0.721966 0.172814
Si Si4 0.848241 0.500000 0.221945
Si Si5 0.089607 0.500000 0.101979
O O1 0.750000 0.742969 0.229363
O O2 0.583512 0.823236 0.258015
O O3 0.613270 0.616437 0.252710
O O4 0.637060 0.736136 0.010130
O O5 0.911877 0.190314 0.742622
O O6 0.000000 0.123801 0.500000
O O7 0.987217 0.000000 0.732719
O O8 0.250000 0.724700 0.211590
O O9 0.104732 0.605349 0.197860
O O10 0.750000 0.500000 0.289457
O O11 0.840729 0.500000 0.037310
O O12 0.000000 0.500000 0.000000
#
# Coordination Sequence:
#
# PCOD9398405 Si02
#       5
#     8   8   8   4   4
#     4   9  18  35  61  88 111 139 179 230 284 339
#     4  11  25  41  54  73 108 154 197 236 284 341
#     4  10  20  36  60  88 115 144 183 232 283 337
#     4   8  14  28  52  83 113 135 162 208 273 338
#     4  10  16  28  56  89 119 145 170 214 277 340
#
# _framework density 19.099402999999999
#
# number of rings (size 3 to 8) (size 9 to 14) (size 15 to 20)
#    0.000    2.250    0.000    6.375    0.000    4.000 
#    0.000    7.500    0.000    3.000    0.000    0.000 
#    0.000    0.000    0.000    0.000    0.000    0.000 
#
# Total GULP energy -178377.223721 kJ/mol
# GULP energy per Si atom -5574.288241 kJ/mol
# Density = 1.905593 g / cm^3
# Si number density = 19.099403 Si / 1000 Ang^3
#
#
#
# Elastic Constant Matrix: (Units=GPa)
#
#
# Indices 1 2 3 4 5 6 
#
# 1 144.6815 94.5096 35.5107 0.0000 0.0000 0.0000
# 2 94.5096 219.2391 45.7868 0.0000 0.0000 0.0000
# 3 35.5107 45.7868 21.8974 0.0000 0.0000 0.0000
# 4 0.0000 0.0000 0.0000 68.2123 0.0000 0.0000
# 5 0.0000 0.0000 0.0000 0.0000 8.8482 0.0000
# 6 0.0000 0.0000 0.0000 0.0000 0.0000 12.5400
#
#
#
# Elastic Compliance Matrix: (Units=1/GPa)
#
#
# Indices 1 2 3 4 5 6 
#
# 1 0.011937 -0.001958 -0.015264 0.000000 0.000000 0.000000
# 2 -0.001958 0.008418 -0.014427 0.000000 0.000000 0.000000
# 3 -0.015264 -0.014427 0.100588 0.000000 0.000000 0.000000
# 4 0.000000 0.000000 0.000000 0.014660 0.000000 0.000000
# 5 0.000000 0.000000 0.000000 0.000000 0.113018 0.000000
# 6 0.000000 0.000000 0.000000 0.000000 0.000000 0.079745
#
#
# Mechanical properties :
#
#
# Convention : Reuss Voigt Hill
#
# Bulk Modulus (GPa) = 17.34767 81.93693 49.64230
# Shear Modulus (GPa) = 12.16901 31.92082 22.04492
#
# Velocity S-wave (km/s) = 2.52690 4.09259 3.40107
# Velocity P-wave (km/s) = 4.19717 8.08244 6.43980
#
# Compressibility (1/GPa) = 0.05764464
#
# Stress axis : x y z
#
# Youngs Moduli (GPa) = 83.77151 118.78839 9.94157
#
# Poissons Ratio (x) = 0.23260 0.15175
# Poissons Ratio (y) = 0.16403 0.14343
# Poissons Ratio (z) = 1.27870 1.71377
#
# Static dielectric constant tensor:
#      x y z
#    x 1.709290 0.000000 0.000000 
#    y 0.000000 1.705520 0.000000 
#    z 0.000000 0.000000 1.642790 
# 
# From -- ./inp_files/7613.got.cif
#   From: 2010.05.17/outbox.cif.g08.bks.cpg/sg51_4_cif.got.tgz:7613.got - 2010.06.03 11:52:47.
