data_PCOD9398894
_publ_section_title
;
Structure prediction by ZEFSAII (Michael W. Deem and Ramdas Pophale) SiO2 
 PCOD9398894
Probable space group: P M M A
;
_chemical_formula_sum "Si O2"
_cell_formula_units_Z 64
_cell_length_a 15.099810
_cell_length_b 7.710680
_cell_length_c 28.961185
_cell_angle_alpha 90.000000
_cell_angle_beta 90.000000
_cell_angle_gamma 90.000000
_cell_volume 3371.945063
_symmetry_space_group_name_H-M "P M M A"
_symmetry_group_IT_number 51
_symmetry_cell_setting 'orthorhombic'
loop_
_space_group_symop_operation_xyz
x,y,z
1/2-x,-y,z
1/2+x,-y,-z
-x,y,-z
-x,-y,-z
1/2+x,y,-z
1/2-x,y,z
x,-y,z
loop_
_atom_site_type_symbol
_atom_site_label
_atom_site_fract_x
_atom_site_fract_y
_atom_site_fract_z
Si Si1 0.351450 0.706068 0.462718
Si Si2 0.603018 0.303765 0.984924
Si Si3 0.850495 0.209945 0.431321
Si Si4 0.844833 0.201192 0.082419
Si Si5 0.648892 0.788330 0.802514
Si Si6 0.536656 0.792271 0.888277
Si Si7 0.479843 0.798634 0.381629
Si Si8 0.648997 0.787751 0.697091
O O1 0.250000 0.766918 0.455523
O O2 0.354094 0.500000 0.455097
O O3 0.373969 0.740994 0.516082
O O4 0.418082 0.790651 0.426900
O O5 0.635768 0.500000 0.985852
O O6 0.599785 0.240192 0.932481
O O7 0.500000 0.300835 0.000000
O O8 0.649417 0.205200 0.026607
O O9 0.750000 0.270214 0.422353
O O10 0.925443 0.276812 0.396518
O O11 0.850394 0.000000 0.429428
O O12 0.750000 0.280081 0.096205
O O13 0.937469 0.277640 0.101265
O O14 0.843667 0.000000 0.096606
O O15 0.750000 0.736202 0.813042
O O16 0.581575 0.726239 0.841590
O O17 0.629091 0.736424 0.749837
O O18 0.647405 0.000000 0.803156
O O19 0.528605 0.000000 0.884795
O O20 0.422601 0.723018 0.339658
O O21 0.495623 0.000000 0.369756
O O22 0.750000 0.733909 0.685712
O O23 0.649345 0.000000 0.695664
#
# Coordination Sequence:
#
# PCOD9398894 Si02
#       8
#     8   8   8   8   8   8   8   8
#     4  10  20  31  43  63  91 118 143 175 215 256
#     4   9  17  28  41  59  84 111 139 173 211 248
#     4   9  18  31  44  60  86 118 149 179 210 248
#     4   9  17  28  41  58  83 115 146 172 200 240
#     4   8  14  25  42  64  86 106 132 170 214 255
#     4   9  16  27  44  63  83 109 141 174 207 247
#     4  10  18  28  46  67  85 112 148 180 212 252
#     4   8  14  25  42  65  88 106 131 171 214 255
#
# _framework density 18.980142000000001
#
# number of rings (size 3 to 8) (size 9 to 14) (size 15 to 20)
#    0.000    3.000    0.000    2.250    0.000    5.500 
#    0.000    1.250    0.000    1.500    0.000    7.000 
#    0.000    0.000    0.000    6.375    0.000    8.125 
#
# Total GULP energy -356656.394504 kJ/mol
# GULP energy per Si atom -5572.756164 kJ/mol
# Density = 1.893694 g / cm^3
# Si number density = 18.980142 Si / 1000 Ang^3
#
#
#
# Elastic Constant Matrix: (Units=GPa)
#
#
# Indices 1 2 3 4 5 6 
#
# 1 112.0518 1.4892 85.9933 0.0000 0.0000 0.0000
# 2 1.4892 32.3660 -3.1563 0.0000 0.0000 0.0000
# 3 85.9933 -3.1563 116.8083 0.0000 0.0000 0.0000
# 4 0.0000 0.0000 0.0000 -24.5283 0.0000 0.0000
# 5 0.0000 0.0000 0.0000 0.0000 11.5127 0.0000
# 6 0.0000 0.0000 0.0000 0.0000 0.0000 -0.3751
#
#
#
# Elastic Compliance Matrix: (Units=1/GPa)
#
#
# Indices 1 2 3 4 5 6 
#
# 1 0.020707 -0.002446 -0.015310 0.000000 0.000000 0.000000
# 2 -0.002446 0.031267 0.002645 0.000000 0.000000 0.000000
# 3 -0.015310 0.002645 0.019904 0.000000 0.000000 0.000000
# 4 0.000000 0.000000 0.000000 -0.040769 0.000000 0.000000
# 5 0.000000 0.000000 0.000000 0.000000 0.086861 0.000000
# 6 0.000000 0.000000 0.000000 0.000000 0.000000 -2.665886
#
#
# Mechanical properties :
#
#
# Convention : Reuss Voigt Hill
#
# Bulk Modulus (GPa) = 24.00586 47.76430 35.88508
# Shear Modulus (GPa) = -1.99696 9.11518 3.55911
#
# Velocity S-wave (km/s) = -1.02685 2.19383 1.37086
# Velocity P-wave (km/s) = 3.35700 5.62470 4.63178
#
# Compressibility (1/GPa) = 0.04165650
#
# Stress axis : x y z
#
# Youngs Moduli (GPa) = 48.29385 31.98247 50.24196
#
# Poissons Ratio (x) = 0.07822 0.76921
# Poissons Ratio (y) = 0.11812 -0.13291
# Poissons Ratio (z) = 0.73938 -0.08461
#
# Static dielectric constant tensor:
#      x y z
#    x 1.701420 0.000000 0.000000 
#    y 0.000000 1.688870 0.000000 
#    z 0.000000 0.000000 1.639450 
# 
# From -- ./inp_files/37794.got.cif
#   From: 2010.05.17/outbox.cif.g08.bks.cpg/sg51_19_cif.got.tgz:37794.got - 2010.06.03 11:52:47.
