data_PCOD9398259
_publ_section_title
;
Structure prediction by ZEFSAII (Michael W. Deem and Ramdas Pophale) SiO2 
 PCOD9398259
Probable space group: P B A N
;
_chemical_formula_sum "Si O2"
_cell_formula_units_Z 34
_cell_length_a 22.685152
_cell_length_b 11.522986
_cell_length_c 5.662428
_cell_angle_alpha 90.000000
_cell_angle_beta 90.000000
_cell_angle_gamma 90.000000
_cell_volume 1480.162580
_symmetry_space_group_name_H-M "P B A N"
_symmetry_group_IT_number 50
_space_group.IT_coordinate_system_code '2'
_symmetry_cell_setting 'orthorhombic'
loop_
_space_group_symop_operation_xyz
x,y,z
1/2-x,1/2-y,z
x,1/2-y,-z
1/2-x,y,-z
-x,-y,-z
1/2+x,1/2+y,-z
-x,1/2+y,z
1/2+x,-y,z
loop_
_atom_site_type_symbol
_atom_site_label
_atom_site_fract_x
_atom_site_fract_y
_atom_site_fract_z
Si Si1 0.922911 0.250000 0.000000
Si Si2 0.250000 0.944763 0.000000
Si Si3 0.341022 0.067244 0.710392
Si Si4 0.967212 0.474646 0.246258
Si Si5 0.250000 0.250000 0.500000
Si Si6 0.167768 0.861407 0.658956
O O1 0.952522 0.336389 0.197261
O O2 0.882039 0.160726 0.144845
O O3 0.269018 0.870468 0.219887
O O4 0.192736 0.017311 0.062901
O O5 0.297046 0.171956 0.644081
O O6 0.410751 0.062937 0.756934
O O7 0.338624 0.976653 0.493713
O O8 0.000000 0.500000 0.500000
O O9 0.000000 0.500000 0.000000
O O10 0.163168 0.750000 0.500000
#
# Coordination Sequence:
#
# PCOD9398259 Si02
#       6
#     4   4   8   8   2   8
#     4  12  26  47  82 116 158 203 272 366 408 494
#     4  12  24  44  74 120 148 201 257 342 424 496
#     4  12  27  48  76 115 158 211 273 335 424 513
#     4  12  29  52  82 115 161 220 288 344 423 515
#     4  12  28  54  74 108 174 220 268 354 436 530
#     4  12  23  44  76 116 161 192 262 342 428 487
#
# _framework density 22.970451000000001
#
# number of rings (size 3 to 8) (size 9 to 14) (size 15 to 20)
#    0.000    0.000    7.059    1.412    0.000    9.412 
#    0.000    0.000    0.000    0.000    0.000    0.000 
#    0.000    0.000    0.000    0.000    0.000    0.000 
#
# Total GULP energy -189556.916619 kJ/mol
# GULP energy per Si atom -5575.203430 kJ/mol
# Density = 2.291817 g / cm^3
# Si number density = 22.970451 Si / 1000 Ang^3
#
#
#
# Elastic Constant Matrix: (Units=GPa)
#
#
# Indices 1 2 3 4 5 6 
#
# 1 161.0580 43.2239 66.0696 0.0000 0.0000 0.0000
# 2 43.2239 107.7002 36.2111 0.0000 0.0000 0.0000
# 3 66.0696 36.2111 132.1874 0.0000 0.0000 0.0000
# 4 0.0000 0.0000 0.0000 31.6631 0.0000 0.0000
# 5 0.0000 0.0000 0.0000 0.0000 50.3739 0.0000
# 6 0.0000 0.0000 0.0000 0.0000 0.0000 41.7117
#
#
#
# Elastic Compliance Matrix: (Units=1/GPa)
#
#
# Indices 1 2 3 4 5 6 
#
# 1 0.008225 -0.002113 -0.003532 0.000000 0.000000 0.000000
# 2 -0.002113 0.010770 -0.001894 0.000000 0.000000 0.000000
# 3 -0.003532 -0.001894 0.009849 0.000000 0.000000 0.000000
# 4 0.000000 0.000000 0.000000 0.031582 0.000000 0.000000
# 5 0.000000 0.000000 0.000000 0.000000 0.019852 0.000000
# 6 0.000000 0.000000 0.000000 0.000000 0.000000 0.023974
#
#
# Mechanical properties :
#
#
# Convention : Reuss Voigt Hill
#
# Bulk Modulus (GPa) = 72.64627 76.88386 74.76507
# Shear Modulus (GPa) = 40.34863 41.77914 41.06388
#
# Velocity S-wave (km/s) = 4.19566 4.26939 4.23269
# Velocity P-wave (km/s) = 7.42739 7.60572 7.51708
#
# Compressibility (1/GPa) = 0.01376533
#
# Stress axis : x y z
#
# Youngs Moduli (GPa) = 121.57928 92.85020 101.53060
#
# Poissons Ratio (x) = 0.19623 0.35862
# Poissons Ratio (y) = 0.25695 0.19230
# Poissons Ratio (z) = 0.42943 0.17586
#
# Static dielectric constant tensor:
#      x y z
#    x 1.968210 0.000000 0.000000 
#    y 0.000000 1.799690 0.000000 
#    z 0.000000 0.000000 1.955710 
# 
# From -- ./inp_files/5772.got.cif
#   From: 2010.05.17/outbox.cif.g08.bks.cpg/sg50_3_cif.got.tgz:5772.got - 2010.06.03 11:33:33.
