data_PCOD9398747
_publ_section_title
;
Structure prediction by ZEFSAII (Michael W. Deem and Ramdas Pophale) SiO2 
 PCOD9398747
Probable space group: P M M A
;
_chemical_formula_sum "Si O2"
_cell_formula_units_Z 64
_cell_length_a 8.778208
_cell_length_b 14.951503
_cell_length_c 29.705086
_cell_angle_alpha 90.000000
_cell_angle_beta 90.000000
_cell_angle_gamma 90.000000
_cell_volume 3898.715401
_symmetry_space_group_name_H-M "P M M A"
_symmetry_group_IT_number 51
_symmetry_cell_setting 'orthorhombic'
loop_
_space_group_symop_operation_xyz
x,y,z
1/2-x,-y,z
1/2+x,-y,-z
-x,y,-z
-x,-y,-z
1/2+x,y,-z
1/2-x,y,z
x,-y,z
loop_
_atom_site_type_symbol
_atom_site_label
_atom_site_fract_x
_atom_site_fract_y
_atom_site_fract_z
Si Si1 0.425564 0.891299 0.546257
Si Si2 0.065359 0.895976 0.645467
Si Si3 0.064352 0.601780 0.231630
Si Si4 0.934055 0.783480 0.727094
Si Si5 0.568064 0.274398 0.953004
Si Si6 0.064902 0.397153 0.129209
Si Si7 0.428554 0.894218 0.184064
Si Si8 0.569064 0.896783 0.087346
O O1 0.500000 0.859471 0.500000
O O2 0.250000 0.864165 0.545241
O O3 0.489629 0.867175 0.595453
O O4 0.430407 0.000000 0.545775
O O5 0.250000 0.894645 0.644790
O O6 0.004662 0.832531 0.684395
O O7 0.019982 0.000000 0.653220
O O8 0.250000 0.601176 0.231510
O O9 0.015292 0.500000 0.241757
O O10 0.017164 0.680820 0.264941
O O11 0.016931 0.624926 0.180275
O O12 0.750000 0.786427 0.723369
O O13 0.974762 0.837611 0.772578
O O14 0.750000 0.279138 0.954791
O O15 0.512228 0.332143 0.910213
O O16 0.515746 0.173232 0.944044
O O17 0.500000 0.307040 0.000000
O O18 0.250000 0.393335 0.129399
O O19 0.021863 0.500000 0.120264
O O20 0.250000 0.874292 0.174424
O O21 0.522670 0.876282 0.138997
O O22 0.440967 0.000000 0.194313
O O23 0.750000 0.888505 0.081828
O O24 0.524834 0.000000 0.078912
#
# Coordination Sequence:
#
# PCOD9398747 Si02
#       8
#     8   8   8   8   8   8   8   8
#     4   8  14  25  40  57  79 112 154 194 229 266
#     4   9  18  30  41  58  90 128 159 188 228 273
#     4   8  14  26  45  68  91 114 144 183 222 259
#     4  10  18  27  43  67  92 120 155 189 220 259
#     4  11  22  35  52  73  96 119 143 175 216 261
#     4   8  15  30  52  74  93 115 143 174 213 263
#     4   9  17  29  45  66  91 117 147 184 222 259
#     4  10  21  36  52  69  89 116 152 188 219 256
#
# _framework density 16.415664
#
# number of rings (size 3 to 8) (size 9 to 14) (size 15 to 20)
#    0.000    2.875    0.000    3.375    0.000    5.000 
#    0.000    2.500    0.000    1.500    0.000    3.500 
#    0.000    0.500    0.000    1.125    0.000    1.750 
#
# Total GULP energy -356658.834674 kJ/mol
# GULP energy per Si atom -5572.794292 kJ/mol
# Density = 1.637830 g / cm^3
# Si number density = 16.415664 Si / 1000 Ang^3
#
#
#
# Elastic Constant Matrix: (Units=GPa)
#
#
# Indices 1 2 3 4 5 6 
#
# 1 13.0771 18.6595 19.0172 0.0000 0.0000 0.0000
# 2 18.6595 74.3716 65.7742 0.0000 0.0000 0.0000
# 3 19.0172 65.7742 96.6043 0.0000 0.0000 0.0000
# 4 0.0000 0.0000 0.0000 15.9533 0.0000 0.0000
# 5 0.0000 0.0000 0.0000 0.0000 28.5920 0.0000
# 6 0.0000 0.0000 0.0000 0.0000 0.0000 7.6311
#
#
#
# Elastic Compliance Matrix: (Units=1/GPa)
#
#
# Indices 1 2 3 4 5 6 
#
# 1 0.121493 -0.023452 -0.007949 0.000000 0.000000 0.000000
# 2 -0.023452 0.038324 -0.021477 0.000000 0.000000 0.000000
# 3 -0.007949 -0.021477 0.026539 0.000000 0.000000 0.000000
# 4 0.000000 0.000000 0.000000 0.062683 0.000000 0.000000
# 5 0.000000 0.000000 0.000000 0.000000 0.034975 0.000000
# 6 0.000000 0.000000 0.000000 0.000000 0.000000 0.131042
#
#
# Mechanical properties :
#
#
# Convention : Reuss Voigt Hill
#
# Bulk Modulus (GPa) = 12.40691 43.43945 27.92318
# Shear Modulus (GPa) = 9.12947 15.80876 12.46911
#
# Velocity S-wave (km/s) = 2.36083 3.10664 2.75905
# Velocity P-wave (km/s) = 3.87372 6.27598 5.21506
#
# Compressibility (1/GPa) = 0.08060024
#
# Stress axis : x y z
#
# Youngs Moduli (GPa) = 8.23096 26.09345 37.68042
#
# Poissons Ratio (x) = 0.61193 0.29953
# Poissons Ratio (y) = 0.19303 0.80925
# Poissons Ratio (z) = 0.06543 0.56040
#
# Static dielectric constant tensor:
#      x y z
#    x 1.562110 0.000000 0.000000 
#    y 0.000000 1.556360 0.000000 
#    z 0.000000 0.000000 1.554530 
# 
# From -- ./inp_files/37602.got.cif
#   From: 2010.05.17/outbox.cif.g08.bks.cpg/sg51_19_cif.got.tgz:37602.got - 2010.06.03 11:52:47.
