data_PCOD9398433
_publ_section_title
;
Structure prediction by ZEFSAII (Michael W. Deem and Ramdas Pophale) SiO2 
 PCOD9398433
Probable space group: P M M A
;
_chemical_formula_sum "Si O2"
_cell_formula_units_Z 48
_cell_length_a 33.859617
_cell_length_b 8.553221
_cell_length_c 7.410452
_cell_angle_alpha 90.000000
_cell_angle_beta 90.000000
_cell_angle_gamma 90.000000
_cell_volume 2146.132016
_symmetry_space_group_name_H-M "P M M A"
_symmetry_group_IT_number 51
_symmetry_cell_setting 'orthorhombic'
loop_
_space_group_symop_operation_xyz
x,y,z
1/2-x,-y,z
1/2+x,-y,-z
-x,y,-z
-x,-y,-z
1/2+x,y,-z
1/2-x,y,z
x,-y,z
loop_
_atom_site_type_symbol
_atom_site_label
_atom_site_fract_x
_atom_site_fract_y
_atom_site_fract_z
Si Si1 0.957610 0.320932 0.466346
Si Si2 0.956916 0.321558 0.034173
Si Si3 0.207130 0.187301 0.554646
Si Si4 0.126073 0.311620 0.556840
Si Si5 0.625454 0.814964 0.031285
Si Si6 0.707003 0.312607 0.032695
O O1 0.960332 0.500000 0.536637
O O2 0.953810 0.328101 0.250469
O O3 0.915351 0.256015 0.529858
O O4 0.000000 0.242891 0.500000
O O5 0.957978 0.500000 0.965305
O O6 0.917124 0.243010 0.962152
O O7 0.000000 0.248152 0.000000
O O8 0.250000 0.233950 0.477847
O O9 0.167473 0.259624 0.472702
O O10 0.207892 0.244271 0.763320
O O11 0.204133 0.000000 0.551129
O O12 0.124802 0.500000 0.567485
O O13 0.126399 0.242471 0.759700
O O14 0.666060 0.747856 0.949336
O O15 0.627035 0.000000 0.025091
O O16 0.750000 0.269133 0.952252
O O17 0.704868 0.500000 0.043279
#
# Coordination Sequence:
#
# PCOD9398433 Si02
#       6
#     8   8   8   8   8   8
#     4   8  14  25  41  60  80 102 130 163 198 234
#     4   9  17  29  44  60  79 105 136 167 199 237
#     4   9  15  21  30  46  70  99 128 158 193 233
#     4   9  15  23  36  52  72 100 131 161 193 232
#     4  10  17  24  36  53  76 104 131 162 199 238
#     4   9  15  22  33  49  71 100 132 163 194 233
#
# _framework density 22.365818999999998
#
# number of rings (size 3 to 8) (size 9 to 14) (size 15 to 20)
#    0.000    3.000    0.000    6.000    0.000    2.333 
#    0.000    0.000    0.000   12.500    0.000    0.000 
#    0.000    1.333    0.000   11.000    0.000   18.333 
#
# Total GULP energy -267393.753708 kJ/mol
# GULP energy per Si atom -5570.703202 kJ/mol
# Density = 2.231491 g / cm^3
# Si number density = 22.365819 Si / 1000 Ang^3
#
#
#
# Elastic Constant Matrix: (Units=GPa)
#
#
# Indices 1 2 3 4 5 6 
#
# 1 324.4279 63.9457 11.4308 0.0000 0.0000 0.0000
# 2 63.9457 69.1558 -1.1915 0.0000 0.0000 0.0000
# 3 11.4308 -1.1915 66.2018 0.0000 0.0000 0.0000
# 4 0.0000 0.0000 0.0000 -7.2773 0.0000 0.0000
# 5 0.0000 0.0000 0.0000 0.0000 7.2568 0.0000
# 6 0.0000 0.0000 0.0000 0.0000 0.0000 30.9275
#
#
#
# Elastic Compliance Matrix: (Units=1/GPa)
#
#
# Indices 1 2 3 4 5 6 
#
# 1 0.003803 -0.003529 -0.000720 0.000000 0.000000 0.000000
# 2 -0.003529 0.017739 0.000929 0.000000 0.000000 0.000000
# 3 -0.000720 0.000929 0.015246 0.000000 0.000000 0.000000
# 4 0.000000 0.000000 0.000000 -0.137413 0.000000 0.000000
# 5 0.000000 0.000000 0.000000 0.000000 0.137801 0.000000
# 6 0.000000 0.000000 0.000000 0.000000 0.000000 0.032334
#
#
# Mechanical properties :
#
#
# Convention : Reuss Voigt Hill
#
# Bulk Modulus (GPa) = 33.17013 67.57283 50.37148
# Shear Modulus (GPa) = 58.00345 31.88812 44.94578
#
# Velocity S-wave (km/s) = 5.09807 3.78001 4.48769
# Velocity P-wave (km/s) = 7.03680 7.02349 7.03015
#
# Compressibility (1/GPa) = 0.03014761
#
# Stress axis : x y z
#
# Youngs Moduli (GPa) = 262.92655 56.37161 65.58926
#
# Poissons Ratio (x) = 0.19895 0.04724
# Poissons Ratio (y) = 0.92792 -0.06091
# Poissons Ratio (z) = 0.18937 -0.05235
#
# Static dielectric constant tensor:
#      x y z
#    x 1.962490 0.000000 0.000000 
#    y 0.000000 1.753550 0.000000 
#    z 0.000000 0.000000 2.081570 
# 
# From -- ./inp_files/19284.got.cif
#   From: 2010.05.17/outbox.cif.g08.bks.cpg/sg51_10_cif.got.tgz:19284.got - 2010.06.03 11:52:47.
