data_PCOD9398411
_publ_section_title
;
Structure prediction by ZEFSAII (Michael W. Deem and Ramdas Pophale) SiO2 
 PCOD9398411
Probable space group: P M M A
;
_chemical_formula_sum "Si O2"
_cell_formula_units_Z 24
_cell_length_a 15.546154
_cell_length_b 8.244185
_cell_length_c 10.361744
_cell_angle_alpha 90.000000
_cell_angle_beta 90.000000
_cell_angle_gamma 90.000000
_cell_volume 1328.016750
_symmetry_space_group_name_H-M "P M M A"
_symmetry_group_IT_number 51
_symmetry_cell_setting 'orthorhombic'
loop_
_space_group_symop_operation_xyz
x,y,z
1/2-x,-y,z
1/2+x,-y,-z
-x,y,-z
-x,-y,-z
1/2+x,y,-z
1/2-x,y,z
x,-y,z
loop_
_atom_site_type_symbol
_atom_site_label
_atom_site_fract_x
_atom_site_fract_y
_atom_site_fract_z
Si Si1 0.043742 0.182556 0.139730
Si Si2 0.150651 0.500000 0.204390
Si Si3 0.894604 0.500000 0.495903
Si Si4 0.425294 0.176208 0.609856
O O1 0.106307 0.335155 0.154792
O O2 0.973184 0.197665 0.253708
O O3 0.082253 0.000000 0.155128
O O4 0.000000 0.189155 0.000000
O O5 0.250000 0.500000 0.169945
O O6 0.138775 0.500000 0.359177
O O7 0.870489 0.665807 0.424137
O O8 0.000000 0.500000 0.500000
O O9 0.500000 0.169189 0.500000
O O10 0.381452 0.000000 0.608302
#
# Coordination Sequence:
#
# PCOD9398411 Si02
#       4
#     8   4   4   8
#     4  10  20  35  56  83 106 139 189 231 266 318
#     4  12  23  34  52  84 117 144 175 222 288 336
#     4  10  16  30  51  74 104 140 174 219 251 308
#     4   9  15  27  52  78 101 128 174 223 255 296
#
# _framework density 18.072061999999999
#
# number of rings (size 3 to 8) (size 9 to 14) (size 15 to 20)
#    0.000    2.000    6.667    0.500    0.000    0.667 
#    0.000    0.000    0.000    4.000    0.000    4.667 
#    0.000    0.000    0.000    0.000    0.000    0.000 
#
# Total GULP energy -133687.804180 kJ/mol
# GULP energy per Si atom -5570.325174 kJ/mol
# Density = 1.803093 g / cm^3
# Si number density = 18.072062 Si / 1000 Ang^3
#
#
#
# Elastic Constant Matrix: (Units=GPa)
#
#
# Indices 1 2 3 4 5 6 
#
# 1 28.0454 54.0590 13.6690 0.0000 0.0000 0.0000
# 2 54.0590 250.6065 46.1333 0.0000 0.0000 0.0000
# 3 13.6690 46.1333 124.1318 0.0000 0.0000 0.0000
# 4 0.0000 0.0000 0.0000 30.1753 0.0000 0.0000
# 5 0.0000 0.0000 0.0000 0.0000 6.3890 0.0000
# 6 0.0000 0.0000 0.0000 0.0000 0.0000 -0.0417
#
#
#
# Elastic Compliance Matrix: (Units=1/GPa)
#
#
# Indices 1 2 3 4 5 6 
#
# 1 0.061483 -0.012899 -0.001977 0.000000 0.000000 0.000000
# 2 -0.012899 0.006989 -0.001177 0.000000 0.000000 0.000000
# 3 -0.001977 -0.001177 0.008711 0.000000 0.000000 0.000000
# 4 0.000000 0.000000 0.000000 0.033140 0.000000 0.000000
# 5 0.000000 0.000000 0.000000 0.000000 0.156518 0.000000
# 6 0.000000 0.000000 0.000000 0.000000 0.000000-23.966914
#
#
# Mechanical properties :
#
#
# Convention : Reuss Voigt Hill
#
# Bulk Modulus (GPa) = 22.18352 70.05625 46.11989
# Shear Modulus (GPa) = -0.21139 26.56600 13.17731
#
# Velocity S-wave (km/s) = -0.34238 3.83822 2.70321
# Velocity P-wave (km/s) = 3.48502 7.64799 5.94294
#
# Compressibility (1/GPa) = 0.04507850
#
# Stress axis : x y z
#
# Youngs Moduli (GPa) = 16.26464 143.07218 114.79578
#
# Poissons Ratio (x) = 1.84547 0.22689
# Poissons Ratio (y) = 0.20979 0.13514
# Poissons Ratio (z) = 0.03215 0.16843
#
# Static dielectric constant tensor:
#      x y z
#    x 1.570310 0.000000 0.000000 
#    y 0.000000 1.721450 0.000000 
#    z 0.000000 0.000000 1.594070 
# 
# From -- ./inp_files/8897.got.cif
#   From: 2010.05.17/outbox.cif.g08.bks.cpg/sg51_5_cif.got.tgz:8897.got - 2010.06.03 11:52:47.
