data_PCOD9398975
_publ_section_title
;
Structure prediction by ZEFSAII (Michael W. Deem and Ramdas Pophale) SiO2 
 PCOD9398975
Probable space group: P M M A
;
_chemical_formula_sum "Si O2"
_cell_formula_units_Z 64
_cell_length_a 19.342693
_cell_length_b 9.328551
_cell_length_c 20.602701
_cell_angle_alpha 90.000000
_cell_angle_beta 90.000000
_cell_angle_gamma 90.000000
_cell_volume 3717.536908
_symmetry_space_group_name_H-M "P M M A"
_symmetry_group_IT_number 51
_symmetry_cell_setting 'orthorhombic'
loop_
_space_group_symop_operation_xyz
x,y,z
1/2-x,-y,z
1/2+x,-y,-z
-x,y,-z
-x,-y,-z
1/2+x,y,-z
1/2-x,y,z
x,-y,z
loop_
_atom_site_type_symbol
_atom_site_label
_atom_site_fract_x
_atom_site_fract_y
_atom_site_fract_z
Si Si1 0.935275 0.825802 0.640595
Si Si2 0.171063 0.666196 0.698993
Si Si3 0.933711 0.666313 0.912492
Si Si4 0.583943 0.172995 0.409034
Si Si5 0.597859 0.332525 0.053557
Si Si6 0.625246 0.167662 0.178919
Si Si7 0.961850 0.831499 0.786965
Si Si8 0.829197 0.174699 0.535855
O O1 0.867316 0.778973 0.601882
O O2 0.003366 0.788729 0.598559
O O3 0.943884 0.776168 0.714878
O O4 0.934233 0.000000 0.643382
O O5 0.250000 0.672594 0.675576
O O6 0.149822 0.500000 0.702921
O O7 0.123343 0.754452 0.650445
O O8 0.166255 0.739460 0.769062
O O9 0.916400 0.500000 0.902253
O O10 0.015750 0.672079 0.929533
O O11 0.924498 0.753181 0.846542
O O12 0.895867 0.714917 0.978590
O O13 0.622460 0.215984 0.475136
O O14 0.588759 0.000000 0.403591
O O15 0.618611 0.500000 0.058982
O O16 0.632793 0.233489 0.107279
O O17 0.544386 0.181320 0.200538
O O18 0.643207 0.000000 0.181043
O O19 0.945540 0.000000 0.789450
O O20 0.750000 0.223753 0.529633
O O21 0.827848 0.000000 0.535982
#
# Coordination Sequence:
#
# PCOD9398975 Si02
#       8
#     8   8   8   8   8   8   8   8
#     4   9  16  28  45  69 101 130 157 198 250 295
#     4  11  23  35  47  66  94 129 164 200 247 299
#     4   8  14  24  39  61  90 123 156 191 233 281
#     4  10  18  32  52  73  95 123 161 203 245 291
#     4   8  14  25  40  60  89 124 156 190 236 284
#     4  10  18  29  45  66  91 122 161 201 242 286
#     4   9  16  26  41  64  93 123 154 194 243 287
#     4   9  17  28  47  75 100 125 160 200 242 291
#
# _framework density 17.215699000000001
#
# number of rings (size 3 to 8) (size 9 to 14) (size 15 to 20)
#    0.000    2.750    1.250    2.250    0.000    4.000 
#    0.000    2.500    0.000    2.250    0.000    0.875 
#    0.000    3.000    0.000    0.000    0.000    0.000 
#
# Total GULP energy -356488.628926 kJ/mol
# GULP energy per Si atom -5570.134827 kJ/mol
# Density = 1.717652 g / cm^3
# Si number density = 17.215699 Si / 1000 Ang^3
#
#
#
# Elastic Constant Matrix: (Units=GPa)
#
#
# Indices 1 2 3 4 5 6 
#
# 1 41.4097 12.2837 42.5610 0.0000 0.0000 0.0000
# 2 12.2837 22.4974 27.4589 0.0000 0.0000 0.0000
# 3 42.5610 27.4589 131.5241 0.0000 0.0000 0.0000
# 4 0.0000 0.0000 0.0000 -0.5044 0.0000 0.0000
# 5 0.0000 0.0000 0.0000 0.0000 8.7747 0.0000
# 6 0.0000 0.0000 0.0000 0.0000 0.0000 6.2001
#
#
#
# Elastic Compliance Matrix: (Units=1/GPa)
#
#
# Indices 1 2 3 4 5 6 
#
# 1 0.037108 -0.007521 -0.010438 0.000000 0.000000 0.000000
# 2 -0.007521 0.061174 -0.010338 0.000000 0.000000 0.000000
# 3 -0.010438 -0.010338 0.013139 0.000000 0.000000 0.000000
# 4 0.000000 0.000000 0.000000 -1.982729 0.000000 0.000000
# 5 0.000000 0.000000 0.000000 0.000000 0.113964 0.000000
# 6 0.000000 0.000000 0.000000 0.000000 0.000000 0.161289
#
#
# Mechanical properties :
#
#
# Convention : Reuss Voigt Hill
#
# Bulk Modulus (GPa) = 18.23914 40.00427 29.12171
# Shear Modulus (GPa) = -3.28691 10.43592 3.57450
#
# Velocity S-wave (km/s) = -1.38326 2.46476 1.44250
# Velocity P-wave (km/s) = 2.84012 5.60246 4.44150
#
# Compressibility (1/GPa) = 0.05482715
#
# Stress axis : x y z
#
# Youngs Moduli (GPa) = 26.94826 16.34693 76.10878
#
# Poissons Ratio (x) = 0.12295 0.79441
# Poissons Ratio (y) = 0.20269 0.78678
# Poissons Ratio (z) = 0.28128 0.16899
#
# Static dielectric constant tensor:
#      x y z
#    x 1.583620 0.000000 0.000000 
#    y 0.000000 1.567490 0.000000 
#    z 0.000000 0.000000 1.602300 
# 
# From -- ./inp_files/30688.got.cif
#   From: 2010.05.17/outbox.cif.g08.bks.cpg/sg51_16_cif.got.tgz:30688.got - 2010.06.03 11:52:47.
