data_PCOD9398622
_publ_section_title
;
Structure prediction by ZEFSAII (Michael W. Deem and Ramdas Pophale) SiO2 
 PCOD9398622
Probable space group: P M M A
;
_chemical_formula_sum "Si O2"
_cell_formula_units_Z 64
_cell_length_a 14.516609
_cell_length_b 24.217856
_cell_length_c 9.687210
_cell_angle_alpha 90.000000
_cell_angle_beta 90.000000
_cell_angle_gamma 90.000000
_cell_volume 3405.646653
_symmetry_space_group_name_H-M "P M M A"
_symmetry_group_IT_number 51
_symmetry_cell_setting 'orthorhombic'
loop_
_space_group_symop_operation_xyz
x,y,z
1/2-x,-y,z
1/2+x,-y,-z
-x,y,-z
-x,-y,-z
1/2+x,y,-z
1/2-x,y,z
x,-y,z
loop_
_atom_site_type_symbol
_atom_site_label
_atom_site_fract_x
_atom_site_fract_y
_atom_site_fract_z
Si Si1 0.646986 0.829730 0.648705
Si Si2 0.639676 0.635666 0.354399
Si Si3 0.983958 0.564691 0.160382
Si Si4 0.022992 0.169724 0.852057
Si Si5 0.139219 0.764077 0.626774
Si Si6 0.643845 0.936460 0.165258
Si Si7 0.110714 0.060926 0.508236
Si Si8 0.857860 0.436193 0.620666
O O1 0.750000 0.813431 0.694211
O O2 0.572254 0.833720 0.768275
O O3 0.616088 0.789539 0.523430
O O4 0.650630 0.889744 0.578987
O O5 0.750000 0.632309 0.338811
O O6 0.590234 0.604330 0.230156
O O7 0.614092 0.699806 0.364897
O O8 0.615853 0.603816 0.495817
O O9 0.956559 0.500000 0.173862
O O10 0.077602 0.572064 0.247855
O O11 0.000000 0.576277 0.000000
O O12 0.090540 0.202965 0.749968
O O13 0.072998 0.110786 0.880235
O O14 0.000000 0.195857 0.000000
O O15 0.250000 0.769776 0.640133
O O16 0.750000 0.925465 0.122945
O O17 0.639606 0.934601 0.332449
O O18 0.620576 0.000000 0.125477
O O19 0.000000 0.065683 0.500000
O O20 0.136325 0.000000 0.457603
O O21 0.750000 0.427823 0.653440
O O22 0.869114 0.500000 0.574591
#
# Coordination Sequence:
#
# PCOD9398622 Si02
#       8
#     8   8   8   8   8   8   8   8
#     4  11  22  38  59  84 111 143 187 237 283 334
#     4  10  21  37  60  87 111 144 190 241 288 333
#     4  10  21  35  54  84 122 160 193 227 275 334
#     4  12  25  39  58  84 117 151 185 228 282 342
#     4  10  22  42  64  83 108 144 191 240 287 336
#     4  10  20  36  59  84 111 147 187 227 278 336
#     4  10  17  30  57  87 112 140 181 233 284 332
#     4   9  18  34  56  83 115 151 192 237 283 329
#
# _framework density 18.792318999999999
#
# number of rings (size 3 to 8) (size 9 to 14) (size 15 to 20)
#    0.000    1.750    2.500    1.875    0.000    6.750 
#    0.000    1.250    0.000    3.000    0.000    0.000 
#    0.000    0.000    0.000    0.000    0.000    0.000 
#
# Total GULP energy -357412.628877 kJ/mol
# GULP energy per Si atom -5584.572326 kJ/mol
# Density = 1.874955 g / cm^3
# Si number density = 18.792319 Si / 1000 Ang^3
#
#
#
# Elastic Constant Matrix: (Units=GPa)
#
#
# Indices 1 2 3 4 5 6 
#
# 1 86.2247 50.3683 36.4212 0.0000 0.0000 0.0000
# 2 50.3683 105.4763 55.0366 0.0000 0.0000 0.0000
# 3 36.4212 55.0366 81.2919 0.0000 0.0000 0.0000
# 4 0.0000 0.0000 0.0000 -13.9328 0.0000 0.0000
# 5 0.0000 0.0000 0.0000 0.0000 -15.3627 0.0000
# 6 0.0000 0.0000 0.0000 0.0000 0.0000 18.6141
#
#
#
# Elastic Compliance Matrix: (Units=1/GPa)
#
#
# Indices 1 2 3 4 5 6 
#
# 1 0.016607 -0.006259 -0.003203 0.000000 0.000000 0.000000
# 2 -0.006259 0.017019 -0.008718 0.000000 0.000000 0.000000
# 3 -0.003203 -0.008718 0.019638 0.000000 0.000000 0.000000
# 4 0.000000 0.000000 0.000000 -0.071773 0.000000 0.000000
# 5 0.000000 0.000000 0.000000 0.000000 -0.065093 0.000000
# 6 0.000000 0.000000 0.000000 0.000000 0.000000 0.053723
#
#
# Mechanical properties :
#
#
# Convention : Reuss Voigt Hill
#
# Bulk Modulus (GPa) = 59.15569 61.84945 60.50257
# Shear Modulus (GPa) = 412.73482 6.60818 209.67150
#
# Velocity S-wave (km/s) = 14.83598 1.87725 10.57427
# Velocity P-wave (km/s) = 18.02837 6.13859 13.46671
#
# Compressibility (1/GPa) = 0.01690454
#
# Stress axis : x y z
#
# Youngs Moduli (GPa) = 60.21678 58.75953 50.92067
#
# Poissons Ratio (x) = 0.36778 0.16309
# Poissons Ratio (y) = 0.37690 0.44391
# Poissons Ratio (z) = 0.19286 0.51225
#
# Static dielectric constant tensor:
#      x y z
#    x 1.659070 0.000000 0.000000 
#    y 0.000000 1.653830 0.000000 
#    z 0.000000 0.000000 1.605700 
# 
# From -- ./inp_files/8746.got.cif
#   From: 2010.05.17/outbox.cif.g08.bks.cpg/sg51_5_cif.got.tgz:8746.got - 2010.06.03 11:52:47.
