data_PCOD9398882
_publ_section_title
;
Structure prediction by ZEFSAII (Michael W. Deem and Ramdas Pophale) SiO2 
 PCOD9398882
Probable space group: P M M A
;
_chemical_formula_sum "Si O2"
_cell_formula_units_Z 40
_cell_length_a 27.153909
_cell_length_b 7.432141
_cell_length_c 9.440109
_cell_angle_alpha 90.000000
_cell_angle_beta 90.000000
_cell_angle_gamma 90.000000
_cell_volume 1905.124260
_symmetry_space_group_name_H-M "P M M A"
_symmetry_group_IT_number 51
_symmetry_cell_setting 'orthorhombic'
loop_
_space_group_symop_operation_xyz
x,y,z
1/2-x,-y,z
1/2+x,-y,-z
-x,y,-z
-x,-y,-z
1/2+x,y,-z
1/2-x,y,z
x,-y,z
loop_
_atom_site_type_symbol
_atom_site_label
_atom_site_fract_x
_atom_site_fract_y
_atom_site_fract_z
Si Si1 0.643601 0.279225 0.415457
Si Si2 0.250000 0.298233 0.559958
Si Si3 0.452258 0.280285 0.412055
Si Si4 0.642589 0.715265 0.088763
Si Si5 0.750000 0.793073 0.117665
Si Si6 0.548402 0.279901 0.913437
O O1 0.645176 0.500000 0.414447
O O2 0.696810 0.216365 0.472261
O O3 0.597606 0.223909 0.509508
O O4 0.637647 0.221542 0.251764
O O5 0.250000 0.500000 0.499800
O O6 0.250000 0.310332 0.732541
O O7 0.500000 0.222573 0.500000
O O8 0.452438 0.500000 0.412316
O O9 0.454073 0.222547 0.249366
O O10 0.638205 0.500000 0.093206
O O11 0.698448 0.755768 0.040974
O O12 0.598395 0.781085 0.990615
O O13 0.750000 0.000000 0.159131
O O14 0.548711 0.500000 0.913494
O O15 0.500000 0.224615 0.000000
#
# Coordination Sequence:
#
# PCOD9398882 Si02
#       6
#     8   4   8   8   4   8
#     4   8  13  22  37  56  80 111 141 171 209 253
#     4   8  14  26  43  62  86 114 142 174 218 264
#     4   9  15  22  34  57  88 116 142 175 216 259
#     4   9  16  28  45  65  91 120 148 179 219 263
#     4  10  18  28  45  68  90 114 150 188 220 258
#     4   9  16  25  39  62  92 122 148 178 220 267
#
# _framework density 20.996006000000001
#
# number of rings (size 3 to 8) (size 9 to 14) (size 15 to 20)
#    0.000    3.200    0.000    3.300    0.000    4.800 
#    0.000    1.000    0.000    5.400    0.000   11.200 
#    0.000   20.000    0.000    0.000    0.000    0.000 
#
# Total GULP energy -223122.375907 kJ/mol
# GULP energy per Si atom -5578.059398 kJ/mol
# Density = 2.094822 g / cm^3
# Si number density = 20.996006 Si / 1000 Ang^3
#
#
#
# Elastic Constant Matrix: (Units=GPa)
#
#
# Indices 1 2 3 4 5 6 
#
# 1 272.6382 1.9875 127.9842 0.0000 0.0000 0.0000
# 2 1.9875 69.3451 4.9590 0.0000 0.0000 0.0000
# 3 127.9842 4.9590 134.6518 0.0000 0.0000 0.0000
# 4 0.0000 0.0000 0.0000 -15.1704 0.0000 0.0000
# 5 0.0000 0.0000 0.0000 0.0000 36.9871 0.0000
# 6 0.0000 0.0000 0.0000 0.0000 0.0000 -36.4274
#
#
#
# Elastic Compliance Matrix: (Units=1/GPa)
#
#
# Indices 1 2 3 4 5 6 
#
# 1 0.006628 0.000261 -0.006309 0.000000 0.000000 0.000000
# 2 0.000261 0.014469 -0.000781 0.000000 0.000000 0.000000
# 3 -0.006309 -0.000781 0.013452 0.000000 0.000000 0.000000
# 4 0.000000 0.000000 0.000000 -0.065918 0.000000 0.000000
# 5 0.000000 0.000000 0.000000 0.000000 0.027036 0.000000
# 6 0.000000 0.000000 0.000000 0.000000 0.000000 -0.027452
#
#
# Mechanical properties :
#
#
# Convention : Reuss Voigt Hill
#
# Bulk Modulus (GPa) = 47.86834 82.94404 65.40619
# Shear Modulus (GPa) = -447.90436 19.85816 -214.02310
#
# Velocity S-wave (km/s) = -14.62161 3.07873 -10.10725
# Velocity P-wave (km/s) = 16.19281 7.22693 10.24643
#
# Compressibility (1/GPa) = 0.02089063
#
# Stress axis : x y z
#
# Youngs Moduli (GPa) = 150.88399 69.11321 74.33853
#
# Poissons Ratio (x) = -0.01805 0.46901
# Poissons Ratio (y) = -0.03941 0.05807
# Poissons Ratio (z) = 0.95193 0.05399
#
# Static dielectric constant tensor:
#      x y z
#    x 1.761230 0.000000 0.000000 
#    y 0.000000 1.768380 0.000000 
#    z 0.000000 0.000000 1.696510 
# 
# From -- ./inp_files/12131.got.cif
#   From: 2010.05.17/outbox.cif.g08.bks.cpg/sg51_7_cif.got.tgz:12131.got - 2010.06.03 11:52:47.
