data_PCOD9398327
_publ_section_title
;
Structure prediction by ZEFSAII (Michael W. Deem and Ramdas Pophale) SiO2 
 PCOD9398327
Probable space group: P B A N
;
_chemical_formula_sum "Si O2"
_cell_formula_units_Z 34
_cell_length_a 9.000000
_cell_length_b 12.000000
_cell_length_c 15.000000
_cell_angle_alpha 90.000000
_cell_angle_beta 90.000000
_cell_angle_gamma 90.000000
_cell_volume 1620.000000
_symmetry_space_group_name_H-M "P B A N"
_symmetry_group_IT_number 50
_space_group.IT_coordinate_system_code '2'
_symmetry_cell_setting 'orthorhombic'
loop_
_space_group_symop_operation_xyz
x,y,z
1/2-x,1/2-y,z
x,1/2-y,-z
1/2-x,y,-z
-x,-y,-z
1/2+x,1/2+y,-z
-x,1/2+y,z
1/2+x,-y,z
loop_
_atom_site_type_symbol
_atom_site_label
_atom_site_fract_x
_atom_site_fract_y
_atom_site_fract_z
Si Si1 0.250000 0.750000 0.000000
Si Si2 0.567507 0.440252 0.913400
Si Si3 0.326633 0.362293 0.362294
Si Si4 0.272224 0.129470 0.161433
Si Si5 0.623269 0.062834 0.559818
O O1 0.352530 0.672236 0.059140
O O2 0.443019 0.407584 0.841598
O O3 0.686439 0.528622 0.882188
O O4 0.500000 0.500000 0.000000
O O5 0.250000 0.250000 0.399667
O O6 0.301461 0.358934 0.257335
O O7 0.504356 0.367952 0.381511
O O8 0.225740 0.467855 0.393544
O O9 0.250000 0.250000 0.115649
O O10 0.750000 0.122724 0.500000
O O11 0.500000 0.000000 0.500000
#
# Coordination Sequence:
#
# PCOD9398327 Si02
#       5
#     2   8   8   8   8
#     4  12  24  40  64  92 124 168 228 274 332 380
#     4  12  23  42  63  90 125 167 220 273 320 391
#     4  10  21  40  62  90 126 164 206 257 321 379
#     4  11  24  40  64  90 125 170 213 268 328 379
#     4   9  19  37  62  90 122 158 202 254 305 379
#
# _framework density 20.987653999999999
#
# number of rings (size 3 to 8) (size 9 to 14) (size 15 to 20)
#    0.000    1.412    2.353    2.824    0.000    5.176 
#    0.000    8.235    0.000    0.000    0.000    0.000 
#    0.000    0.000    0.000    0.000    0.000    0.000 
#
# Total GULP energy -189423.830625 kJ/mol
# GULP energy per Si atom -5571.289136 kJ/mol
# Density = 2.093989 g / cm^3
# Si number density = 20.987654 Si / 1000 Ang^3
#
#
#
# Elastic Constant Matrix: (Units=GPa)
#
#
# Indices 1 2 3 4 5 6 
#
# 1 192.7982 66.5397 44.1035 0.0000 0.0000 0.0000
# 2 66.5397 147.4869 26.1840 0.0000 0.0000 0.0000
# 3 44.1035 26.1840 66.0956 0.0000 0.0000 0.0000
# 4 0.0000 0.0000 0.0000 6.6144 0.0000 0.0000
# 5 0.0000 0.0000 0.0000 0.0000 66.2823 0.0000
# 6 0.0000 0.0000 0.0000 0.0000 0.0000 37.0027
#
#
#
# Elastic Compliance Matrix: (Units=1/GPa)
#
#
# Indices 1 2 3 4 5 6 
#
# 1 0.006858 -0.002454 -0.003604 0.000000 0.000000 0.000000
# 2 -0.002454 0.008172 -0.001599 0.000000 0.000000 0.000000
# 3 -0.003604 -0.001599 0.018168 0.000000 0.000000 0.000000
# 4 0.000000 0.000000 0.000000 0.151186 0.000000 0.000000
# 5 0.000000 0.000000 0.000000 0.000000 0.015087 0.000000
# 6 0.000000 0.000000 0.000000 0.000000 0.000000 0.027025
#
#
# Mechanical properties :
#
#
# Convention : Reuss Voigt Hill
#
# Bulk Modulus (GPa) = 55.92144 75.55945 65.74044
# Shear Modulus (GPa) = 20.17986 39.95011 30.06498
#
# Velocity S-wave (km/s) = 3.10419 4.36765 3.78895
# Velocity P-wave (km/s) = 6.28894 7.84316 7.10865
#
# Compressibility (1/GPa) = 0.01788223
#
# Stress axis : x y z
#
# Youngs Moduli (GPa) = 145.80966 122.37648 55.04158
#
# Poissons Ratio (x) = 0.30035 0.19837
# Poissons Ratio (y) = 0.35786 0.08804
# Poissons Ratio (z) = 0.52550 0.19574
#
# Static dielectric constant tensor:
#      x y z
#    x 1.733000 0.000000 0.000000 
#    y 0.000000 1.951030 0.000000 
#    z 0.000000 0.000000 1.847590 
# 
# From -- ./inp_files/24439.got.cif
#   From: 2010.05.17/outbox.ucp.g08.bks.cvg/sg50_13_cif.got.tgz:24439.got - 2010.06.11 16:26:39.
