data_PCOD9398579
_publ_section_title
;
Structure prediction by ZEFSAII (Michael W. Deem and Ramdas Pophale) SiO2 
 PCOD9398579
Probable space group: P M M A
;
_chemical_formula_sum "Si O2"
_cell_formula_units_Z 64
_cell_length_a 7.803843
_cell_length_b 22.153239
_cell_length_c 19.502224
_cell_angle_alpha 90.000000
_cell_angle_beta 90.000000
_cell_angle_gamma 90.000000
_cell_volume 3371.552268
_symmetry_space_group_name_H-M "P M M A"
_symmetry_group_IT_number 51
_symmetry_cell_setting 'orthorhombic'
loop_
_space_group_symop_operation_xyz
x,y,z
1/2-x,-y,z
1/2+x,-y,-z
-x,y,-z
-x,-y,-z
1/2+x,y,-z
1/2-x,y,z
x,-y,z
loop_
_atom_site_type_symbol
_atom_site_label
_atom_site_fract_x
_atom_site_fract_y
_atom_site_fract_z
Si Si1 0.961131 0.235737 0.779045
Si Si2 0.544965 0.767180 0.425170
Si Si3 0.547194 0.065497 0.124738
Si Si4 0.947551 0.092440 0.576322
Si Si5 0.553162 0.331928 0.680656
Si Si6 0.043194 0.569225 0.422656
Si Si7 0.541587 0.894902 0.724225
Si Si8 0.553458 0.805471 0.923866
O O1 0.750000 0.236322 0.777413
O O2 0.022462 0.299017 0.747427
O O3 0.010193 0.175647 0.735476
O O4 0.026965 0.224328 0.856048
O O5 0.500000 0.742620 0.500000
O O6 0.750000 0.768386 0.414941
O O7 0.472889 0.835070 0.424125
O O8 0.453697 0.724227 0.371633
O O9 0.750000 0.068312 0.112308
O O10 0.516549 0.072673 0.206411
O O11 0.465823 0.122736 0.087723
O O12 0.481285 0.000000 0.102672
O O13 0.750000 0.076317 0.580597
O O14 0.023064 0.077655 0.651843
O O15 0.000000 0.071377 0.500000
O O16 0.750000 0.348316 0.696353
O O17 0.475620 0.387191 0.637483
O O18 0.250000 0.569550 0.418282
O O19 0.983139 0.500000 0.415480
O O20 0.000000 0.589568 0.500000
O O21 0.750000 0.896296 0.723366
O O22 0.750000 0.789337 0.918979
O O23 0.500000 0.788975 0.000000
#
# Coordination Sequence:
#
# PCOD9398579 Si02
#       8
#     8   8   8   8   8   8   8   8
#     4   8  15  29  47  67  90 118 148 181 228 280
#     4  11  20  27  37  58  86 116 151 189 231 277
#     4  10  21  35  52  75  99 123 155 192 228 267
#     4  10  18  29  43  62  88 117 150 187 233 282
#     4  10  17  29  46  62  88 120 154 199 239 280
#     4   9  18  30  44  62  87 125 169 208 245 281
#     4   9  17  31  49  66  91 122 154 190 236 288
#     4  10  20  35  54  75  99 127 154 181 223 278
#
# _framework density 18.982354000000001
#
# number of rings (size 3 to 8) (size 9 to 14) (size 15 to 20)
#    0.000    2.375    1.250    4.125    0.000    3.750 
#    0.000    0.625    0.000    0.375    0.000    0.000 
#    0.000    0.500    0.000    0.375    0.000    0.750 
#
# Total GULP energy -356672.495616 kJ/mol
# GULP energy per Si atom -5573.007744 kJ/mol
# Density = 1.893915 g / cm^3
# Si number density = 18.982354 Si / 1000 Ang^3
#
#
#
# Elastic Constant Matrix: (Units=GPa)
#
#
# Indices 1 2 3 4 5 6 
#
# 1 28.2277 -2.6947 5.5525 0.0000 0.0000 0.0000
# 2 -2.6947 81.1996 28.5654 0.0000 0.0000 0.0000
# 3 5.5525 28.5654 119.7800 0.0000 0.0000 0.0000
# 4 0.0000 0.0000 0.0000 -2.8138 0.0000 0.0000
# 5 0.0000 0.0000 0.0000 0.0000 22.2060 0.0000
# 6 0.0000 0.0000 0.0000 0.0000 0.0000 7.6524
#
#
#
# Elastic Compliance Matrix: (Units=1/GPa)
#
#
# Indices 1 2 3 4 5 6 
#
# 1 0.036032 0.001947 -0.002135 0.000000 0.000000 0.000000
# 2 0.001947 0.013548 -0.003321 0.000000 0.000000 0.000000
# 3 -0.002135 -0.003321 0.009240 0.000000 0.000000 0.000000
# 4 0.000000 0.000000 0.000000 -0.355393 0.000000 0.000000
# 5 0.000000 0.000000 0.000000 0.000000 0.045033 0.000000
# 6 0.000000 0.000000 0.000000 0.000000 0.000000 0.130678
#
#
# Mechanical properties :
#
#
# Convention : Reuss Voigt Hill
#
# Bulk Modulus (GPa) = 19.30443 32.45041 25.87742
# Shear Modulus (GPa) = -51.77187 18.59453 -16.58867
#
# Velocity S-wave (km/s) = -5.22809 3.13320 -2.95939
# Velocity P-wave (km/s) = 5.12368 5.49740 1.40878
#
# Compressibility (1/GPa) = 0.05180157
#
# Stress axis : x y z
#
# Youngs Moduli (GPa) = 27.75323 73.80978 108.22921
#
# Poissons Ratio (x) = -0.14368 0.23102
# Poissons Ratio (y) = -0.05403 0.35946
# Poissons Ratio (z) = 0.05924 0.24514
#
# Static dielectric constant tensor:
#      x y z
#    x 1.704140 0.000000 0.000000 
#    y 0.000000 1.677100 0.000000 
#    z 0.000000 0.000000 1.748520 
# 
# From -- ./inp_files/32681.got.cif
#   From: 2010.05.17/outbox.cif.g08.bks.cpg/sg51_17_cif.got.tgz:32681.got - 2010.06.03 11:52:47.
