data_PCOD9398869
_publ_section_title
;
Structure prediction by ZEFSAII (Michael W. Deem and Ramdas Pophale) SiO2 
 PCOD9398869
Probable space group: P M M A
;
_chemical_formula_sum "Si O2"
_cell_formula_units_Z 40
_cell_length_a 25.631881
_cell_length_b 7.809921
_cell_length_c 10.476811
_cell_angle_alpha 90.000000
_cell_angle_beta 90.000000
_cell_angle_gamma 90.000000
_cell_volume 2097.279097
_symmetry_space_group_name_H-M "P M M A"
_symmetry_group_IT_number 51
_symmetry_cell_setting 'orthorhombic'
loop_
_space_group_symop_operation_xyz
x,y,z
1/2-x,-y,z
1/2+x,-y,-z
-x,y,-z
-x,-y,-z
1/2+x,y,-z
1/2-x,y,z
x,-y,z
loop_
_atom_site_type_symbol
_atom_site_label
_atom_site_fract_x
_atom_site_fract_y
_atom_site_fract_z
Si Si1 0.030804 0.700051 0.619497
Si Si2 0.750000 0.800573 0.993365
Si Si3 0.750000 0.304194 0.281879
Si Si4 0.137111 0.289351 0.735616
Si Si5 0.637359 0.704702 0.967112
Si Si6 0.472515 0.200669 0.129372
O O1 0.040049 0.500000 0.589313
O O2 0.087549 0.771780 0.655952
O O3 0.000000 0.777655 0.500000
O O4 0.995752 0.711646 0.746074
O O5 0.695508 0.758320 0.925607
O O6 0.750000 0.000000 0.027291
O O7 0.750000 0.696238 0.126468
O O8 0.750000 0.500000 0.327851
O O9 0.806454 0.228530 0.314366
O O10 0.137971 0.500000 0.735849
O O11 0.131192 0.238450 0.884420
O O12 0.634076 0.500000 0.964411
O O13 0.589241 0.776624 0.887529
O O14 0.485237 0.000000 0.139660
O O15 0.500000 0.268055 0.000000
#
# Coordination Sequence:
#
# PCOD9398869 Si02
#       6
#     8   4   4   8   8   8
#     4  10  20  34  52  74 102 139 181 220 265 320
#     4  10  18  28  44  73 110 135 162 210 268 314
#     4   8  14  26  44  67  94 129 170 208 256 310
#     4   8  14  26  46  71  96 125 165 216 260 303
#     4  10  18  31  52  74 101 136 177 215 259 312
#     4  11  22  34  51  77 106 136 173 218 270 318
#
# _framework density 19.072330999999998
#
# number of rings (size 3 to 8) (size 9 to 14) (size 15 to 20)
#    0.000    2.400    2.000    3.300    0.000    1.200 
#    0.000    0.000    0.000    1.200    0.000    4.200 
#    0.000    0.000    0.000    0.000    0.000    0.000 
#
# Total GULP energy -223005.728329 kJ/mol
# GULP energy per Si atom -5575.143208 kJ/mol
# Density = 1.902892 g / cm^3
# Si number density = 19.072331 Si / 1000 Ang^3
#
#
#
# Elastic Constant Matrix: (Units=GPa)
#
#
# Indices 1 2 3 4 5 6 
#
# 1 186.7160 -14.3484 47.7219 0.0000 0.0000 0.0000
# 2 -14.3484 34.9444 -6.8706 0.0000 0.0000 0.0000
# 3 47.7219 -6.8706 58.1219 0.0000 0.0000 0.0000
# 4 0.0000 0.0000 0.0000 3.2903 0.0000 0.0000
# 5 0.0000 0.0000 0.0000 0.0000 18.7054 0.0000
# 6 0.0000 0.0000 0.0000 0.0000 0.0000 -639.3693
#
#
#
# Elastic Compliance Matrix: (Units=1/GPa)
#
#
# Indices 1 2 3 4 5 6 
#
# 1 0.006882 0.001756 -0.005443 0.000000 0.000000 0.000000
# 2 0.001756 0.029746 0.002075 0.000000 0.000000 0.000000
# 3 -0.005443 0.002075 0.021919 0.000000 0.000000 0.000000
# 4 0.000000 0.000000 0.000000 0.303922 0.000000 0.000000
# 5 0.000000 0.000000 0.000000 0.000000 0.053460 0.000000
# 6 0.000000 0.000000 0.000000 0.000000 0.000000 -0.001564
#
#
# Mechanical properties :
#
#
# Convention : Reuss Voigt Hill
#
# Bulk Modulus (GPa) = 18.07603 36.97646 27.52624
# Shear Modulus (GPa) = 11.46708 -106.58942 -47.56117
#
# Velocity S-wave (km/s) = 2.45468 -7.48387 -4.99914
# Velocity P-wave (km/s) = 4.18714 7.43291 4.34258
#
# Compressibility (1/GPa) = 0.05532189
#
# Stress axis : x y z
#
# Youngs Moduli (GPa) = 145.31192 33.61832 45.62166
#
# Poissons Ratio (x) = -0.05902 0.24831
# Poissons Ratio (y) = -0.25510 -0.09466
# Poissons Ratio (z) = 0.79091 -0.06975
#
# Static dielectric constant tensor:
#      x y z
#    x 1.718620 0.000000 0.000000 
#    y 0.000000 1.686290 0.000000 
#    z 0.000000 0.000000 1.629050 
# 
# From -- ./inp_files/12134.got.cif
#   From: 2010.05.17/outbox.cif.g08.bks.cpg/sg51_7_cif.got.tgz:12134.got - 2010.06.03 11:52:47.
