data_PCOD9398644
_publ_section_title
;
Structure prediction by ZEFSAII (Michael W. Deem and Ramdas Pophale) SiO2 
 PCOD9398644
Probable space group: P M M A
;
_chemical_formula_sum "Si O2"
_cell_formula_units_Z 56
_cell_length_a 15.530856
_cell_length_b 21.587794
_cell_length_c 9.582913
_cell_angle_alpha 90.000000
_cell_angle_beta 90.000000
_cell_angle_gamma 90.000000
_cell_volume 3212.929555
_symmetry_space_group_name_H-M "P M M A"
_symmetry_group_IT_number 51
_symmetry_cell_setting 'orthorhombic'
loop_
_space_group_symop_operation_xyz
x,y,z
1/2-x,-y,z
1/2+x,-y,-z
-x,y,-z
-x,-y,-z
1/2+x,y,-z
1/2-x,y,z
x,-y,z
loop_
_atom_site_type_symbol
_atom_site_label
_atom_site_fract_x
_atom_site_fract_y
_atom_site_fract_z
Si Si1 0.008524 0.574663 0.335800
Si Si2 0.399342 0.234540 0.037532
Si Si3 0.350490 0.888783 0.162705
Si Si4 0.653142 0.869387 0.150110
Si Si5 0.490701 0.071827 0.660439
Si Si6 0.349808 0.370237 0.139573
Si Si7 0.846189 0.573707 0.157177
O O1 0.018482 0.500000 0.316235
O O2 0.087712 0.609202 0.263026
O O3 0.000000 0.586165 0.500000
O O4 0.921770 0.596228 0.257167
O O5 0.377629 0.183858 0.156903
O O6 0.644723 0.201839 0.096931
O O7 0.366394 0.300626 0.085773
O O8 0.500000 0.236946 0.000000
O O9 0.250000 0.896029 0.199142
O O10 0.417988 0.922321 0.260753
O O11 0.360350 0.905747 0.997858
O O12 0.750000 0.881012 0.200004
O O13 0.579815 0.888472 0.256530
O O14 0.500000 0.091583 0.500000
O O15 0.463256 0.000000 0.661951
O O16 0.250000 0.377780 0.178171
O O17 0.367845 0.412025 0.003178
O O18 0.750000 0.599199 0.184742
O O19 0.157763 0.500000 0.824191
#
# Coordination Sequence:
#
# PCOD9398644 Si02
#       7
#     8   8   8   8   8   8   8
#     4  10  21  36  53  78 114 155 191 226 281 345
#     4  10  17  34  61  83 106 138 181 233 281 326
#     4   9  18  36  58  80 108 143 187 236 282 329
#     4   9  18  36  59  82 108 142 187 236 282 331
#     4  11  23  37  54  82 118 153 186 225 279 345
#     4  11  21  33  56  86 113 142 185 238 285 332
#     4   9  18  33  53  78 107 141 185 236 285 328
#
# _framework density 17.429576000000001
#
# number of rings (size 3 to 8) (size 9 to 14) (size 15 to 20)
#    0.857    1.286    1.429    3.000    0.000    4.857 
#    0.000    5.000    0.000    0.000    0.000    0.000 
#    0.000    0.000    0.000    0.000    0.000    0.000 
#
# Total GULP energy -311886.644270 kJ/mol
# GULP energy per Si atom -5569.404362 kJ/mol
# Density = 1.738991 g / cm^3
# Si number density = 17.429576 Si / 1000 Ang^3
#
#
#
# Elastic Constant Matrix: (Units=GPa)
#
#
# Indices 1 2 3 4 5 6 
#
# 1 131.8822 30.6287 89.3391 0.0000 0.0000 0.0000
# 2 30.6287 34.7079 31.4348 0.0000 0.0000 0.0000
# 3 89.3391 31.4348 104.1088 0.0000 0.0000 0.0000
# 4 0.0000 0.0000 0.0000 9.8907 0.0000 0.0000
# 5 0.0000 0.0000 0.0000 0.0000 0.7720 0.0000
# 6 0.0000 0.0000 0.0000 0.0000 0.0000 15.1554
#
#
#
# Elastic Compliance Matrix: (Units=1/GPa)
#
#
# Indices 1 2 3 4 5 6 
#
# 1 0.018285 -0.002649 -0.014891 0.000000 0.000000 0.000000
# 2 -0.002649 0.040041 -0.009816 0.000000 0.000000 0.000000
# 3 -0.014891 -0.009816 0.025348 0.000000 0.000000 0.000000
# 4 0.000000 0.000000 0.000000 0.101105 0.000000 0.000000
# 5 0.000000 0.000000 0.000000 0.000000 1.295342 0.000000
# 6 0.000000 0.000000 0.000000 0.000000 0.000000 0.065983
#
#
# Mechanical properties :
#
#
# Convention : Reuss Voigt Hill
#
# Bulk Modulus (GPa) = 34.53062 63.72267 49.12664
# Shear Modulus (GPa) = 3.10468 13.11672 8.11070
#
# Velocity S-wave (km/s) = 1.33609 2.74625 2.15952
# Velocity P-wave (km/s) = 4.71537 6.83340 5.87069
#
# Compressibility (1/GPa) = 0.02895981
#
# Stress axis : x y z
#
# Youngs Moduli (GPa) = 54.68817 24.97466 39.45059
#
# Poissons Ratio (x) = 0.06616 0.58748
# Poissons Ratio (y) = 0.14488 0.38727
# Poissons Ratio (z) = 0.81439 0.24516
#
# Static dielectric constant tensor:
#      x y z
#    x 1.599030 0.000000 0.000000 
#    y 0.000000 1.611100 0.000000 
#    z 0.000000 0.000000 1.568010 
# 
# From -- ./inp_files/8492.got.cif
#   From: 2010.05.17/outbox.cif.g08.bks.cpg/sg51_5_cif.got.tgz:8492.got - 2010.06.03 11:52:47.
