data_PCOD9398147
_publ_section_title
;
Structure prediction by ZEFSAII (Michael W. Deem and Ramdas Pophale) SiO2 
 PCOD9398147
Probable space group: P B A N
;
_chemical_formula_sum "Si O2"
_cell_formula_units_Z 24
_cell_length_a 14.554344
_cell_length_b 8.826841
_cell_length_c 7.427599
_cell_angle_alpha 90.000000
_cell_angle_beta 90.000000
_cell_angle_gamma 90.000000
_cell_volume 954.215327
_symmetry_space_group_name_H-M "P B A N"
_symmetry_group_IT_number 50
_space_group.IT_coordinate_system_code '2'
_symmetry_cell_setting 'orthorhombic'
loop_
_space_group_symop_operation_xyz
x,y,z
1/2-x,1/2-y,z
x,1/2-y,-z
1/2-x,y,-z
-x,-y,-z
1/2+x,1/2+y,-z
-x,1/2+y,z
1/2+x,-y,z
loop_
_atom_site_type_symbol
_atom_site_label
_atom_site_fract_x
_atom_site_fract_y
_atom_site_fract_z
Si Si1 0.846992 0.163450 0.268032
Si Si2 0.858193 0.912876 0.547825
Si Si3 0.096375 0.544206 0.916638
O O1 0.750000 0.250000 0.306432
O O2 0.837905 0.439560 0.910014
O O3 0.886727 0.059458 0.427332
O O4 0.910569 0.296638 0.191126
O O5 0.899288 0.750000 0.500000
O O6 0.750000 0.909276 0.500000
O O7 0.871113 0.934912 0.759174
O O8 0.000000 0.500000 0.000000
#
# Coordination Sequence:
#
# PCOD9398147 Si02
#       3
#     8   8   8
#     4  11  24  46  81 108 148 217 274 317 389 488
#     4  11  25  44  76 116 149 199 265 331 386 472
#     4  11  25  44  73 113 154 198 256 327 400 467
#
# _framework density 25.151554999999998
#
# number of rings (size 3 to 8) (size 9 to 14) (size 15 to 20)
#    0.000    1.000    3.333    3.000    0.000    8.000 
#    0.000    3.333    0.000    0.000    0.000    0.000 
#    0.000    0.000    0.000    0.000    0.000    0.000 
#
# Total GULP energy -134224.501495 kJ/mol
# GULP energy per Si atom -5592.687562 kJ/mol
# Density = 2.509431 g / cm^3
# Si number density = 25.151555 Si / 1000 Ang^3
#
#
#
# Elastic Constant Matrix: (Units=GPa)
#
#
# Indices 1 2 3 4 5 6 
#
# 1 87.9718 27.1436 49.8642 0.0000 0.0000 0.0000
# 2 27.1436 111.1236 60.5401 0.0000 0.0000 0.0000
# 3 49.8642 60.5401 242.2848 0.0000 0.0000 0.0000
# 4 0.0000 0.0000 0.0000 33.8073 0.0000 0.0000
# 5 0.0000 0.0000 0.0000 0.0000 39.1438 0.0000
# 6 0.0000 0.0000 0.0000 0.0000 0.0000 19.5622
#
#
#
# Elastic Compliance Matrix: (Units=1/GPa)
#
#
# Indices 1 2 3 4 5 6 
#
# 1 0.013251 -0.002027 -0.002221 0.000000 0.000000 0.000000
# 2 -0.002027 0.010727 -0.002263 0.000000 0.000000 0.000000
# 3 -0.002221 -0.002263 0.005150 0.000000 0.000000 0.000000
# 4 0.000000 0.000000 0.000000 0.029579 0.000000 0.000000
# 5 0.000000 0.000000 0.000000 0.000000 0.025547 0.000000
# 6 0.000000 0.000000 0.000000 0.000000 0.000000 0.051119
#
#
# Mechanical properties :
#
#
# Convention : Reuss Voigt Hill
#
# Bulk Modulus (GPa) = 62.08655 79.60845 70.84750
# Shear Modulus (GPa) = 32.51721 38.75813 35.63767
#
# Velocity S-wave (km/s) = 3.59952 3.92979 3.76828
# Velocity P-wave (km/s) = 6.48182 7.23265 6.86751
#
# Compressibility (1/GPa) = 0.01610655
#
# Stress axis : x y z
#
# Youngs Moduli (GPa) = 75.46318 93.22169 194.17685
#
# Poissons Ratio (x) = 0.18896 0.43122
# Poissons Ratio (y) = 0.15296 0.43947
# Poissons Ratio (z) = 0.16759 0.21098
#
# Static dielectric constant tensor:
#      x y z
#    x 0.857350 0.000000 0.000000 
#    y 0.000000 2.086560 0.000000 
#    z 0.000000 0.000000 1.997770 
# 
# From -- ./inp_files/8510.got.cif
#   From: 2010.05.17/outbox.cif.g08.bks.cpg/sg50_5_cif.got.tgz:8510.got - 2010.06.03 11:33:33.
