data_PCOD9398054
_publ_section_title
;
Structure prediction by ZEFSAII (Michael W. Deem and Ramdas Pophale) SiO2 
 PCOD9398054
Probable space group: P B A N
;
_chemical_formula_sum "Si O2"
_cell_formula_units_Z 24
_cell_length_a 7.682528
_cell_length_b 15.706783
_cell_length_c 8.587078
_cell_angle_alpha 90.000000
_cell_angle_beta 90.000000
_cell_angle_gamma 90.000000
_cell_volume 1036.183812
_symmetry_space_group_name_H-M "P B A N"
_symmetry_group_IT_number 50
_space_group.IT_coordinate_system_code '2'
_symmetry_cell_setting 'orthorhombic'
loop_
_space_group_symop_operation_xyz
x,y,z
1/2-x,1/2-y,z
x,1/2-y,-z
1/2-x,y,-z
-x,-y,-z
1/2+x,1/2+y,-z
-x,1/2+y,z
1/2+x,-y,z
loop_
_atom_site_type_symbol
_atom_site_label
_atom_site_fract_x
_atom_site_fract_y
_atom_site_fract_z
Si Si1 0.645927 0.088955 0.802912
Si Si2 0.522219 0.166168 0.105627
Si Si3 0.773172 0.904766 0.683566
O O1 0.803074 0.156186 0.793345
O O2 0.475906 0.112530 0.707307
O O3 0.722159 0.999516 0.743998
O O4 0.565083 0.092111 0.978244
O O5 0.353099 0.152899 0.209980
O O6 0.512986 0.250000 0.000000
O O7 0.750000 0.897915 0.500000
#
# Coordination Sequence:
#
# PCOD9398054 Si02
#       3
#     8   8   8
#     4  11  23  42  73 104 141 193 244 300 358 438
#     4  11  26  45  70 105 144 193 249 304 365 440
#     4  12  25  42  75 109 146 190 245 307 368 441
#
# _framework density 23.161912999999998
#
# number of rings (size 3 to 8) (size 9 to 14) (size 15 to 20)
#    0.000    0.667    3.333    5.000    4.667    4.000 
#    0.000    3.333    7.333    0.000    0.000    0.000 
#    0.000    0.000    0.000    0.000    0.000    0.000 
#
# Total GULP energy -134168.347311 kJ/mol
# GULP energy per Si atom -5590.347805 kJ/mol
# Density = 2.310920 g / cm^3
# Si number density = 23.161913 Si / 1000 Ang^3
#
#
#
# Elastic Constant Matrix: (Units=GPa)
#
#
# Indices 1 2 3 4 5 6 
#
# 1 120.0070 85.8380 33.3048 0.0000 0.0000 0.0000
# 2 85.8380 129.3968 46.1674 0.0000 0.0000 0.0000
# 3 33.3048 46.1674 92.8230 0.0000 0.0000 0.0000
# 4 0.0000 0.0000 0.0000 179.3887 0.0000 0.0000
# 5 0.0000 0.0000 0.0000 0.0000 24.0076 0.0000
# 6 0.0000 0.0000 0.0000 0.0000 0.0000 -7.4211
#
#
#
# Elastic Compliance Matrix: (Units=1/GPa)
#
#
# Indices 1 2 3 4 5 6 
#
# 1 0.015880 -0.010336 -0.000557 0.000000 0.000000 0.000000
# 2 -0.010336 0.016123 -0.004310 0.000000 0.000000 0.000000
# 3 -0.000557 -0.004310 0.013117 0.000000 0.000000 0.000000
# 4 0.000000 0.000000 0.000000 0.005574 0.000000 0.000000
# 5 0.000000 0.000000 0.000000 0.000000 0.041653 0.000000
# 6 0.000000 0.000000 0.000000 0.000000 0.000000 -0.134752
#
#
# Mechanical properties :
#
#
# Convention : Reuss Voigt Hill
#
# Bulk Modulus (GPa) = 67.96617 74.76080 71.36348
# Shear Modulus (GPa) = -704.96040 50.98949 -326.98546
#
# Velocity S-wave (km/s) = -17.46490 4.69704 -11.89455
# Velocity P-wave (km/s) = 19.42393 7.85899 12.56036
#
# Compressibility (1/GPa) = 0.01471320
#
# Stress axis : x y z
#
# Youngs Moduli (GPa) = 62.97057 62.02493 76.23714
#
# Poissons Ratio (x) = 0.64108 0.04248
# Poissons Ratio (y) = 0.65085 0.32861
# Poissons Ratio (z) = 0.03508 0.26735
#
# Static dielectric constant tensor:
#      x y z
#    x 1.915750 0.000000 0.000000 
#    y 0.000000 1.958230 0.000000 
#    z 0.000000 0.000000 1.903340 
# 
# From -- ./inp_files/8684.got.cif
#   From: 2010.05.17/outbox.cif.g08.bks.cpg/sg50_5_cif.got.tgz:8684.got - 2010.06.03 11:33:33.
