data_PCOD9398221
_publ_section_title
;
Structure prediction by ZEFSAII (Michael W. Deem and Ramdas Pophale) SiO2 
 PCOD9398221
Probable space group: P B A N
;
_chemical_formula_sum "Si O2"
_cell_formula_units_Z 40
_cell_length_a 9.055890
_cell_length_b 23.912901
_cell_length_c 8.539497
_cell_angle_alpha 90.000000
_cell_angle_beta 90.000000
_cell_angle_gamma 90.000000
_cell_volume 1849.250287
_symmetry_space_group_name_H-M "P B A N"
_symmetry_group_IT_number 50
_space_group.IT_coordinate_system_code '2'
_symmetry_cell_setting 'orthorhombic'
loop_
_space_group_symop_operation_xyz
x,y,z
1/2-x,1/2-y,z
x,1/2-y,-z
1/2-x,y,-z
-x,-y,-z
1/2+x,1/2+y,-z
-x,1/2+y,z
1/2+x,-y,z
loop_
_atom_site_type_symbol
_atom_site_label
_atom_site_fract_x
_atom_site_fract_y
_atom_site_fract_z
Si Si1 0.627093 0.325770 0.376449
Si Si2 0.425990 0.261022 0.817425
Si Si3 0.113624 0.136280 0.604934
Si Si4 0.531064 0.520812 0.325547
Si Si5 0.732514 0.071690 0.816474
O O1 0.750000 0.306478 0.500000
O O2 0.529122 0.278352 0.291109
O O3 0.518750 0.363646 0.481292
O O4 0.700822 0.367138 0.252401
O O5 0.250000 0.250000 0.803118
O O6 0.434002 0.323416 0.746813
O O7 0.464892 0.250000 0.000000
O O8 0.250000 0.158001 0.500000
O O9 0.141900 0.073907 0.665459
O O10 0.500000 0.500000 0.500000
O O11 0.600554 0.470451 0.228352
O O12 0.380461 0.545418 0.256174
O O13 0.750000 0.075342 0.000000
#
# Coordination Sequence:
#
# PCOD9398221 Si02
#       5
#     8   8   8   8   8
#     4  12  25  48  75 107 145 191 249 305 365 439
#     4  11  27  48  73 110 151 196 250 311 375 439
#     4  12  24  45  75 106 142 195 249 297 361 450
#     4  12  24  48  74 105 142 193 246 296 361 446
#     4  12  27  47  71 110 151 187 240 305 374 434
#
# _framework density 21.630389000000001
#
# number of rings (size 3 to 8) (size 9 to 14) (size 15 to 20)
#    0.000    0.200    6.000    3.000    2.800    1.600 
#    3.600    1.000    0.000    0.000    0.000    0.000 
#    0.000    0.000    0.000    0.000    0.000    0.000 
#
# Total GULP energy -223779.442700 kJ/mol
# GULP energy per Si atom -5594.486067 kJ/mol
# Density = 2.158116 g / cm^3
# Si number density = 21.630389 Si / 1000 Ang^3
#
#
#
# Elastic Constant Matrix: (Units=GPa)
#
#
# Indices 1 2 3 4 5 6 
#
# 1 101.0741 24.3731 51.5337 0.0000 0.0000 0.0000
# 2 24.3731 148.5179 76.6804 0.0000 0.0000 0.0000
# 3 51.5337 76.6804 168.5864 0.0000 0.0000 0.0000
# 4 0.0000 0.0000 0.0000 22.0911 0.0000 0.0000
# 5 0.0000 0.0000 0.0000 0.0000 36.7914 0.0000
# 6 0.0000 0.0000 0.0000 0.0000 0.0000 39.2022
#
#
#
# Elastic Compliance Matrix: (Units=1/GPa)
#
#
# Indices 1 2 3 4 5 6 
#
# 1 0.011721 -0.000096 -0.003539 0.000000 0.000000 0.000000
# 2 -0.000096 0.008800 -0.003973 0.000000 0.000000 0.000000
# 3 -0.003539 -0.003973 0.008821 0.000000 0.000000 0.000000
# 4 0.000000 0.000000 0.000000 0.045267 0.000000 0.000000
# 5 0.000000 0.000000 0.000000 0.000000 0.027180 0.000000
# 6 0.000000 0.000000 0.000000 0.000000 0.000000 0.025509
#
#
# Mechanical properties :
#
#
# Convention : Reuss Voigt Hill
#
# Bulk Modulus (GPa) = 70.79680 80.37255 75.58468
# Shear Modulus (GPa) = 33.96159 37.32301 35.64230
#
# Velocity S-wave (km/s) = 3.96673 4.15841 4.06370
# Velocity P-wave (km/s) = 7.33357 7.76495 7.55234
#
# Compressibility (1/GPa) = 0.01412493
#
# Stress axis : x y z
#
# Youngs Moduli (GPa) = 85.31356 113.63007 113.36788
#
# Poissons Ratio (x) = 0.01094 0.40124
# Poissons Ratio (y) = 0.00821 0.45046
# Poissons Ratio (z) = 0.30195 0.45150
#
# Static dielectric constant tensor:
#      x y z
#    x 1.820680 0.000000 0.000000 
#    y 0.000000 1.788380 0.000000 
#    z 0.000000 0.000000 1.736430 
# 
# From -- ./inp_files/9473.got.cif
#   From: 2010.05.17/outbox.cif.g08.bks.cpg/sg50_5_cif.got.tgz:9473.got - 2010.06.03 11:33:33.
