data_PCOD9398225
_publ_section_title
;
Structure prediction by ZEFSAII (Michael W. Deem and Ramdas Pophale) SiO2 
 PCOD9398225
Probable space group: P B A N
;
_chemical_formula_sum "Si O2"
_cell_formula_units_Z 18
_cell_length_a 13.978758
_cell_length_b 10.663097
_cell_length_c 4.924953
_cell_angle_alpha 90.000000
_cell_angle_beta 90.000000
_cell_angle_gamma 90.000000
_cell_volume 734.097993
_symmetry_space_group_name_H-M "P B A N"
_symmetry_group_IT_number 50
_space_group.IT_coordinate_system_code '2'
_symmetry_cell_setting 'orthorhombic'
loop_
_space_group_symop_operation_xyz
x,y,z
1/2-x,1/2-y,z
x,1/2-y,-z
1/2-x,y,-z
-x,-y,-z
1/2+x,1/2+y,-z
-x,1/2+y,z
1/2+x,-y,z
loop_
_atom_site_type_symbol
_atom_site_label
_atom_site_fract_x
_atom_site_fract_y
_atom_site_fract_z
Si Si1 0.250000 0.750000 0.000000
Si Si2 0.988800 0.838876 0.257071
Si Si3 0.847157 0.045720 0.380335
O O1 0.188817 0.840422 0.805575
O O2 0.952531 0.750000 0.500000
O O3 0.084802 0.901742 0.379877
O O4 0.911919 0.948557 0.215161
O O5 0.000345 0.750000 0.000000
O O6 0.750000 0.987797 0.500000
#
# Coordination Sequence:
#
# PCOD9398225 Si02
#       3
#     2   8   8
#     4  12  26  52  80 124 146 214 266 318 382 500
#     4  11  28  53  79 116 159 207 262 327 400 466
#     4  11  28  49  83 114 162 209 265 326 393 474
#
# _framework density 24.519884999999999
#
# number of rings (size 3 to 8) (size 9 to 14) (size 15 to 20)
#    0.000    0.889    0.000    3.333   18.667    4.444 
#    0.000    0.000    4.889    0.000    0.000    0.000 
#    0.000    0.000    0.000    0.000    0.000    0.000 
#
# Total GULP energy -101053.442770 kJ/mol
# GULP energy per Si atom -5614.080154 kJ/mol
# Density = 2.446408 g / cm^3
# Si number density = 24.519885 Si / 1000 Ang^3
#
#
#
# Elastic Constant Matrix: (Units=GPa)
#
#
# Indices 1 2 3 4 5 6 
#
# 1 206.1191 100.6821 68.0377 0.0000 0.0000 0.0000
# 2 100.6821 129.4032 67.5071 0.0000 0.0000 0.0000
# 3 68.0377 67.5071 162.5531 0.0000 0.0000 0.0000
# 4 0.0000 0.0000 0.0000 58.2502 0.0000 0.0000
# 5 0.0000 0.0000 0.0000 0.0000 -7.7251 0.0000
# 6 0.0000 0.0000 0.0000 0.0000 0.0000 28.2549
#
#
#
# Elastic Compliance Matrix: (Units=1/GPa)
#
#
# Indices 1 2 3 4 5 6 
#
# 1 0.007943 -0.005675 -0.000968 0.000000 0.000000 0.000000
# 2 -0.005675 0.013920 -0.003405 0.000000 0.000000 0.000000
# 3 -0.000968 -0.003405 0.007971 0.000000 0.000000 0.000000
# 4 0.000000 0.000000 0.000000 0.017167 0.000000 0.000000
# 5 0.000000 0.000000 0.000000 0.000000 -0.129449 0.000000
# 6 0.000000 0.000000 0.000000 0.000000 0.000000 0.035392
#
#
# Mechanical properties :
#
#
# Convention : Reuss Voigt Hill
#
# Bulk Modulus (GPa) = 102.69765 107.83658 105.26711
# Shear Modulus (GPa) = -210.86430 33.21257 -88.82587
#
# Velocity S-wave (km/s) = -9.28353 3.68437 -6.02534
# Velocity P-wave (km/s) = 8.54035 7.88506 2.31986
#
# Compressibility (1/GPa) = 0.00973732
#
# Stress axis : x y z
#
# Youngs Moduli (GPa) = 125.89334 71.83882 125.45252
#
# Poissons Ratio (x) = 0.40771 0.12141
# Poissons Ratio (y) = 0.71449 0.42722
# Poissons Ratio (z) = 0.12183 0.24464
#
# Static dielectric constant tensor:
#      x y z
#    x 1.981250 0.000000 0.000000 
#    y 0.000000 1.940690 0.000000 
#    z 0.000000 0.000000 1.969460 
# 
# From -- ./inp_files/1343.got.cif
#   From: 2010.05.17/outbox.cif.g08.bks.cpg/sg50_1_cif.got.tgz:1343.got - 2010.06.03 11:33:33.
