data_PCOD9398357
_publ_section_title
;
Structure prediction by ZEFSAII (Michael W. Deem and Ramdas Pophale) SiO2 
 PCOD9398357
Probable space group: P M M A
;
_chemical_formula_sum "Si O2"
_cell_formula_units_Z 32
_cell_length_a 8.606668
_cell_length_b 22.069268
_cell_length_c 9.339389
_cell_angle_alpha 90.000000
_cell_angle_beta 90.000000
_cell_angle_gamma 90.000000
_cell_volume 1773.950282
_symmetry_space_group_name_H-M "P M M A"
_symmetry_group_IT_number 51
_symmetry_cell_setting 'orthorhombic'
loop_
_space_group_symop_operation_xyz
x,y,z
1/2-x,-y,z
1/2+x,-y,-z
-x,y,-z
-x,-y,-z
1/2+x,y,-z
1/2-x,y,z
x,-y,z
loop_
_atom_site_type_symbol
_atom_site_label
_atom_site_fract_x
_atom_site_fract_y
_atom_site_fract_z
Si Si1 0.063645 0.875756 0.836946
Si Si2 0.064469 0.500000 0.336726
Si Si3 0.565289 0.000000 0.836459
Si Si4 0.563031 0.374124 0.338541
Si Si5 0.437206 0.256945 0.839034
O O1 0.250000 0.881048 0.840141
O O2 0.019337 0.809503 0.776946
O O3 0.994580 0.936981 0.769895
O O4 0.000000 0.873941 0.000000
O O5 0.250000 0.500000 0.339358
O O6 0.000000 0.500000 0.500000
O O7 0.001670 0.562996 0.273673
O O8 0.750000 0.000000 0.842492
O O9 0.500000 0.000000 0.000000
O O10 0.500000 0.369342 0.500000
O O11 0.750000 0.377206 0.341775
O O12 0.512107 0.314654 0.252339
O O13 0.250000 0.257894 0.845282
O O14 0.500000 0.261578 0.000000
#
# Coordination Sequence:
#
# PCOD9398357 Si02
#       5
#     8   4   4   8   8
#     4   9  15  25  39  58  84 116 148 184 225 268
#     4  10  18  30  49  72  93 120 154 192 232 272
#     4  10  16  22  34  56  83 114 149 186 222 264
#     4  10  19  33  51  73  96 122 154 192 231 275
#     4   9  19  32  48  69  96 125 156 190 232 278
#
# _framework density 18.038837000000001
#
# number of rings (size 3 to 8) (size 9 to 14) (size 15 to 20)
#    0.000    2.500    0.000    6.750    0.000    3.000 
#    0.000    0.625    0.000    0.000    0.000    0.875 
#    0.000    0.000    0.000    0.000    0.000    0.000 
#
# Total GULP energy -178223.258309 kJ/mol
# GULP energy per Si atom -5569.476822 kJ/mol
# Density = 1.799778 g / cm^3
# Si number density = 18.038837 Si / 1000 Ang^3
#
#
#
# Elastic Constant Matrix: (Units=GPa)
#
#
# Indices 1 2 3 4 5 6 
#
# 1 83.1232 59.8601 8.7524 0.0000 0.0000 0.0000
# 2 59.8601 244.9942 43.4728 0.0000 0.0000 0.0000
# 3 8.7524 43.4728 18.6218 0.0000 0.0000 0.0000
# 4 0.0000 0.0000 0.0000 2390.0344 0.0000 0.0000
# 5 0.0000 0.0000 0.0000 0.0000 13.0545 0.0000
# 6 0.0000 0.0000 0.0000 0.0000 0.0000 51.1848
#
#
#
# Elastic Compliance Matrix: (Units=1/GPa)
#
#
# Indices 1 2 3 4 5 6 
#
# 1 0.014668 -0.004030 0.002514 0.000000 0.000000 0.000000
# 2 -0.004030 0.008075 -0.016958 0.000000 0.000000 0.000000
# 3 0.002514 -0.016958 0.092108 0.000000 0.000000 0.000000
# 4 0.000000 0.000000 0.000000 0.000418 0.000000 0.000000
# 5 0.000000 0.000000 0.000000 0.000000 0.076602 0.000000
# 6 0.000000 0.000000 0.000000 0.000000 0.000000 0.019537
#
#
# Mechanical properties :
#
#
# Convention : Reuss Voigt Hill
#
# Bulk Modulus (GPa) = 12.83654 63.43444 38.13549
# Shear Modulus (GPa) = 18.22657 506.49833 262.36245
#
# Velocity S-wave (km/s) = 3.18214 16.77473 12.07306
# Velocity P-wave (km/s) = 4.54234 20.25909 14.68100
#
# Compressibility (1/GPa) = 0.07790263
#
# Stress axis : x y z
#
# Youngs Moduli (GPa) = 68.17698 123.83137 10.85681
#
# Poissons Ratio (x) = 0.49902 -0.02729
# Poissons Ratio (y) = 0.27474 0.18411
# Poissons Ratio (z) = -0.17138 2.09996
#
# Static dielectric constant tensor:
#      x y z
#    x 1.605180 0.000000 0.000000 
#    y 0.000000 1.722550 0.000000 
#    z 0.000000 0.000000 1.588570 
# 
# From -- ./inp_files/14124.got.cif
#   From: 2010.05.17/outbox.cif.g08.bks.cpg/sg51_8_cif.got.tgz:14124.got - 2010.06.03 11:52:47.
