data_PCOD9398491
_publ_section_title
;
Structure prediction by ZEFSAII (Michael W. Deem and Ramdas Pophale) SiO2 
 PCOD9398491
Probable space group: P M M A
;
_chemical_formula_sum "Si O2"
_cell_formula_units_Z 48
_cell_length_a 27.259143
_cell_length_b 7.512997
_cell_length_c 12.273452
_cell_angle_alpha 90.000000
_cell_angle_beta 90.000000
_cell_angle_gamma 90.000000
_cell_volume 2513.576699
_symmetry_space_group_name_H-M "P M M A"
_symmetry_group_IT_number 51
_symmetry_cell_setting 'orthorhombic'
loop_
_space_group_symop_operation_xyz
x,y,z
1/2-x,-y,z
1/2+x,-y,-z
-x,y,-z
-x,-y,-z
1/2+x,y,-z
1/2-x,y,z
x,-y,z
loop_
_atom_site_type_symbol
_atom_site_label
_atom_site_fract_x
_atom_site_fract_y
_atom_site_fract_z
Si Si1 0.108110 0.785277 0.151471
Si Si2 0.374404 0.784012 0.503702
Si Si3 0.450210 0.705477 0.944983
Si Si4 0.461964 0.783367 0.344596
Si Si5 0.068843 0.209778 0.697869
Si Si6 0.194079 0.217858 0.310777
O O1 0.063896 0.730558 0.231827
O O2 0.157935 0.727450 0.212077
O O3 0.108961 0.000000 0.148514
O O4 0.093426 0.721893 0.032368
O O5 0.424273 0.735183 0.439128
O O6 0.384890 0.722960 0.627280
O O7 0.330388 0.722628 0.425310
O O8 0.369509 0.000000 0.502610
O O9 0.461442 0.500000 0.924614
O O10 0.433521 0.776072 0.827890
O O11 0.500000 0.785558 0.000000
O O12 0.517135 0.715871 0.346487
O O13 0.463593 0.000000 0.346230
O O14 0.067507 0.000000 0.673814
O O15 0.250000 0.276069 0.299001
O O16 0.193823 0.000000 0.310506
#
# Coordination Sequence:
#
# PCOD9398491 Si02
#       6
#     8   8   8   8   8   8
#     4   9  16  28  47  69  90 118 155 188 223 269
#     4   8  14  23  39  67  94 116 144 178 222 271
#     4  11  22  32  42  60  92 129 160 193 232 268
#     4   8  13  22  39  64  90 113 143 184 217 251
#     4  10  17  26  44  65  89 122 157 185 213 263
#     4   8  14  26  47  75 100 114 134 184 244 281
#
# _framework density 19.096294
#
# number of rings (size 3 to 8) (size 9 to 14) (size 15 to 20)
#    0.000    3.000    1.667    3.000    0.000    2.667 
#    0.000    0.000    0.000    7.500    0.000    4.667 
#    0.000    0.000    0.000    0.000    0.000    0.000 
#
# Total GULP energy -267364.243991 kJ/mol
# GULP energy per Si atom -5570.088416 kJ/mol
# Density = 1.905283 g / cm^3
# Si number density = 19.096294 Si / 1000 Ang^3
#
#
#
# Elastic Constant Matrix: (Units=GPa)
#
#
# Indices 1 2 3 4 5 6 
#
# 1 110.5767 -0.3269 48.0202 0.0000 0.0000 0.0000
# 2 -0.3269 43.8120 -10.8551 0.0000 0.0000 0.0000
# 3 48.0202 -10.8551 85.1531 0.0000 0.0000 0.0000
# 4 0.0000 0.0000 0.0000 -213.9707 0.0000 0.0000
# 5 0.0000 0.0000 0.0000 0.0000 14.9232 0.0000
# 6 0.0000 0.0000 0.0000 0.0000 0.0000 -4.1103
#
#
#
# Elastic Compliance Matrix: (Units=1/GPa)
#
#
# Indices 1 2 3 4 5 6 
#
# 1 0.012091 -0.001651 -0.007029 0.000000 0.000000 0.000000
# 2 -0.001651 0.023795 0.003965 0.000000 0.000000 0.000000
# 3 -0.007029 0.003965 0.016213 0.000000 0.000000 0.000000
# 4 0.000000 0.000000 0.000000 -0.004674 0.000000 0.000000
# 5 0.000000 0.000000 0.000000 0.000000 0.067010 0.000000
# 6 0.000000 0.000000 0.000000 0.000000 0.000000 -0.243290
#
#
# Mechanical properties :
#
#
# Convention : Reuss Voigt Hill
#
# Bulk Modulus (GPa) = 23.43728 34.80200 29.11964
# Shear Modulus (GPa) = -47.52793 -27.11800 -37.32296
#
# Velocity S-wave (km/s) = -4.99426 -3.77246 -4.42572
# Velocity P-wave (km/s) = 4.57787 0.84337 3.29152
#
# Compressibility (1/GPa) = 0.04266706
#
# Stress axis : x y z
#
# Youngs Moduli (GPa) = 82.70537 42.02602 61.67965
#
# Poissons Ratio (x) = 0.06940 0.43355
# Poissons Ratio (y) = 0.13658 -0.24453
# Poissons Ratio (z) = 0.58134 -0.16661
#
# Static dielectric constant tensor:
#      x y z
#    x 1.654020 0.000000 0.000000 
#    y 0.000000 1.725100 0.000000 
#    z 0.000000 0.000000 1.700900 
# 
# From -- ./inp_files/18981.got.cif
#   From: 2010.05.17/outbox.cif.g08.bks.cpg/sg51_10_cif.got.tgz:18981.got - 2010.06.03 11:52:47.
