data_PCOD9398113
_publ_section_title
;
Structure prediction by ZEFSAII (Michael W. Deem and Ramdas Pophale) SiO2 
 PCOD9398113
Probable space group: P B A N
;
_chemical_formula_sum "Si O2"
_cell_formula_units_Z 32
_cell_length_a 9.924803
_cell_length_b 10.101638
_cell_length_c 15.991590
_cell_angle_alpha 90.000000
_cell_angle_beta 90.000000
_cell_angle_gamma 90.000000
_cell_volume 1603.265115
_symmetry_space_group_name_H-M "P B A N"
_symmetry_group_IT_number 50
_space_group.IT_coordinate_system_code '2'
_symmetry_cell_setting 'orthorhombic'
loop_
_space_group_symop_operation_xyz
x,y,z
1/2-x,1/2-y,z
x,1/2-y,-z
1/2-x,y,-z
-x,-y,-z
1/2+x,1/2+y,-z
-x,1/2+y,z
1/2+x,-y,z
loop_
_atom_site_type_symbol
_atom_site_label
_atom_site_fract_x
_atom_site_fract_y
_atom_site_fract_z
Si Si1 0.460332 0.520512 0.691409
Si Si2 0.597057 0.277898 0.777564
Si Si3 0.901614 0.111617 0.964684
Si Si4 0.283592 0.404767 0.404118
O O1 0.516510 0.379381 0.720506
O O2 0.465316 0.630554 0.765683
O O3 0.312230 0.492384 0.655449
O O4 0.561760 0.571190 0.619964
O O5 0.750000 0.250000 0.751776
O O6 0.603378 0.354010 0.866429
O O7 0.953769 0.250000 0.000000
O O8 0.750000 0.089507 0.000000
O O9 0.000000 0.000000 0.000000
O O10 0.250000 0.250000 0.391254
O O11 0.250000 0.437006 0.500000
#
# Coordination Sequence:
#
# PCOD9398113 Si02
#       4
#     8   8   8   8
#     4  12  24  43  67 100 130 175 225 272 337 394
#     4  12  24  42  69  96 135 170 220 278 328 396
#     4  11  24  45  67  97 133 172 215 267 330 393
#     4  11  24  43  65  97 137 176 223 280 334 396
#
# _framework density 19.959268999999999
#
# number of rings (size 3 to 8) (size 9 to 14) (size 15 to 20)
#    0.000    0.500    7.500    2.250    0.000    0.500 
#    0.000    1.250    0.000    0.000    0.000    0.000 
#    0.000    0.000    0.000    0.000    0.000    0.000 
#
# Total GULP energy -178495.584419 kJ/mol
# GULP energy per Si atom -5577.987013 kJ/mol
# Density = 1.991384 g / cm^3
# Si number density = 19.959269 Si / 1000 Ang^3
#
#
#
# Elastic Constant Matrix: (Units=GPa)
#
#
# Indices 1 2 3 4 5 6 
#
# 1 73.2623 45.0435 15.4744 0.0000 0.0000 0.0000
# 2 45.0435 146.7579 28.0851 0.0000 0.0000 0.0000
# 3 15.4744 28.0851 70.7337 0.0000 0.0000 0.0000
# 4 0.0000 0.0000 0.0000 30.7074 0.0000 0.0000
# 5 0.0000 0.0000 0.0000 0.0000 19.9313 0.0000
# 6 0.0000 0.0000 0.0000 0.0000 0.0000 37.4048
#
#
#
# Elastic Compliance Matrix: (Units=1/GPa)
#
#
# Indices 1 2 3 4 5 6 
#
# 1 0.017030 -0.004885 -0.001786 0.000000 0.000000 0.000000
# 2 -0.004885 0.008776 -0.002416 0.000000 0.000000 0.000000
# 3 -0.001786 -0.002416 0.015487 0.000000 0.000000 0.000000
# 4 0.000000 0.000000 0.000000 0.032565 0.000000 0.000000
# 5 0.000000 0.000000 0.000000 0.000000 0.050172 0.000000
# 6 0.000000 0.000000 0.000000 0.000000 0.000000 0.026735
#
#
# Mechanical properties :
#
#
# Convention : Reuss Voigt Hill
#
# Bulk Modulus (GPa) = 43.25338 51.99554 47.62446
# Shear Modulus (GPa) = 28.30519 31.08543 29.69531
#
# Velocity S-wave (km/s) = 3.76992 3.95073 3.86138
# Velocity P-wave (km/s) = 6.37711 6.84970 6.61763
#
# Compressibility (1/GPa) = 0.02311958
#
# Stress axis : x y z
#
# Youngs Moduli (GPa) = 58.71857 113.95205 64.56863
#
# Poissons Ratio (x) = 0.55668 0.11532
# Poissons Ratio (y) = 0.28685 0.15598
# Poissons Ratio (z) = 0.10487 0.27527
#
# Static dielectric constant tensor:
#      x y z
#    x 1.686820 0.000000 0.000000 
#    y 0.000000 1.691170 0.000000 
#    z 0.000000 0.000000 1.845750 
# 
# From -- ./inp_files/24316.got.cif
#   From: 2010.05.17/outbox.cif.g08.bks.cpg/sg50_13_cif.got.tgz:24316.got - 2010.06.03 11:33:33.
