data_PCOD9398816
_publ_section_title
;
Structure prediction by ZEFSAII (Michael W. Deem and Ramdas Pophale) SiO2 
 PCOD9398816
Probable space group: P M M A
;
_chemical_formula_sum "Si O2"
_cell_formula_units_Z 64
_cell_length_a 30.880609
_cell_length_b 7.663015
_cell_length_c 14.666367
_cell_angle_alpha 90.000000
_cell_angle_beta 90.000000
_cell_angle_gamma 90.000000
_cell_volume 3470.628114
_symmetry_space_group_name_H-M "P M M A"
_symmetry_group_IT_number 51
_symmetry_cell_setting 'orthorhombic'
loop_
_space_group_symop_operation_xyz
x,y,z
1/2-x,-y,z
1/2+x,-y,-z
-x,y,-z
-x,-y,-z
1/2+x,y,-z
1/2-x,y,z
x,-y,z
loop_
_atom_site_type_symbol
_atom_site_label
_atom_site_fract_x
_atom_site_fract_y
_atom_site_fract_z
Si Si1 0.949604 0.714126 0.011990
Si Si2 0.638906 0.290913 0.658187
Si Si3 0.414261 0.710880 0.179320
Si Si4 0.941429 0.202566 0.530585
Si Si5 0.081862 0.698191 0.794799
Si Si6 0.504084 0.793678 0.693469
Si Si7 0.621942 0.206711 0.385150
Si Si8 0.201555 0.208843 0.494948
O O1 0.950360 0.500000 0.015375
O O2 0.928607 0.777973 0.106459
O O3 0.922132 0.769608 0.923752
O O4 0.000000 0.767221 0.000000
O O5 0.634522 0.500000 0.652949
O O6 0.628052 0.237337 0.761976
O O7 0.600420 0.210442 0.597308
O O8 0.682675 0.242111 0.606276
O O9 0.415266 0.500000 0.177359
O O10 0.455372 0.770562 0.238815
O O11 0.980068 0.273772 0.594183
O O12 0.920492 0.279366 0.438778
O O13 0.952157 0.000000 0.514458
O O14 0.095075 0.500000 0.810820
O O15 0.115996 0.772201 0.722364
O O16 0.036246 0.705239 0.741443
O O17 0.494224 0.000000 0.685394
O O18 0.665481 0.276487 0.433042
O O19 0.621365 0.000000 0.403592
O O20 0.250000 0.278879 0.506629
O O21 0.203573 0.000000 0.506928
#
# Coordination Sequence:
#
# PCOD9398816 Si02
#       8
#     8   8   8   8   8   8   8   8
#     4   9  16  29  47  62  83 122 166 199 228 268
#     4   9  16  25  44  73  98 116 142 187 230 263
#     4   9  16  29  46  64  89 122 157 191 231 274
#     4   8  16  30  45  59  84 124 158 182 220 276
#     4  11  21  31  44  62  87 121 160 197 233 270
#     4  10  18  28  43  63  86 117 158 198 232 263
#     4   9  18  33  48  64  89 116 148 188 224 265
#     4   9  18  34  55  74  94 123 150 170 211 283
#
# _framework density 18.440467000000002
#
# number of rings (size 3 to 8) (size 9 to 14) (size 15 to 20)
#    0.000    2.750    1.250    1.875    0.000    3.750 
#    0.000    4.375    0.000    0.000    0.000    0.875 
#    0.000    5.000    0.000    0.000    0.000    0.000 
#
# Total GULP energy -356574.643946 kJ/mol
# GULP energy per Si atom -5571.478812 kJ/mol
# Density = 1.839850 g / cm^3
# Si number density = 18.440467 Si / 1000 Ang^3
#
#
#
# Elastic Constant Matrix: (Units=GPa)
#
#
# Indices 1 2 3 4 5 6 
#
# 1 90.9757 6.2190 47.8525 0.0000 0.0000 0.0000
# 2 6.2190 33.9902 5.8811 0.0000 0.0000 0.0000
# 3 47.8525 5.8811 158.2846 0.0000 0.0000 0.0000
# 4 0.0000 0.0000 0.0000 14.0057 0.0000 0.0000
# 5 0.0000 0.0000 0.0000 0.0000 17.9262 0.0000
# 6 0.0000 0.0000 0.0000 0.0000 0.0000 14.3026
#
#
#
# Elastic Compliance Matrix: (Units=1/GPa)
#
#
# Indices 1 2 3 4 5 6 
#
# 1 0.013171 -0.001732 -0.003917 0.000000 0.000000 0.000000
# 2 -0.001732 0.029838 -0.000585 0.000000 0.000000 0.000000
# 3 -0.003917 -0.000585 0.007524 0.000000 0.000000 0.000000
# 4 0.000000 0.000000 0.000000 0.071399 0.000000 0.000000
# 5 0.000000 0.000000 0.000000 0.000000 0.055784 0.000000
# 6 0.000000 0.000000 0.000000 0.000000 0.000000 0.069917
#
#
# Mechanical properties :
#
#
# Convention : Reuss Voigt Hill
#
# Bulk Modulus (GPa) = 26.27147 44.79507 35.53327
# Shear Modulus (GPa) = 18.32907 24.13344 21.23125
#
# Velocity S-wave (km/s) = 3.15613 3.62155 3.39682
# Velocity P-wave (km/s) = 5.24968 6.46776 5.89029
#
# Compressibility (1/GPa) = 0.03806410
#
# Stress axis : x y z
#
# Youngs Moduli (GPa) = 75.92495 33.51387 132.91158
#
# Poissons Ratio (x) = 0.05805 0.52068
# Poissons Ratio (y) = 0.13150 0.07776
# Poissons Ratio (z) = 0.29743 0.01961
#
# Static dielectric constant tensor:
#      x y z
#    x 1.641520 0.000000 0.000000 
#    y 0.000000 1.709960 0.000000 
#    z 0.000000 0.000000 1.692110 
# 
# From -- ./inp_files/26660.got.cif
#   From: 2010.05.17/outbox.cif.g08.bks.cpg/sg51_14_cif.got.tgz:26660.got - 2010.06.03 11:52:47.
