data_PCOD9398921
_publ_section_title
;
Structure prediction by ZEFSAII (Michael W. Deem and Ramdas Pophale) SiO2 
 PCOD9398921
Probable space group: P M M A
;
_chemical_formula_sum "Si O2"
_cell_formula_units_Z 64
_cell_length_a 31.436657
_cell_length_b 13.846287
_cell_length_c 9.793286
_cell_angle_alpha 90.000000
_cell_angle_beta 90.000000
_cell_angle_gamma 90.000000
_cell_volume 4262.831080
_symmetry_space_group_name_H-M "P M M A"
_symmetry_group_IT_number 51
_symmetry_cell_setting 'orthorhombic'
loop_
_space_group_symop_operation_xyz
x,y,z
1/2-x,-y,z
1/2+x,-y,-z
-x,y,-z
-x,-y,-z
1/2+x,y,-z
1/2-x,y,z
x,-y,z
loop_
_atom_site_type_symbol
_atom_site_label
_atom_site_fract_x
_atom_site_fract_y
_atom_site_fract_z
Si Si1 0.461252 0.888100 0.807521
Si Si2 0.066391 0.307773 0.705180
Si Si3 0.106803 0.701437 0.193528
Si Si4 0.559591 0.888383 0.871672
Si Si5 0.136420 0.383668 0.918047
Si Si6 0.798045 0.383241 0.310975
Si Si7 0.486232 0.615046 0.150959
Si Si8 0.372074 0.383280 0.479327
O O1 0.437921 0.807748 0.717686
O O2 0.512273 0.870680 0.810649
O O3 0.454182 0.000000 0.768718
O O4 0.445825 0.876100 0.964555
O O5 0.096594 0.348536 0.826370
O O6 0.087667 0.345973 0.567323
O O7 0.019738 0.347992 0.738203
O O8 0.093859 0.813472 0.184028
O O9 0.061255 0.648071 0.180344
O O10 0.127616 0.666913 0.333251
O O11 0.133743 0.667350 0.063290
O O12 0.570279 0.000000 0.845803
O O13 0.133704 0.500000 0.932585
O O14 0.178179 0.358329 0.830160
O O15 0.750000 0.346249 0.322274
O O16 0.796232 0.500000 0.313368
O O17 0.830164 0.356816 0.432903
O O18 0.487984 0.500000 0.147844
O O19 0.500000 0.651762 0.000000
O O20 0.374198 0.500000 0.467609
#
# Coordination Sequence:
#
# PCOD9398921 Si02
#       8
#     8   8   8   8   8   8   8   8
#     4   9  16  29  48  67  85 120 177 224 251 273
#     4  11  18  31  45  64  93 130 173 202 236 277
#     4  12  20  31  45  68 101 128 164 204 244 276
#     4   9  17  30  47  66  89 124 169 215 255 280
#     4  10  18  28  48  72  95 121 157 204 239 278
#     4   8  16  34  55  71  92 126 158 186 236 300
#     4  11  19  26  42  63  89 131 174 204 228 274
#     4  10  22  34  46  69 103 135 159 195 241 287
#
# _framework density 15.013498
#
# number of rings (size 3 to 8) (size 9 to 14) (size 15 to 20)
#    0.000    2.000    3.750    3.750    0.000    0.500 
#    0.000    2.500    0.000    4.500    0.000    0.000 
#    0.000   19.000    0.000    0.000    0.000    0.000 
#
# Total GULP energy -356896.171443 kJ/mol
# GULP energy per Si atom -5576.502679 kJ/mol
# Density = 1.497933 g / cm^3
# Si number density = 15.013498 Si / 1000 Ang^3
#
#
#
# Elastic Constant Matrix: (Units=GPa)
#
#
# Indices 1 2 3 4 5 6 
#
# 1 76.8501 25.7265 39.7430 0.0000 0.0000 0.0000
# 2 25.7265 96.7978 33.6537 0.0000 0.0000 0.0000
# 3 39.7430 33.6537 96.3929 0.0000 0.0000 0.0000
# 4 0.0000 0.0000 0.0000 19.3177 0.0000 0.0000
# 5 0.0000 0.0000 0.0000 0.0000 9.7860 0.0000
# 6 0.0000 0.0000 0.0000 0.0000 0.0000 3.0220
#
#
#
# Elastic Compliance Matrix: (Units=1/GPa)
#
#
# Indices 1 2 3 4 5 6 
#
# 1 0.017003 -0.002369 -0.006183 0.000000 0.000000 0.000000
# 2 -0.002369 0.012088 -0.003243 0.000000 0.000000 0.000000
# 3 -0.006183 -0.003243 0.014056 0.000000 0.000000 0.000000
# 4 0.000000 0.000000 0.000000 0.051766 0.000000 0.000000
# 5 0.000000 0.000000 0.000000 0.000000 0.102187 0.000000
# 6 0.000000 0.000000 0.000000 0.000000 0.000000 0.330902
#
#
# Mechanical properties :
#
#
# Convention : Reuss Voigt Hill
#
# Bulk Modulus (GPa) = 51.13717 52.03193 51.58455
# Shear Modulus (GPa) = 8.95877 17.81966 13.38921
#
# Velocity S-wave (km/s) = 2.44542 3.44889 2.98956
# Velocity P-wave (km/s) = 6.48908 7.11279 6.80808
#
# Compressibility (1/GPa) = 0.01955525
#
# Stress axis : x y z
#
# Youngs Moduli (GPa) = 58.81256 82.72545 71.14413
#
# Poissons Ratio (x) = 0.19600 0.43990
# Poissons Ratio (y) = 0.13934 0.23075
# Poissons Ratio (z) = 0.36365 0.26832
#
# Static dielectric constant tensor:
#      x y z
#    x 1.483780 0.000000 0.000000 
#    y 0.000000 1.509620 0.000000 
#    z 0.000000 0.000000 1.511810 
# 
# From -- ./inp_files/13261.got.cif
#   From: 2010.05.17/outbox.cif.g08.bks.cpg/sg51_7_cif.got.tgz:13261.got - 2010.06.03 11:52:47.
