data_PCOD9398521
_publ_section_title
;
Structure prediction by ZEFSAII (Michael W. Deem and Ramdas Pophale) SiO2 
 PCOD9398521
Probable space group: P M M A
;
_chemical_formula_sum "Si O2"
_cell_formula_units_Z 52
_cell_length_a 13.674920
_cell_length_b 20.227161
_cell_length_c 11.596118
_cell_angle_alpha 90.000000
_cell_angle_beta 90.000000
_cell_angle_gamma 90.000000
_cell_volume 3207.541999
_symmetry_space_group_name_H-M "P M M A"
_symmetry_group_IT_number 51
_symmetry_cell_setting 'orthorhombic'
loop_
_space_group_symop_operation_xyz
x,y,z
1/2-x,-y,z
1/2+x,-y,-z
-x,y,-z
-x,-y,-z
1/2+x,y,-z
1/2-x,y,z
x,-y,z
loop_
_atom_site_type_symbol
_atom_site_label
_atom_site_fract_x
_atom_site_fract_y
_atom_site_fract_z
Si Si1 0.637743 0.297052 0.924718
Si Si2 0.860775 0.655717 0.189127
Si Si3 0.020044 0.834983 0.129411
Si Si4 0.135185 0.207422 0.691095
Si Si5 0.500000 0.144585 0.500000
Si Si6 0.635400 0.921468 0.690744
Si Si7 0.964613 0.426624 0.866470
O O1 0.750000 0.278978 0.905869
O O2 0.569718 0.237590 0.882473
O O3 0.611677 0.366407 0.863745
O O4 0.624608 0.311286 0.061705
O O5 0.750000 0.629982 0.190477
O O6 0.870401 0.714677 0.280214
O O7 0.940728 0.599036 0.202060
O O8 0.092515 0.882013 0.200068
O O9 0.920020 0.827974 0.202039
O O10 0.000000 0.858438 0.000000
O O11 0.250000 0.189746 0.682563
O O12 0.072130 0.187757 0.579950
O O13 0.430998 0.101352 0.416848
O O14 0.750000 0.905661 0.672551
O O15 0.626623 0.000000 0.707044
O O16 0.931105 0.500000 0.833465
O O17 0.000000 0.430199 0.000000
#
# Coordination Sequence:
#
# PCOD9398521 Si02
#       7
#     8   8   8   8   4   8   8
#     4  10  17  27  44  69 101 137 173 204 242 294
#     4   9  16  27  44  67  98 131 168 209 250 294
#     4  11  19  32  53  77 106 136 170 207 252 306
#     4  10  19  32  52  77 101 129 168 216 260 299
#     4  10  21  36  58  76  99 132 170 218 263 310
#     4  10  22  38  55  77 105 136 169 208 258 311
#     4   9  16  26  39  62 101 140 172 203 241 295
#
# _framework density 16.211791000000002
#
# number of rings (size 3 to 8) (size 9 to 14) (size 15 to 20)
#    0.000    2.154    3.077    1.615    0.000    1.538 
#    0.000    3.077    0.000    4.154    0.000    0.538 
#    0.000    0.000    0.000    0.000    0.000    0.000 
#
# Total GULP energy -289755.038929 kJ/mol
# GULP energy per Si atom -5572.212287 kJ/mol
# Density = 1.617489 g / cm^3
# Si number density = 16.211791 Si / 1000 Ang^3
#
#
#
# Elastic Constant Matrix: (Units=GPa)
#
#
# Indices 1 2 3 4 5 6 
#
# 1 120.0464 47.0530 45.5039 0.0000 0.0000 0.0000
# 2 47.0530 77.5671 36.0997 0.0000 0.0000 0.0000
# 3 45.5039 36.0997 77.2595 0.0000 0.0000 0.0000
# 4 0.0000 0.0000 0.0000 11.5921 0.0000 0.0000
# 5 0.0000 0.0000 0.0000 0.0000 18.9398 0.0000
# 6 0.0000 0.0000 0.0000 0.0000 0.0000 20.7540
#
#
#
# Elastic Compliance Matrix: (Units=1/GPa)
#
#
# Indices 1 2 3 4 5 6 
#
# 1 0.012153 -0.005164 -0.004745 0.000000 0.000000 0.000000
# 2 -0.005164 0.018669 -0.005682 0.000000 0.000000 0.000000
# 3 -0.004745 -0.005682 0.018393 0.000000 0.000000 0.000000
# 4 0.000000 0.000000 0.000000 0.086266 0.000000 0.000000
# 5 0.000000 0.000000 0.000000 0.000000 0.052799 0.000000
# 6 0.000000 0.000000 0.000000 0.000000 0.000000 0.048184
#
#
# Mechanical properties :
#
#
# Convention : Reuss Voigt Hill
#
# Bulk Modulus (GPa) = 55.45199 59.13179 57.29189
# Shear Modulus (GPa) = 18.27125 20.00492 19.13809
#
# Velocity S-wave (km/s) = 3.36078 3.51661 3.43957
# Velocity P-wave (km/s) = 7.02415 7.28302 7.15476
#
# Compressibility (1/GPa) = 0.01803362
#
# Stress axis : x y z
#
# Youngs Moduli (GPa) = 82.28705 53.56574 54.36910
#
# Poissons Ratio (x) = 0.27659 0.25797
# Poissons Ratio (y) = 0.42490 0.30891
# Poissons Ratio (z) = 0.39044 0.30435
#
# Static dielectric constant tensor:
#      x y z
#    x 1.558310 0.000000 0.000000 
#    y 0.000000 1.540160 0.000000 
#    z 0.000000 0.000000 1.537290 
# 
# From -- ./inp_files/16735.got.cif
#   From: 2010.05.17/outbox.cif.g08.bks.cpg/sg51_9_cif.got.tgz:16735.got - 2010.06.03 11:52:47.
