data_PCOD9398855
_publ_section_title
;
Structure prediction by ZEFSAII (Michael W. Deem and Ramdas Pophale) SiO2 
 PCOD9398855
Probable space group: P M M A
;
_chemical_formula_sum "Si O2"
_cell_formula_units_Z 48
_cell_length_a 24.741797
_cell_length_b 7.882147
_cell_length_c 14.197827
_cell_angle_alpha 90.000000
_cell_angle_beta 90.000000
_cell_angle_gamma 90.000000
_cell_volume 2768.838655
_symmetry_space_group_name_H-M "P M M A"
_symmetry_group_IT_number 51
_symmetry_cell_setting 'orthorhombic'
loop_
_space_group_symop_operation_xyz
x,y,z
1/2-x,-y,z
1/2+x,-y,-z
-x,y,-z
-x,-y,-z
1/2+x,y,-z
1/2-x,y,z
x,-y,z
loop_
_atom_site_type_symbol
_atom_site_label
_atom_site_fract_x
_atom_site_fract_y
_atom_site_fract_z
Si Si1 0.689333 0.207084 0.144588
Si Si2 0.689941 0.203921 0.361185
Si Si3 0.919816 0.198464 0.050461
Si Si4 0.969157 0.302345 0.859678
Si Si5 0.522462 0.707912 0.648705
Si Si6 0.582178 0.703056 0.463546
O O1 0.750000 0.262758 0.117304
O O2 0.679735 0.259674 0.253193
O O3 0.639073 0.262723 0.081040
O O4 0.690083 0.000000 0.142656
O O5 0.750000 0.264478 0.388775
O O6 0.641562 0.253742 0.429030
O O7 0.691483 0.000000 0.358792
O O8 0.968708 0.287224 0.105943
O O9 0.923188 0.000000 0.075387
O O10 0.933121 0.216781 0.940187
O O11 0.954313 0.500000 0.858884
O O12 0.965250 0.232683 0.753936
O O13 0.522103 0.500000 0.652291
O O14 0.564434 0.761848 0.567548
O O15 0.463469 0.762751 0.610776
O O16 0.577507 0.500000 0.465662
#
# Coordination Sequence:
#
# PCOD9398855 Si02
#       6
#     8   8   8   8   8   8
#     4   8  15  28  45  63  85 114 142 170 210 255
#     4   9  17  29  44  64  90 115 138 169 212 256
#     4  10  18  28  44  66  88 110 143 181 210 244
#     4  10  18  29  44  62  88 118 142 167 212 262
#     4   8  16  29  45  64  86 113 141 174 213 252
#     4   9  16  29  47  65  85 110 144 178 208 247
#
# _framework density 17.335787
#
# number of rings (size 3 to 8) (size 9 to 14) (size 15 to 20)
#    0.000    3.000    0.000    5.000    0.000    0.333 
#    0.000    5.000    0.000    5.000    0.000    4.667 
#    0.000    0.000    0.000    0.000    0.000    0.000 
#
# Total GULP energy -267463.139187 kJ/mol
# GULP energy per Si atom -5572.148733 kJ/mol
# Density = 1.729633 g / cm^3
# Si number density = 17.335787 Si / 1000 Ang^3
#
#
#
# Elastic Constant Matrix: (Units=GPa)
#
#
# Indices 1 2 3 4 5 6 
#
# 1 148.4326 -3.2537 80.9811 0.0000 0.0000 0.0000
# 2 -3.2537 14.9705 -4.7516 0.0000 0.0000 0.0000
# 3 80.9811 -4.7516 120.1266 0.0000 0.0000 0.0000
# 4 0.0000 0.0000 0.0000 13.9332 0.0000 0.0000
# 5 0.0000 0.0000 0.0000 0.0000 24.2131 0.0000
# 6 0.0000 0.0000 0.0000 0.0000 0.0000 21.6753
#
#
#
# Elastic Compliance Matrix: (Units=1/GPa)
#
#
# Indices 1 2 3 4 5 6 
#
# 1 0.010656 0.000036 -0.007182 0.000000 0.000000 0.000000
# 2 0.000036 0.067647 0.002651 0.000000 0.000000 0.000000
# 3 -0.007182 0.002651 0.013271 0.000000 0.000000 0.000000
# 4 0.000000 0.000000 0.000000 0.071771 0.000000 0.000000
# 5 0.000000 0.000000 0.000000 0.000000 0.041300 0.000000
# 6 0.000000 0.000000 0.000000 0.000000 0.000000 0.046135
#
#
# Mechanical properties :
#
#
# Convention : Reuss Voigt Hill
#
# Bulk Modulus (GPa) = 12.10868 47.72017 29.91442
# Shear Modulus (GPa) = 17.40344 26.00123 21.70234
#
# Velocity S-wave (km/s) = 3.17188 3.87700 3.54203
# Velocity P-wave (km/s) = 4.51823 6.90132 5.83278
#
# Compressibility (1/GPa) = 0.08258540
#
# Stress axis : x y z
#
# Youngs Moduli (GPa) = 93.84053 14.78257 75.35067
#
# Poissons Ratio (x) = -0.00054 0.54120
# Poissons Ratio (y) = -0.00341 -0.19977
# Poissons Ratio (z) = 0.67400 -0.03919
#
# Static dielectric constant tensor:
#      x y z
#    x 1.588480 0.000000 0.000000 
#    y 0.000000 1.626130 0.000000 
#    z 0.000000 0.000000 1.588650 
# 
# From -- ./inp_files/26038.got.cif
#   From: 2010.05.17/outbox.cif.g08.bks.cpg/sg51_14_cif.got.tgz:26038.got - 2010.06.03 11:52:47.
