data_PCOD9398753
_publ_section_title
;
Structure prediction by ZEFSAII (Michael W. Deem and Ramdas Pophale) SiO2 
 PCOD9398753
Probable space group: P M M A
;
_chemical_formula_sum "Si O2"
_cell_formula_units_Z 64
_cell_length_a 14.325152
_cell_length_b 8.406187
_cell_length_c 32.983906
_cell_angle_alpha 90.000000
_cell_angle_beta 90.000000
_cell_angle_gamma 90.000000
_cell_volume 3971.918877
_symmetry_space_group_name_H-M "P M M A"
_symmetry_group_IT_number 51
_symmetry_cell_setting 'orthorhombic'
loop_
_space_group_symop_operation_xyz
x,y,z
1/2-x,-y,z
1/2+x,-y,-z
-x,y,-z
-x,-y,-z
1/2+x,y,-z
1/2-x,y,z
x,-y,z
loop_
_atom_site_type_symbol
_atom_site_label
_atom_site_fract_x
_atom_site_fract_y
_atom_site_fract_z
Si Si1 0.532179 0.808677 0.895720
Si Si2 0.858579 0.804964 0.816578
Si Si3 0.643007 0.190347 0.480444
Si Si4 0.139581 0.190194 0.024351
Si Si5 0.539854 0.311339 0.560032
Si Si6 0.358871 0.806802 0.360696
Si Si7 0.636612 0.184252 0.728185
Si Si8 0.856695 0.689412 0.063891
O O1 0.578711 0.751396 0.854124
O O2 0.587586 0.750204 0.935614
O O3 0.425905 0.761329 0.903196
O O4 0.540086 0.000000 0.895587
O O5 0.750000 0.761245 0.823068
O O6 0.890281 0.746848 0.771975
O O7 0.860382 0.000000 0.815324
O O8 0.750000 0.245150 0.475054
O O9 0.604768 0.235007 0.525046
O O10 0.566337 0.260743 0.449773
O O11 0.641404 0.000000 0.476714
O O12 0.250000 0.219556 0.029278
O O13 0.125190 0.000000 0.021357
O O14 0.110691 0.262995 0.981389
O O15 0.547143 0.500000 0.556365
O O16 0.577115 0.255504 0.603379
O O17 0.250000 0.761546 0.367415
O O18 0.388840 0.747748 0.315787
O O19 0.361290 0.000000 0.360248
O O20 0.750000 0.182311 0.728555
O O21 0.605510 0.000000 0.728022
O O22 0.750000 0.747181 0.068038
O O23 0.857314 0.500000 0.066965
#
# Coordination Sequence:
#
# PCOD9398753 Si02
#       8
#     8   8   8   8   8   8   8   8
#     4  10  18  27  44  68  88 108 135 168 208 251
#     4   8  13  23  41  67  95 115 134 165 207 256
#     4  10  20  34  50  65  86 119 156 192 227 263
#     4   9  17  29  44  63  87 111 134 163 202 248
#     4  11  21  30  44  67  94 122 151 186 226 266
#     4   9  16  27  44  65  90 121 155 186 214 250
#     4   7  11  21  39  63  89 116 143 172 208 249
#     4  10  21  34  44  55  76 109 146 180 211 242
#
# _framework density 16.113119000000001
#
# number of rings (size 3 to 8) (size 9 to 14) (size 15 to 20)
#    0.000    2.750    0.000    5.250    0.000    7.000 
#    0.000    0.000    0.000    1.875    0.000    2.625 
#    0.000    3.000    0.000    0.000    0.000    0.000 
#
# Total GULP energy -356599.459185 kJ/mol
# GULP energy per Si atom -5571.866550 kJ/mol
# Density = 1.607645 g / cm^3
# Si number density = 16.113119 Si / 1000 Ang^3
#
#
#
# Elastic Constant Matrix: (Units=GPa)
#
#
# Indices 1 2 3 4 5 6 
#
# 1 77.2437 3.9715 64.2970 0.0000 0.0000 0.0000
# 2 3.9715 7.5419 8.4097 0.0000 0.0000 0.0000
# 3 64.2970 8.4097 145.7315 0.0000 0.0000 0.0000
# 4 0.0000 0.0000 0.0000 -21.8867 0.0000 0.0000
# 5 0.0000 0.0000 0.0000 0.0000 25.4920 0.0000
# 6 0.0000 0.0000 0.0000 0.0000 0.0000 -1.6589
#
#
#
# Elastic Compliance Matrix: (Units=1/GPa)
#
#
# Indices 1 2 3 4 5 6 
#
# 1 0.020464 -0.000757 -0.008985 0.000000 0.000000 0.000000
# 2 -0.000757 0.141739 -0.007845 0.000000 0.000000 0.000000
# 3 -0.008985 -0.007845 0.011279 0.000000 0.000000 0.000000
# 4 0.000000 0.000000 0.000000 -0.045690 0.000000 0.000000
# 5 0.000000 0.000000 0.000000 0.000000 0.039228 0.000000
# 6 0.000000 0.000000 0.000000 0.000000 0.000000 -0.602823
#
#
# Mechanical properties :
#
#
# Convention : Reuss Voigt Hill
#
# Bulk Modulus (GPa) = 7.23031 42.65261 24.94146
# Shear Modulus (GPa) = -14.10335 10.64522 -1.72907
#
# Velocity S-wave (km/s) = -2.96171 2.57311 -1.03702
# Velocity P-wave (km/s) = 2.68303 5.94610 3.75216
#
# Compressibility (1/GPa) = 0.13830666
#
# Stress axis : x y z
#
# Youngs Moduli (GPa) = 48.86605 7.05524 88.66119
#
# Poissons Ratio (x) = 0.00534 0.79663
# Poissons Ratio (y) = 0.03700 0.69556
# Poissons Ratio (z) = 0.43907 0.05535
#
# Static dielectric constant tensor:
#      x y z
#    x 1.536110 0.000000 0.000000 
#    y 0.000000 1.546550 0.000000 
#    z 0.000000 0.000000 1.557330 
# 
# From -- ./inp_files/37840.got.cif
#   From: 2010.05.17/outbox.cif.g08.bks.cpg/sg51_19_cif.got.tgz:37840.got - 2010.06.03 11:52:47.
