data_PCOD9398053
_publ_section_title
;
Structure prediction by ZEFSAII (Michael W. Deem and Ramdas Pophale) SiO2 
 PCOD9398053
Probable space group: P B A N
;
_chemical_formula_sum "Si O2"
_cell_formula_units_Z 32
_cell_length_a 8.801922
_cell_length_b 12.076176
_cell_length_c 11.915227
_cell_angle_alpha 90.000000
_cell_angle_beta 90.000000
_cell_angle_gamma 90.000000
_cell_volume 1266.511887
_symmetry_space_group_name_H-M "P B A N"
_symmetry_group_IT_number 50
_space_group.IT_coordinate_system_code '2'
_symmetry_cell_setting 'orthorhombic'
loop_
_space_group_symop_operation_xyz
x,y,z
1/2-x,1/2-y,z
x,1/2-y,-z
1/2-x,y,-z
-x,-y,-z
1/2+x,1/2+y,-z
-x,1/2+y,z
1/2+x,-y,z
loop_
_atom_site_type_symbol
_atom_site_label
_atom_site_fract_x
_atom_site_fract_y
_atom_site_fract_z
Si Si1 0.426382 0.727480 0.229184
Si Si2 0.101589 0.024843 0.686199
Si Si3 0.105250 0.349519 0.592389
Si Si4 0.602349 0.415054 0.073543
O O1 0.250000 0.750000 0.262008
O O2 0.466440 0.603462 0.266720
O O3 0.562694 0.786121 0.294978
O O4 0.447572 0.791159 0.111134
O O5 0.237478 0.086851 0.620359
O O6 0.031583 0.938080 0.597304
O O7 0.145372 0.969116 0.805209
O O8 0.094878 0.250000 0.500000
O O9 0.750000 0.401570 0.000000
O O10 0.500000 0.500000 0.000000
#
# Coordination Sequence:
#
# PCOD9398053 Si02
#       4
#     8   8   8   8
#     4  11  24  45  73 109 152 200 262 329 394 480
#     4  11  24  48  76 113 159 199 263 334 392 484
#     4  11  26  50  80 111 151 206 263 330 406 474
#     4  11  23  42  72 110 152 204 258 319 401 480
#
# _framework density 25.266244
#
# number of rings (size 3 to 8) (size 9 to 14) (size 15 to 20)
#    0.000    1.000    0.000    8.250    0.000    7.000 
#    0.000   12.500    0.000    4.500    0.000    0.000 
#    0.000    0.000    0.000    0.000    0.000    0.000 
#
# Total GULP energy -178182.537882 kJ/mol
# GULP energy per Si atom -5568.204309 kJ/mol
# Density = 2.520874 g / cm^3
# Si number density = 25.266244 Si / 1000 Ang^3
#
#
#
# Elastic Constant Matrix: (Units=GPa)
#
#
# Indices 1 2 3 4 5 6 
#
# 1 160.1949 86.8155 74.3548 0.0000 0.0000 0.0000
# 2 86.8155 138.4434 81.2466 0.0000 0.0000 0.0000
# 3 74.3548 81.2466 214.3624 0.0000 0.0000 0.0000
# 4 0.0000 0.0000 0.0000 73.0632 0.0000 0.0000
# 5 0.0000 0.0000 0.0000 0.0000 25.0991 0.0000
# 6 0.0000 0.0000 0.0000 0.0000 0.0000 67.9250
#
#
#
# Elastic Compliance Matrix: (Units=1/GPa)
#
#
# Indices 1 2 3 4 5 6 
#
# 1 0.009759 -0.005316 -0.001370 0.000000 0.000000 0.000000
# 2 -0.005316 0.012185 -0.002774 0.000000 0.000000 0.000000
# 3 -0.001370 -0.002774 0.006192 0.000000 0.000000 0.000000
# 4 0.000000 0.000000 0.000000 0.013687 0.000000 0.000000
# 5 0.000000 0.000000 0.000000 0.000000 0.039842 0.000000
# 6 0.000000 0.000000 0.000000 0.000000 0.000000 0.014722
#
#
# Mechanical properties :
#
#
# Convention : Reuss Voigt Hill
#
# Bulk Modulus (GPa) = 108.51940 110.87048 109.69494
# Shear Modulus (GPa) = 42.23718 51.25639 46.74678
#
# Velocity S-wave (km/s) = 4.09306 4.50894 4.30602
# Velocity P-wave (km/s) = 8.08586 8.43110 8.26029
#
# Compressibility (1/GPa) = 0.00921494
#
# Stress axis : x y z
#
# Youngs Moduli (GPa) = 102.46759 82.07060 161.50174
#
# Poissons Ratio (x) = 0.43625 0.22133
# Poissons Ratio (y) = 0.54467 0.44807
# Poissons Ratio (z) = 0.14043 0.22769
#
# Static dielectric constant tensor:
#      x y z
#    x 1.750300 0.000000 0.000000 
#    y 0.000000 2.343750 0.000000 
#    z 0.000000 0.000000 2.251030 
# 
# From -- ./inp_files/18374.got.cif
#   From: 2010.05.17/outbox.cif.g08.bks.cpg/sg50_10_cif.got.tgz:18374.got - 2010.06.03 11:33:33.
