data_PCOD9398580
_publ_section_title
;
Structure prediction by ZEFSAII (Michael W. Deem and Ramdas Pophale) SiO2 
 PCOD9398580
Probable space group: P M M A
;
_chemical_formula_sum "Si O2"
_cell_formula_units_Z 64
_cell_length_a 22.296319
_cell_length_b 9.316579
_cell_length_c 19.703550
_cell_angle_alpha 90.000000
_cell_angle_beta 90.000000
_cell_angle_gamma 90.000000
_cell_volume 4092.928147
_symmetry_space_group_name_H-M "P M M A"
_symmetry_group_IT_number 51
_symmetry_cell_setting 'orthorhombic'
loop_
_space_group_symop_operation_xyz
x,y,z
1/2-x,-y,z
1/2+x,-y,-z
-x,y,-z
-x,-y,-z
1/2+x,y,-z
1/2-x,y,z
x,-y,z
loop_
_atom_site_type_symbol
_atom_site_label
_atom_site_fract_x
_atom_site_fract_y
_atom_site_fract_z
Si Si1 0.434613 0.835403 0.463474
Si Si2 0.317364 0.325666 0.973654
Si Si3 0.441071 0.675442 0.044265
Si Si4 0.131902 0.328507 0.827934
Si Si5 0.179089 0.838041 0.697948
Si Si6 0.113509 0.668068 0.587463
Si Si7 0.007018 0.673070 0.183919
Si Si8 0.016153 0.329957 0.339303
O O1 0.500000 0.837064 0.500000
O O2 0.395342 0.741370 0.514728
O O3 0.443263 0.760355 0.390886
O O4 0.414439 0.000000 0.457850
O O5 0.250000 0.276472 0.993104
O O6 0.316978 0.500000 0.978203
O O7 0.330954 0.290694 0.895033
O O8 0.376544 0.277208 0.014980
O O9 0.440895 0.500000 0.042450
O O10 0.451253 0.722281 0.122121
O O11 0.500000 0.717950 0.000000
O O12 0.137766 0.500000 0.816507
O O13 0.153236 0.244211 0.762522
O O14 0.061516 0.297291 0.837510
O O15 0.250000 0.844360 0.705480
O O16 0.162190 0.751094 0.631039
O O17 0.154625 0.000000 0.693749
O O18 0.126027 0.500000 0.580825
O O19 0.051549 0.682096 0.631052
O O20 0.012019 0.500000 0.186879
O O21 0.018160 0.721599 0.261217
O O22 0.031241 0.500000 0.342047
#
# Coordination Sequence:
#
# PCOD9398580 Si02
#       8
#     8   8   8   8   8   8   8   8
#     4   9  17  28  43  65  91 117 145 177 222 275
#     4   9  16  24  38  63  91 118 152 196 241 283
#     4   9  14  22  37  58  89 121 151 190 240 289
#     4  10  17  29  46  64  87 118 157 197 234 274
#     4  11  23  34  43  61  92 127 160 191 227 276
#     4  10  18  30  48  66  87 117 152 192 229 265
#     4   9  15  24  40  63  88 117 152 191 235 283
#     4   9  16  27  42  63  89 114 149 188 227 275
#
# _framework density 15.636727
#
# number of rings (size 3 to 8) (size 9 to 14) (size 15 to 20)
#    0.000    2.500    2.500    1.500    0.000    3.500 
#    0.000    0.000    0.000    0.000    0.000    3.500 
#    0.000    3.000    0.000    0.000    0.000    0.000 
#
# Total GULP energy -356432.548791 kJ/mol
# GULP energy per Si atom -5569.258575 kJ/mol
# Density = 1.560114 g / cm^3
# Si number density = 15.636727 Si / 1000 Ang^3
#
#
#
# Elastic Constant Matrix: (Units=GPa)
#
#
# Indices 1 2 3 4 5 6 
#
# 1 67.6241 19.9319 40.8932 0.0000 0.0000 0.0000
# 2 19.9319 42.5915 23.5130 0.0000 0.0000 0.0000
# 3 40.8932 23.5130 97.1089 0.0000 0.0000 0.0000
# 4 0.0000 0.0000 0.0000 -13.3870 0.0000 0.0000
# 5 0.0000 0.0000 0.0000 0.0000 17.4235 0.0000
# 6 0.0000 0.0000 0.0000 0.0000 0.0000 10.5012
#
#
#
# Elastic Compliance Matrix: (Units=1/GPa)
#
#
# Indices 1 2 3 4 5 6 
#
# 1 0.020974 -0.005702 -0.007452 0.000000 0.000000 0.000000
# 2 -0.005702 0.028651 -0.004536 0.000000 0.000000 0.000000
# 3 -0.007452 -0.004536 0.014534 0.000000 0.000000 0.000000
# 4 0.000000 0.000000 0.000000 -0.074699 0.000000 0.000000
# 5 0.000000 0.000000 0.000000 0.000000 0.057394 0.000000
# 6 0.000000 0.000000 0.000000 0.000000 0.000000 0.095227
#
#
# Mechanical properties :
#
#
# Convention : Reuss Voigt Hill
#
# Bulk Modulus (GPa) = 34.74623 41.77788 38.26205
# Shear Modulus (GPa) = 26.73011 11.10664 18.91837
#
# Velocity S-wave (km/s) = 4.13903 2.66802 3.48209
# Velocity P-wave (km/s) = 6.71649 6.02220 6.37880
#
# Compressibility (1/GPa) = 0.02878010
#
# Stress axis : x y z
#
# Youngs Moduli (GPa) = 47.67705 34.90220 68.80340
#
# Poissons Ratio (x) = 0.19900 0.51272
# Poissons Ratio (y) = 0.27184 0.31212
# Poissons Ratio (z) = 0.35529 0.15833
#
# Static dielectric constant tensor:
#      x y z
#    x 1.522840 0.000000 0.000000 
#    y 0.000000 1.517520 0.000000 
#    z 0.000000 0.000000 1.534730 
# 
# From -- ./inp_files/34101.got.cif
#   From: 2010.05.17/outbox.cif.g08.bks.cpg/sg51_18_cif.got.tgz:34101.got - 2010.06.03 11:52:47.
