data_PCOD9398114
_publ_section_title
;
Structure prediction by ZEFSAII (Michael W. Deem and Ramdas Pophale) SiO2 
 PCOD9398114
Probable space group: P B A N
;
_chemical_formula_sum "Si O2"
_cell_formula_units_Z 40
_cell_length_a 9.182800
_cell_length_b 9.812493
_cell_length_c 20.024370
_cell_angle_alpha 90.000000
_cell_angle_beta 90.000000
_cell_angle_gamma 90.000000
_cell_volume 1804.319102
_symmetry_space_group_name_H-M "P B A N"
_symmetry_group_IT_number 50
_space_group.IT_coordinate_system_code '2'
_symmetry_cell_setting 'orthorhombic'
loop_
_space_group_symop_operation_xyz
x,y,z
1/2-x,1/2-y,z
x,1/2-y,-z
1/2-x,y,-z
-x,-y,-z
1/2+x,1/2+y,-z
-x,1/2+y,z
1/2+x,-y,z
loop_
_atom_site_type_symbol
_atom_site_label
_atom_site_fract_x
_atom_site_fract_y
_atom_site_fract_z
Si Si1 0.793174 0.408268 0.257060
Si Si2 0.133995 0.155196 0.067003
Si Si3 0.424366 0.717597 0.576838
Si Si4 0.438414 0.049282 0.339289
Si Si5 0.305684 0.600953 0.894777
O O1 0.750000 0.250000 0.272020
O O2 0.714983 0.510345 0.308096
O O3 0.742317 0.426906 0.181514
O O4 0.959591 0.440459 0.273385
O O5 0.250000 0.250000 0.107157
O O6 0.979125 0.112290 0.096501
O O7 0.223569 0.015034 0.064237
O O8 0.106530 0.250000 0.000000
O O9 0.250000 0.750000 0.583715
O O10 0.459207 0.750000 0.500000
O O11 0.459235 0.567798 0.604621
O O12 0.523092 0.813809 0.622671
O O13 0.250000 0.750000 0.913816
#
# Coordination Sequence:
#
# PCOD9398114 Si02
#       5
#     8   8   8   8   8
#     4  11  24  44  68  98 142 175 232 287 350 413
#     4  11  26  47  73 109 143 182 235 287 353 425
#     4  11  24  43  65  98 142 183 232 292 347 415
#     4  12  20  45  66  98 133 188 227 288 351 408
#     4  11  25  47  73 105 142 191 235 293 359 429
#
# _framework density 22.169025999999999
#
# number of rings (size 3 to 8) (size 9 to 14) (size 15 to 20)
#    0.000    0.800    4.000    3.000    0.000   10.000 
#    3.600    2.000    0.000    0.000    0.000    0.000 
#    0.000    0.000    0.000    0.000    0.000    0.000 
#
# Total GULP energy -223066.493624 kJ/mol
# GULP energy per Si atom -5576.662341 kJ/mol
# Density = 2.211857 g / cm^3
# Si number density = 22.169026 Si / 1000 Ang^3
#
#
#
# Elastic Constant Matrix: (Units=GPa)
#
#
# Indices 1 2 3 4 5 6 
#
# 1 90.2539 8.8956 4.6806 0.0000 0.0000 0.0000
# 2 8.8956 79.2042 0.0658 0.0000 0.0000 0.0000
# 3 4.6806 0.0658 120.8749 0.0000 0.0000 0.0000
# 4 0.0000 0.0000 0.0000 27.4908 0.0000 0.0000
# 5 0.0000 0.0000 0.0000 0.0000 73.2495 0.0000
# 6 0.0000 0.0000 0.0000 0.0000 0.0000 42.0588
#
#
#
# Elastic Compliance Matrix: (Units=1/GPa)
#
#
# Indices 1 2 3 4 5 6 
#
# 1 0.011227 -0.001261 -0.000434 0.000000 0.000000 0.000000
# 2 -0.001261 0.012767 0.000042 0.000000 0.000000 0.000000
# 3 -0.000434 0.000042 0.008290 0.000000 0.000000 0.000000
# 4 0.000000 0.000000 0.000000 0.036376 0.000000 0.000000
# 5 0.000000 0.000000 0.000000 0.000000 0.013652 0.000000
# 6 0.000000 0.000000 0.000000 0.000000 0.000000 0.023776
#
#
# Mechanical properties :
#
#
# Convention : Reuss Voigt Hill
#
# Bulk Modulus (GPa) = 34.50875 35.29075 34.89975
# Shear Modulus (GPa) = 41.99834 47.00589 44.50212
#
# Velocity S-wave (km/s) = 4.35726 4.60971 4.48526
# Velocity P-wave (km/s) = 6.39643 6.65478 6.52688
#
# Compressibility (1/GPa) = 0.02897816
#
# Stress axis : x y z
#
# Youngs Moduli (GPa) = 89.07415 78.32610 120.63014
#
# Poissons Ratio (x) = 0.09873 0.05236
# Poissons Ratio (y) = 0.11228 -0.00505
# Poissons Ratio (z) = 0.03866 -0.00328
#
# Static dielectric constant tensor:
#      x y z
#    x 1.824180 0.000000 0.000000 
#    y 0.000000 2.006460 0.000000 
#    z 0.000000 0.000000 1.870490 
# 
# From -- ./inp_files/31568.got.cif
#   From: 2010.05.17/outbox.cif.g08.bks.cpg/sg50_16_cif.got.tgz:31568.got - 2010.06.03 11:33:33.
