data_PCOD9398094
_publ_section_title
;
Structure prediction by ZEFSAII (Michael W. Deem and Ramdas Pophale) SiO2 
 PCOD9398094
Probable space group: P B A N
;
_chemical_formula_sum "Si O2"
_cell_formula_units_Z 40
_cell_length_a 9.671986
_cell_length_b 9.387338
_cell_length_c 20.362587
_cell_angle_alpha 90.000000
_cell_angle_beta 90.000000
_cell_angle_gamma 90.000000
_cell_volume 1848.804831
_symmetry_space_group_name_H-M "P B A N"
_symmetry_group_IT_number 50
_space_group.IT_coordinate_system_code '2'
_symmetry_cell_setting 'orthorhombic'
loop_
_space_group_symop_operation_xyz
x,y,z
1/2-x,1/2-y,z
x,1/2-y,-z
1/2-x,y,-z
-x,-y,-z
1/2+x,1/2+y,-z
-x,1/2+y,z
1/2+x,-y,z
loop_
_atom_site_type_symbol
_atom_site_label
_atom_site_fract_x
_atom_site_fract_y
_atom_site_fract_z
Si Si1 0.248381 0.420287 0.736880
Si Si2 0.501449 0.036822 0.344226
Si Si3 0.412260 0.711475 0.572902
Si Si4 0.907456 0.394881 0.956497
Si Si5 0.816619 0.593297 0.114397
O O1 0.250000 0.250000 0.733093
O O2 0.398298 0.475361 0.716679
O O3 0.206004 0.455748 0.810913
O O4 0.146686 0.482291 0.682271
O O5 0.515877 0.195631 0.370745
O O6 0.444072 0.948000 0.405754
O O7 0.250000 0.750000 0.574786
O O8 0.462065 0.750000 0.500000
O O9 0.769986 0.476630 0.929477
O O10 0.020015 0.378620 0.897858
O O11 0.892300 0.250000 0.000000
O O12 0.000000 0.500000 0.000000
O O13 0.750000 0.750000 0.102756
#
# Coordination Sequence:
#
# PCOD9398094 Si02
#       5
#     8   8   8   8   8
#     4  11  24  42  70  97 138 173 225 278 333 397
#     4  12  22  44  66 100 128 182 223 273 339 397
#     4  11  24  41  64  97 137 175 223 282 334 397
#     4  12  25  46  73 101 135 178 221 273 340 407
#     4  11  25  47  68 104 137 177 224 280 334 400
#
# _framework density 21.635597000000001
#
# number of rings (size 3 to 8) (size 9 to 14) (size 15 to 20)
#    0.000    0.600    6.000    2.400    0.000    1.600 
#    0.000    3.000    0.000    0.000    0.000    0.000 
#    0.000    0.000    0.000    0.000    0.000    0.000 
#
# Total GULP energy -223323.909769 kJ/mol
# GULP energy per Si atom -5583.097744 kJ/mol
# Density = 2.158635 g / cm^3
# Si number density = 21.635597 Si / 1000 Ang^3
#
#
#
# Elastic Constant Matrix: (Units=GPa)
#
#
# Indices 1 2 3 4 5 6 
#
# 1 98.1115 10.6552 15.8302 0.0000 0.0000 0.0000
# 2 10.6552 72.3909 10.0756 0.0000 0.0000 0.0000
# 3 15.8302 10.0756 101.5866 0.0000 0.0000 0.0000
# 4 0.0000 0.0000 0.0000 72.2793 0.0000 0.0000
# 5 0.0000 0.0000 0.0000 0.0000 13.3638 0.0000
# 6 0.0000 0.0000 0.0000 0.0000 0.0000 25.7711
#
#
#
# Elastic Compliance Matrix: (Units=1/GPa)
#
#
# Indices 1 2 3 4 5 6 
#
# 1 0.010583 -0.001347 -0.001516 0.000000 0.000000 0.000000
# 2 -0.001347 0.014179 -0.001196 0.000000 0.000000 0.000000
# 3 -0.001516 -0.001196 0.010199 0.000000 0.000000 0.000000
# 4 0.000000 0.000000 0.000000 0.013835 0.000000 0.000000
# 5 0.000000 0.000000 0.000000 0.000000 0.074829 0.000000
# 6 0.000000 0.000000 0.000000 0.000000 0.000000 0.038803
#
#
# Mechanical properties :
#
#
# Convention : Reuss Voigt Hill
#
# Bulk Modulus (GPa) = 37.25371 38.35678 37.80524
# Shear Modulus (GPa) = 27.85622 37.98471 32.92046
#
# Velocity S-wave (km/s) = 3.59209 4.19460 3.90499
# Velocity P-wave (km/s) = 5.87029 6.42080 6.15170
#
# Compressibility (1/GPa) = 0.02684297
#
# Stress axis : x y z
#
# Youngs Moduli (GPa) = 94.48858 70.52862 98.05211
#
# Poissons Ratio (x) = 0.09499 0.14861
# Poissons Ratio (y) = 0.12726 0.11731
# Poissons Ratio (z) = 0.14321 0.08438
#
# Static dielectric constant tensor:
#      x y z
#    x 1.830160 0.000000 0.000000 
#    y 0.000000 1.807110 0.000000 
#    z 0.000000 0.000000 1.815900 
# 
# From -- ./inp_files/31561.got.cif
#   From: 2010.05.17/outbox.cif.g08.bks.cpg/sg50_16_cif.got.tgz:31561.got - 2010.06.03 11:33:33.
