data_PCOD9398996
_publ_section_title
;
Structure prediction by ZEFSAII (Michael W. Deem and Ramdas Pophale) SiO2 
 PCOD9398996
Probable space group: P M M A
;
_chemical_formula_sum "Si O2"
_cell_formula_units_Z 64
_cell_length_a 9.476989
_cell_length_b 18.702039
_cell_length_c 23.056247
_cell_angle_alpha 90.000000
_cell_angle_beta 90.000000
_cell_angle_gamma 90.000000
_cell_volume 4086.466574
_symmetry_space_group_name_H-M "P M M A"
_symmetry_group_IT_number 51
_symmetry_cell_setting 'orthorhombic'
loop_
_space_group_symop_operation_xyz
x,y,z
1/2-x,-y,z
1/2+x,-y,-z
-x,y,-z
-x,-y,-z
1/2+x,y,-z
1/2-x,y,z
x,-y,z
loop_
_atom_site_type_symbol
_atom_site_label
_atom_site_fract_x
_atom_site_fract_y
_atom_site_fract_z
Si Si1 0.910871 0.716387 0.944909
Si Si2 0.093644 0.419746 0.239275
Si Si3 0.583343 0.917291 0.176078
Si Si4 0.910243 0.330381 0.164109
Si Si5 0.420448 0.418474 0.438868
Si Si6 0.412411 0.305178 0.342676
Si Si7 0.412836 0.206877 0.737635
Si Si8 0.913701 0.110840 0.942701
O O1 0.750000 0.691919 0.947546
O O2 0.910686 0.802835 0.945016
O O3 0.988223 0.691731 0.887335
O O4 0.000000 0.691875 0.000000
O O5 0.250000 0.412140 0.212023
O O6 0.080707 0.500000 0.261356
O O7 0.088289 0.363964 0.291417
O O8 0.972165 0.400264 0.194616
O O9 0.750000 0.900702 0.164034
O O10 0.536506 0.863677 0.227525
O O11 0.494394 0.908422 0.116850
O O12 0.574153 0.000000 0.194043
O O13 0.750000 0.337973 0.144293
O O14 0.914645 0.268225 0.212782
O O15 0.500000 0.412522 0.500000
O O16 0.750000 0.414228 0.554458
O O17 0.449664 0.500000 0.416367
O O18 0.463791 0.352549 0.397278
O O19 0.250000 0.283354 0.353227
O O20 0.500219 0.238785 0.316562
O O21 0.250000 0.195315 0.720303
O O22 0.750000 0.086537 0.943165
O O23 0.000000 0.086599 0.000000
#
# Coordination Sequence:
#
# PCOD9398996 Si02
#       8
#     8   8   8   8   8   8   8   8
#     4  10  19  30  46  66  85 108 140 179 222 270
#     4   9  17  29  45  65  89 117 149 184 221 263
#     4  10  20  34  50  66  90 123 154 188 233 284
#     4  10  18  29  46  65  87 112 140 181 225 268
#     4   9  17  29  45  68 100 136 170 199 227 263
#     4   9  17  29  47  68  92 125 161 194 226 261
#     4   9  18  31  46  66  90 116 151 191 230 270
#     4  10  20  32  48  67  89 116 149 188 229 279
#
# _framework density 15.661451
#
# number of rings (size 3 to 8) (size 9 to 14) (size 15 to 20)
#    0.000    2.500    1.250    1.500    0.000    4.750 
#    0.000    0.000    0.000    2.625    0.000    0.000 
#    0.000    0.500    0.000    1.125    0.000    1.750 
#
# Total GULP energy -356405.366137 kJ/mol
# GULP energy per Si atom -5568.833846 kJ/mol
# Density = 1.562581 g / cm^3
# Si number density = 15.661451 Si / 1000 Ang^3
#
#
#
# Elastic Constant Matrix: (Units=GPa)
#
#
# Indices 1 2 3 4 5 6 
#
# 1 82.3313 29.3193 41.7223 0.0000 0.0000 0.0000
# 2 29.3193 57.7955 31.4578 0.0000 0.0000 0.0000
# 3 41.7223 31.4578 70.3028 0.0000 0.0000 0.0000
# 4 0.0000 0.0000 0.0000 13.0506 0.0000 0.0000
# 5 0.0000 0.0000 0.0000 0.0000 25.0447 0.0000
# 6 0.0000 0.0000 0.0000 0.0000 0.0000 15.3536
#
#
#
# Elastic Compliance Matrix: (Units=1/GPa)
#
#
# Indices 1 2 3 4 5 6 
#
# 1 0.018190 -0.004431 -0.008812 0.000000 0.000000 0.000000
# 2 -0.004431 0.023953 -0.008088 0.000000 0.000000 0.000000
# 3 -0.008812 -0.008088 0.023073 0.000000 0.000000 0.000000
# 4 0.000000 0.000000 0.000000 0.076625 0.000000 0.000000
# 5 0.000000 0.000000 0.000000 0.000000 0.039929 0.000000
# 6 0.000000 0.000000 0.000000 0.000000 0.000000 0.065132
#
#
# Mechanical properties :
#
#
# Convention : Reuss Voigt Hill
#
# Bulk Modulus (GPa) = 44.34111 46.15871 45.24991
# Shear Modulus (GPa) = 16.83046 17.88514 17.35780
#
# Velocity S-wave (km/s) = 3.28173 3.38299 3.33275
# Velocity P-wave (km/s) = 6.53708 6.69301 6.61550
#
# Compressibility (1/GPa) = 0.02255244
#
# Stress axis : x y z
#
# Youngs Moduli (GPa) = 54.97619 41.74916 43.34059
#
# Poissons Ratio (x) = 0.18499 0.38193
# Poissons Ratio (y) = 0.24360 0.35055
# Poissons Ratio (z) = 0.48446 0.33767
#
# Static dielectric constant tensor:
#      x y z
#    x 1.544090 0.000000 0.000000 
#    y 0.000000 1.528800 0.000000 
#    z 0.000000 0.000000 1.507120 
# 
# From -- ./inp_files/32586.got.cif
#   From: 2010.05.17/outbox.cif.g08.bks.cpg/sg51_17_cif.got.tgz:32586.got - 2010.06.03 11:52:47.
