data_PCOD9398926
_publ_section_title
;
Structure prediction by ZEFSAII (Michael W. Deem and Ramdas Pophale) SiO2 
 PCOD9398926
Probable space group: P M M A
;
_chemical_formula_sum "Si O2"
_cell_formula_units_Z 48
_cell_length_a 15.793548
_cell_length_b 9.097971
_cell_length_c 19.565553
_cell_angle_alpha 90.000000
_cell_angle_beta 90.000000
_cell_angle_gamma 90.000000
_cell_volume 2811.359474
_symmetry_space_group_name_H-M "P M M A"
_symmetry_group_IT_number 51
_symmetry_cell_setting 'orthorhombic'
loop_
_space_group_symop_operation_xyz
x,y,z
1/2-x,-y,z
1/2+x,-y,-z
-x,y,-z
-x,-y,-z
1/2+x,y,-z
1/2-x,y,z
x,-y,z
loop_
_atom_site_type_symbol
_atom_site_label
_atom_site_fract_x
_atom_site_fract_y
_atom_site_fract_z
Si Si1 0.508122 0.175344 0.835071
Si Si2 0.848426 0.675042 0.924858
Si Si3 0.750000 0.173405 0.449310
Si Si4 0.061943 0.326991 0.708735
Si Si5 0.346361 0.823606 0.927850
Si Si6 0.421935 0.675982 0.548438
Si Si7 0.250000 0.671795 0.694917
O O1 0.586388 0.251081 0.872988
O O2 0.496100 0.233087 0.758252
O O3 0.421656 0.214096 0.876117
O O4 0.517577 0.000000 0.836599
O O5 0.750000 0.702715 0.906204
O O6 0.861566 0.500000 0.927233
O O7 0.861235 0.743463 0.000123
O O8 0.836563 0.244876 0.475747
O O9 0.750000 0.220320 0.369490
O O10 0.750000 0.000000 0.457644
O O11 0.041742 0.500000 0.714910
O O12 0.059438 0.287812 0.628178
O O13 0.160508 0.306950 0.731110
O O14 0.250000 0.787512 0.904698
O O15 0.349455 0.000000 0.938606
O O16 0.500000 0.713751 0.500000
O O17 0.408680 0.500000 0.546204
O O18 0.250000 0.500000 0.670358
#
# Coordination Sequence:
#
# PCOD9398926 Si02
#       7
#     8   8   4   8   8   8   4
#     4  11  22  33  51  77 107 141 172 206 257 315
#     4  10  21  37  56  75  96 129 176 226 266 302
#     4  10  18  28  48  80 110 136 165 208 261 310
#     4   9  18  32  51  77 106 135 173 217 257 300
#     4   9  19  35  52  74 106 139 170 204 248 310
#     4   9  18  35  58  78 103 141 183 219 256 311
#     4   8  16  32  50  70 102 142 175 204 245 306
#
# _framework density 17.073589999999999
#
# number of rings (size 3 to 8) (size 9 to 14) (size 15 to 20)
#    0.000    2.500    0.000    3.250    1.167    7.333 
#    0.000    0.000    1.833    0.000    0.000    0.000 
#    0.000    0.000    0.000    0.000    0.000    0.000 
#
# Total GULP energy -267636.615622 kJ/mol
# GULP energy per Si atom -5575.762825 kJ/mol
# Density = 1.703473 g / cm^3
# Si number density = 17.073590 Si / 1000 Ang^3
#
#
#
# Elastic Constant Matrix: (Units=GPa)
#
#
# Indices 1 2 3 4 5 6 
#
# 1 115.8343 61.4196 69.1836 0.0000 0.0000 0.0000
# 2 61.4196 44.2274 41.0875 0.0000 0.0000 0.0000
# 3 69.1836 41.0875 77.2289 0.0000 0.0000 0.0000
# 4 0.0000 0.0000 0.0000 15.1193 0.0000 0.0000
# 5 0.0000 0.0000 0.0000 0.0000 27.2965 0.0000
# 6 0.0000 0.0000 0.0000 0.0000 0.0000 19.2609
#
#
#
# Elastic Compliance Matrix: (Units=1/GPa)
#
#
# Indices 1 2 3 4 5 6 
#
# 1 0.037347 -0.041095 -0.011593 0.000000 0.000000 0.000000
# 2 -0.041095 0.089925 -0.011029 0.000000 0.000000 0.000000
# 3 -0.011593 -0.011029 0.029201 0.000000 0.000000 0.000000
# 4 0.000000 0.000000 0.000000 0.066140 0.000000 0.000000
# 5 0.000000 0.000000 0.000000 0.000000 0.036635 0.000000
# 6 0.000000 0.000000 0.000000 0.000000 0.000000 0.051919
#
#
# Mechanical properties :
#
#
# Convention : Reuss Voigt Hill
#
# Bulk Modulus (GPa) = 34.43426 64.51910 49.47668
# Shear Modulus (GPa) = 11.15373 16.70867 13.93120
#
# Velocity S-wave (km/s) = 2.55870 3.13169 2.85958
# Velocity P-wave (km/s) = 5.37970 7.13775 6.32015
#
# Compressibility (1/GPa) = 0.02904085
#
# Stress axis : x y z
#
# Youngs Moduli (GPa) = 26.77586 11.12037 34.24488
#
# Poissons Ratio (x) = 0.45699 0.39701
# Poissons Ratio (y) = 1.10034 0.37767
# Poissons Ratio (z) = 0.31042 0.12264
#
# Static dielectric constant tensor:
#      x y z
#    x 1.591140 0.000000 0.000000 
#    y 0.000000 1.568420 0.000000 
#    z 0.000000 0.000000 1.559290 
# 
# From -- ./inp_files/29539.got.cif
#   From: 2010.05.17/outbox.cif.g08.bks.cpg/sg51_15_cif.got.tgz:29539.got - 2010.06.03 11:52:47.
