data_PCOD9398798
_publ_section_title
;
Structure prediction by ZEFSAII (Michael W. Deem and Ramdas Pophale) SiO2 
 PCOD9398798
Probable space group: P M M A
;
_chemical_formula_sum "Si O2"
_cell_formula_units_Z 52
_cell_length_a 8.429011
_cell_length_b 13.878582
_cell_length_c 21.537494
_cell_angle_alpha 90.000000
_cell_angle_beta 90.000000
_cell_angle_gamma 90.000000
_cell_volume 2519.514637
_symmetry_space_group_name_H-M "P M M A"
_symmetry_group_IT_number 51
_symmetry_cell_setting 'orthorhombic'
loop_
_space_group_symop_operation_xyz
x,y,z
1/2-x,-y,z
1/2+x,-y,-z
-x,y,-z
-x,-y,-z
1/2+x,y,-z
1/2-x,y,z
x,-y,z
loop_
_atom_site_type_symbol
_atom_site_label
_atom_site_fract_x
_atom_site_fract_y
_atom_site_fract_z
Si Si1 0.074869 0.852217 0.696573
Si Si2 0.435920 0.883588 0.432128
Si Si3 0.440338 0.108873 0.070912
Si Si4 0.416625 0.645454 0.760376
Si Si5 0.750000 0.610420 0.924186
Si Si6 0.250000 0.893633 0.237962
Si Si7 0.074205 0.697518 0.903103
Si Si8 0.250000 0.656983 0.221417
O O1 0.250000 0.897479 0.703546
O O2 0.086787 0.752312 0.732866
O O3 0.037506 0.840020 0.623779
O O4 0.913999 0.898128 0.723856
O O5 0.500000 0.857064 0.500000
O O6 0.250000 0.859191 0.425822
O O7 0.450094 0.000000 0.426452
O O8 0.250000 0.123473 0.073710
O O9 0.533961 0.190017 0.107894
O O10 0.477468 0.000000 0.090243
O O11 0.500000 0.118882 0.000000
O O12 0.250000 0.600200 0.740958
O O13 0.417229 0.648823 0.835613
O O14 0.594501 0.616197 0.745281
O O15 0.750000 0.500000 0.944550
O O16 0.580578 0.659072 0.939215
O O17 0.750000 0.619565 0.849080
O O18 0.250000 0.777594 0.215884
O O19 0.250000 0.000000 0.202419
O O20 0.250000 0.686984 0.931899
#
# Coordination Sequence:
#
# PCOD9398798 Si02
#       8
#     8   8   8   8   4   4   8   4
#     4  10  18  29  43  59  82 115 154 198 245 289
#     4  10  19  29  38  50  70 101 148 204 250 285
#     4  10  20  35  56  84 114 146 182 214 257 313
#     4   8  16  29  46  66  91 120 154 192 238 300
#     4  10  20  36  56  78 106 138 180 221 263 315
#     4  10  18  28  42  62  88 118 156 197 241 301
#     4  10  19  35  57  82 110 142 176 217 262 309
#     4   8  16  30  46  66  94 124 158 196 244 288
#
# _framework density 20.638895999999999
#
# number of rings (size 3 to 8) (size 9 to 14) (size 15 to 20)
#    0.000    2.462    1.538    1.385    0.000    3.077 
#    0.000    7.692    0.000   12.462    0.000    0.000 
#    0.000    0.000    0.000    0.000    0.000   62.308 
#
# Total GULP energy -289518.368486 kJ/mol
# GULP energy per Si atom -5567.660932 kJ/mol
# Density = 2.059192 g / cm^3
# Si number density = 20.638896 Si / 1000 Ang^3
#
#
#
# Elastic Constant Matrix: (Units=GPa)
#
#
# Indices 1 2 3 4 5 6 
#
# 1 233.4657 38.2302 24.1674 0.0000 0.0000 0.0000
# 2 38.2302 80.9503 0.7976 0.0000 0.0000 0.0000
# 3 24.1674 0.7976 48.9924 0.0000 0.0000 0.0000
# 4 0.0000 0.0000 0.0000 2.9316 0.0000 0.0000
# 5 0.0000 0.0000 0.0000 0.0000 29.1281 0.0000
# 6 0.0000 0.0000 0.0000 0.0000 0.0000 -24.5444
#
#
#
# Elastic Compliance Matrix: (Units=1/GPa)
#
#
# Indices 1 2 3 4 5 6 
#
# 1 0.004905 -0.002293 -0.002382 0.000000 0.000000 0.000000
# 2 -0.002293 0.013427 0.000913 0.000000 0.000000 0.000000
# 3 -0.002382 0.000913 0.021572 0.000000 0.000000 0.000000
# 4 0.000000 0.000000 0.000000 0.341116 0.000000 0.000000
# 5 0.000000 0.000000 0.000000 0.000000 0.034331 0.000000
# 6 0.000000 0.000000 0.000000 0.000000 0.000000 -0.040742
#
#
# Mechanical properties :
#
#
# Convention : Reuss Voigt Hill
#
# Bulk Modulus (GPa) = 30.88485 54.42207 42.65346
# Shear Modulus (GPa) = 12.72497 21.51726 17.12111
#
# Velocity S-wave (km/s) = 2.48574 3.23237 2.88333
# Velocity P-wave (km/s) = 4.82031 6.35271 5.63881
#
# Compressibility (1/GPa) = 0.03237833
#
# Stress axis : x y z
#
# Youngs Moduli (GPa) = 203.85615 74.47529 46.35701
#
# Poissons Ratio (x) = 0.17079 0.11044
# Poissons Ratio (y) = 0.46748 -0.04231
# Poissons Ratio (z) = 0.48568 -0.06797
#
# Static dielectric constant tensor:
#      x y z
#    x 1.824830 0.000000 0.000000 
#    y 0.000000 1.811990 0.000000 
#    z 0.000000 0.000000 1.733390 
# 
# From -- ./inp_files/34748.got.cif
#   From: 2010.05.17/outbox.cif.g08.bks.cpg/sg51_18_cif.got.tgz:34748.got - 2010.06.03 11:52:47.
