data_PCOD9398567
_publ_section_title
;
Structure prediction by ZEFSAII (Michael W. Deem and Ramdas Pophale) SiO2 
 PCOD9398567
Probable space group: P M M A
;
_chemical_formula_sum "Si O2"
_cell_formula_units_Z 64
_cell_length_a 30.792246
_cell_length_b 8.422684
_cell_length_c 15.162909
_cell_angle_alpha 90.000000
_cell_angle_beta 90.000000
_cell_angle_gamma 90.000000
_cell_volume 3932.551362
_symmetry_space_group_name_H-M "P M M A"
_symmetry_group_IT_number 51
_symmetry_cell_setting 'orthorhombic'
loop_
_space_group_symop_operation_xyz
x,y,z
1/2-x,-y,z
1/2+x,-y,-z
-x,y,-z
-x,-y,-z
1/2+x,y,-z
1/2-x,y,z
x,-y,z
loop_
_atom_site_type_symbol
_atom_site_label
_atom_site_fract_x
_atom_site_fract_y
_atom_site_fract_z
Si Si1 0.936647 0.315415 0.959563
Si Si2 0.797808 0.193282 0.709770
Si Si3 0.392634 0.192324 0.544272
Si Si4 0.444535 0.191682 0.367083
Si Si5 0.023257 0.184333 0.874653
Si Si6 0.701778 0.193362 0.503818
Si Si7 0.614448 0.192064 0.799800
Si Si8 0.537562 0.687817 0.318894
O O1 0.933187 0.500000 0.980505
O O2 0.899413 0.260304 0.893335
O O3 0.981270 0.283220 0.905653
O O4 0.941128 0.218631 0.050243
O O5 0.750000 0.244966 0.739700
O O6 0.802922 0.237660 0.607048
O O7 0.838346 0.246499 0.767196
O O8 0.798478 0.000000 0.710860
O O9 0.415719 0.237562 0.451625
O O10 0.342280 0.245364 0.544225
O O11 0.421829 0.258200 0.622711
O O12 0.393169 0.000000 0.547909
O O13 0.419855 0.237609 0.276894
O O14 0.492722 0.261640 0.366722
O O15 0.448056 0.000000 0.367608
O O16 0.037271 0.231449 0.777108
O O17 0.010630 0.000000 0.876383
O O18 0.750000 0.246039 0.473766
O O19 0.702039 0.000000 0.500984
O O20 0.613859 0.000000 0.804269
O O21 0.537850 0.500000 0.307430
#
# Coordination Sequence:
#
# PCOD9398567 Si02
#       8
#     8   8   8   8   8   8   8   8
#     4  11  21  33  50  74 100 126 156 196 241 290
#     4   8  13  23  43  72 101 127 161 206 246 280
#     4  10  19  32  49  71  97 132 170 204 243 291
#     4  10  19  31  47  68  97 134 173 205 235 283
#     4  11  21  36  54  71  92 123 161 203 243 288
#     4   8  13  24  45  72  97 121 157 206 250 283
#     4  10  17  28  48  73 100 134 169 200 239 288
#     4  12  24  35  47  67  97 133 169 209 247 287
#
# _framework density 16.274422000000001
#
# number of rings (size 3 to 8) (size 9 to 14) (size 15 to 20)
#    0.000    2.000    2.500    5.250    0.000    2.000 
#    0.000    0.000    0.000    0.750    0.000    2.625 
#    0.000    7.000    0.000    0.000    0.000    0.000 
#
# Total GULP energy -357042.839696 kJ/mol
# GULP energy per Si atom -5578.794370 kJ/mol
# Density = 1.623738 g / cm^3
# Si number density = 16.274422 Si / 1000 Ang^3
#
#
#
# Elastic Constant Matrix: (Units=GPa)
#
#
# Indices 1 2 3 4 5 6 
#
# 1 127.2322 6.9503 33.4255 0.0000 0.0000 0.0000
# 2 6.9503 16.5278 3.3926 0.0000 0.0000 0.0000
# 3 33.4255 3.3926 55.7973 0.0000 0.0000 0.0000
# 4 0.0000 0.0000 0.0000 -9.2158 0.0000 0.0000
# 5 0.0000 0.0000 0.0000 0.0000 23.5268 0.0000
# 6 0.0000 0.0000 0.0000 0.0000 0.0000 -11.6111
#
#
#
# Elastic Compliance Matrix: (Units=1/GPa)
#
#
# Indices 1 2 3 4 5 6 
#
# 1 0.009458 -0.002850 -0.005493 0.000000 0.000000 0.000000
# 2 -0.002850 0.062128 -0.002070 0.000000 0.000000 0.000000
# 3 -0.005493 -0.002070 0.021338 0.000000 0.000000 0.000000
# 4 0.000000 0.000000 0.000000 -0.108509 0.000000 0.000000
# 5 0.000000 0.000000 0.000000 0.000000 0.042505 0.000000
# 6 0.000000 0.000000 0.000000 0.000000 0.000000 -0.086124
#
#
# Mechanical properties :
#
#
# Convention : Reuss Voigt Hill
#
# Bulk Modulus (GPa) = 13.86995 31.89935 22.88465
# Shear Modulus (GPa) = -348.53566 10.92589 -168.80489
#
# Velocity S-wave (km/s) = -14.65014 2.59386 -10.19555
# Velocity P-wave (km/s) = 16.66216 5.34923 11.15826
#
# Compressibility (1/GPa) = 0.07209831
#
# Stress axis : x y z
#
# Youngs Moduli (GPa) = 105.72675 16.09592 46.86400
#
# Poissons Ratio (x) = 0.04587 0.25741
# Poissons Ratio (y) = 0.30132 0.09702
# Poissons Ratio (z) = 0.58073 0.03332
#
# Static dielectric constant tensor:
#      x y z
#    x 1.561880 0.000000 0.000000 
#    y 0.000000 1.552780 0.000000 
#    z 0.000000 0.000000 1.528940 
# 
# From -- ./inp_files/26704.got.cif
#   From: 2010.05.17/outbox.cif.g08.bks.cpg/sg51_14_cif.got.tgz:26704.got - 2010.06.03 11:52:47.
