data_PCOD9398845
_publ_section_title
;
Structure prediction by ZEFSAII (Michael W. Deem and Ramdas Pophale) SiO2 
 PCOD9398845
Probable space group: P M M A
;
_chemical_formula_sum "Si O2"
_cell_formula_units_Z 64
_cell_length_a 29.525664
_cell_length_b 7.684785
_cell_length_c 16.151170
_cell_angle_alpha 90.000000
_cell_angle_beta 90.000000
_cell_angle_gamma 90.000000
_cell_volume 3664.674305
_symmetry_space_group_name_H-M "P M M A"
_symmetry_group_IT_number 51
_symmetry_cell_setting 'orthorhombic'
loop_
_space_group_symop_operation_xyz
x,y,z
1/2-x,-y,z
1/2+x,-y,-z
-x,y,-z
-x,-y,-z
1/2+x,y,-z
1/2-x,y,z
x,-y,z
loop_
_atom_site_type_symbol
_atom_site_label
_atom_site_fract_x
_atom_site_fract_y
_atom_site_fract_z
Si Si1 0.389176 0.797423 0.331958
Si Si2 0.199782 0.211195 0.417118
Si Si3 0.050589 0.701841 0.485435
Si Si4 0.199712 0.294941 0.610879
Si Si5 0.945006 0.797398 0.004009
Si Si6 0.100679 0.797271 0.651916
Si Si7 0.944782 0.785960 0.823339
Si Si8 0.549819 0.786677 0.184572
O O1 0.341489 0.721283 0.362157
O O2 0.422844 0.789290 0.410241
O O3 0.413207 0.723319 0.250881
O O4 0.380687 0.000000 0.313069
O O5 0.250000 0.263684 0.389144
O O6 0.194360 0.268722 0.512124
O O7 0.197968 0.000000 0.418346
O O8 0.045776 0.500000 0.461778
O O9 0.079568 0.713147 0.569637
O O10 0.000000 0.773161 0.500000
O O11 0.250000 0.225344 0.632856
O O12 0.199589 0.500000 0.627852
O O13 0.154940 0.218086 0.652035
O O14 0.930447 0.724456 0.915108
O O15 0.931019 0.000000 0.004786
O O16 0.933153 0.724053 0.094293
O O17 0.000000 0.794861 0.000000
O O18 0.078415 0.728659 0.736355
O O19 0.088521 0.000000 0.645257
O O20 0.997066 0.736965 0.806958
O O21 0.944640 0.000000 0.824737
O O22 0.551064 0.000000 0.182193
#
# Coordination Sequence:
#
# PCOD9398845 Si02
#       8
#     8   8   8   8   8   8   8   8
#     4  10  18  28  44  65  85 112 146 181 219 259
#     4   9  17  29  44  62  84 110 142 180 221 261
#     4  11  23  34  42  57  87 124 154 179 212 257
#     4  10  20  33  48  64  84 112 147 186 226 266
#     4   7  10  19  35  56  84 113 139 175 218 255
#     4  11  20  30  46  67  89 116 149 186 222 260
#     4   8  13  22  38  61  87 113 145 180 214 257
#     4   8  14  23  37  60  88 115 143 177 217 258
#
# _framework density 17.464034000000002
#
# number of rings (size 3 to 8) (size 9 to 14) (size 15 to 20)
#    0.000    2.750    1.250    3.375    0.000    2.750 
#    0.000    0.000    0.000    0.000    0.000    2.625 
#    0.000   14.500    0.000    3.375    0.000    3.125 
#
# Total GULP energy -356642.214593 kJ/mol
# GULP energy per Si atom -5572.534603 kJ/mol
# Density = 1.742429 g / cm^3
# Si number density = 17.464034 Si / 1000 Ang^3
#
#
#
# Elastic Constant Matrix: (Units=GPa)
#
#
# Indices 1 2 3 4 5 6 
#
# 1 80.4412 -3.6515 30.2983 0.0000 0.0000 0.0000
# 2 -3.6515 29.5756 -4.5871 0.0000 0.0000 0.0000
# 3 30.2983 -4.5871 97.5621 0.0000 0.0000 0.0000
# 4 0.0000 0.0000 0.0000 -117.8767 0.0000 0.0000
# 5 0.0000 0.0000 0.0000 0.0000 10.1023 0.0000
# 6 0.0000 0.0000 0.0000 0.0000 0.0000 -3.2486
#
#
#
# Elastic Compliance Matrix: (Units=1/GPa)
#
#
# Indices 1 2 3 4 5 6 
#
# 1 0.014112 0.001070 -0.004332 0.000000 0.000000 0.000000
# 2 0.001070 0.034141 0.001273 0.000000 0.000000 0.000000
# 3 -0.004332 0.001273 0.011655 0.000000 0.000000 0.000000
# 4 0.000000 0.000000 0.000000 -0.008483 0.000000 0.000000
# 5 0.000000 0.000000 0.000000 0.000000 0.098987 0.000000
# 6 0.000000 0.000000 0.000000 0.000000 0.000000 -0.307826
#
#
# Mechanical properties :
#
#
# Convention : Reuss Voigt Hill
#
# Bulk Modulus (GPa) = 17.87942 27.96647 22.92294
# Shear Modulus (GPa) = -37.09383 -9.83664 -23.46524
#
# Velocity S-wave (km/s) = -4.61370 -2.37587 -3.66954
# Velocity P-wave (km/s) = 4.25694 2.91928 2.19082
#
# Compressibility (1/GPa) = 0.05593022
#
# Stress axis : x y z
#
# Youngs Moduli (GPa) = 70.86305 29.29008 85.79951
#
# Poissons Ratio (x) = -0.03135 0.37169
# Poissons Ratio (y) = -0.07585 -0.10921
# Poissons Ratio (z) = 0.30699 -0.03728
#
# Static dielectric constant tensor:
#      x y z
#    x 1.598210 0.000000 0.000000 
#    y 0.000000 1.647710 0.000000 
#    z 0.000000 0.000000 1.604300 
# 
# From -- ./inp_files/26655.got.cif
#   From: 2010.05.17/outbox.cif.g08.bks.cpg/sg51_14_cif.got.tgz:26655.got - 2010.06.03 11:52:47.
