data_PCOD9398170
_publ_section_title
;
Structure prediction by ZEFSAII (Michael W. Deem and Ramdas Pophale) SiO2 
 PCOD9398170
Probable space group: P B A N
;
_chemical_formula_sum "Si O2"
_cell_formula_units_Z 40
_cell_length_a 9.630858
_cell_length_b 17.262896
_cell_length_c 10.892724
_cell_angle_alpha 90.000000
_cell_angle_beta 90.000000
_cell_angle_gamma 90.000000
_cell_volume 1810.986168
_symmetry_space_group_name_H-M "P B A N"
_symmetry_group_IT_number 50
_space_group.IT_coordinate_system_code '2'
_symmetry_cell_setting 'orthorhombic'
loop_
_space_group_symop_operation_xyz
x,y,z
1/2-x,1/2-y,z
x,1/2-y,-z
1/2-x,y,-z
-x,-y,-z
1/2+x,1/2+y,-z
-x,1/2+y,z
1/2+x,-y,z
loop_
_atom_site_type_symbol
_atom_site_label
_atom_site_fract_x
_atom_site_fract_y
_atom_site_fract_z
Si Si1 0.873674 0.686473 0.258263
Si Si2 0.758250 0.430648 0.755977
Si Si3 0.469534 0.912554 0.456097
Si Si4 0.382726 0.702753 0.327719
Si Si5 0.050628 0.048844 0.118324
O O1 0.750000 0.750000 0.269898
O O2 0.907078 0.625079 0.370851
O O3 0.874762 0.633321 0.134855
O O4 0.009400 0.738681 0.270978
O O5 0.674105 0.352892 0.777505
O O6 0.652313 0.496211 0.798456
O O7 0.824854 0.422323 0.619795
O O8 0.899963 0.437264 0.826693
O O9 0.450079 0.852148 0.568073
O O10 0.500000 0.000000 0.500000
O O11 0.250000 0.750000 0.373349
O O12 0.000000 0.000000 0.000000
#
# Coordination Sequence:
#
# PCOD9398170 Si02
#       5
#     8   8   8   8   8
#     4  11  27  45  71 112 153 190 253 325 379 450
#     4  11  25  44  72 105 144 195 253 304 368 468
#     4  11  25  43  69 110 158 210 245 281 384 475
#     4  12  23  44  69 103 154 194 236 296 372 463
#     4  11  25  50  77 102 138 200 257 325 387 448
#
# _framework density 22.087413999999999
#
# number of rings (size 3 to 8) (size 9 to 14) (size 15 to 20)
#    0.000    0.800    4.000    4.200    8.400    1.600 
#    3.600    1.000    0.000    0.000    0.000    0.000 
#    0.000    0.000    0.000    0.000    0.000    0.000 
#
# Total GULP energy -222683.993463 kJ/mol
# GULP energy per Si atom -5567.099837 kJ/mol
# Density = 2.203714 g / cm^3
# Si number density = 22.087414 Si / 1000 Ang^3
#
#
#
# Elastic Constant Matrix: (Units=GPa)
#
#
# Indices 1 2 3 4 5 6 
#
# 1 100.7699 75.9440 32.2517 0.0000 0.0000 0.0000
# 2 75.9440 199.9882 47.2727 0.0000 0.0000 0.0000
# 3 32.2517 47.2727 58.0178 0.0000 0.0000 0.0000
# 4 0.0000 0.0000 0.0000 31.9448 0.0000 0.0000
# 5 0.0000 0.0000 0.0000 0.0000 -4.7830 0.0000
# 6 0.0000 0.0000 0.0000 0.0000 0.0000 93.1132
#
#
#
# Elastic Compliance Matrix: (Units=1/GPa)
#
#
# Indices 1 2 3 4 5 6 
#
# 1 0.014801 -0.004552 -0.004518 0.000000 0.000000 0.000000
# 2 -0.004552 0.007593 -0.003656 0.000000 0.000000 0.000000
# 3 -0.004518 -0.003656 0.022727 0.000000 0.000000 0.000000
# 4 0.000000 0.000000 0.000000 0.031304 0.000000 0.000000
# 5 0.000000 0.000000 0.000000 0.000000 -0.209073 0.000000
# 6 0.000000 0.000000 0.000000 0.000000 0.000000 0.010740
#
#
# Mechanical properties :
#
#
# Convention : Reuss Voigt Hill
#
# Bulk Modulus (GPa) = 50.84710 74.41251 62.62980
# Shear Modulus (GPa) = -55.61778 37.60884 -9.00447
#
# Velocity S-wave (km/s) = -5.02349 4.13089 -2.02129
# Velocity P-wave (km/s) = 3.25214 7.51768 4.79265
#
# Compressibility (1/GPa) = 0.01966681
#
# Stress axis : x y z
#
# Youngs Moduli (GPa) = 67.56515 131.69492 44.00063
#
# Poissons Ratio (x) = 0.59953 0.19881
# Poissons Ratio (y) = 0.30758 0.16088
# Poissons Ratio (z) = 0.30528 0.48152
#
# Static dielectric constant tensor:
#      x y z
#    x 1.845460 0.000000 0.000000 
#    y 0.000000 1.919880 0.000000 
#    z 0.000000 0.000000 2.031300 
# 
# From -- ./inp_files/18733.got.cif
#   From: 2010.05.17/outbox.cif.g08.bks.cpg/sg50_10_cif.got.tgz:18733.got - 2010.06.03 11:33:33.
