data_PCOD9398696
_publ_section_title
;
Structure prediction by ZEFSAII (Michael W. Deem and Ramdas Pophale) SiO2 
 PCOD9398696
Probable space group: P M M A
;
_chemical_formula_sum "Si O2"
_cell_formula_units_Z 52
_cell_length_a 8.507528
_cell_length_b 28.003623
_cell_length_c 13.977320
_cell_angle_alpha 90.000000
_cell_angle_beta 90.000000
_cell_angle_gamma 90.000000
_cell_volume 3329.979175
_symmetry_space_group_name_H-M "P M M A"
_symmetry_group_IT_number 51
_symmetry_cell_setting 'orthorhombic'
loop_
_space_group_symop_operation_xyz
x,y,z
1/2-x,-y,z
1/2+x,-y,-z
-x,y,-z
-x,-y,-z
1/2+x,y,-z
1/2-x,y,z
x,-y,z
loop_
_atom_site_type_symbol
_atom_site_label
_atom_site_fract_x
_atom_site_fract_y
_atom_site_fract_z
Si Si1 0.560274 0.397224 0.890802
Si Si2 0.938913 0.851533 0.396272
Si Si3 0.560909 0.707385 0.890831
Si Si4 0.439975 0.946660 0.706116
Si Si5 0.559732 0.500000 0.890239
Si Si6 0.936907 0.897809 0.895383
Si Si7 0.938516 0.196831 0.200307
O O1 0.750000 0.397262 0.891713
O O2 0.511892 0.345256 0.852058
O O3 0.508798 0.448542 0.847942
O O4 0.500000 0.397395 0.000000
O O5 0.750000 0.851923 0.398972
O O6 0.993428 0.904821 0.365591
O O7 0.986211 0.817310 0.308445
O O8 0.000000 0.838037 0.500000
O O9 0.750000 0.709903 0.892106
O O10 0.494215 0.751263 0.831061
O O11 0.500000 0.711372 0.000000
O O12 0.250000 0.946272 0.705766
O O13 0.494781 0.931217 0.811710
O O14 0.494285 0.000000 0.682136
O O15 0.750000 0.500000 0.891225
O O16 0.500000 0.500000 0.000000
O O17 0.750000 0.900369 0.894443
O O18 0.990599 0.844077 0.868055
O O19 0.000000 0.910380 0.000000
O O20 0.750000 0.193587 0.193750
#
# Coordination Sequence:
#
# PCOD9398696 Si02
#       7
#     8   8   8   8   4   8   8
#     4   8  14  22  33  50  74 105 143 181 215 248
#     4   9  19  34  52  71  89 110 136 168 209 254
#     4  10  18  27  40  61  87 116 149 184 218 252
#     4   9  19  36  53  70  94 119 142 170 203 242
#     4   8  12  20  32  46  68 102 141 180 215 246
#     4  11  21  33  49  68  90 117 148 179 211 248
#     4  10  20  34  48  64  87 114 143 176 214 255
#
# _framework density 15.615714000000001
#
# number of rings (size 3 to 8) (size 9 to 14) (size 15 to 20)
#    0.000    2.615    0.000    3.692    0.000    4.615 
#    0.000    0.000    0.000    0.000    0.000    0.000 
#    0.000    0.000    0.000    0.692    0.000    7.308 
#
# Total GULP energy -289617.425399 kJ/mol
# GULP energy per Si atom -5569.565873 kJ/mol
# Density = 1.558017 g / cm^3
# Si number density = 15.615714 Si / 1000 Ang^3
#
#
#
# Elastic Constant Matrix: (Units=GPa)
#
#
# Indices 1 2 3 4 5 6 
#
# 1 15.5821 8.2872 2.2997 0.0000 0.0000 0.0000
# 2 8.2872 121.0183 16.4773 0.0000 0.0000 0.0000
# 3 2.2997 16.4773 51.7791 0.0000 0.0000 0.0000
# 4 0.0000 0.0000 0.0000 9.8381 0.0000 0.0000
# 5 0.0000 0.0000 0.0000 0.0000 20.3011 0.0000
# 6 0.0000 0.0000 0.0000 0.0000 0.0000 906.7628
#
#
#
# Elastic Compliance Matrix: (Units=1/GPa)
#
#
# Indices 1 2 3 4 5 6 
#
# 1 0.066725 -0.004354 -0.001578 0.000000 0.000000 0.000000
# 2 -0.004354 0.008922 -0.002646 0.000000 0.000000 0.000000
# 3 -0.001578 -0.002646 0.020225 0.000000 0.000000 0.000000
# 4 0.000000 0.000000 0.000000 0.101646 0.000000 0.000000
# 5 0.000000 0.000000 0.000000 0.000000 0.049258 0.000000
# 6 0.000000 0.000000 0.000000 0.000000 0.000000 0.001103
#
#
# Mechanical properties :
#
#
# Convention : Reuss Voigt Hill
#
# Bulk Modulus (GPa) = 12.70398 26.94534 19.82466
# Shear Modulus (GPa) = 17.16602 198.13474 107.65038
#
# Velocity S-wave (km/s) = 3.31913 11.27640 8.31185
# Velocity P-wave (km/s) = 4.77932 13.66878 10.23908
#
# Compressibility (1/GPa) = 0.07871548
#
# Stress axis : x y z
#
# Youngs Moduli (GPa) = 14.98690 112.08731 49.44427
#
# Poissons Ratio (x) = 0.48807 0.07802
# Poissons Ratio (y) = 0.06526 0.13081
# Poissons Ratio (z) = 0.02365 0.29655
#
# Static dielectric constant tensor:
#      x y z
#    x 1.530520 0.000000 0.000000 
#    y 0.000000 1.576560 0.000000 
#    z 0.000000 0.000000 1.483800 
# 
# From -- ./inp_files/14601.got.cif
#   From: 2010.05.17/outbox.cif.g08.bks.cpg/sg51_8_cif.got.tgz:14601.got - 2010.06.03 11:52:47.
