data_PCOD9398352
_publ_section_title
;
Structure prediction by ZEFSAII (Michael W. Deem and Ramdas Pophale) SiO2 
 PCOD9398352
Probable space group: P M M A
;
_chemical_formula_sum "Si O2"
_cell_formula_units_Z 52
_cell_length_a 8.717054
_cell_length_b 27.641575
_cell_length_c 13.963597
_cell_angle_alpha 90.000000
_cell_angle_beta 90.000000
_cell_angle_gamma 90.000000
_cell_volume 3364.572011
_symmetry_space_group_name_H-M "P M M A"
_symmetry_group_IT_number 51
_symmetry_cell_setting 'orthorhombic'
loop_
_space_group_symop_operation_xyz
x,y,z
1/2-x,-y,z
1/2+x,-y,-z
-x,y,-z
-x,-y,-z
1/2+x,y,-z
1/2-x,y,z
x,-y,z
loop_
_atom_site_type_symbol
_atom_site_label
_atom_site_fract_x
_atom_site_fract_y
_atom_site_fract_z
Si Si1 0.067201 0.000000 0.608758
Si Si2 0.435357 0.554596 0.788526
Si Si3 0.933116 0.604790 0.603288
Si Si4 0.933831 0.794240 0.607817
Si Si5 0.566149 0.350201 0.102628
Si Si6 0.066613 0.098182 0.392204
Si Si7 0.565715 0.699427 0.299477
O O1 0.000000 0.000000 0.500000
O O2 0.006668 0.949825 0.653468
O O3 0.250000 0.000000 0.604202
O O4 0.250000 0.557275 0.779732
O O5 0.477679 0.500000 0.815273
O O6 0.506456 0.569553 0.686742
O O7 0.482933 0.595834 0.864047
O O8 0.750000 0.604862 0.600779
O O9 0.000000 0.591593 0.500000
O O10 0.994175 0.658048 0.632760
O O11 0.750000 0.789234 0.602997
O O12 0.968230 0.848306 0.647354
O O13 0.000000 0.790659 0.500000
O O14 0.005298 0.751488 0.669724
O O15 0.750000 0.350018 0.096457
O O16 0.522889 0.315306 0.190849
O O17 0.500000 0.337265 0.000000
O O18 0.250000 0.092206 0.396391
O O19 0.000000 0.100146 0.500000
O O20 0.750000 0.697106 0.307993
#
# Coordination Sequence:
#
# PCOD9398352 Si02
#       7
#     4   8   8   8   8   8   8
#     4  10  16  22  34  50  72 106 149 190 225 258
#     4   9  19  36  53  70  94 119 144 176 213 254
#     4  11  21  33  49  68  91 119 151 182 214 255
#     4  10  19  29  43  64  89 119 153 188 225 263
#     4   9  19  34  52  72  91 114 141 173 216 262
#     4   9  16  25  36  52  77 109 147 187 224 259
#     4  10  20  34  49  66  90 117 146 181 221 262
#
# _framework density 15.455159999999999
#
# number of rings (size 3 to 8) (size 9 to 14) (size 15 to 20)
#    0.000    2.308    0.000    5.769    0.000    5.846 
#    0.000    0.000    0.000    0.000    0.000    0.000 
#    0.000    0.000    0.000    0.692    0.000    9.154 
#
# Total GULP energy -289898.011637 kJ/mol
# GULP energy per Si atom -5574.961762 kJ/mol
# Density = 1.541998 g / cm^3
# Si number density = 15.455160 Si / 1000 Ang^3
#
#
#
# Elastic Constant Matrix: (Units=GPa)
#
#
# Indices 1 2 3 4 5 6 
#
# 1 54.4489 33.4285 11.8646 0.0000 0.0000 0.0000
# 2 33.4285 120.4800 21.0418 0.0000 0.0000 0.0000
# 3 11.8646 21.0418 55.6857 0.0000 0.0000 0.0000
# 4 0.0000 0.0000 0.0000 8.6630 0.0000 0.0000
# 5 0.0000 0.0000 0.0000 0.0000 21.3635 0.0000
# 6 0.0000 0.0000 0.0000 0.0000 0.0000 100.5519
#
#
#
# Elastic Compliance Matrix: (Units=1/GPa)
#
#
# Indices 1 2 3 4 5 6 
#
# 1 0.022484 -0.005784 -0.002605 0.000000 0.000000 0.000000
# 2 -0.005784 0.010374 -0.002688 0.000000 0.000000 0.000000
# 3 -0.002605 -0.002688 0.019529 0.000000 0.000000 0.000000
# 4 0.000000 0.000000 0.000000 0.115433 0.000000 0.000000
# 5 0.000000 0.000000 0.000000 0.000000 0.046809 0.000000
# 6 0.000000 0.000000 0.000000 0.000000 0.000000 0.009945
#
#
# Mechanical properties :
#
#
# Convention : Reuss Voigt Hill
#
# Bulk Modulus (GPa) = 33.07524 40.36493 36.72009
# Shear Modulus (GPa) = 19.47003 37.06767 28.26885
#
# Velocity S-wave (km/s) = 3.55318 4.90266 4.28142
# Velocity P-wave (km/s) = 6.18714 7.63035 6.94633
#
# Compressibility (1/GPa) = 0.03023410
#
# Stress axis : x y z
#
# Youngs Moduli (GPa) = 44.47557 96.39247 51.20687
#
# Poissons Ratio (x) = 0.55749 0.13340
# Poissons Ratio (y) = 0.25722 0.13764
# Poissons Ratio (z) = 0.11587 0.25909
#
# Static dielectric constant tensor:
#      x y z
#    x 1.495970 0.000000 0.000000 
#    y 0.000000 1.558480 0.000000 
#    z 0.000000 0.000000 1.478490 
# 
# From -- ./inp_files/14645.got.cif
#   From: 2010.05.17/outbox.cif.g08.bks.cpg/sg51_8_cif.got.tgz:14645.got - 2010.06.03 11:52:47.
