data_PCOD9398173
_publ_section_title
;
Structure prediction by ZEFSAII (Michael W. Deem and Ramdas Pophale) SiO2 
 PCOD9398173
Probable space group: P B A N
;
_chemical_formula_sum "Si O2"
_cell_formula_units_Z 56
_cell_length_a 8.818798
_cell_length_b 15.209210
_cell_length_c 20.521703
_cell_angle_alpha 90.000000
_cell_angle_beta 90.000000
_cell_angle_gamma 90.000000
_cell_volume 2752.513447
_symmetry_space_group_name_H-M "P B A N"
_symmetry_group_IT_number 50
_space_group.IT_coordinate_system_code '2'
_symmetry_cell_setting 'orthorhombic'
loop_
_space_group_symop_operation_xyz
x,y,z
1/2-x,1/2-y,z
x,1/2-y,-z
1/2-x,y,-z
-x,-y,-z
1/2+x,1/2+y,-z
-x,1/2+y,z
1/2+x,-y,z
loop_
_atom_site_type_symbol
_atom_site_label
_atom_site_fract_x
_atom_site_fract_y
_atom_site_fract_z
Si Si1 0.817486 0.654079 0.929438
Si Si2 0.066040 0.146780 0.643469
Si Si3 0.182519 0.653128 0.930154
Si Si4 0.564520 0.851180 0.359011
Si Si5 0.791230 0.003871 0.166555
Si Si6 0.959259 0.999521 0.740842
Si Si7 0.925024 0.857137 0.499032
O O1 0.750000 0.750000 0.913893
O O2 0.769971 0.583476 0.875727
O O3 0.000183 0.657402 0.933295
O O4 0.750000 0.629044 0.000000
O O5 0.250480 0.144247 0.641084
O O6 0.024215 0.249288 0.652283
O O7 0.009435 0.117487 0.571206
O O8 0.002991 0.085571 0.700117
O O9 0.250000 0.750000 0.918131
O O10 0.238611 0.586709 0.875043
O O11 0.250000 0.623824 0.000000
O O12 0.507788 0.881091 0.430794
O O13 0.508002 0.915548 0.303498
O O14 0.715181 0.000923 0.237778
O O15 0.965621 0.007746 0.187968
O O16 0.921842 0.750000 0.500000
O O17 0.750000 0.887099 0.500000
#
# Coordination Sequence:
#
# PCOD9398173 Si02
#       7
#     8   8   8   8   8   8   8
#     4  11  25  44  71  98 123 161 206 252 304 360
#     4   9  18  35  58  84 116 156 205 254 306 363
#     4  11  25  44  70  99 126 158 203 256 304 356
#     4   9  18  35  59  82 116 158 203 256 305 364
#     4  12  27  42  62  89 129 166 206 248 301 366
#     4  12  24  39  57  90 122 164 208 246 299 370
#     4   7  12  27  54  84 108 146 202 256 305 355
#
# _framework density 20.345041999999999
#
# number of rings (size 3 to 8) (size 9 to 14) (size 15 to 20)
#    0.000    1.857    2.857    3.857    4.000    4.000 
#    0.000    0.000    0.000    0.000    0.000    3.000 
#    0.000    0.000    0.000    0.000    0.000    0.000 
#
# Total GULP energy -312446.251193 kJ/mol
# GULP energy per Si atom -5579.397343 kJ/mol
# Density = 2.029874 g / cm^3
# Si number density = 20.345042 Si / 1000 Ang^3
#
#
#
# Elastic Constant Matrix: (Units=GPa)
#
#
# Indices 1 2 3 4 5 6 
#
# 1 43.6697 23.3579 26.7593 0.0000 0.0000 0.0000
# 2 23.3579 98.5315 82.6422 0.0000 0.0000 0.0000
# 3 26.7593 82.6422 134.5497 0.0000 0.0000 0.0000
# 4 0.0000 0.0000 0.0000 -3.7799 0.0000 0.0000
# 5 0.0000 0.0000 0.0000 0.0000 8.1614 0.0000
# 6 0.0000 0.0000 0.0000 0.0000 0.0000 183.8397
#
#
#
# Elastic Compliance Matrix: (Units=1/GPa)
#
#
# Indices 1 2 3 4 5 6 
#
# 1 0.026777 -0.003880 -0.002942 0.000000 0.000000 0.000000
# 2 -0.003880 0.021495 -0.012431 0.000000 0.000000 0.000000
# 3 -0.002942 -0.012431 0.015653 0.000000 0.000000 0.000000
# 4 0.000000 0.000000 0.000000 -0.264560 0.000000 0.000000
# 5 0.000000 0.000000 0.000000 0.000000 0.122528 0.000000
# 6 0.000000 0.000000 0.000000 0.000000 0.000000 0.005440
#
#
# Mechanical properties :
#
#
# Convention : Reuss Voigt Hill
#
# Bulk Modulus (GPa) = 39.34120 60.25218 49.79669
# Shear Modulus (GPa) = -194.64931 47.24368 -73.70282
#
# Velocity S-wave (km/s) = -9.79192 4.82407 -6.02537
# Velocity P-wave (km/s) = 10.41458 7.79155 4.88647
#
# Compressibility (1/GPa) = 0.02541865
#
# Stress axis : x y z
#
# Youngs Moduli (GPa) = 37.34480 46.52210 63.88697
#
# Poissons Ratio (x) = 0.18050 0.18798
# Poissons Ratio (y) = 0.14490 0.79418
# Poissons Ratio (z) = 0.10988 0.57831
#
# Static dielectric constant tensor:
#      x y z
#    x 1.716060 0.000000 0.000000 
#    y 0.000000 1.683510 0.000000 
#    z 0.000000 0.000000 1.725290 
# 
# From -- ./inp_files/30656.got.cif
#   From: 2010.05.17/outbox.cif.g08.bks.cpg/sg50_16_cif.got.tgz:30656.got - 2010.06.03 11:33:33.
