data_PCOD9398652
_publ_section_title
;
Structure prediction by ZEFSAII (Michael W. Deem and Ramdas Pophale) SiO2 
 PCOD9398652
Probable space group: P M M A
;
_chemical_formula_sum "Si O2"
_cell_formula_units_Z 28
_cell_length_a 5.578729
_cell_length_b 24.369835
_cell_length_c 9.397808
_cell_angle_alpha 90.000000
_cell_angle_beta 90.000000
_cell_angle_gamma 90.000000
_cell_volume 1277.657421
_symmetry_space_group_name_H-M "P M M A"
_symmetry_group_IT_number 51
_symmetry_cell_setting 'orthorhombic'
loop_
_space_group_symop_operation_xyz
x,y,z
1/2-x,-y,z
1/2+x,-y,-z
-x,y,-z
-x,-y,-z
1/2+x,y,-z
1/2-x,y,z
x,-y,z
loop_
_atom_site_type_symbol
_atom_site_label
_atom_site_fract_x
_atom_site_fract_y
_atom_site_fract_z
Si Si1 0.250000 0.266140 0.752790
Si Si2 0.750000 0.894268 0.640241
Si Si3 0.750000 0.390751 0.163863
Si Si4 0.750000 0.771960 0.681686
Si Si5 0.750000 0.565603 0.837888
Si Si6 0.750000 0.936480 0.323807
Si Si7 0.750000 0.175801 0.995702
O O1 0.250000 0.325319 0.826338
O O2 0.497125 0.258790 0.665621
O O3 0.250000 0.219000 0.874043
O O4 0.750000 0.830070 0.600903
O O5 0.750000 0.929503 0.495894
O O6 0.500807 0.908164 0.717676
O O7 0.500401 0.413378 0.227562
O O8 0.750000 0.410938 0.999680
O O9 0.750000 0.790192 0.848662
O O10 0.750000 0.500000 0.844427
O O11 0.750000 0.000000 0.284934
O O12 0.500000 0.144678 0.000000
#
# Coordination Sequence:
#
# PCOD9398652 Si02
#       7
#     4   4   4   4   4   4   4
#     4  10  19  28  40  59  82 116 155 183 217 249
#     4  10  18  30  47  69  95 117 131 172 222 244
#     4  10  18  25  41  50  73 106 143 188 241 248
#     4  10  19  28  40  61  91 111 141 180 212 258
#     4  10  19  27  37  55  74  99 149 207 234 256
#     4  10  19  33  53  73  93 111 142 171 202 262
#     4   8  16  25  38  51  80 104 143 175 208 231
#
# _framework density 21.915106999999999
#
# number of rings (size 3 to 8) (size 9 to 14) (size 15 to 20)
#    0.000    2.286    0.000    6.000   12.000    0.000 
#    0.000    0.000    0.000    0.000    0.000    0.000 
#    0.000  174.857    0.000    0.000    0.000    0.000 
#
# Total GULP energy -156138.209586 kJ/mol
# GULP energy per Si atom -5576.364628 kJ/mol
# Density = 2.186523 g / cm^3
# Si number density = 21.915107 Si / 1000 Ang^3
#
#
#
# Elastic Constant Matrix: (Units=GPa)
#
#
# Indices 1 2 3 4 5 6 
#
# 1 256.7001 27.0694 5.6346 0.0000 0.0000 0.0000
# 2 27.0694 83.7766 0.5005 0.0000 0.0000 0.0000
# 3 5.6346 0.5005 49.4732 0.0000 0.0000 0.0000
# 4 0.0000 0.0000 0.0000 15.6732 0.0000 0.0000
# 5 0.0000 0.0000 0.0000 0.0000 -11.2101 0.0000
# 6 0.0000 0.0000 0.0000 0.0000 0.0000 35.7019
#
#
#
# Elastic Compliance Matrix: (Units=1/GPa)
#
#
# Indices 1 2 3 4 5 6 
#
# 1 0.004043 -0.001304 -0.000447 0.000000 0.000000 0.000000
# 2 -0.001304 0.012358 0.000023 0.000000 0.000000 0.000000
# 3 -0.000447 0.000023 0.020264 0.000000 0.000000 0.000000
# 4 0.000000 0.000000 0.000000 0.063803 0.000000 0.000000
# 5 0.000000 0.000000 0.000000 0.000000 -0.089205 0.000000
# 6 0.000000 0.000000 0.000000 0.000000 0.000000 0.028010
#
#
# Mechanical properties :
#
#
# Convention : Reuss Voigt Hill
#
# Bulk Modulus (GPa) = 30.11212 50.70657 40.40935
# Shear Modulus (GPa) = 92.94348 31.81603 62.37976
#
# Velocity S-wave (km/s) = 6.51941 3.81436 5.34098
# Velocity P-wave (km/s) = 8.39289 6.52588 7.51757
#
# Compressibility (1/GPa) = 0.03320922
#
# Stress axis : x y z
#
# Youngs Moduli (GPa) = 247.34816 80.92193 49.34944
#
# Poissons Ratio (x) = 0.10549 0.02207
# Poissons Ratio (y) = 0.32245 -0.00116
# Poissons Ratio (z) = 0.11063 -0.00190
#
# Static dielectric constant tensor:
#      x y z
#    x 1.934040 0.000000 0.000000 
#    y 0.000000 1.737900 0.000000 
#    z 0.000000 0.000000 1.789190 
# 
# From -- ./inp_files/13388.got.cif
#   From: 2010.05.17/outbox.cif.g08.bks.cpg/sg51_7_cif.got.tgz:13388.got - 2010.06.03 11:52:47.
