data_PCOD9398967
_publ_section_title
;
Structure prediction by ZEFSAII (Michael W. Deem and Ramdas Pophale) SiO2 
 PCOD9398967
Probable space group: P M M A
;
_chemical_formula_sum "Si O2"
_cell_formula_units_Z 64
_cell_length_a 9.087021
_cell_length_b 14.680429
_cell_length_c 31.989299
_cell_angle_alpha 90.000000
_cell_angle_beta 90.000000
_cell_angle_gamma 90.000000
_cell_volume 4267.416204
_symmetry_space_group_name_H-M "P M M A"
_symmetry_group_IT_number 51
_symmetry_cell_setting 'orthorhombic'
loop_
_space_group_symop_operation_xyz
x,y,z
1/2-x,-y,z
1/2+x,-y,-z
-x,y,-z
-x,-y,-z
1/2+x,y,-z
1/2-x,y,z
x,-y,z
loop_
_atom_site_type_symbol
_atom_site_label
_atom_site_fract_x
_atom_site_fract_y
_atom_site_fract_z
Si Si1 0.428041 0.606961 0.365676
Si Si2 0.079853 0.610770 0.458198
Si Si3 0.426527 0.104459 0.845162
Si Si4 0.573481 0.716776 0.873903
Si Si5 0.427537 0.291361 0.711402
Si Si6 0.573271 0.393992 0.956350
Si Si7 0.073963 0.392457 0.798173
Si Si8 0.428609 0.101074 0.747122
O O1 0.250000 0.612697 0.364796
O O2 0.466302 0.500000 0.360237
O O3 0.477783 0.637113 0.412268
O O4 0.498033 0.664962 0.328856
O O5 0.250000 0.637318 0.460687
O O6 0.074644 0.500000 0.458278
O O7 0.000000 0.643067 0.500000
O O8 0.750000 0.116951 0.151712
O O9 0.509347 0.181759 0.870603
O O10 0.466185 0.115137 0.795982
O O11 0.460033 0.000000 0.857022
O O12 0.750000 0.717982 0.871454
O O13 0.529729 0.667238 0.916978
O O14 0.508948 0.659777 0.835032
O O15 0.250000 0.293074 0.706705
O O16 0.462967 0.349238 0.753148
O O17 0.476450 0.187528 0.720306
O O18 0.750000 0.389675 0.960513
O O19 0.533412 0.500000 0.948359
O O20 0.500000 0.366320 0.000000
O O21 0.250000 0.380317 0.804035
O O22 0.041424 0.500000 0.798713
O O23 0.250000 0.100225 0.745825
O O24 0.479688 0.000000 0.734348
#
# Coordination Sequence:
#
# PCOD9398967 Si02
#       8
#     8   8   8   8   8   8   8   8
#     4   9  18  30  41  57  87 124 154 181 223 274
#     4   8  14  25  40  57  78 107 145 187 225 263
#     4   9  17  32  53  72  92 121 156 191 228 272
#     4  11  21  32  49  73 100 123 148 188 234 279
#     4  10  18  29  45  64  87 116 155 193 219 255
#     4   9  19  35  52  71  95 123 154 187 226 271
#     4  10  20  32  45  64  92 125 161 195 221 257
#     4   8  14  27  47  66  85 112 147 189 230 262
#
# _framework density 14.997365
#
# number of rings (size 3 to 8) (size 9 to 14) (size 15 to 20)
#    0.000    2.750    1.250    2.625    0.000    3.750 
#    0.000    2.500    0.000    0.750    0.000    0.000 
#    0.000    0.500    0.000    1.125    0.000    1.750 
#
# Total GULP energy -356576.422015 kJ/mol
# GULP energy per Si atom -5571.506594 kJ/mol
# Density = 1.496323 g / cm^3
# Si number density = 14.997365 Si / 1000 Ang^3
#
#
#
# Elastic Constant Matrix: (Units=GPa)
#
#
# Indices 1 2 3 4 5 6 
#
# 1 22.1995 36.3190 44.3142 0.0000 0.0000 0.0000
# 2 36.3190 106.6293 78.5809 0.0000 0.0000 0.0000
# 3 44.3142 78.5809 142.6712 0.0000 0.0000 0.0000
# 4 0.0000 0.0000 0.0000 8.0954 0.0000 0.0000
# 5 0.0000 0.0000 0.0000 0.0000 28.4155 0.0000
# 6 0.0000 0.0000 0.0000 0.0000 0.0000 18.6764
#
#
#
# Elastic Compliance Matrix: (Units=1/GPa)
#
#
# Indices 1 2 3 4 5 6 
#
# 1 0.161405 -0.030349 -0.033417 0.000000 0.000000 0.000000
# 2 -0.030349 0.021492 -0.002411 0.000000 0.000000 0.000000
# 3 -0.033417 -0.002411 0.018717 0.000000 0.000000 0.000000
# 4 0.000000 0.000000 0.000000 0.123527 0.000000 0.000000
# 5 0.000000 0.000000 0.000000 0.000000 0.035192 0.000000
# 6 0.000000 0.000000 0.000000 0.000000 0.000000 0.053543
#
#
# Mechanical properties :
#
#
# Convention : Reuss Voigt Hill
#
# Bulk Modulus (GPa) = 14.43854 65.54755 39.99305
# Shear Modulus (GPa) = 8.78244 18.52320 13.65282
#
# Velocity S-wave (km/s) = 2.42254 3.51821 3.02047
# Velocity P-wave (km/s) = 4.18010 7.76561 6.23610
#
# Compressibility (1/GPa) = 0.06925910
#
# Stress axis : x y z
#
# Youngs Moduli (GPa) = 6.19560 46.52814 53.42868
#
# Poissons Ratio (x) = 1.41210 1.78543
# Poissons Ratio (y) = 0.18803 0.12882
# Poissons Ratio (z) = 0.20704 0.11218
#
# Static dielectric constant tensor:
#      x y z
#    x 1.501680 0.000000 0.000000 
#    y 0.000000 1.498080 0.000000 
#    z 0.000000 0.000000 1.484310 
# 
# From -- ./inp_files/37614.got.cif
#   From: 2010.05.17/outbox.cif.g08.bks.cpg/sg51_19_cif.got.tgz:37614.got - 2010.06.03 11:52:47.
