data_PCOD9398743
_publ_section_title
;
Structure prediction by ZEFSAII (Michael W. Deem and Ramdas Pophale) SiO2 
 PCOD9398743
Probable space group: P M M A
;
_chemical_formula_sum "Si O2"
_cell_formula_units_Z 64
_cell_length_a 29.615399
_cell_length_b 7.646508
_cell_length_c 16.270583
_cell_angle_alpha 90.000000
_cell_angle_beta 90.000000
_cell_angle_gamma 90.000000
_cell_volume 3684.544873
_symmetry_space_group_name_H-M "P M M A"
_symmetry_group_IT_number 51
_symmetry_cell_setting 'orthorhombic'
loop_
_space_group_symop_operation_xyz
x,y,z
1/2-x,-y,z
1/2+x,-y,-z
-x,y,-z
-x,-y,-z
1/2+x,y,-z
1/2-x,y,z
x,-y,z
loop_
_atom_site_type_symbol
_atom_site_label
_atom_site_fract_x
_atom_site_fract_y
_atom_site_fract_z
Si Si1 0.699519 0.286262 0.909469
Si Si2 0.052519 0.792897 0.327083
Si Si3 0.550342 0.784584 0.316405
Si Si4 0.945097 0.797809 0.496385
Si Si5 0.103539 0.207515 0.842699
Si Si6 0.448083 0.211580 0.004958
Si Si7 0.891786 0.293758 0.832187
Si Si8 0.800096 0.710645 0.099468
O O1 0.750000 0.232749 0.883913
O O2 0.698840 0.500000 0.909286
O O3 0.657698 0.222282 0.855572
O O4 0.692847 0.232288 0.004611
O O5 0.068622 0.719403 0.415482
O O6 0.085667 0.771766 0.251074
O O7 0.001968 0.728952 0.305878
O O8 0.047023 0.000000 0.341194
O O9 0.566347 0.723356 0.406749
O O10 0.580255 0.724283 0.239983
O O11 0.551006 0.000000 0.317622
O O12 0.000000 0.797848 0.500000
O O13 0.929680 0.000000 0.494127
O O14 0.157025 0.234330 0.848010
O O15 0.095098 0.000000 0.843161
O O16 0.080244 0.276922 0.926188
O O17 0.424126 0.261720 0.089748
O O18 0.448460 0.000000 0.002782
O O19 0.500000 0.270841 0.000000
O O20 0.886977 0.500000 0.822129
O O21 0.750000 0.770526 0.125423
O O22 0.799451 0.500000 0.098692
#
# Coordination Sequence:
#
# PCOD9398743 Si02
#       8
#     8   8   8   8   8   8   8   8
#     4   8  15  29  46  60  77 107 145 181 216 254
#     4   9  16  28  46  65  89 118 146 177 211 252
#     4   8  14  26  44  66  89 115 147 177 209 253
#     4   7  11  22  43  66  83 108 148 182 205 243
#     4  10  18  27  43  66  89 112 141 182 219 247
#     4  10  20  32  43  58  87 124 151 170 202 249
#     4  11  20  29  44  65  87 113 146 183 215 252
#     4   9  17  31  48  61  79 111 147 181 218 261
#
# _framework density 17.369852000000002
#
# number of rings (size 3 to 8) (size 9 to 14) (size 15 to 20)
#    0.000    3.000    1.250    3.375    0.000    2.500 
#    0.000    1.875    0.000    5.625    0.000    0.875 
#    0.000    5.000    0.000    0.000    0.000    0.000 
#
# Total GULP energy -356546.615316 kJ/mol
# GULP energy per Si atom -5571.040864 kJ/mol
# Density = 1.733032 g / cm^3
# Si number density = 17.369852 Si / 1000 Ang^3
#
#
#
# Elastic Constant Matrix: (Units=GPa)
#
#
# Indices 1 2 3 4 5 6 
#
# 1 98.1704 -4.6677 58.0106 0.0000 0.0000 0.0000
# 2 -4.6677 28.0175 1.5326 0.0000 0.0000 0.0000
# 3 58.0106 1.5326 130.5242 0.0000 0.0000 0.0000
# 4 0.0000 0.0000 0.0000 -22.6032 0.0000 0.0000
# 5 0.0000 0.0000 0.0000 0.0000 10.1304 0.0000
# 6 0.0000 0.0000 0.0000 0.0000 0.0000 11.6653
#
#
#
# Elastic Compliance Matrix: (Units=1/GPa)
#
#
# Indices 1 2 3 4 5 6 
#
# 1 0.014012 0.002677 -0.006259 0.000000 0.000000 0.000000
# 2 0.002677 0.036226 -0.001615 0.000000 0.000000 0.000000
# 3 -0.006259 -0.001615 0.010462 0.000000 0.000000 0.000000
# 4 0.000000 0.000000 0.000000 -0.044242 0.000000 0.000000
# 5 0.000000 0.000000 0.000000 0.000000 0.098713 0.000000
# 6 0.000000 0.000000 0.000000 0.000000 0.000000 0.085725
#
#
# Mechanical properties :
#
#
# Convention : Reuss Voigt Hill
#
# Bulk Modulus (GPa) = 19.87830 40.71813 30.29821
# Shear Modulus (GPa) = 21.92403 13.29426 17.60915
#
# Velocity S-wave (km/s) = 3.55658 2.76952 3.18744
# Velocity P-wave (km/s) = 5.32303 5.80687 5.57021
#
# Compressibility (1/GPa) = 0.05030612
#
# Stress axis : x y z
#
# Youngs Moduli (GPa) = 71.36613 27.60423 95.58226
#
# Poissons Ratio (x) = -0.07389 0.59826
# Poissons Ratio (y) = -0.19104 0.15437
# Poissons Ratio (z) = 0.44669 0.04458
#
# Static dielectric constant tensor:
#      x y z
#    x 1.586880 0.000000 0.000000 
#    y 0.000000 1.661900 0.000000 
#    z 0.000000 0.000000 1.615820 
# 
# From -- ./inp_files/26567.got.cif
#   From: 2010.05.17/outbox.cif.g08.bks.cpg/sg51_14_cif.got.tgz:26567.got - 2010.06.03 11:52:47.
