data_PCOD9398365
_publ_section_title
;
Structure prediction by ZEFSAII (Michael W. Deem and Ramdas Pophale) SiO2 
 PCOD9398365
Probable space group: P M M A
;
_chemical_formula_sum "Si O2"
_cell_formula_units_Z 44
_cell_length_a 8.983925
_cell_length_b 18.367950
_cell_length_c 20.992246
_cell_angle_alpha 90.000000
_cell_angle_beta 90.000000
_cell_angle_gamma 90.000000
_cell_volume 3464.062453
_symmetry_space_group_name_H-M "P M M A"
_symmetry_group_IT_number 51
_symmetry_cell_setting 'orthorhombic'
loop_
_space_group_symop_operation_xyz
x,y,z
1/2-x,-y,z
1/2+x,-y,-z
-x,y,-z
-x,-y,-z
1/2+x,y,-z
1/2-x,y,z
x,-y,z
loop_
_atom_site_type_symbol
_atom_site_label
_atom_site_fract_x
_atom_site_fract_y
_atom_site_fract_z
Si Si1 0.071042 0.000000 0.071664
Si Si2 0.579116 0.588491 0.304521
Si Si3 0.072175 0.855560 0.929650
Si Si4 0.578069 0.411259 0.565406
Si Si5 0.427315 0.307948 0.929945
Si Si6 0.927476 0.413960 0.828041
O O1 0.007823 0.074746 0.101560
O O2 0.250000 0.000000 0.068426
O O3 0.000000 0.000000 0.000000
O O4 0.750000 0.612306 0.299900
O O5 0.578662 0.500000 0.306414
O O6 0.505208 0.613071 0.370570
O O7 0.488851 0.608661 0.241307
O O8 0.250000 0.868251 0.934094
O O9 0.047172 0.774317 0.903416
O O10 0.000000 0.851035 0.000000
O O11 0.500000 0.387671 0.500000
O O12 0.750000 0.389397 0.566542
O O13 0.574450 0.500000 0.565517
O O14 0.250000 0.317529 0.936041
O O15 0.496210 0.366636 0.882609
O O16 0.500000 0.313765 0.000000
O O17 0.750000 0.405370 0.830142
O O18 0.961436 0.500000 0.836483
#
# Coordination Sequence:
#
# PCOD9398365 Si02
#       6
#     4   8   8   8   8   8
#     4  10  16  22  36  56  76  96 114 132 161 204
#     4   9  16  26  39  53  69  89 114 145 180 218
#     4   9  16  26  39  55  74  93 113 138 171 211
#     4   9  15  22  33  50  71  92 113 138 171 211
#     4  10  20  32  45  58  72  92 118 152 192 229
#     4  10  20  32  44  56  70  91 120 155 194 232
#
# _framework density 12.70185
#
# number of rings (size 3 to 8) (size 9 to 14) (size 15 to 20)
#    0.000    2.545    0.000    4.636    0.000    8.000 
#    0.000    0.000    0.000    0.000    0.000    0.000 
#    0.000    0.000    0.000    0.000    0.000    0.000 
#
# Total GULP energy -244960.112129 kJ/mol
# GULP energy per Si atom -5567.275276 kJ/mol
# Density = 1.267294 g / cm^3
# Si number density = 12.701850 Si / 1000 Ang^3
#
#
#
# Elastic Constant Matrix: (Units=GPa)
#
#
# Indices 1 2 3 4 5 6 
#
# 1 99.9580 49.0057 46.4212 0.0000 0.0000 0.0000
# 2 49.0057 58.1522 42.1533 0.0000 0.0000 0.0000
# 3 46.4212 42.1533 80.3381 0.0000 0.0000 0.0000
# 4 0.0000 0.0000 0.0000 -0.4221 0.0000 0.0000
# 5 0.0000 0.0000 0.0000 0.0000 22.8127 0.0000
# 6 0.0000 0.0000 0.0000 0.0000 0.0000 14.2526
#
#
#
# Elastic Compliance Matrix: (Units=1/GPa)
#
#
# Indices 1 2 3 4 5 6 
#
# 1 0.017770 -0.012155 -0.003890 0.000000 0.000000 0.000000
# 2 -0.012155 0.036066 -0.011900 0.000000 0.000000 0.000000
# 3 -0.003890 -0.011900 0.020939 0.000000 0.000000 0.000000
# 4 0.000000 0.000000 0.000000 -2.369055 0.000000 0.000000
# 5 0.000000 0.000000 0.000000 0.000000 0.043835 0.000000
# 6 0.000000 0.000000 0.000000 0.000000 0.000000 0.070163
#
#
# Mechanical properties :
#
#
# Convention : Reuss Voigt Hill
#
# Bulk Modulus (GPa) = 52.95459 57.06763 55.01111
# Shear Modulus (GPa) = -2.36061 14.05317 5.84628
#
# Velocity S-wave (km/s) = -1.36474 3.32985 2.14772
# Velocity P-wave (km/s) = 6.26878 7.73369 7.03945
#
# Compressibility (1/GPa) = 0.01888411
#
# Stress axis : x y z
#
# Youngs Moduli (GPa) = 56.27453 27.72716 47.75746
#
# Poissons Ratio (x) = 0.33703 0.18578
# Poissons Ratio (y) = 0.68403 0.56832
# Poissons Ratio (z) = 0.21891 0.32996
#
# Static dielectric constant tensor:
#      x y z
#    x 1.424470 0.000000 0.000000 
#    y 0.000000 1.431740 0.000000 
#    z 0.000000 0.000000 1.392650 
# 
# From -- ./inp_files/27854.got.cif
#   From: 2010.05.17/outbox.cif.g08.bks.cpg/sg51_14_cif.got.tgz:27854.got - 2010.06.03 11:52:47.
