data_PCOD9398315
_publ_section_title
;
Structure prediction by ZEFSAII (Michael W. Deem and Ramdas Pophale) SiO2 
 PCOD9398315
Probable space group: P B A N
;
_chemical_formula_sum "Si O2"
_cell_formula_units_Z 48
_cell_length_a 12.000000
_cell_length_b 18.000000
_cell_length_c 12.000000
_cell_angle_alpha 90.000000
_cell_angle_beta 90.000000
_cell_angle_gamma 90.000000
_cell_volume 2592.000000
_symmetry_space_group_name_H-M "P B A N"
_symmetry_group_IT_number 50
_space_group.IT_coordinate_system_code '2'
_symmetry_cell_setting 'orthorhombic'
loop_
_space_group_symop_operation_xyz
x,y,z
1/2-x,1/2-y,z
x,1/2-y,-z
1/2-x,y,-z
-x,-y,-z
1/2+x,1/2+y,-z
-x,1/2+y,z
1/2+x,-y,z
loop_
_atom_site_type_symbol
_atom_site_label
_atom_site_fract_x
_atom_site_fract_y
_atom_site_fract_z
Si Si1 0.671007 0.896393 0.133205
Si Si2 0.468977 0.926850 0.279729
Si Si3 0.243221 0.562916 0.129745
Si Si4 0.608814 0.824222 0.924675
Si Si5 0.962807 0.100876 0.736094
Si Si6 0.384027 0.839472 0.499525
O O1 0.584724 0.892871 0.233830
O O2 0.764586 0.832968 0.121542
O O3 0.736013 0.974091 0.136836
O O4 0.601219 0.889397 0.018358
O O5 0.371310 0.915118 0.189139
O O6 0.433507 0.885947 0.394277
O O7 0.487841 0.016903 0.280410
O O8 0.345150 0.595082 0.200417
O O9 0.250000 0.584404 0.000000
O O10 0.534560 0.845930 0.818197
O O11 0.586463 0.750000 0.000000
O O12 0.940100 0.132058 0.613373
O O13 0.400841 0.750000 0.500000
O O14 0.250000 0.852512 0.500000
#
# Coordination Sequence:
#
# PCOD9398315 Si02
#       6
#     8   8   8   8   8   8
#     4  10  20  37  60  96 130 167 201 259 330 390
#     4  11  22  40  69  95 125 171 221 278 323 390
#     4  11  19  36  63  97 129 157 218 269 324 390
#     4  11  22  39  62  93 136 174 202 253 332 404
#     4  11  23  41  66  95 126 171 225 271 324 394
#     4  11  25  46  65  87 127 174 220 282 339 381
#
# _framework density 18.518519000000001
#
# number of rings (size 3 to 8) (size 9 to 14) (size 15 to 20)
#    0.000    1.167    5.000    2.500    2.333    2.667 
#    0.000    0.833    0.000    1.000    0.000    0.000 
#    0.000    0.000    0.000    0.000    0.000    0.000 
#
# Total GULP energy -267653.862541 kJ/mol
# GULP energy per Si atom -5576.122136 kJ/mol
# Density = 1.847637 g / cm^3
# Si number density = 18.518519 Si / 1000 Ang^3
#
#
#
# Elastic Constant Matrix: (Units=GPa)
#
#
# Indices 1 2 3 4 5 6 
#
# 1 96.6555 45.4554 71.8866 0.0000 0.0000 0.0000
# 2 45.4554 80.5167 65.3090 0.0000 0.0000 0.0000
# 3 71.8866 65.3090 172.6463 0.0000 0.0000 0.0000
# 4 0.0000 0.0000 0.0000 36.2870 0.0000 0.0000
# 5 0.0000 0.0000 0.0000 0.0000 42.1117 0.0000
# 6 0.0000 0.0000 0.0000 0.0000 0.0000 17.3094
#
#
#
# Elastic Compliance Matrix: (Units=1/GPa)
#
#
# Indices 1 2 3 4 5 6 
#
# 1 0.016461 -0.005386 -0.004817 0.000000 0.000000 0.000000
# 2 -0.005386 0.019680 -0.005202 0.000000 0.000000 0.000000
# 3 -0.004817 -0.005202 0.009766 0.000000 0.000000 0.000000
# 4 0.000000 0.000000 0.000000 0.027558 0.000000 0.000000
# 5 0.000000 0.000000 0.000000 0.000000 0.023746 0.000000
# 6 0.000000 0.000000 0.000000 0.000000 0.000000 0.057772
#
#
# Mechanical properties :
#
#
# Convention : Reuss Voigt Hill
#
# Bulk Modulus (GPa) = 66.23708 79.45784 72.84746
# Shear Modulus (GPa) = 26.20193 30.28612 28.24402
#
# Velocity S-wave (km/s) = 3.76560 4.04846 3.90959
# Velocity P-wave (km/s) = 7.39946 8.05318 7.73323
#
# Compressibility (1/GPa) = 0.01509728
#
# Stress axis : x y z
#
# Youngs Moduli (GPa) = 60.74783 50.81319 102.40110
#
# Poissons Ratio (x) = 0.27370 0.49324
# Poissons Ratio (y) = 0.32721 0.53267
# Poissons Ratio (z) = 0.29260 0.26432
#
# Static dielectric constant tensor:
#      x y z
#    x 1.666390 0.000000 0.000000 
#    y 0.000000 1.678080 0.000000 
#    z 0.000000 0.000000 1.625920 
# 
# From -- ./inp_files/20179.got.cif
#   From: 2010.05.17/outbox.ucp.g08.bks.cvg/sg50_11_cif.got.tgz:20179.got - 2010.06.11 16:26:39.
