data_PCOD9398057
_publ_section_title
;
Structure prediction by ZEFSAII (Michael W. Deem and Ramdas Pophale) SiO2 
 PCOD9398057
Probable space group: P B A N
;
_chemical_formula_sum "Si O2"
_cell_formula_units_Z 18
_cell_length_a 14.476156
_cell_length_b 10.075266
_cell_length_c 5.074610
_cell_angle_alpha 90.000000
_cell_angle_beta 90.000000
_cell_angle_gamma 90.000000
_cell_volume 740.137564
_symmetry_space_group_name_H-M "P B A N"
_symmetry_group_IT_number 50
_space_group.IT_coordinate_system_code '2'
_symmetry_cell_setting 'orthorhombic'
loop_
_space_group_symop_operation_xyz
x,y,z
1/2-x,1/2-y,z
x,1/2-y,-z
1/2-x,y,-z
-x,-y,-z
1/2+x,1/2+y,-z
-x,1/2+y,z
1/2+x,-y,z
loop_
_atom_site_type_symbol
_atom_site_label
_atom_site_fract_x
_atom_site_fract_y
_atom_site_fract_z
Si Si1 0.750000 0.750000 0.000000
Si Si2 0.346724 0.494619 0.924993
Si Si3 0.009903 0.155280 0.253519
O O1 0.809763 0.648938 0.827028
O O2 0.414662 0.572610 0.736727
O O3 0.250000 0.564594 0.000000
O O4 0.408940 0.447981 0.175126
O O5 0.022656 0.250000 0.500000
O O6 0.999145 0.250000 0.000000
#
# Coordination Sequence:
#
# PCOD9398057 Si02
#       3
#     2   8   8
#     4   8  16  44  64 104 132 188 230 278 338 440
#     4   9  20  42  69  98 141 185 228 285 345 418
#     4  11  23  43  68 101 137 179 232 287 346 410
#
# _framework density 24.319800000000001
#
# number of rings (size 3 to 8) (size 9 to 14) (size 15 to 20)
#    1.333    0.889    2.222    0.000    0.000    8.000 
#    0.000   23.333    0.000    0.000    0.000    0.000 
#    0.000    0.000    0.000    0.000    0.000    0.000 
#
# Total GULP energy -100415.051293 kJ/mol
# GULP energy per Si atom -5578.613961 kJ/mol
# Density = 2.426445 g / cm^3
# Si number density = 24.319800 Si / 1000 Ang^3
#
#
#
# Elastic Constant Matrix: (Units=GPa)
#
#
# Indices 1 2 3 4 5 6 
#
# 1 209.2163 44.5838 33.5575 0.0000 0.0000 0.0000
# 2 44.5838 69.5734 48.5753 0.0000 0.0000 0.0000
# 3 33.5575 48.5753 134.7111 0.0000 0.0000 0.0000
# 4 0.0000 0.0000 0.0000 41.7682 0.0000 0.0000
# 5 0.0000 0.0000 0.0000 0.0000 0.6934 0.0000
# 6 0.0000 0.0000 0.0000 0.0000 0.0000 53.3878
#
#
#
# Elastic Compliance Matrix: (Units=1/GPa)
#
#
# Indices 1 2 3 4 5 6 
#
# 1 0.005537 -0.003455 -0.000133 0.000000 0.000000 0.000000
# 2 -0.003455 0.021366 -0.006843 0.000000 0.000000 0.000000
# 3 -0.000133 -0.006843 0.009924 0.000000 0.000000 0.000000
# 4 0.000000 0.000000 0.000000 0.023942 0.000000 0.000000
# 5 0.000000 0.000000 0.000000 0.000000 1.442189 0.000000
# 6 0.000000 0.000000 0.000000 0.000000 0.000000 0.018731
#
#
# Mechanical properties :
#
#
# Convention : Reuss Voigt Hill
#
# Bulk Modulus (GPa) = 62.64573 74.10376 68.37475
# Shear Modulus (GPa) = 3.23024 38.28882 20.75953
#
# Velocity S-wave (km/s) = 1.15374 3.97216 2.92482
# Velocity P-wave (km/s) = 5.25261 7.18151 6.29142
#
# Compressibility (1/GPa) = 0.01596278
#
# Stress axis : x y z
#
# Youngs Moduli (GPa) = 180.58769 46.80434 100.76370
#
# Poissons Ratio (x) = 0.16172 0.01345
# Poissons Ratio (y) = 0.62399 0.68957
# Poissons Ratio (z) = 0.02410 0.32030
#
# Static dielectric constant tensor:
#      x y z
#    x 2.083110 0.000000 0.000000 
#    y 0.000000 2.000210 0.000000 
#    z 0.000000 0.000000 1.939500 
# 
# From -- ./inp_files/1439.got.cif
#   From: 2010.05.17/outbox.cif.g08.bks.cpg/sg50_1_cif.got.tgz:1439.got - 2010.06.03 11:33:33.
