data_PCOD9398240
_publ_section_title
;
Structure prediction by ZEFSAII (Michael W. Deem and Ramdas Pophale) SiO2 
 PCOD9398240
Probable space group: P B A N
;
_chemical_formula_sum "Si O2"
_cell_formula_units_Z 26
_cell_length_a 13.164949
_cell_length_b 18.959295
_cell_length_c 4.960612
_cell_angle_alpha 90.000000
_cell_angle_beta 90.000000
_cell_angle_gamma 90.000000
_cell_volume 1238.159587
_symmetry_space_group_name_H-M "P B A N"
_symmetry_group_IT_number 50
_space_group.IT_coordinate_system_code '2'
_symmetry_cell_setting 'orthorhombic'
loop_
_space_group_symop_operation_xyz
x,y,z
1/2-x,1/2-y,z
x,1/2-y,-z
1/2-x,y,-z
-x,-y,-z
1/2+x,1/2+y,-z
-x,1/2+y,z
1/2+x,-y,z
loop_
_atom_site_type_symbol
_atom_site_label
_atom_site_fract_x
_atom_site_fract_y
_atom_site_fract_z
Si Si1 0.750000 0.007460 0.000000
Si Si2 0.250000 0.250000 0.000000
Si Si3 0.541762 0.454730 0.244066
Si Si4 0.750000 0.912512 0.500000
Si Si5 0.583556 0.678061 0.620808
O O1 0.838638 0.048171 0.162501
O O2 0.711988 0.957578 0.244842
O O3 0.327410 0.203968 0.821130
O O4 0.500000 0.500000 0.500000
O O5 0.497710 0.375985 0.264447
O O6 0.500000 0.500000 0.000000
O O7 0.847966 0.867107 0.411017
O O8 0.539413 0.750000 0.500000
#
# Coordination Sequence:
#
# PCOD9398240 Si02
#       5
#     4   2   8   4   8
#     4  12  23  44  67 101 141 182 236 296 359 434
#     4  12  24  40  68 100 146 174 222 302 378 436
#     4  12  26  42  69 103 138 185 240 297 365 445
#     4  12  21  40  70  98 139 182 226 294 369 424
#     4  12  25  39  66 107 142 186 237 301 373 446
#
# _framework density 20.998908
#
# number of rings (size 3 to 8) (size 9 to 14) (size 15 to 20)
#    0.000    0.000    9.231    0.923    4.308    0.000 
#    0.000    0.000    0.000    0.923    0.000    0.000 
#    0.000    0.000    0.000    0.000    0.000    0.000 
#
# Total GULP energy -145004.002758 kJ/mol
# GULP energy per Si atom -5577.077029 kJ/mol
# Density = 2.095111 g / cm^3
# Si number density = 20.998908 Si / 1000 Ang^3
#
#
#
# Elastic Constant Matrix: (Units=GPa)
#
#
# Indices 1 2 3 4 5 6 
#
# 1 132.7172 88.0246 36.7172 0.0000 0.0000 0.0000
# 2 88.0246 175.0779 54.5374 0.0000 0.0000 0.0000
# 3 36.7172 54.5374 135.6011 0.0000 0.0000 0.0000
# 4 0.0000 0.0000 0.0000 30.5505 0.0000 0.0000
# 5 0.0000 0.0000 0.0000 0.0000 31.9503 0.0000
# 6 0.0000 0.0000 0.0000 0.0000 0.0000 48.6319
#
#
#
# Elastic Compliance Matrix: (Units=1/GPa)
#
#
# Indices 1 2 3 4 5 6 
#
# 1 0.011398 -0.005452 -0.000893 0.000000 0.000000 0.000000
# 2 -0.005452 0.009138 -0.002199 0.000000 0.000000 0.000000
# 3 -0.000893 -0.002199 0.008501 0.000000 0.000000 0.000000
# 4 0.000000 0.000000 0.000000 0.032733 0.000000 0.000000
# 5 0.000000 0.000000 0.000000 0.000000 0.031299 0.000000
# 6 0.000000 0.000000 0.000000 0.000000 0.000000 0.020563
#
#
# Mechanical properties :
#
#
# Convention : Reuss Voigt Hill
#
# Bulk Modulus (GPa) = 83.69803 89.10609 86.40206
# Shear Modulus (GPa) = 37.11861 39.83433 38.47647
#
# Velocity S-wave (km/s) = 4.20890 4.36015 4.28519
# Velocity P-wave (km/s) = 7.97274 8.23855 8.10673
#
# Compressibility (1/GPa) = 0.01194771
#
# Stress axis : x y z
#
# Youngs Moduli (GPa) = 87.73201 109.43242 117.63538
#
# Poissons Ratio (x) = 0.59668 0.10510
# Poissons Ratio (y) = 0.47836 0.25866
# Poissons Ratio (z) = 0.07838 0.24063
#
# Static dielectric constant tensor:
#      x y z
#    x 1.899110 0.000000 0.000000 
#    y 0.000000 1.880500 0.000000 
#    z 0.000000 0.000000 1.790180 
# 
# From -- ./inp_files/2879.got.cif
#   From: 2010.05.17/outbox.cif.g08.bks.cpg/sg50_2_cif.got.tgz:2879.got - 2010.06.03 11:33:33.
