data_PCOD9398736
_publ_section_title
;
Structure prediction by ZEFSAII (Michael W. Deem and Ramdas Pophale) SiO2 
 PCOD9398736
Probable space group: P M M A
;
_chemical_formula_sum "Si O2"
_cell_formula_units_Z 64
_cell_length_a 8.736516
_cell_length_b 30.460046
_cell_length_c 13.762444
_cell_angle_alpha 90.000000
_cell_angle_beta 90.000000
_cell_angle_gamma 90.000000
_cell_volume 3662.388371
_symmetry_space_group_name_H-M "P M M A"
_symmetry_group_IT_number 51
_symmetry_cell_setting 'orthorhombic'
loop_
_space_group_symop_operation_xyz
x,y,z
1/2-x,-y,z
1/2+x,-y,-z
-x,y,-z
-x,-y,-z
1/2+x,y,-z
1/2-x,y,z
x,-y,z
loop_
_atom_site_type_symbol
_atom_site_label
_atom_site_fract_x
_atom_site_fract_y
_atom_site_fract_z
Si Si1 0.934260 0.356662 0.609312
Si Si2 0.566900 0.180218 0.395079
Si Si3 0.421668 0.948020 0.596171
Si Si4 0.933854 0.729472 0.293580
Si Si5 0.431437 0.950630 0.195266
Si Si6 0.434517 0.452809 0.390665
Si Si7 0.067130 0.859961 0.811452
Si Si8 0.432331 0.227925 0.103535
O O1 0.750000 0.353531 0.605915
O O2 0.978031 0.405075 0.650675
O O3 0.000000 0.354092 0.500000
O O4 0.001719 0.316241 0.668499
O O5 0.500000 0.169436 0.500000
O O6 0.750000 0.179143 0.402105
O O7 0.521117 0.229822 0.364021
O O8 0.524192 0.149732 0.302371
O O9 0.500000 0.929201 0.500000
O O10 0.250000 0.930002 0.614517
O O11 0.527470 0.946546 0.690474
O O12 0.402267 0.000000 0.578152
O O13 0.750000 0.728577 0.289873
O O14 0.000152 0.742103 0.188975
O O15 0.250000 0.947552 0.180719
O O16 0.515565 0.908013 0.153604
O O17 0.481944 0.000000 0.164778
O O18 0.500000 0.452919 0.500000
O O19 0.250000 0.452822 0.395720
O O20 0.481728 0.500000 0.345747
O O21 0.250000 0.855463 0.818467
O O22 0.987762 0.821462 0.871746
O O23 0.250000 0.229652 0.103180
O O24 0.500000 0.240812 0.000000
#
# Coordination Sequence:
#
# PCOD9398736 Si02
#       8
#     8   8   8   8   8   8   8   8
#     4  10  18  27  42  67 100 141 184 224 267 309
#     4   9  19  32  47  67  94 128 163 199 237 282
#     4   9  16  26  40  58  82 115 154 193 230 267
#     4  10  20  34  50  73 103 132 167 209 252 301
#     4  10  20  33  49  70  95 123 156 194 235 278
#     4   8  14  24  37  55  85 129 181 230 269 305
#     4  10  21  37  54  76 103 131 165 199 234 282
#     4  11  22  39  62  84 104 127 156 194 243 296
#
# _framework density 17.474934999999999
#
# number of rings (size 3 to 8) (size 9 to 14) (size 15 to 20)
#    0.000    2.375    0.000    4.125    0.000    7.250 
#    0.000    1.250    0.000    0.375    0.000    0.000 
#    0.000    0.500    0.000    1.375    0.000    2.250 
#
# Total GULP energy -356868.231349 kJ/mol
# GULP energy per Si atom -5576.066115 kJ/mol
# Density = 1.743516 g / cm^3
# Si number density = 17.474935 Si / 1000 Ang^3
#
#
#
# Elastic Constant Matrix: (Units=GPa)
#
#
# Indices 1 2 3 4 5 6 
#
# 1 61.7744 38.3960 15.5412 0.0000 0.0000 0.0000
# 2 38.3960 169.2129 31.9591 0.0000 0.0000 0.0000
# 3 15.5412 31.9591 48.4431 0.0000 0.0000 0.0000
# 4 0.0000 0.0000 0.0000 8.4036 0.0000 0.0000
# 5 0.0000 0.0000 0.0000 0.0000 20.8414 0.0000
# 6 0.0000 0.0000 0.0000 0.0000 0.0000 31.5467
#
#
#
# Elastic Compliance Matrix: (Units=1/GPa)
#
#
# Indices 1 2 3 4 5 6 
#
# 1 0.019440 -0.003693 -0.003800 0.000000 0.000000 0.000000
# 2 -0.003693 0.007453 -0.003732 0.000000 0.000000 0.000000
# 3 -0.003800 -0.003732 0.024324 0.000000 0.000000 0.000000
# 4 0.000000 0.000000 0.000000 0.118997 0.000000 0.000000
# 5 0.000000 0.000000 0.000000 0.000000 0.047981 0.000000
# 6 0.000000 0.000000 0.000000 0.000000 0.000000 0.031699
#
#
# Mechanical properties :
#
#
# Convention : Reuss Voigt Hill
#
# Bulk Modulus (GPa) = 34.76342 50.13590 42.44966
# Shear Modulus (GPa) = 17.73479 25.06060 21.39769
#
# Velocity S-wave (km/s) = 3.18916 3.79104 3.50305
# Velocity P-wave (km/s) = 5.78770 6.92208 6.38015
#
# Compressibility (1/GPa) = 0.02876587
#
# Stress axis : x y z
#
# Youngs Moduli (GPa) = 51.44165 134.18168 41.11201
#
# Poissons Ratio (x) = 0.49558 0.15622
# Poissons Ratio (y) = 0.18999 0.15342
# Poissons Ratio (z) = 0.19547 0.50074
#
# Static dielectric constant tensor:
#      x y z
#    x 1.622320 0.000000 0.000000 
#    y 0.000000 1.658400 0.000000 
#    z 0.000000 0.000000 1.591600 
# 
# From -- ./inp_files/14808.got.cif
#   From: 2010.05.17/outbox.cif.g08.bks.cpg/sg51_8_cif.got.tgz:14808.got - 2010.06.03 11:52:47.
