data_PCOD9399598
_publ_section_title
;
Structure prediction by ZEFSAII (Michael W. Deem and Ramdas Pophale) SiO2 
 PCOD9399598
Probable space group: P M M A
;
_chemical_formula_sum "Si O2"
_cell_formula_units_Z 64
_cell_length_a 15.253704
_cell_length_b 17.571762
_cell_length_c 12.811638
_cell_angle_alpha 90.000000
_cell_angle_beta 90.000000
_cell_angle_gamma 90.000000
_cell_volume 3433.960426
_symmetry_space_group_name_H-M "P M M A"
_symmetry_group_IT_number 51
_symmetry_cell_setting 'orthorhombic'
loop_
_space_group_symop_operation_xyz
x,y,z
1/2-x,-y,z
1/2+x,-y,-z
-x,y,-z
-x,-y,-z
1/2+x,y,-z
1/2-x,y,z
x,-y,z
loop_
_atom_site_type_symbol
_atom_site_label
_atom_site_fract_x
_atom_site_fract_y
_atom_site_fract_z
Si Si1 0.349337 0.339709 0.625203
Si Si2 0.006388 0.585056 0.748313
Si Si3 0.080192 0.747140 0.235874
Si Si4 0.106488 0.741754 0.011290
Si Si5 0.855013 0.785034 0.537917
Si Si6 0.618595 0.205323 0.213446
Si Si7 0.848830 0.416983 0.069463
Si Si8 0.146619 0.915003 0.614958
O O1 0.250000 0.369217 0.611159
O O2 0.424429 0.398761 0.655325
O O3 0.379757 0.290828 0.525650
O O4 0.345783 0.276797 0.719110
O O5 0.968704 0.500000 0.742085
O O6 0.072524 0.587992 0.847643
O O7 0.939899 0.656038 0.755935
O O8 0.129133 0.767001 0.128127
O O9 0.119751 0.777666 0.342497
O O10 0.985197 0.784805 0.223682
O O11 0.141367 0.785420 0.908562
O O12 0.138987 0.655245 0.002481
O O13 0.000000 0.741534 0.000000
O O14 0.750000 0.787823 0.530024
O O15 0.890342 0.857469 0.472974
O O16 0.641959 0.128756 0.274342
O O17 0.750000 0.413399 0.116694
O O18 0.855854 0.500000 0.017621
O O19 0.250000 0.922019 0.592207
O O20 0.108557 0.000000 0.616268
#
# Coordination Sequence:
#
# PCOD9399598 Si02
#       8
#     8   8   8   8   8   8   8   8
#     4   9  16  29  48  69  97 128 164 215 268 304
#     4  10  19  30  48  73  98 131 169 220 274 310
#     4  10  20  34  50  70 102 141 178 212 246 304
#     4  10  18  32  48  70 101 140 171 207 253 304
#     4   9  19  35  53  72  97 133 173 210 250 304
#     4   9  17  29  49  77 101 129 166 205 249 302
#     4  10  19  29  45  73 102 128 169 222 267 305
#     4   9  18  34  58  85 110 132 157 202 258 303
#
# _framework density 18.637373
#
# number of rings (size 3 to 8) (size 9 to 14) (size 15 to 20)
#    0.000    2.500    3.750    1.500    0.000    7.000 
#    0.000    2.500    0.000    5.250    0.000    1.750 
#    0.000    0.000    0.000    0.000    0.000    0.000 
#
# Total GULP energy -356501.520473 kJ/mol
# GULP energy per Si atom -5570.336257 kJ/mol
# Density = 1.859495 g / cm^3
# Si number density = 18.637373 Si / 1000 Ang^3
#
#
#
# Elastic Constant Matrix: (Units=GPa)
#
#
# Indices 1 2 3 4 5 6 
#
# 1 12.9392 1.9464 1.5079 0.0000 0.0000 0.0000
# 2 1.9464 68.6229 35.0196 0.0000 0.0000 0.0000
# 3 1.5079 35.0196 133.6202 0.0000 0.0000 0.0000
# 4 0.0000 0.0000 0.0000 9.1535 0.0000 0.0000
# 5 0.0000 0.0000 0.0000 0.0000 40.6077 0.0000
# 6 0.0000 0.0000 0.0000 0.0000 0.0000 8.7132
#
#
#
# Elastic Compliance Matrix: (Units=1/GPa)
#
#
# Indices 1 2 3 4 5 6 
#
# 1 0.077629 -0.002026 -0.000345 0.000000 0.000000 0.000000
# 2 -0.002026 0.016875 -0.004400 0.000000 0.000000 0.000000
# 3 -0.000345 -0.004400 0.008641 0.000000 0.000000 0.000000
# 4 0.000000 0.000000 0.000000 0.109248 0.000000 0.000000
# 5 0.000000 0.000000 0.000000 0.000000 0.024626 0.000000
# 6 0.000000 0.000000 0.000000 0.000000 0.000000 0.114769
#
#
# Mechanical properties :
#
#
# Convention : Reuss Voigt Hill
#
# Bulk Modulus (GPa) = 11.16020 32.45889 21.80954
# Shear Modulus (GPa) = 12.65191 23.47544 18.06367
#
# Velocity S-wave (km/s) = 2.60829 3.55292 3.11660
# Velocity P-wave (km/s) = 3.88227 5.85532 4.96774
#
# Compressibility (1/GPa) = 0.08960416
#
# Stress axis : x y z
#
# Youngs Moduli (GPa) = 12.88171 59.25866 115.72843
#
# Poissons Ratio (x) = 0.12004 0.03994
# Poissons Ratio (y) = 0.02609 0.50919
# Poissons Ratio (z) = 0.00445 0.26073
#
# Static dielectric constant tensor:
#      x y z
#    x 1.680480 0.000000 0.000000 
#    y 0.000000 1.653550 0.000000 
#    z 0.000000 0.000000 1.690430 
# 
# From -- ./inp_files/17694.got.cif
#   From: 2010.05.17/outbox.cif.g08.bks.cpg/sg51_9_cif.got.tgz:17694.got - 2010.06.03 11:52:47.
