data_PCOD9399315
_publ_section_title
;
Structure prediction by ZEFSAII (Michael W. Deem and Ramdas Pophale) SiO2 
 PCOD9399315
Probable space group: P M M A
;
_chemical_formula_sum "Si O2"
_cell_formula_units_Z 64
_cell_length_a 8.384434
_cell_length_b 20.485872
_cell_length_c 20.979667
_cell_angle_alpha 90.000000
_cell_angle_beta 90.000000
_cell_angle_gamma 90.000000
_cell_volume 3603.518830
_symmetry_space_group_name_H-M "P M M A"
_symmetry_group_IT_number 51
_symmetry_cell_setting 'orthorhombic'
loop_
_space_group_symop_operation_xyz
x,y,z
1/2-x,-y,z
1/2+x,-y,-z
-x,y,-z
-x,-y,-z
1/2+x,y,-z
1/2-x,y,z
x,-y,z
loop_
_atom_site_type_symbol
_atom_site_label
_atom_site_fract_x
_atom_site_fract_y
_atom_site_fract_z
Si Si1 0.443218 0.211890 0.249288
Si Si2 0.560096 0.425822 0.429850
Si Si3 0.941451 0.786825 0.103121
Si Si4 0.438609 0.656365 0.312241
Si Si5 0.558148 0.069899 0.757213
Si Si6 0.060601 0.575740 0.807263
Si Si7 0.559563 0.070326 0.097709
Si Si8 0.937844 0.647340 0.932189
O O1 0.250000 0.216973 0.242372
O O2 0.516639 0.217272 0.178514
O O3 0.498023 0.271241 0.293450
O O4 0.482290 0.139100 0.274215
O O5 0.500000 0.407115 0.500000
O O6 0.750000 0.428504 0.431549
O O7 0.499856 0.500000 0.416356
O O8 0.510330 0.376732 0.374571
O O9 0.750000 0.782864 0.095517
O O10 0.999501 0.857819 0.077524
O O11 0.022486 0.724281 0.072193
O O12 0.250000 0.660344 0.321574
O O13 0.475431 0.611662 0.251016
O O14 0.750000 0.070648 0.767313
O O15 0.476259 0.070101 0.826558
O O16 0.517851 0.000000 0.726157
O O17 0.250000 0.579023 0.795860
O O18 0.013156 0.500000 0.810820
O O19 0.020858 0.611982 0.872950
O O20 0.750000 0.070024 0.087654
O O21 0.494539 0.000000 0.073664
O O22 0.750000 0.637802 0.926983
O O23 0.000000 0.622457 0.000000
#
# Coordination Sequence:
#
# PCOD9399315 Si02
#       8
#     8   8   8   8   8   8   8   8
#     4   9  17  28  44  70 102 136 172 211 254 299
#     4  10  21  37  56  78 106 141 180 220 260 307
#     4  10  18  30  50  73  99 131 167 209 256 307
#     4  11  21  33  53  81 113 146 177 213 254 303
#     4   8  13  22  37  59  91 130 169 207 247 292
#     4  11  24  41  60  82 106 132 167 211 258 310
#     4   8  14  24  40  65  95 126 160 199 246 299
#     4  12  25  41  59  77  99 129 167 213 263 319
#
# _framework density 17.760417
#
# number of rings (size 3 to 8) (size 9 to 14) (size 15 to 20)
#    0.000    2.125    1.250    3.000    0.000    4.500 
#    0.000    0.000    0.000    0.375    0.000    0.000 
#    0.000    0.500    0.000    0.875    0.000    1.500 
#
# Total GULP energy -356925.738199 kJ/mol
# GULP energy per Si atom -5576.964659 kJ/mol
# Density = 1.771999 g / cm^3
# Si number density = 17.760417 Si / 1000 Ang^3
#
#
#
# Elastic Constant Matrix: (Units=GPa)
#
#
# Indices 1 2 3 4 5 6 
#
# 1 17.0359 -1.0868 0.7149 0.0000 0.0000 0.0000
# 2 -1.0868 120.9179 46.2624 0.0000 0.0000 0.0000
# 3 0.7149 46.2624 85.1460 0.0000 0.0000 0.0000
# 4 0.0000 0.0000 0.0000 28.8261 0.0000 0.0000
# 5 0.0000 0.0000 0.0000 0.0000 23.3106 0.0000
# 6 0.0000 0.0000 0.0000 0.0000 0.0000 18.4407
#
#
#
# Elastic Compliance Matrix: (Units=1/GPa)
#
#
# Indices 1 2 3 4 5 6 
#
# 1 0.058799 0.000906 -0.000986 0.000000 0.000000 0.000000
# 2 0.000906 0.010454 -0.005688 0.000000 0.000000 0.000000
# 3 -0.000986 -0.005688 0.014843 0.000000 0.000000 0.000000
# 4 0.000000 0.000000 0.000000 0.034691 0.000000 0.000000
# 5 0.000000 0.000000 0.000000 0.000000 0.042899 0.000000
# 6 0.000000 0.000000 0.000000 0.000000 0.000000 0.054228
#
#
# Mechanical properties :
#
#
# Convention : Reuss Voigt Hill
#
# Bulk Modulus (GPa) = 13.78161 34.98675 24.38418
# Shear Modulus (GPa) = 19.86995 25.92944 22.89969
#
# Velocity S-wave (km/s) = 3.34844 3.82508 3.59467
# Velocity P-wave (km/s) = 4.76718 6.26501 5.56670
#
# Compressibility (1/GPa) = 0.07256048
#
# Stress axis : x y z
#
# Youngs Moduli (GPa) = 17.00717 95.65438 67.37126
#
# Poissons Ratio (x) = -0.08663 0.06641
# Poissons Ratio (y) = -0.01540 0.38319
# Poissons Ratio (z) = 0.01676 0.54406
#
# Static dielectric constant tensor:
#      x y z
#    x 1.606760 0.000000 0.000000 
#    y 0.000000 1.678220 0.000000 
#    z 0.000000 0.000000 1.529350 
# 
# From -- ./inp_files/32634.got.cif
#   From: 2010.05.17/outbox.cif.g08.bks.cpg/sg51_17_cif.got.tgz:32634.got - 2010.06.03 11:52:47.
