data_PCOD9399581
_publ_section_title
;
Structure prediction by ZEFSAII (Michael W. Deem and Ramdas Pophale) SiO2 
 PCOD9399581
Probable space group: P M M A
;
_chemical_formula_sum "Si O2"
_cell_formula_units_Z 64
_cell_length_a 30.888250
_cell_length_b 7.541225
_cell_length_c 12.814329
_cell_angle_alpha 90.000000
_cell_angle_beta 90.000000
_cell_angle_gamma 90.000000
_cell_volume 2984.908841
_symmetry_space_group_name_H-M "P M M A"
_symmetry_group_IT_number 51
_symmetry_cell_setting 'orthorhombic'
loop_
_space_group_symop_operation_xyz
x,y,z
1/2-x,-y,z
1/2+x,-y,-z
-x,y,-z
-x,-y,-z
1/2+x,y,-z
1/2-x,y,z
x,-y,z
loop_
_atom_site_type_symbol
_atom_site_label
_atom_site_fract_x
_atom_site_fract_y
_atom_site_fract_z
Si Si1 0.392248 0.213437 0.387278
Si Si2 0.418191 0.290218 0.617745
Si Si3 0.796620 0.791450 0.563994
Si Si4 0.678505 0.286511 0.332032
Si Si5 0.296673 0.207449 0.899338
Si Si6 0.109784 0.782925 0.963874
Si Si7 0.062524 0.217101 0.175657
Si Si8 0.965967 0.204960 0.185891
O O1 0.417354 0.255060 0.494497
O O2 0.342656 0.282212 0.396096
O O3 0.416554 0.276685 0.284335
O O4 0.389597 0.000000 0.382116
O O5 0.419999 0.500000 0.632702
O O6 0.371461 0.225419 0.659755
O O7 0.454992 0.211779 0.691364
O O8 0.750000 0.716418 0.598434
O O9 0.799429 0.774264 0.438670
O O10 0.796365 0.000000 0.590362
O O11 0.679401 0.500000 0.330748
O O12 0.699118 0.219786 0.225862
O O13 0.250000 0.284888 0.930448
O O14 0.295876 0.000000 0.928356
O O15 0.341638 0.282967 0.943030
O O16 0.091363 0.734080 0.076608
O O17 0.111584 0.000000 0.957616
O O18 0.074904 0.720076 0.877710
O O19 0.013204 0.281582 0.164232
O O20 0.061270 0.000000 0.178526
O O21 0.968498 0.000000 0.152688
#
# Coordination Sequence:
#
# PCOD9399581 Si02
#       8
#     8   8   8   8   8   8   8   8
#     4   9  18  33  51  71 100 132 165 206 246 291
#     4  10  20  33  50  74 105 133 160 200 250 303
#     4   9  17  29  46  68  94 127 164 198 240 292
#     4  10  19  30  46  70 100 130 160 198 244 291
#     4  10  19  30  47  73 103 133 162 194 242 299
#     4   9  17  31  51  75 103 130 162 207 249 287
#     4   9  18  32  52  77  98 125 171 214 245 287
#     4  10  18  31  55  79  98 127 166 208 253 296
#
# _framework density 21.441191
#
# number of rings (size 3 to 8) (size 9 to 14) (size 15 to 20)
#    0.000    2.500    1.250    1.500    0.000    5.000 
#    0.000    3.750    0.000    7.500    0.000    0.000 
#    0.000    2.000    0.000    0.000    0.000    0.000 
#
# Total GULP energy -357210.721268 kJ/mol
# GULP energy per Si atom -5581.417520 kJ/mol
# Density = 2.139239 g / cm^3
# Si number density = 21.441191 Si / 1000 Ang^3
#
#
#
# Elastic Constant Matrix: (Units=GPa)
#
#
# Indices 1 2 3 4 5 6 
#
# 1 187.3075 5.1262 84.2844 0.0000 0.0000 0.0000
# 2 5.1262 53.9916 -10.1823 0.0000 0.0000 0.0000
# 3 84.2844 -10.1823 106.1088 0.0000 0.0000 0.0000
# 4 0.0000 0.0000 0.0000 -68.4332 0.0000 0.0000
# 5 0.0000 0.0000 0.0000 0.0000 -630.2722 0.0000
# 6 0.0000 0.0000 0.0000 0.0000 0.0000 -5.8972
#
#
#
# Elastic Compliance Matrix: (Units=1/GPa)
#
#
# Indices 1 2 3 4 5 6 
#
# 1 0.008542 -0.002129 -0.006990 0.000000 0.000000 0.000000
# 2 -0.002129 0.019393 0.003552 0.000000 0.000000 0.000000
# 3 -0.006990 0.003552 0.015317 0.000000 0.000000 0.000000
# 4 0.000000 0.000000 0.000000 -0.014613 0.000000 0.000000
# 5 0.000000 0.000000 0.000000 0.000000 -0.001587 0.000000
# 6 0.000000 0.000000 0.000000 0.000000 0.000000 -0.169572
#
#
# Mechanical properties :
#
#
# Convention : Reuss Voigt Hill
#
# Bulk Modulus (GPa) = 31.13339 56.20716 43.67028
# Shear Modulus (GPa) = -41.43216 -123.04187 -82.23702
#
# Velocity S-wave (km/s) = -4.40063 -7.58356 -6.19983
# Velocity P-wave (km/s) = 3.35692 7.09993 5.55328
#
# Compressibility (1/GPa) = 0.03211985
#
# Stress axis : x y z
#
# Youngs Moduli (GPa) = 117.06494 51.56372 65.28623
#
# Poissons Ratio (x) = 0.10979 0.45633
# Poissons Ratio (y) = 0.24926 -0.23192
# Poissons Ratio (z) = 0.81824 -0.18317
#
# Static dielectric constant tensor:
#      x y z
#    x 1.811430 0.000000 0.000000 
#    y 0.000000 1.788350 0.000000 
#    z 0.000000 0.000000 1.727810 
# 
# From -- ./inp_files/19435.got.cif
#   From: 2010.05.17/outbox.cif.g08.bks.cpg/sg51_10_cif.got.tgz:19435.got - 2010.06.03 11:52:47.
