data_PCOD9399974
_publ_section_title
;
Structure prediction by ZEFSAII (Michael W. Deem and Ramdas Pophale) SiO2 
 PCOD9399974
Probable space group: P M M A
;
_chemical_formula_sum "Si O2"
_cell_formula_units_Z 60
_cell_length_a 22.263447
_cell_length_b 21.435221
_cell_length_c 5.551700
_cell_angle_alpha 90.000000
_cell_angle_beta 90.000000
_cell_angle_gamma 90.000000
_cell_volume 2649.392859
_symmetry_space_group_name_H-M "P M M A"
_symmetry_group_IT_number 51
_symmetry_cell_setting 'orthorhombic'
loop_
_space_group_symop_operation_xyz
x,y,z
1/2-x,-y,z
1/2+x,-y,-z
-x,y,-z
-x,-y,-z
1/2+x,y,-z
1/2-x,y,z
x,-y,z
loop_
_atom_site_type_symbol
_atom_site_label
_atom_site_fract_x
_atom_site_fract_y
_atom_site_fract_z
Si Si1 0.834245 0.393272 0.750000
Si Si2 0.317966 0.244558 0.250000
Si Si3 0.037972 0.798043 0.250000
Si Si4 0.351306 0.590496 0.750000
Si Si5 0.539040 0.067453 0.750000
Si Si6 0.962019 0.500000 0.250000
Si Si7 0.036469 0.657058 0.250000
Si Si8 0.823567 0.265129 0.250000
O O1 0.813480 0.321032 0.750000
O O2 0.818639 0.424304 0.499049
O O3 0.906950 0.388698 0.750000
O O4 0.818639 0.424304 0.000951
O O5 0.250000 0.220107 0.250000
O O6 0.342267 0.228867 0.511973
O O7 0.342267 0.228868 0.988027
O O8 0.000000 0.798506 0.500000
O O9 0.071337 0.865036 0.250000
O O10 0.062902 0.727418 0.250000
O O11 0.000000 0.798506 0.000000
O O12 0.415596 0.557705 0.750000
O O13 0.354214 0.666523 0.750000
O O14 0.500000 0.067424 0.500000
O O15 0.571582 0.000000 0.750000
O O16 0.500000 0.067424 0.000000
O O17 0.000000 0.500000 0.500000
O O18 0.000000 0.500000 0.000000
O O19 0.000000 0.650502 0.500000
O O20 0.000000 0.650502 0.000000
O O21 0.750000 0.274173 0.250000
#
# Coordination Sequence:
#
# PCOD9399974 Si02
#       8
#     8   8   8   8   8   4   8   8
#     4  10  19  31  48  65  80 100 127 156 185 223
#     4   8  14  25  42  63  83 100 118 144 180 220
#     4   8  14  23  32  45  67  92 118 151 187 216
#     4  10  21  35  49  65  81  99 127 156 184 226
#     4   8  12  18  29  43  59  83 116 150 181 214
#     4  12  26  40  51  62  81 108 132 158 190 216
#     4  10  19  28  39  56  78 102 128 159 190 217
#     4   8  14  27  47  67  84  98 113 142 183 222
#
# _framework density 22.646697
#
# number of rings (size 3 to 8) (size 9 to 14) (size 15 to 20)
#    0.000    2.933    0.000    1.600    0.000    3.200 
#    0.000    0.333    0.000    0.000    0.000   10.267 
#    0.000    0.000    0.000    0.000    0.000    0.667 
#
# Total GULP energy -334367.662827 kJ/mol
# GULP energy per Si atom -5572.794380 kJ/mol
# Density = 2.259515 g / cm^3
# Si number density = 22.646697 Si / 1000 Ang^3
#
#
#
# Elastic Constant Matrix: (Units=GPa)
#
#
# Indices 1 2 3 4 5 6 
#
# 1 95.5628 17.0568 44.2337 0.0000 0.0000 0.0000
# 2 17.0568 103.2789 13.6964 0.0000 0.0000 0.0000
# 3 44.2337 13.6964 268.8799 0.0000 0.0000 0.0000
# 4 0.0000 0.0000 0.0000 15.4736 0.0000 0.0000
# 5 0.0000 0.0000 0.0000 0.0000 12.6896 0.0000
# 6 0.0000 0.0000 0.0000 0.0000 0.0000 7.0856
#
#
#
# Elastic Compliance Matrix: (Units=1/GPa)
#
#
# Indices 1 2 3 4 5 6 
#
# 1 0.011608 -0.001675 -0.001824 0.000000 0.000000 0.000000
# 2 -0.001675 0.009990 -0.000233 0.000000 0.000000 0.000000
# 3 -0.001824 -0.000233 0.004031 0.000000 0.000000 0.000000
# 4 0.000000 0.000000 0.000000 0.064626 0.000000 0.000000
# 5 0.000000 0.000000 0.000000 0.000000 0.078805 0.000000
# 6 0.000000 0.000000 0.000000 0.000000 0.000000 0.141131
#
#
# Mechanical properties :
#
#
# Convention : Reuss Voigt Hill
#
# Bulk Modulus (GPa) = 55.05529 68.63282 61.84405
# Shear Modulus (GPa) = 15.44588 33.23208 24.33898
#
# Velocity S-wave (km/s) = 2.61442 3.83484 3.28186
# Velocity P-wave (km/s) = 5.78592 7.06963 6.45974
#
# Compressibility (1/GPa) = 0.01816356
#
# Stress axis : x y z
#
# Youngs Moduli (GPa) = 86.14955 100.09901 248.06950
#
# Poissons Ratio (x) = 0.16768 0.45255
# Poissons Ratio (y) = 0.14431 0.05788
# Poissons Ratio (z) = 0.15716 0.02335
#
# Static dielectric constant tensor:
#      x y z
#    x 1.908580 0.000000 0.000000 
#    y 0.000000 1.836720 0.000000 
#    z 0.000000 0.000000 1.952330 
# 
# From -- ./inp_files/4138.got.cif
#   From: 2010.05.17/outbox.cif.g08.bks.cpg/sg51_3_cif.got.tgz:4138.got - 2010.06.03 11:52:47.
