data_PCOD9399189
_publ_section_title
;
Structure prediction by ZEFSAII (Michael W. Deem and Ramdas Pophale) SiO2 
 PCOD9399189
Probable space group: P M M A
;
_chemical_formula_sum "Si O2"
_cell_formula_units_Z 48
_cell_length_a 8.254754
_cell_length_b 15.343464
_cell_length_c 19.614349
_cell_angle_alpha 90.000000
_cell_angle_beta 90.000000
_cell_angle_gamma 90.000000
_cell_volume 2484.285203
_symmetry_space_group_name_H-M "P M M A"
_symmetry_group_IT_number 51
_symmetry_cell_setting 'orthorhombic'
loop_
_space_group_symop_operation_xyz
x,y,z
1/2-x,-y,z
1/2+x,-y,-z
-x,y,-z
-x,-y,-z
1/2+x,y,-z
1/2-x,y,z
x,-y,z
loop_
_atom_site_type_symbol
_atom_site_label
_atom_site_fract_x
_atom_site_fract_y
_atom_site_fract_z
Si Si1 0.944073 0.738722 0.187551
Si Si2 0.945314 0.901525 0.727906
Si Si3 0.446739 0.591558 0.713836
Si Si4 0.439924 0.854038 0.425094
Si Si5 0.943087 0.656262 0.430482
Si Si6 0.555838 0.401180 0.921914
O O1 0.750000 0.741902 0.186596
O O2 0.007465 0.674952 0.247109
O O3 0.000733 0.833125 0.214002
O O4 0.995446 0.682450 0.121250
O O5 0.750000 0.896370 0.724684
O O6 0.005765 0.884201 0.649417
O O7 0.992660 0.000000 0.746001
O O8 0.250000 0.592126 0.719741
O O9 0.507923 0.500000 0.741395
O O10 0.485578 0.601115 0.635122
O O11 0.500000 0.886421 0.500000
O O12 0.250000 0.872961 0.424449
O O13 0.473015 0.750476 0.425639
O O14 0.750000 0.670513 0.431344
O O15 0.000000 0.613827 0.500000
O O16 0.750000 0.401579 0.918450
O O17 0.498691 0.500000 0.900295
O O18 0.500000 0.391598 0.000000
#
# Coordination Sequence:
#
# PCOD9399189 Si02
#       6
#     8   8   8   8   8   8
#     4  11  21  36  59  85 116 151 188 233 284 336
#     4  10  22  39  57  79 110 148 191 241 297 353
#     4   9  18  31  48  72 103 139 178 220 271 329
#     4  10  19  32  52  74 101 136 181 237 298 353
#     4  10  18  30  47  67  95 133 178 225 276 330
#     4  10  21  38  62  94 129 162 195 229 268 321
#
# _framework density 19.321453999999999
#
# number of rings (size 3 to 8) (size 9 to 14) (size 15 to 20)
#    0.000    2.000    1.667    3.500    0.000    3.333 
#    0.000    0.000    0.000    5.000    0.000    0.000 
#    0.000    0.000    0.000    0.000    0.000    0.000 
#
# Total GULP energy -267408.261240 kJ/mol
# GULP energy per Si atom -5571.005442 kJ/mol
# Density = 1.927748 g / cm^3
# Si number density = 19.321454 Si / 1000 Ang^3
#
#
#
# Elastic Constant Matrix: (Units=GPa)
#
#
# Indices 1 2 3 4 5 6 
#
# 1 33.7362 20.0796 20.2978 0.0000 0.0000 0.0000
# 2 20.0796 145.5055 70.6194 0.0000 0.0000 0.0000
# 3 20.2978 70.6194 128.4558 0.0000 0.0000 0.0000
# 4 0.0000 0.0000 0.0000 -179.5916 0.0000 0.0000
# 5 0.0000 0.0000 0.0000 0.0000 24.9338 0.0000
# 6 0.0000 0.0000 0.0000 0.0000 0.0000 28.2199
#
#
#
# Elastic Compliance Matrix: (Units=1/GPa)
#
#
# Indices 1 2 3 4 5 6 
#
# 1 0.033576 -0.002808 -0.003762 0.000000 0.000000 0.000000
# 2 -0.002808 0.009608 -0.004839 0.000000 0.000000 0.000000
# 3 -0.003762 -0.004839 0.011039 0.000000 0.000000 0.000000
# 4 0.000000 0.000000 0.000000 -0.005568 0.000000 0.000000
# 5 0.000000 0.000000 0.000000 0.000000 0.040106 0.000000
# 6 0.000000 0.000000 0.000000 0.000000 0.000000 0.035436
#
#
# Mechanical properties :
#
#
# Convention : Reuss Voigt Hill
#
# Bulk Modulus (GPa) = 31.83959 58.85457 45.34708
# Shear Modulus (GPa) = 31.74930 -12.17421 9.78754
#
# Velocity S-wave (km/s) = 4.05806 -2.51288 2.25314
# Velocity P-wave (km/s) = 6.20256 4.70186 5.50360
#
# Compressibility (1/GPa) = 0.03140743
#
# Stress axis : x y z
#
# Youngs Moduli (GPa) = 29.78293 104.07529 90.58539
#
# Poissons Ratio (x) = 0.29221 0.34078
# Poissons Ratio (y) = 0.08362 0.43831
# Poissons Ratio (z) = 0.11204 0.50358
#
# Static dielectric constant tensor:
#      x y z
#    x 1.686260 0.000000 0.000000 
#    y 0.000000 1.680660 0.000000 
#    z 0.000000 0.000000 2.325630 
# 
# From -- ./inp_files/27574.got.cif
#   From: 2010.05.17/outbox.cif.g08.bks.cpg/sg51_14_cif.got.tgz:27574.got - 2010.06.03 11:52:47.
