data_PCOD9399882
_publ_section_title
;
Structure prediction by ZEFSAII (Michael W. Deem and Ramdas Pophale) SiO2 
 PCOD9399882
Probable space group: P M M A
;
_chemical_formula_sum "Si O2"
_cell_formula_units_Z 64
_cell_length_a 31.427339
_cell_length_b 8.839978
_cell_length_c 12.495110
_cell_angle_alpha 90.000000
_cell_angle_beta 90.000000
_cell_angle_gamma 90.000000
_cell_volume 3471.353792
_symmetry_space_group_name_H-M "P M M A"
_symmetry_group_IT_number 51
_symmetry_cell_setting 'orthorhombic'
loop_
_space_group_symop_operation_xyz
x,y,z
1/2-x,-y,z
1/2+x,-y,-z
-x,y,-z
-x,-y,-z
1/2+x,y,-z
1/2-x,y,z
x,-y,z
loop_
_atom_site_type_symbol
_atom_site_label
_atom_site_fract_x
_atom_site_fract_y
_atom_site_fract_z
Si Si1 0.450716 0.315484 0.512337
Si Si2 0.887184 0.178484 0.868224
Si Si3 0.200551 0.318268 0.523354
Si Si4 0.439433 0.316261 0.752092
Si Si5 0.135907 0.680345 0.909821
Si Si6 0.699160 0.825185 0.248074
Si Si7 0.373998 0.317465 0.359738
Si Si8 0.478733 0.322526 0.117051
O O1 0.500000 0.267778 0.500000
O O2 0.450955 0.500000 0.510958
O O3 0.434172 0.267253 0.629667
O O4 0.417546 0.268587 0.420503
O O5 0.870948 0.248274 0.757432
O O6 0.936683 0.224948 0.876729
O O7 0.882143 0.000000 0.867412
O O8 0.865571 0.247144 0.973677
O O9 0.250000 0.280443 0.498143
O O10 0.198260 0.500000 0.538106
O O11 0.188527 0.240327 0.635033
O O12 0.166642 0.276928 0.432637
O O13 0.437588 0.500000 0.752265
O O14 0.403855 0.265318 0.836219
O O15 0.485913 0.276515 0.796664
O O16 0.132451 0.500000 0.920760
O O17 0.176929 0.727466 0.842859
O O18 0.750000 0.817614 0.238019
O O19 0.685854 0.000000 0.239471
O O20 0.375344 0.500000 0.351406
O O21 0.467584 0.500000 0.134896
O O22 0.500000 0.312839 0.000000
#
# Coordination Sequence:
#
# PCOD9399882 Si02
#       8
#     8   8   8   8   8   8   8   8
#     4   9  16  27  48  78 107 136 176 226 275 328
#     4  12  25  38  53  78 114 152 191 235 293 352
#     4   9  18  35  61  90 114 141 186 239 284 335
#     4   9  17  30  53  83 109 136 179 233 282 325
#     4  11  21  37  59  82 108 143 193 239 277 327
#     4  10  21  37  58  87 122 153 179 218 281 348
#     4  10  20  36  57  79 108 149 195 241 290 340
#     4  10  18  34  57  80 107 145 191 234 278 333
#
# _framework density 18.436612
#
# number of rings (size 3 to 8) (size 9 to 14) (size 15 to 20)
#    0.000    2.000    1.250    3.375    0.000    5.500 
#    0.000    0.625    0.000    5.625    0.000    0.000 
#    0.000    0.000    0.000    0.000    0.000    0.000 
#
# Total GULP energy -357373.031963 kJ/mol
# GULP energy per Si atom -5583.953624 kJ/mol
# Density = 1.839465 g / cm^3
# Si number density = 18.436612 Si / 1000 Ang^3
#
#
#
# Elastic Constant Matrix: (Units=GPa)
#
#
# Indices 1 2 3 4 5 6 
#
# 1 65.0187 31.8897 60.0562 0.0000 0.0000 0.0000
# 2 31.8897 41.2774 48.7615 0.0000 0.0000 0.0000
# 3 60.0562 48.7615 161.2802 0.0000 0.0000 0.0000
# 4 0.0000 0.0000 0.0000 3.3268 0.0000 0.0000
# 5 0.0000 0.0000 0.0000 0.0000 29.8020 0.0000
# 6 0.0000 0.0000 0.0000 0.0000 0.0000 15.5020
#
#
#
# Elastic Compliance Matrix: (Units=1/GPa)
#
#
# Indices 1 2 3 4 5 6 
#
# 1 0.028130 -0.014558 -0.006073 0.000000 0.000000 0.000000
# 2 -0.014558 0.045220 -0.008251 0.000000 0.000000 0.000000
# 3 -0.006073 -0.008251 0.010957 0.000000 0.000000 0.000000
# 4 0.000000 0.000000 0.000000 0.300591 0.000000 0.000000
# 5 0.000000 0.000000 0.000000 0.000000 0.033555 0.000000
# 6 0.000000 0.000000 0.000000 0.000000 0.000000 0.064508
#
#
# Mechanical properties :
#
#
# Convention : Reuss Voigt Hill
#
# Bulk Modulus (GPa) = 37.67555 60.99902 49.33728
# Shear Modulus (GPa) = 9.09797 18.18410 13.64103
#
# Velocity S-wave (km/s) = 2.22384 3.14395 2.72304
# Velocity P-wave (km/s) = 5.20322 6.80712 6.05848
#
# Compressibility (1/GPa) = 0.02654241
#
# Stress axis : x y z
#
# Youngs Moduli (GPa) = 35.54876 22.11399 91.26943
#
# Poissons Ratio (x) = 0.32193 0.55432
# Poissons Ratio (y) = 0.51752 0.75306
# Poissons Ratio (z) = 0.21591 0.18246
#
# Static dielectric constant tensor:
#      x y z
#    x 1.640830 0.000000 0.000000 
#    y 0.000000 1.620800 0.000000 
#    z 0.000000 0.000000 1.626770 
# 
# From -- ./inp_files/19535.got.cif
#   From: 2010.05.17/outbox.cif.g08.bks.cpg/sg51_10_cif.got.tgz:19535.got - 2010.06.03 11:52:47.
