data_PCOD9399088
_publ_section_title
;
Structure prediction by ZEFSAII (Michael W. Deem and Ramdas Pophale) SiO2 
 PCOD9399088
Probable space group: P M M A
;
_chemical_formula_sum "Si O2"
_cell_formula_units_Z 40
_cell_length_a 20.515910
_cell_length_b 12.224135
_cell_length_c 8.498286
_cell_angle_alpha 90.000000
_cell_angle_beta 90.000000
_cell_angle_gamma 90.000000
_cell_volume 2131.278802
_symmetry_space_group_name_H-M "P M M A"
_symmetry_group_IT_number 51
_symmetry_cell_setting 'orthorhombic'
loop_
_space_group_symop_operation_xyz
x,y,z
1/2-x,-y,z
1/2+x,-y,-z
-x,y,-z
-x,-y,-z
1/2+x,y,-z
1/2-x,y,z
x,-y,z
loop_
_atom_site_type_symbol
_atom_site_label
_atom_site_fract_x
_atom_site_fract_y
_atom_site_fract_z
Si Si1 0.547975 0.787575 0.862806
Si Si2 0.827040 0.000000 0.292003
Si Si3 0.069846 0.374685 0.417682
Si Si4 0.680167 0.869696 0.864257
Si Si5 0.484272 0.000000 0.691914
Si Si6 0.678716 0.214713 0.504697
O O1 0.561070 0.687489 0.746886
O O2 0.616236 0.822641 0.941730
O O3 0.519209 0.892036 0.765562
O O4 0.500000 0.756943 0.000000
O O5 0.825268 0.888527 0.391118
O O6 0.750000 0.000000 0.216222
O O7 0.907225 0.000000 0.253120
O O8 0.091432 0.500000 0.400407
O O9 0.121496 0.301472 0.512963
O O10 0.000000 0.372990 0.500000
O O11 0.750000 0.829727 0.924345
O O12 0.675096 0.835509 0.681214
O O13 0.678501 0.000000 0.874757
O O14 0.500000 0.000000 0.500000
O O15 0.750000 0.266689 0.488056
#
# Coordination Sequence:
#
# PCOD9399088 Si02
#       6
#     8   4   8   8   4   8
#     4  11  22  35  53  78 106 139 178 219 261 319
#     4  10  18  29  48  77 110 142 170 201 262 327
#     4  10  21  36  54  77 102 135 178 222 269 315
#     4   9  15  27  47  72 101 133 167 206 251 298
#     4  12  21  33  54  79 109 142 177 215 260 313
#     4   9  16  28  49  77 105 134 170 214 258 308
#
# _framework density 18.768076000000001
#
# number of rings (size 3 to 8) (size 9 to 14) (size 15 to 20)
#    0.000    2.000    2.000    4.500    0.000    0.800 
#    0.000    1.000    0.000    1.200    0.000    0.000 
#    0.000    0.000    0.000    0.000    0.000    0.000 
#
# Total GULP energy -222799.605065 kJ/mol
# GULP energy per Si atom -5569.990127 kJ/mol
# Density = 1.872536 g / cm^3
# Si number density = 18.768076 Si / 1000 Ang^3
#
#
#
# Elastic Constant Matrix: (Units=GPa)
#
#
# Indices 1 2 3 4 5 6 
#
# 1 156.7963 43.4194 8.1873 0.0000 0.0000 0.0000
# 2 43.4194 112.4729 14.5296 0.0000 0.0000 0.0000
# 3 8.1873 14.5296 23.6708 0.0000 0.0000 0.0000
# 4 0.0000 0.0000 0.0000 6.0032 0.0000 0.0000
# 5 0.0000 0.0000 0.0000 0.0000 15.5058 0.0000
# 6 0.0000 0.0000 0.0000 0.0000 0.0000 -10.9269
#
#
#
# Elastic Compliance Matrix: (Units=1/GPa)
#
#
# Indices 1 2 3 4 5 6 
#
# 1 0.007157 -0.002653 -0.000847 0.000000 0.000000 0.000000
# 2 -0.002653 0.010641 -0.005614 0.000000 0.000000 0.000000
# 3 -0.000847 -0.005614 0.045985 0.000000 0.000000 0.000000
# 4 0.000000 0.000000 0.000000 0.166579 0.000000 0.000000
# 5 0.000000 0.000000 0.000000 0.000000 0.064492 0.000000
# 6 0.000000 0.000000 0.000000 0.000000 0.000000 -0.091517
#
#
# Mechanical properties :
#
#
# Convention : Reuss Voigt Hill
#
# Bulk Modulus (GPa) = 21.95168 47.24583 34.59875
# Shear Modulus (GPa) = 21.11958 17.23667 19.17812
#
# Velocity S-wave (km/s) = 3.35818 3.03381 3.20010
# Velocity P-wave (km/s) = 5.17283 6.12373 5.66826
#
# Compressibility (1/GPa) = 0.04555461
#
# Stress axis : x y z
#
# Youngs Moduli (GPa) = 139.72953 93.98017 21.74637
#
# Poissons Ratio (x) = 0.24937 0.01841
# Poissons Ratio (y) = 0.37076 0.12208
# Poissons Ratio (z) = 0.11830 0.52757
#
# Static dielectric constant tensor:
#      x y z
#    x 1.748580 0.000000 0.000000 
#    y 0.000000 1.594750 0.000000 
#    z 0.000000 0.000000 1.679060 
# 
# From -- ./inp_files/10712.got.cif
#   From: 2010.05.17/outbox.cif.g08.bks.cpg/sg51_6_cif.got.tgz:10712.got - 2010.06.03 11:52:47.
