data_PCOD9399448
_publ_section_title
;
Structure prediction by ZEFSAII (Michael W. Deem and Ramdas Pophale) SiO2 
 PCOD9399448
Probable space group: P M M A
;
_chemical_formula_sum "Si O2"
_cell_formula_units_Z 64
_cell_length_a 16.097680
_cell_length_b 17.553507
_cell_length_c 13.186308
_cell_angle_alpha 90.000000
_cell_angle_beta 90.000000
_cell_angle_gamma 90.000000
_cell_volume 3726.064790
_symmetry_space_group_name_H-M "P M M A"
_symmetry_group_IT_number 51
_symmetry_cell_setting 'orthorhombic'
loop_
_space_group_symop_operation_xyz
x,y,z
1/2-x,-y,z
1/2+x,-y,-z
-x,y,-z
-x,-y,-z
1/2+x,y,-z
1/2-x,y,z
x,-y,z
loop_
_atom_site_type_symbol
_atom_site_label
_atom_site_fract_x
_atom_site_fract_y
_atom_site_fract_z
Si Si1 0.904016 0.690733 0.196346
Si Si2 0.842076 0.414348 0.029940
Si Si3 0.434559 0.589206 0.175782
Si Si4 0.654072 0.796581 0.368314
Si Si5 0.341810 0.731161 0.203792
Si Si6 0.656224 0.833338 0.596513
Si Si7 0.996205 0.088728 0.317465
Si Si8 0.987449 0.825133 0.886101
O O1 0.868120 0.721704 0.302266
O O2 0.980339 0.631204 0.205471
O O3 0.938856 0.766821 0.142638
O O4 0.845559 0.647173 0.118126
O O5 0.750000 0.412582 0.982134
O O6 0.854034 0.500000 0.071889
O O7 0.911848 0.403616 0.944147
O O8 0.433201 0.500000 0.200438
O O9 0.364999 0.643719 0.223280
O O10 0.750000 0.818269 0.343862
O O11 0.648832 0.789777 0.489851
O O12 0.584385 0.860275 0.343764
O O13 0.250000 0.738601 0.162137
O O14 0.347698 0.775472 0.309670
O O15 0.406415 0.771898 0.128633
O O16 0.750000 0.868822 0.598072
O O17 0.576982 0.887761 0.615551
O O18 0.016680 0.110725 0.200511
O O19 0.979115 0.000000 0.329448
O O20 0.000000 0.852826 0.000000
#
# Coordination Sequence:
#
# PCOD9399448 Si02
#       8
#     8   8   8   8   8   8   8   8
#     4  10  18  31  49  68  95 130 169 209 252 302
#     4  10  19  29  44  69 100 133 169 212 262 311
#     4  10  19  29  44  70 101 132 168 211 260 310
#     4  10  21  36  55  77 100 130 169 212 256 303
#     4   9  17  31  51  72  97 130 170 215 255 297
#     4   9  19  36  57  80 102 128 167 213 257 298
#     4  10  21  35  53  79 108 135 163 200 249 306
#     4   9  18  32  49  71  98 131 169 204 241 289
#
# _framework density 17.176297999999999
#
# number of rings (size 3 to 8) (size 9 to 14) (size 15 to 20)
#    0.000    2.375    0.000    4.125    0.000    3.500 
#    0.000    3.750    0.000    2.250    0.000    8.750 
#    0.000    0.000    0.000    0.000    0.000    0.000 
#
# Total GULP energy -356341.707091 kJ/mol
# GULP energy per Si atom -5567.839173 kJ/mol
# Density = 1.713720 g / cm^3
# Si number density = 17.176298 Si / 1000 Ang^3
#
#
#
# Elastic Constant Matrix: (Units=GPa)
#
#
# Indices 1 2 3 4 5 6 
#
# 1 104.4497 33.8840 33.3894 0.0000 0.0000 0.0000
# 2 33.8840 80.3711 18.6487 0.0000 0.0000 0.0000
# 3 33.3894 18.6487 74.0539 0.0000 0.0000 0.0000
# 4 0.0000 0.0000 0.0000 14.3094 0.0000 0.0000
# 5 0.0000 0.0000 0.0000 0.0000 21.5682 0.0000
# 6 0.0000 0.0000 0.0000 0.0000 0.0000 13.5179
#
#
#
# Elastic Compliance Matrix: (Units=1/GPa)
#
#
# Indices 1 2 3 4 5 6 
#
# 1 0.012373 -0.004165 -0.004530 0.000000 0.000000 0.000000
# 2 -0.004165 0.014617 -0.001803 0.000000 0.000000 0.000000
# 3 -0.004530 -0.001803 0.016000 0.000000 0.000000 0.000000
# 4 0.000000 0.000000 0.000000 0.069884 0.000000 0.000000
# 5 0.000000 0.000000 0.000000 0.000000 0.046364 0.000000
# 6 0.000000 0.000000 0.000000 0.000000 0.000000 0.073976
#
#
# Mechanical properties :
#
#
# Convention : Reuss Voigt Hill
#
# Bulk Modulus (GPa) = 45.46710 47.85765 46.66237
# Shear Modulus (GPa) = 19.11735 21.40927 20.26331
#
# Velocity S-wave (km/s) = 3.33980 3.53433 3.43844
# Velocity P-wave (km/s) = 6.43433 6.67671 6.55664
#
# Compressibility (1/GPa) = 0.02199393
#
# Stress axis : x y z
#
# Youngs Moduli (GPa) = 80.81874 68.41481 62.49953
#
# Poissons Ratio (x) = 0.28498 0.28312
# Poissons Ratio (y) = 0.33665 0.11267
# Poissons Ratio (z) = 0.36610 0.12333
#
# Static dielectric constant tensor:
#      x y z
#    x 1.651290 0.000000 0.000000 
#    y 0.000000 1.566140 0.000000 
#    z 0.000000 0.000000 1.584330 
# 
# From -- ./inp_files/16844.got.cif
#   From: 2010.05.17/outbox.cif.g08.bks.cpg/sg51_9_cif.got.tgz:16844.got - 2010.06.03 11:52:47.
