data_PCOD9399324
_publ_section_title
;
Structure prediction by ZEFSAII (Michael W. Deem and Ramdas Pophale) SiO2 
 PCOD9399324
Probable space group: P M M A
;
_chemical_formula_sum "Si O2"
_cell_formula_units_Z 56
_cell_length_a 17.880342
_cell_length_b 8.878631
_cell_length_c 16.825231
_cell_angle_alpha 90.000000
_cell_angle_beta 90.000000
_cell_angle_gamma 90.000000
_cell_volume 2671.055203
_symmetry_space_group_name_H-M "P M M A"
_symmetry_group_IT_number 51
_symmetry_cell_setting 'orthorhombic'
loop_
_space_group_symop_operation_xyz
x,y,z
1/2-x,-y,z
1/2+x,-y,-z
-x,y,-z
-x,-y,-z
1/2+x,y,-z
1/2-x,y,z
x,-y,z
loop_
_atom_site_type_symbol
_atom_site_label
_atom_site_fract_x
_atom_site_fract_y
_atom_site_fract_z
Si Si1 0.005848 0.823947 0.861507
Si Si2 0.871999 0.677191 0.939478
Si Si3 0.166442 0.319366 0.562251
Si Si4 0.134720 0.324518 0.379529
Si Si5 0.668742 0.181305 0.106482
Si Si6 0.641292 0.173264 0.779582
Si Si7 0.984160 0.169905 0.405333
O O1 0.091026 0.773000 0.850974
O O2 0.958315 0.726091 0.924002
O O3 0.950064 0.817221 0.786461
O O4 0.006173 0.000000 0.887285
O O5 0.864407 0.500000 0.950135
O O6 0.835088 0.731733 0.856684
O O7 0.841228 0.763472 0.015837
O O8 0.250000 0.284841 0.591124
O O9 0.153967 0.500000 0.567962
O O10 0.162619 0.282215 0.467574
O O11 0.099788 0.230200 0.604304
O O12 0.149612 0.500000 0.368167
O O13 0.165939 0.233619 0.305009
O O14 0.046356 0.288497 0.378713
O O15 0.750000 0.235601 0.136439
O O16 0.670278 0.000000 0.108212
O O17 0.661461 0.000000 0.790705
O O18 0.000000 0.160058 0.500000
O O19 0.994253 0.000000 0.373324
#
# Coordination Sequence:
#
# PCOD9399324 Si02
#       7
#     8   8   8   8   8   8   8
#     4   8  17  32  50  70  93 124 162 202 242 289
#     4  10  19  31  48  71  96 124 158 198 241 289
#     4   9  18  32  49  71 101 132 160 196 242 288
#     4  10  18  30  50  75  98 127 165 202 244 290
#     4  10  19  32  50  71  96 126 159 198 247 296
#     4   9  18  32  50  69  93 124 163 203 240 283
#     4   9  17  29  47  71  98 126 160 201 237 276
#
# _framework density 20.965498
#
# number of rings (size 3 to 8) (size 9 to 14) (size 15 to 20)
#    0.857    1.857    0.000    2.571    0.000    5.143 
#    0.000    0.714    0.000    3.429    0.000    2.000 
#    0.000    0.000    0.000    0.000    0.000    0.000 
#
# Total GULP energy -311963.838265 kJ/mol
# GULP energy per Si atom -5570.782826 kJ/mol
# Density = 2.091778 g / cm^3
# Si number density = 20.965498 Si / 1000 Ang^3
#
#
#
# Elastic Constant Matrix: (Units=GPa)
#
#
# Indices 1 2 3 4 5 6 
#
# 1 156.6491 9.8418 -6.9051 0.0000 0.0000 0.0000
# 2 9.8418 20.8245 -4.3746 0.0000 0.0000 0.0000
# 3 -6.9051 -4.3746 17.3279 0.0000 0.0000 0.0000
# 4 0.0000 0.0000 0.0000 23.3911 0.0000 0.0000
# 5 0.0000 0.0000 0.0000 0.0000 -22.2683 0.0000
# 6 0.0000 0.0000 0.0000 0.0000 0.0000 3.3681
#
#
#
# Elastic Compliance Matrix: (Units=1/GPa)
#
#
# Indices 1 2 3 4 5 6 
#
# 1 0.006641 -0.002727 0.001958 0.000000 0.000000 0.000000
# 2 -0.002727 0.051830 0.011998 0.000000 0.000000 0.000000
# 3 0.001958 0.011998 0.061520 0.000000 0.000000 0.000000
# 4 0.000000 0.000000 0.000000 0.042751 0.000000 0.000000
# 5 0.000000 0.000000 0.000000 0.000000 -0.044907 0.000000
# 6 0.000000 0.000000 0.000000 0.000000 0.000000 0.296901
#
#
# Mechanical properties :
#
#
# Convention : Reuss Voigt Hill
#
# Bulk Modulus (GPa) = 7.02010 21.32507 14.17259
# Shear Modulus (GPa) = 11.36980 13.98081 12.67530
#
# Velocity S-wave (km/s) = 2.33128 2.58514 2.46149
# Velocity P-wave (km/s) = 3.25610 4.37084 3.85398
#
# Compressibility (1/GPa) = 0.14244804
#
# Stress axis : x y z
#
# Youngs Moduli (GPa) = 150.57156 19.29393 16.25498
#
# Poissons Ratio (x) = 0.05262 -0.03183
# Poissons Ratio (y) = 0.41067 -0.19503
# Poissons Ratio (z) = -0.29482 -0.23149
#
# Static dielectric constant tensor:
#      x y z
#    x 1.822260 0.000000 0.000000 
#    y 0.000000 1.702550 0.000000 
#    z 0.000000 0.000000 1.757510 
# 
# From -- ./inp_files/33700.got.cif
#   From: 2010.05.17/outbox.cif.g08.bks.cpg/sg51_17_cif.got.tgz:33700.got - 2010.06.03 11:52:47.
