data_PCOD9399226
_publ_section_title
;
Structure prediction by ZEFSAII (Michael W. Deem and Ramdas Pophale) SiO2 
 PCOD9399226
Probable space group: P M M A
;
_chemical_formula_sum "Si O2"
_cell_formula_units_Z 56
_cell_length_a 14.602453
_cell_length_b 18.477014
_cell_length_c 9.662469
_cell_angle_alpha 90.000000
_cell_angle_beta 90.000000
_cell_angle_gamma 90.000000
_cell_volume 2607.028138
_symmetry_space_group_name_H-M "P M M A"
_symmetry_group_IT_number 51
_symmetry_cell_setting 'orthorhombic'
loop_
_space_group_symop_operation_xyz
x,y,z
1/2-x,-y,z
1/2+x,-y,-z
-x,y,-z
-x,-y,-z
1/2+x,y,-z
1/2-x,y,z
x,-y,z
loop_
_atom_site_type_symbol
_atom_site_label
_atom_site_fract_x
_atom_site_fract_y
_atom_site_fract_z
Si Si1 0.990356 0.578860 0.334532
Si Si2 0.098395 0.419432 0.074245
Si Si3 0.358651 0.746524 0.063301
Si Si4 0.362309 0.081572 0.551283
Si Si5 0.145902 0.162894 0.809353
Si Si6 0.647611 0.305527 0.376963
Si Si7 0.861749 0.783001 0.632340
O O1 0.951367 0.500000 0.297380
O O2 0.919345 0.640898 0.300604
O O3 0.000000 0.579381 0.500000
O O4 0.080133 0.585576 0.240228
O O5 0.140989 0.500000 0.048524
O O6 0.134991 0.339792 0.034472
O O7 0.000000 0.422293 0.000000
O O8 0.250000 0.760610 0.067551
O O9 0.396732 0.766892 0.214554
O O10 0.396036 0.800979 0.946177
O O11 0.250000 0.085127 0.555688
O O12 0.395273 0.103073 0.706224
O O13 0.391196 0.141783 0.438868
O O14 0.387882 0.000000 0.514927
O O15 0.250000 0.138279 0.843776
O O16 0.153491 0.231525 0.707037
O O17 0.750000 0.336280 0.389390
O O18 0.612690 0.281616 0.528087
O O19 0.750000 0.783368 0.634042
#
# Coordination Sequence:
#
# PCOD9399226 Si02
#       7
#     8   8   8   8   8   8   8
#     4  10  20  32  45  64  91 119 150 194 240 276
#     4  10  21  35  48  65  93 125 155 193 239 280
#     4  10  18  30  48  68  93 123 156 195 232 271
#     4   8  13  24  42  64  95 130 153 175 223 285
#     4   8  15  26  42  65  89 115 151 192 227 261
#     4   9  16  29  47  64  86 118 155 192 230 277
#     4   8  15  26  42  66  93 120 151 189 230 269
#
# _framework density 21.480398999999998
#
# number of rings (size 3 to 8) (size 9 to 14) (size 15 to 20)
#    0.000    3.000    0.000    3.429    0.000    0.571 
#    0.000    0.714    0.000   14.571    0.000    0.000 
#    0.000   72.000    0.000    0.000    0.000    0.000 
#
# Total GULP energy -311976.255611 kJ/mol
# GULP energy per Si atom -5571.004564 kJ/mol
# Density = 2.143151 g / cm^3
# Si number density = 21.480399 Si / 1000 Ang^3
#
#
#
# Elastic Constant Matrix: (Units=GPa)
#
#
# Indices 1 2 3 4 5 6 
#
# 1 34.7539 7.8635 3.9060 0.0000 0.0000 0.0000
# 2 7.8635 110.0696 9.9456 0.0000 0.0000 0.0000
# 3 3.9060 9.9456 107.2209 0.0000 0.0000 0.0000
# 4 0.0000 0.0000 0.0000 23.7626 0.0000 0.0000
# 5 0.0000 0.0000 0.0000 0.0000 12.1389 0.0000
# 6 0.0000 0.0000 0.0000 0.0000 0.0000 22.9405
#
#
#
# Elastic Compliance Matrix: (Units=1/GPa)
#
#
# Indices 1 2 3 4 5 6 
#
# 1 0.029329 -0.002016 -0.000881 0.000000 0.000000 0.000000
# 2 -0.002016 0.009300 -0.000789 0.000000 0.000000 0.000000
# 3 -0.000881 -0.000789 0.009432 0.000000 0.000000 0.000000
# 4 0.000000 0.000000 0.000000 0.042083 0.000000 0.000000
# 5 0.000000 0.000000 0.000000 0.000000 0.082380 0.000000
# 6 0.000000 0.000000 0.000000 0.000000 0.000000 0.043591
#
#
# Mechanical properties :
#
#
# Convention : Reuss Voigt Hill
#
# Bulk Modulus (GPa) = 24.57702 32.83054 28.70378
# Shear Modulus (GPa) = 21.09254 27.12369 24.10811
#
# Velocity S-wave (km/s) = 3.13700 3.55733 3.35376
# Velocity P-wave (km/s) = 4.95857 5.67362 5.32810
#
# Compressibility (1/GPa) = 0.04068841
#
# Stress axis : x y z
#
# Youngs Moduli (GPa) = 34.09612 107.52140 106.02364
#
# Poissons Ratio (x) = 0.21672 0.09346
# Poissons Ratio (y) = 0.06873 0.08368
# Poissons Ratio (z) = 0.03006 0.08486
#
# Static dielectric constant tensor:
#      x y z
#    x 1.831630 0.000000 0.000000 
#    y 0.000000 1.773680 0.000000 
#    z 0.000000 0.000000 1.863300 
# 
# From -- ./inp_files/11130.got.cif
#   From: 2010.05.17/outbox.cif.g08.bks.cpg/sg51_6_cif.got.tgz:11130.got - 2010.06.03 11:52:47.
