data_PCOD9399767
_publ_section_title
;
Structure prediction by ZEFSAII (Michael W. Deem and Ramdas Pophale) SiO2 
 PCOD9399767
Probable space group: P M M A
;
_chemical_formula_sum "Si O2"
_cell_formula_units_Z 44
_cell_length_a 7.543999
_cell_length_b 13.959780
_cell_length_c 19.678370
_cell_angle_alpha 90.000000
_cell_angle_beta 90.000000
_cell_angle_gamma 90.000000
_cell_volume 2072.379646
_symmetry_space_group_name_H-M "P M M A"
_symmetry_group_IT_number 51
_symmetry_cell_setting 'orthorhombic'
loop_
_space_group_symop_operation_xyz
x,y,z
1/2-x,-y,z
1/2+x,-y,-z
-x,y,-z
-x,-y,-z
1/2+x,y,-z
1/2-x,y,z
x,-y,z
loop_
_atom_site_type_symbol
_atom_site_label
_atom_site_fract_x
_atom_site_fract_y
_atom_site_fract_z
Si Si1 0.964210 0.892284 0.151985
Si Si2 0.537116 0.500000 0.420444
Si Si3 0.033193 0.892055 0.690011
Si Si4 0.449495 0.298132 0.077949
Si Si5 0.548017 0.694951 0.354333
Si Si6 0.464488 0.611387 0.213177
O O1 0.750000 0.886172 0.150384
O O2 0.019875 0.878550 0.230708
O O3 0.037274 0.811459 0.102640
O O4 0.015023 0.000000 0.131983
O O5 0.750000 0.500000 0.407217
O O6 0.500000 0.500000 0.500000
O O7 0.466803 0.600151 0.389051
O O8 0.250000 0.889796 0.689579
O O9 0.970182 0.802388 0.644791
O O10 0.980141 0.000000 0.669761
O O11 0.250000 0.333283 0.079716
O O12 0.536716 0.355825 0.139960
O O13 0.500000 0.307860 0.000000
O O14 0.750000 0.702039 0.380230
O O15 0.548217 0.669903 0.274447
O O16 0.250000 0.625979 0.217218
O O17 0.499941 0.500000 0.223805
#
# Coordination Sequence:
#
# PCOD9399767 Si02
#       6
#     8   4   8   8   8   8
#     4   9  17  31  52  75  99 130 168 213 269 323
#     4  10  22  36  54  86 117 146 177 210 253 304
#     4   8  14  26  49  80 108 133 166 214 265 309
#     4  11  23  36  50  69  97 135 177 220 269 321
#     4  10  18  32  57  84 108 136 178 218 253 306
#     4  10  21  36  53  75 102 132 169 214 271 325
#
# _framework density 21.231631
#
# number of rings (size 3 to 8) (size 9 to 14) (size 15 to 20)
#    0.000    2.364    2.727    1.636    0.000    2.545 
#    0.000    0.000    0.000    1.091    0.000    0.000 
#    0.000    0.000    0.000    0.000    0.000    0.000 
#
# Total GULP energy -245347.990501 kJ/mol
# GULP energy per Si atom -5576.090693 kJ/mol
# Density = 2.118331 g / cm^3
# Si number density = 21.231631 Si / 1000 Ang^3
#
#
#
# Elastic Constant Matrix: (Units=GPa)
#
#
# Indices 1 2 3 4 5 6 
#
# 1 46.9758 -1.5611 -5.1483 0.0000 0.0000 0.0000
# 2 -1.5611 111.7051 57.2813 0.0000 0.0000 0.0000
# 3 -5.1483 57.2813 62.7345 0.0000 0.0000 0.0000
# 4 0.0000 0.0000 0.0000 21.2837 0.0000 0.0000
# 5 0.0000 0.0000 0.0000 0.0000 5.4871 0.0000
# 6 0.0000 0.0000 0.0000 0.0000 0.0000 -2.4536
#
#
#
# Elastic Compliance Matrix: (Units=1/GPa)
#
#
# Indices 1 2 3 4 5 6 
#
# 1 0.021558 -0.001139 0.002810 0.000000 0.000000 0.000000
# 2 -0.001139 0.016894 -0.015519 0.000000 0.000000 0.000000
# 3 0.002810 -0.015519 0.030341 0.000000 0.000000 0.000000
# 4 0.000000 0.000000 0.000000 0.046984 0.000000 0.000000
# 5 0.000000 0.000000 0.000000 0.000000 0.182246 0.000000
# 6 0.000000 0.000000 0.000000 0.000000 0.000000 -0.407559
#
#
# Mechanical properties :
#
#
# Convention : Reuss Voigt Hill
#
# Bulk Modulus (GPa) = 24.33414 35.83992 30.08703
# Shear Modulus (GPa) = -73.38005 16.25299 -28.56353
#
# Velocity S-wave (km/s) = -5.88529 2.76978 -3.67185
# Velocity P-wave (km/s) = 5.89034 5.21018 1.94295
#
# Compressibility (1/GPa) = 0.04109453
#
# Stress axis : x y z
#
# Youngs Moduli (GPa) = 46.38738 59.19125 32.95861
#
# Poissons Ratio (x) = 0.06744 -0.09260
# Poissons Ratio (y) = 0.05286 0.51150
# Poissons Ratio (z) = -0.13033 0.91861
#
# Static dielectric constant tensor:
#      x y z
#    x 1.792610 0.000000 0.000000 
#    y 0.000000 1.802520 0.000000 
#    z 0.000000 0.000000 1.748570 
# 
# From -- ./inp_files/27379.got.cif
#   From: 2010.05.17/outbox.cif.g08.bks.cpg/sg51_14_cif.got.tgz:27379.got - 2010.06.03 11:52:47.
