data_PCOD9399237
_publ_section_title
;
Structure prediction by ZEFSAII (Michael W. Deem and Ramdas Pophale) SiO2 
 PCOD9399237
Probable space group: P M M A
;
_chemical_formula_sum "Si O2"
_cell_formula_units_Z 40
_cell_length_a 7.515030
_cell_length_b 10.668582
_cell_length_c 24.691436
_cell_angle_alpha 90.000000
_cell_angle_beta 90.000000
_cell_angle_gamma 90.000000
_cell_volume 1979.628814
_symmetry_space_group_name_H-M "P M M A"
_symmetry_group_IT_number 51
_symmetry_cell_setting 'orthorhombic'
loop_
_space_group_symop_operation_xyz
x,y,z
1/2-x,-y,z
1/2+x,-y,-z
-x,y,-z
-x,-y,-z
1/2+x,y,-z
1/2-x,y,z
x,-y,z
loop_
_atom_site_type_symbol
_atom_site_label
_atom_site_fract_x
_atom_site_fract_y
_atom_site_fract_z
Si Si1 0.031901 0.750260 0.376137
Si Si2 0.463371 0.000000 0.436090
Si Si3 0.539238 0.358103 0.141120
Si Si4 0.962616 0.500000 0.563419
Si Si5 0.536406 0.859038 0.063066
Si Si6 0.464354 0.356277 0.264701
O O1 0.250000 0.751840 0.376943
O O2 0.970178 0.875068 0.406241
O O3 0.971955 0.626640 0.408395
O O4 0.976566 0.732003 0.313759
O O5 0.500000 0.000000 0.500000
O O6 0.250000 0.000000 0.430431
O O7 0.750000 0.366479 0.130439
O O8 0.465958 0.500000 0.134530
O O9 0.466260 0.251344 0.101477
O O10 0.517553 0.321346 0.203987
O O11 0.750000 0.500000 0.571100
O O12 0.000000 0.500000 0.500000
O O13 0.750000 0.863121 0.069864
O O14 0.468766 0.000000 0.075077
O O15 0.500000 0.832753 0.000000
O O16 0.250000 0.358516 0.266004
O O17 0.524969 0.500000 0.274550
#
# Coordination Sequence:
#
# PCOD9399237 Si02
#       6
#     8   4   8   4   8   8
#     4   9  17  31  50  68  91 123 155 190 234 279
#     4  10  20  34  50  68  94 124 153 190 237 284
#     4   9  18  32  49  71  99 128 156 192 238 280
#     4  10  18  30  48  70  92 118 153 192 231 276
#     4   9  18  33  51  70  97 131 162 193 233 277
#     4   9  16  30  51  71  92 122 159 195 232 277
#
# _framework density 20.205807
#
# number of rings (size 3 to 8) (size 9 to 14) (size 15 to 20)
#    0.000    2.800    1.000    0.600    0.000    1.200 
#    1.800    2.000    0.000    0.000    0.000    0.000 
#    0.000    0.000    0.000    0.000    0.000    0.000 
#
# Total GULP energy -223168.394643 kJ/mol
# GULP energy per Si atom -5579.209866 kJ/mol
# Density = 2.015982 g / cm^3
# Si number density = 20.205807 Si / 1000 Ang^3
#
#
#
# Elastic Constant Matrix: (Units=GPa)
#
#
# Indices 1 2 3 4 5 6 
#
# 1 51.3893 9.7463 -3.1680 0.0000 0.0000 0.0000
# 2 9.7463 193.4570 140.6424 0.0000 0.0000 0.0000
# 3 -3.1680 140.6424 173.3709 0.0000 0.0000 0.0000
# 4 0.0000 0.0000 0.0000 36.2770 0.0000 0.0000
# 5 0.0000 0.0000 0.0000 0.0000 24.1801 0.0000
# 6 0.0000 0.0000 0.0000 0.0000 0.0000 -3.3970
#
#
#
# Elastic Compliance Matrix: (Units=1/GPa)
#
#
# Indices 1 2 3 4 5 6 
#
# 1 0.020235 -0.003140 0.002917 0.000000 0.000000 0.000000
# 2 -0.003140 0.013087 -0.010674 0.000000 0.000000 0.000000
# 3 0.002917 -0.010674 0.014480 0.000000 0.000000 0.000000
# 4 0.000000 0.000000 0.000000 0.027566 0.000000 0.000000
# 5 0.000000 0.000000 0.000000 0.000000 0.041356 0.000000
# 6 0.000000 0.000000 0.000000 0.000000 0.000000 -0.294380
#
#
# Mechanical properties :
#
#
# Convention : Reuss Voigt Hill
#
# Bulk Modulus (GPa) = 38.44961 79.18429 58.81695
# Shear Modulus (GPa) = -33.96931 29.47845 -2.24543
#
# Velocity S-wave (km/s) = -4.10465 3.82371 -1.05532
# Velocity P-wave (km/s) = 1.84225 7.66605 5.26186
#
# Compressibility (1/GPa) = 0.02600807
#
# Stress axis : x y z
#
# Youngs Moduli (GPa) = 49.42010 76.40958 69.05892
#
# Poissons Ratio (x) = 0.23994 -0.20145
# Poissons Ratio (y) = 0.15519 0.73714
# Poissons Ratio (z) = -0.14416 0.81561
#
# Static dielectric constant tensor:
#      x y z
#    x 1.764320 0.000000 0.000000 
#    y 0.000000 1.720820 0.000000 
#    z 0.000000 0.000000 1.682990 
# 
# From -- ./inp_files/32858.got.cif
#   From: 2010.05.17/outbox.cif.g08.bks.cpg/sg51_17_cif.got.tgz:32858.got - 2010.06.03 11:52:47.
