data_PCOD9399777
_publ_section_title
;
Structure prediction by ZEFSAII (Michael W. Deem and Ramdas Pophale) SiO2 
 PCOD9399777
Probable space group: P M M A
;
_chemical_formula_sum "Si O2"
_cell_formula_units_Z 48
_cell_length_a 8.815152
_cell_length_b 14.746230
_cell_length_c 21.099244
_cell_angle_alpha 90.000000
_cell_angle_beta 90.000000
_cell_angle_gamma 90.000000
_cell_volume 2742.696190
_symmetry_space_group_name_H-M "P M M A"
_symmetry_group_IT_number 51
_symmetry_cell_setting 'orthorhombic'
loop_
_space_group_symop_operation_xyz
x,y,z
1/2-x,-y,z
1/2+x,-y,-z
-x,y,-z
-x,-y,-z
1/2+x,y,-z
1/2-x,y,z
x,-y,z
loop_
_atom_site_type_symbol
_atom_site_label
_atom_site_fract_x
_atom_site_fract_y
_atom_site_fract_z
Si Si1 0.432266 0.603035 0.610589
Si Si2 0.066493 0.210344 0.813330
Si Si3 0.570208 0.786807 0.565525
Si Si4 0.067818 0.893586 0.683853
Si Si5 0.931430 0.105826 0.931839
Si Si6 0.066064 0.599967 0.760215
O O1 0.250000 0.614033 0.604097
O O2 0.470988 0.500000 0.591202
O O3 0.515970 0.683048 0.574764
O O4 0.469001 0.612000 0.685635
O O5 0.250000 0.209028 0.818749
O O6 0.026169 0.152564 0.750638
O O7 0.015076 0.313523 0.800000
O O8 0.995842 0.166348 0.875385
O O9 0.500000 0.822031 0.500000
O O10 0.750000 0.790917 0.562593
O O11 0.509564 0.842702 0.625550
O O12 0.250000 0.883650 0.676960
O O13 0.030932 0.000000 0.684495
O O14 0.750000 0.112089 0.934294
O O15 0.972820 0.000000 0.920256
O O16 0.000000 0.131402 0.000000
O O17 0.250000 0.599096 0.763368
O O18 0.011795 0.500000 0.780169
#
# Coordination Sequence:
#
# PCOD9399777 Si02
#       6
#     8   8   8   8   8   8
#     4   9  17  34  59  82 107 139 177 222 272 327
#     4  10  18  32  58  86 113 143 178 218 264 318
#     4  12  25  39  56  76 106 143 182 228 278 333
#     4  10  21  38  59  82 108 139 180 227 274 329
#     4  10  21  36  54  79 113 149 185 224 268 318
#     4   8  14  27  52  83 111 140 174 213 259 315
#
# _framework density 17.501027000000001
#
# number of rings (size 3 to 8) (size 9 to 14) (size 15 to 20)
#    0.000    2.167    1.667    3.500    0.000    3.667 
#    0.000    0.000    0.000    1.000    0.000    0.000 
#    0.000    0.000    0.000    0.000    0.000    0.000 
#
# Total GULP energy -267951.617565 kJ/mol
# GULP energy per Si atom -5582.325366 kJ/mol
# Density = 1.746119 g / cm^3
# Si number density = 17.501027 Si / 1000 Ang^3
#
#
#
# Elastic Constant Matrix: (Units=GPa)
#
#
# Indices 1 2 3 4 5 6 
#
# 1 36.3027 48.0275 45.6750 0.0000 0.0000 0.0000
# 2 48.0275 123.5911 82.9074 0.0000 0.0000 0.0000
# 3 45.6750 82.9074 138.2420 0.0000 0.0000 0.0000
# 4 0.0000 0.0000 0.0000 7.4587 0.0000 0.0000
# 5 0.0000 0.0000 0.0000 0.0000 30.3549 0.0000
# 6 0.0000 0.0000 0.0000 0.0000 0.0000 22.3705
#
#
#
# Elastic Compliance Matrix: (Units=1/GPa)
#
#
# Indices 1 2 3 4 5 6 
#
# 1 0.064736 -0.018083 -0.010543 0.000000 0.000000 0.000000
# 2 -0.018083 0.018589 -0.005173 0.000000 0.000000 0.000000
# 3 -0.010543 -0.005173 0.013820 0.000000 0.000000 0.000000
# 4 0.000000 0.000000 0.000000 0.134072 0.000000 0.000000
# 5 0.000000 0.000000 0.000000 0.000000 0.032944 0.000000
# 6 0.000000 0.000000 0.000000 0.000000 0.000000 0.044702
#
#
# Mechanical properties :
#
#
# Convention : Reuss Voigt Hill
#
# Bulk Modulus (GPa) = 33.84832 72.37284 53.11058
# Shear Modulus (GPa) = 12.94297 20.13855 16.54076
#
# Velocity S-wave (km/s) = 2.72243 3.39589 3.07763
# Velocity P-wave (km/s) = 5.40970 7.53786 6.56065
#
# Compressibility (1/GPa) = 0.02954357
#
# Stress axis : x y z
#
# Youngs Moduli (GPa) = 15.44747 53.79549 72.35947
#
# Poissons Ratio (x) = 0.97281 0.76291
# Poissons Ratio (y) = 0.27934 0.37435
# Poissons Ratio (z) = 0.16287 0.27831
#
# Static dielectric constant tensor:
#      x y z
#    x 1.584630 0.000000 0.000000 
#    y 0.000000 1.608320 0.000000 
#    z 0.000000 0.000000 1.566780 
# 
# From -- ./inp_files/27523.got.cif
#   From: 2010.05.17/outbox.cif.g08.bks.cpg/sg51_14_cif.got.tgz:27523.got - 2010.06.03 11:52:47.
