data_PCOD9399273
_publ_section_title
;
Structure prediction by ZEFSAII (Michael W. Deem and Ramdas Pophale) SiO2 
 PCOD9399273
Probable space group: P M M A
;
_chemical_formula_sum "Si O2"
_cell_formula_units_Z 44
_cell_length_a 8.213213
_cell_length_b 29.983874
_cell_length_c 9.895542
_cell_angle_alpha 90.000000
_cell_angle_beta 90.000000
_cell_angle_gamma 90.000000
_cell_volume 2436.915198
_symmetry_space_group_name_H-M "P M M A"
_symmetry_group_IT_number 51
_symmetry_cell_setting 'orthorhombic'
loop_
_space_group_symop_operation_xyz
x,y,z
1/2-x,-y,z
1/2+x,-y,-z
-x,y,-z
-x,-y,-z
1/2+x,y,-z
1/2-x,y,z
x,-y,z
loop_
_atom_site_type_symbol
_atom_site_label
_atom_site_fract_x
_atom_site_fract_y
_atom_site_fract_z
Si Si1 0.947113 0.854715 0.844314
Si Si2 0.555718 0.404538 0.844539
Si Si3 0.946855 0.325306 0.653611
Si Si4 0.553379 0.952125 0.843070
Si Si5 0.942771 0.500000 0.156231
Si Si6 0.553239 0.775224 0.653517
O O1 0.750000 0.854415 0.841799
O O2 0.002018 0.903689 0.791008
O O3 0.006487 0.813723 0.753695
O O4 0.000000 0.850102 0.000000
O O5 0.750000 0.403346 0.844962
O O6 0.493098 0.363561 0.754579
O O7 0.504126 0.452904 0.787448
O O8 0.500000 0.400778 0.000000
O O9 0.750000 0.325501 0.657529
O O10 0.001842 0.275030 0.690017
O O11 0.000000 0.334037 0.500000
O O12 0.750000 0.952265 0.837460
O O13 0.496398 0.000000 0.784616
O O14 0.500000 0.952237 0.000000
O O15 0.750000 0.500000 0.158890
O O16 0.000000 0.500000 0.000000
O O17 0.500000 0.783893 0.500000
O O18 0.750000 0.775312 0.657577
#
# Coordination Sequence:
#
# PCOD9399273 Si02
#       6
#     8   8   8   8   4   8
#     4   9  17  28  44  67  93 117 147 189 230 269
#     4  10  19  32  50  73  98 124 153 187 226 268
#     4   9  19  34  51  69  92 121 154 191 229 270
#     4   8  13  22  37  58  84 114 145 178 220 267
#     4  10  18  30  49  72  97 126 156 186 222 266
#     4   9  18  33  49  66  89 120 155 188 226 273
#
# _framework density 18.055613999999998
#
# number of rings (size 3 to 8) (size 9 to 14) (size 15 to 20)
#    0.000    2.909    0.000    2.455    0.000    2.909 
#    0.000    0.455    0.000    0.545    0.000    0.000 
#    0.000    0.000    0.000    0.000    0.000    0.000 
#
# Total GULP energy -244971.195953 kJ/mol
# GULP energy per Si atom -5567.527181 kJ/mol
# Density = 1.801452 g / cm^3
# Si number density = 18.055614 Si / 1000 Ang^3
#
#
#
# Elastic Constant Matrix: (Units=GPa)
#
#
# Indices 1 2 3 4 5 6 
#
# 1 20.1223 19.7565 5.7172 0.0000 0.0000 0.0000
# 2 19.7565 225.4131 93.7502 0.0000 0.0000 0.0000
# 3 5.7172 93.7502 55.7977 0.0000 0.0000 0.0000
# 4 0.0000 0.0000 0.0000 -1.4608 0.0000 0.0000
# 5 0.0000 0.0000 0.0000 0.0000 20.2764 0.0000
# 6 0.0000 0.0000 0.0000 0.0000 0.0000 -2.0472
#
#
#
# Elastic Compliance Matrix: (Units=1/GPa)
#
#
# Indices 1 2 3 4 5 6 
#
# 1 0.055497 -0.008297 0.008254 0.000000 0.000000 0.000000
# 2 -0.008297 0.015969 -0.025980 0.000000 0.000000 0.000000
# 3 0.008254 -0.025980 0.060728 0.000000 0.000000 0.000000
# 4 0.000000 0.000000 0.000000 -0.684541 0.000000 0.000000
# 5 0.000000 0.000000 0.000000 0.000000 0.049319 0.000000
# 6 0.000000 0.000000 0.000000 0.000000 0.000000 -0.488473
#
#
# Mechanical properties :
#
#
# Convention : Reuss Voigt Hill
#
# Bulk Modulus (GPa) = 12.47705 59.97564 36.22634
# Shear Modulus (GPa) = -5.47802 15.49428 5.00813
#
# Velocity S-wave (km/s) = -1.74372 2.93258 1.66726
# Velocity P-wave (km/s) = 1.69448 6.68999 4.87992
#
# Compressibility (1/GPa) = 0.08014712
#
# Stress axis : x y z
#
# Youngs Moduli (GPa) = 18.01895 62.62196 16.46688
#
# Poissons Ratio (x) = 0.51957 -0.13592
# Poissons Ratio (y) = 0.14950 0.42782
# Poissons Ratio (z) = -0.14873 1.62694
#
# Static dielectric constant tensor:
#      x y z
#    x 1.621320 0.000000 0.000000 
#    y 0.000000 1.697950 0.000000 
#    z 0.000000 0.000000 1.575790 
# 
# From -- ./inp_files/5827.got.cif
#   From: 2010.05.17/outbox.cif.g08.bks.cpg/sg51_3_cif.got.tgz:5827.got - 2010.06.03 11:52:47.
