data_PCOD9399862
_publ_section_title
;
Structure prediction by ZEFSAII (Michael W. Deem and Ramdas Pophale) SiO2 
 PCOD9399862
Probable space group: P M M A
;
_chemical_formula_sum "Si O2"
_cell_formula_units_Z 64
_cell_length_a 31.489947
_cell_length_b 8.566702
_cell_length_c 12.080122
_cell_angle_alpha 90.000000
_cell_angle_beta 90.000000
_cell_angle_gamma 90.000000
_cell_volume 3258.794014
_symmetry_space_group_name_H-M "P M M A"
_symmetry_group_IT_number 51
_symmetry_cell_setting 'orthorhombic'
loop_
_space_group_symop_operation_xyz
x,y,z
1/2-x,-y,z
1/2+x,-y,-z
-x,y,-z
-x,-y,-z
1/2+x,y,-z
1/2-x,y,z
x,-y,z
loop_
_atom_site_type_symbol
_atom_site_label
_atom_site_fract_x
_atom_site_fract_y
_atom_site_fract_z
Si Si1 0.571113 0.814821 0.496345
Si Si2 0.297895 0.309999 0.258340
Si Si3 0.797611 0.312676 0.265352
Si Si4 0.039804 0.682999 0.730504
Si Si5 0.049367 0.185131 0.252139
Si Si6 0.624426 0.686423 0.896660
Si Si7 0.620651 0.816367 0.142473
Si Si8 0.334450 0.312600 0.496835
O O1 0.547098 0.729298 0.397382
O O2 0.556285 0.769875 0.619226
O O3 0.620781 0.772757 0.488730
O O4 0.564630 0.000000 0.482589
O O5 0.250000 0.256122 0.234915
O O6 0.297360 0.500000 0.256983
O O7 0.333598 0.261163 0.170757
O O8 0.312476 0.264989 0.382041
O O9 0.750000 0.263578 0.234694
O O10 0.800850 0.500000 0.248982
O O11 0.834729 0.232262 0.196848
O O12 0.805937 0.283342 0.395500
O O13 0.032170 0.500000 0.740012
O O14 0.082564 0.728880 0.794731
O O15 0.998909 0.773163 0.776531
O O16 0.083609 0.272898 0.177502
O O17 0.056566 0.000000 0.242534
O O18 0.626921 0.500000 0.912901
O O19 0.621111 0.768778 0.014451
O O20 0.613939 0.000000 0.155832
O O21 0.342383 0.500000 0.491787
#
# Coordination Sequence:
#
# PCOD9399862 Si02
#       8
#     8   8   8   8   8   8   8   8
#     4  11  22  37  61  93 131 167 198 243 308 373
#     4   9  18  34  60  94 127 160 202 252 303 356
#     4  10  21  38  63  95 128 164 208 256 305 365
#     4  12  25  42  66  94 123 159 209 258 307 367
#     4  11  24  42  64  93 130 165 201 248 311 374
#     4  11  23  41  65  92 122 162 214 262 307 363
#     4  12  26  44  64  88 123 165 209 259 319 373
#     4  10  18  33  61  93 126 163 203 248 302 364
#
# _framework density 19.639167
#
# number of rings (size 3 to 8) (size 9 to 14) (size 15 to 20)
#    0.000    1.250    2.500    4.125    0.000    5.750 
#    0.000    3.750    0.000    3.750    0.000    0.000 
#    0.000    0.000    0.000    0.000    0.000    0.000 
#
# Total GULP energy -357925.598200 kJ/mol
# GULP energy per Si atom -5592.587472 kJ/mol
# Density = 1.959447 g / cm^3
# Si number density = 19.639167 Si / 1000 Ang^3
#
#
#
# Elastic Constant Matrix: (Units=GPa)
#
#
# Indices 1 2 3 4 5 6 
#
# 1 85.2305 -13.4310 2.2826 0.0000 0.0000 0.0000
# 2 -13.4310 16.2533 1.4206 0.0000 0.0000 0.0000
# 3 2.2826 1.4206 74.9504 0.0000 0.0000 0.0000
# 4 0.0000 0.0000 0.0000 28.0478 0.0000 0.0000
# 5 0.0000 0.0000 0.0000 0.0000 -5.5140 0.0000
# 6 0.0000 0.0000 0.0000 0.0000 0.0000 -45.8341
#
#
#
# Elastic Compliance Matrix: (Units=1/GPa)
#
#
# Indices 1 2 3 4 5 6 
#
# 1 0.013519 0.011226 -0.000624 0.000000 0.000000 0.000000
# 2 0.011226 0.070950 -0.001687 0.000000 0.000000 0.000000
# 3 -0.000624 -0.001687 0.013393 0.000000 0.000000 0.000000
# 4 0.000000 0.000000 0.000000 0.035653 0.000000 0.000000
# 5 0.000000 0.000000 0.000000 0.000000 -0.181357 0.000000
# 6 0.000000 0.000000 0.000000 0.000000 0.000000 -0.021818
#
#
# Mechanical properties :
#
#
# Convention : Reuss Voigt Hill
#
# Bulk Modulus (GPa) = 8.64372 17.44207 13.04289
# Shear Modulus (GPa) = -102.19620 7.75074 -47.22273
#
# Velocity S-wave (km/s) = -7.22149 1.98875 -4.90891
# Velocity P-wave (km/s) = 8.06984 3.76485 5.04719
#
# Compressibility (1/GPa) = 0.11569090
#
# Stress axis : x y z
#
# Youngs Moduli (GPa) = 73.97206 14.09448 74.66512
#
# Poissons Ratio (x) = -0.15822 0.04663
# Poissons Ratio (y) = -0.83039 0.12593
# Poissons Ratio (z) = 0.04619 0.02377
#
# Static dielectric constant tensor:
#      x y z
#    x 1.672640 0.000000 0.000000 
#    y 0.000000 1.661350 0.000000 
#    z 0.000000 0.000000 1.666500 
# 
# From -- ./inp_files/19547.got.cif
#   From: 2010.05.17/outbox.cif.g08.bks.cpg/sg51_10_cif.got.tgz:19547.got - 2010.06.03 11:52:47.
