data_PCOD9399039
_publ_section_title
;
Structure prediction by ZEFSAII (Michael W. Deem and Ramdas Pophale) SiO2 
 PCOD9399039
Probable space group: P M M A
;
_chemical_formula_sum "Si O2"
_cell_formula_units_Z 56
_cell_length_a 19.754125
_cell_length_b 9.310118
_cell_length_c 18.137191
_cell_angle_alpha 90.000000
_cell_angle_beta 90.000000
_cell_angle_gamma 90.000000
_cell_volume 3335.669466
_symmetry_space_group_name_H-M "P M M A"
_symmetry_group_IT_number 51
_symmetry_cell_setting 'orthorhombic'
loop_
_space_group_symop_operation_xyz
x,y,z
1/2-x,-y,z
1/2+x,-y,-z
-x,y,-z
-x,-y,-z
1/2+x,y,-z
1/2-x,y,z
x,-y,z
loop_
_atom_site_type_symbol
_atom_site_label
_atom_site_fract_x
_atom_site_fract_y
_atom_site_fract_z
Si Si1 0.570515 0.830411 0.956071
Si Si2 0.081883 0.665798 0.488189
Si Si3 0.399552 0.165119 0.633124
Si Si4 0.883427 0.332635 0.221979
Si Si5 0.454651 0.668333 0.195831
Si Si6 0.170533 0.668158 0.936618
Si Si7 0.436864 0.166022 0.342796
O O1 0.566255 0.746992 0.878977
O O2 0.580378 0.000000 0.943736
O O3 0.500000 0.811209 0.000000
O O4 0.628217 0.763755 0.007456
O O5 0.102825 0.500000 0.482440
O O6 0.112879 0.743770 0.559395
O O7 0.094070 0.753487 0.413306
O O8 0.000000 0.665973 0.500000
O O9 0.369548 0.238042 0.706173
O O10 0.481407 0.166235 0.644829
O O11 0.378665 0.000000 0.624824
O O12 0.868483 0.500000 0.237893
O O13 0.844667 0.289118 0.147911
O O14 0.963580 0.322392 0.203676
O O15 0.436831 0.500000 0.194660
O O16 0.424872 0.747874 0.267436
O O17 0.250000 0.677635 0.951135
O O18 0.149460 0.500000 0.943274
O O19 0.415743 0.000000 0.338109
#
# Coordination Sequence:
#
# PCOD9399039 Si02
#       7
#     8   8   8   8   8   8   8
#     4  11  22  34  51  74 100 129 165 208 255 305
#     4   9  15  23  35  53  81 118 157 192 231 281
#     4   9  16  24  37  57  83 118 156 193 233 280
#     4   9  17  29  45  66  91 121 158 200 242 289
#     4  10  18  29  47  68  92 124 163 204 246 294
#     4  10  21  37  55  74  98 130 167 208 255 305
#     4   9  16  25  37  57  88 120 153 194 240 287
#
# _framework density 16.788233999999999
#
# number of rings (size 3 to 8) (size 9 to 14) (size 15 to 20)
#    0.000    2.429    1.429    2.143    0.000    7.143 
#    0.000    0.000    0.000    0.000    0.000    0.000 
#    0.000    1.143    0.000    6.857    0.000    6.000 
#
# Total GULP energy -312291.895009 kJ/mol
# GULP energy per Si atom -5576.640982 kJ/mol
# Density = 1.675002 g / cm^3
# Si number density = 16.788234 Si / 1000 Ang^3
#
#
#
# Elastic Constant Matrix: (Units=GPa)
#
#
# Indices 1 2 3 4 5 6 
#
# 1 17.2801 27.4731 23.9954 0.0000 0.0000 0.0000
# 2 27.4731 159.6981 114.8481 0.0000 0.0000 0.0000
# 3 23.9954 114.8481 164.9147 0.0000 0.0000 0.0000
# 4 0.0000 0.0000 0.0000 32.4138 0.0000 0.0000
# 5 0.0000 0.0000 0.0000 0.0000 7.0529 0.0000
# 6 0.0000 0.0000 0.0000 0.0000 0.0000 7.5879
#
#
#
# Elastic Compliance Matrix: (Units=1/GPa)
#
#
# Indices 1 2 3 4 5 6 
#
# 1 0.081066 -0.010945 -0.004173 0.000000 0.000000 0.000000
# 2 -0.010945 0.014022 -0.008173 0.000000 0.000000 0.000000
# 3 -0.004173 -0.008173 0.012362 0.000000 0.000000 0.000000
# 4 0.000000 0.000000 0.000000 0.030851 0.000000 0.000000
# 5 0.000000 0.000000 0.000000 0.000000 0.141787 0.000000
# 6 0.000000 0.000000 0.000000 0.000000 0.000000 0.131789
#
#
# Mechanical properties :
#
#
# Convention : Reuss Voigt Hill
#
# Bulk Modulus (GPa) = 16.42867 74.94735 45.68801
# Shear Modulus (GPa) = 10.44391 21.11598 15.77995
#
# Velocity S-wave (km/s) = 2.49689 3.55037 3.06917
# Velocity P-wave (km/s) = 4.25672 7.84516 6.31135
#
# Compressibility (1/GPa) = 0.06086922
#
# Stress axis : x y z
#
# Youngs Moduli (GPa) = 12.33566 71.31637 80.89013
#
# Poissons Ratio (x) = 0.78053 0.33758
# Poissons Ratio (y) = 0.13501 0.66108
# Poissons Ratio (z) = 0.05148 0.58284
#
# Static dielectric constant tensor:
#      x y z
#    x 1.535850 0.000000 0.000000 
#    y 0.000000 1.564930 0.000000 
#    z 0.000000 0.000000 1.546070 
# 
# From -- ./inp_files/30371.got.cif
#   From: 2010.05.17/outbox.cif.g08.bks.cpg/sg51_16_cif.got.tgz:30371.got - 2010.06.03 11:52:47.
