data_PCOD9399517
_publ_section_title
;
Structure prediction by ZEFSAII (Michael W. Deem and Ramdas Pophale) SiO2 
 PCOD9399517
Probable space group: P M M A
;
_chemical_formula_sum "Si O2"
_cell_formula_units_Z 32
_cell_length_a 17.213852
_cell_length_b 7.366112
_cell_length_c 11.472414
_cell_angle_alpha 90.000000
_cell_angle_beta 90.000000
_cell_angle_gamma 90.000000
_cell_volume 1454.692479
_symmetry_space_group_name_H-M "P M M A"
_symmetry_group_IT_number 51
_symmetry_cell_setting 'orthorhombic'
loop_
_space_group_symop_operation_xyz
x,y,z
1/2-x,-y,z
1/2+x,-y,-z
-x,y,-z
-x,-y,-z
1/2+x,y,-z
1/2-x,y,z
x,-y,z
loop_
_atom_site_type_symbol
_atom_site_label
_atom_site_fract_x
_atom_site_fract_y
_atom_site_fract_z
Si Si1 0.580138 0.708165 0.056674
Si Si2 0.557828 0.780540 0.324845
Si Si3 0.250000 0.779074 0.275507
Si Si4 0.250000 0.706968 0.006797
Si Si5 0.607866 0.220560 0.567481
O O1 0.583502 0.500000 0.012443
O O2 0.572107 0.709868 0.196133
O O3 0.665719 0.788401 0.028474
O O4 0.500000 0.785948 0.000000
O O5 0.473147 0.727671 0.373016
O O6 0.612947 0.723365 0.432271
O O7 0.560410 0.000000 0.316055
O O8 0.176028 0.720405 0.349283
O O9 0.250000 0.000000 0.267892
O O10 0.250000 0.706845 0.145939
O O11 0.250000 0.500000 0.959135
O O12 0.608023 0.000000 0.564853
#
# Coordination Sequence:
#
# PCOD9399517 Si02
#       5
#     8   8   4   4   8
#     4  10  21  36  52  71 100 135 166 202 247 288
#     4   9  17  32  52  73  99 129 162 198 243 296
#     4  10  18  31  52  74  96 125 165 204 241 290
#     4  10  22  37  50  70 102 133 163 204 249 290
#     4   8  16  30  49  74 101 126 154 201 253 288
#
# _framework density 21.997776999999999
#
# number of rings (size 3 to 8) (size 9 to 14) (size 15 to 20)
#    0.000    2.750    0.000    3.000    0.000    2.500 
#    0.000    5.000    0.000    0.000    0.000    0.000 
#    0.000    0.000    0.000    0.000    0.000    0.000 
#
# Total GULP energy -178478.384015 kJ/mol
# GULP energy per Si atom -5577.449500 kJ/mol
# Density = 2.194771 g / cm^3
# Si number density = 21.997777 Si / 1000 Ang^3
#
#
#
# Elastic Constant Matrix: (Units=GPa)
#
#
# Indices 1 2 3 4 5 6 
#
# 1 152.7490 5.5568 84.4888 0.0000 0.0000 0.0000
# 2 5.5568 79.4180 -10.5698 0.0000 0.0000 0.0000
# 3 84.4888 -10.5698 185.1785 0.0000 0.0000 0.0000
# 4 0.0000 0.0000 0.0000 26.2325 0.0000 0.0000
# 5 0.0000 0.0000 0.0000 0.0000 37.5925 0.0000
# 6 0.0000 0.0000 0.0000 0.0000 0.0000 -13.5285
#
#
#
# Elastic Compliance Matrix: (Units=1/GPa)
#
#
# Indices 1 2 3 4 5 6 
#
# 1 0.008863 -0.001167 -0.004110 0.000000 0.000000 0.000000
# 2 -0.001167 0.012842 0.001266 0.000000 0.000000 0.000000
# 3 -0.004110 0.001266 0.007348 0.000000 0.000000 0.000000
# 4 0.000000 0.000000 0.000000 0.038121 0.000000 0.000000
# 5 0.000000 0.000000 0.000000 0.000000 0.026601 0.000000
# 6 0.000000 0.000000 0.000000 0.000000 0.000000 -0.073918
#
#
# Mechanical properties :
#
#
# Convention : Reuss Voigt Hill
#
# Bulk Modulus (GPa) = 47.55496 64.03302 55.79399
# Shear Modulus (GPa) = 143.31067 32.58392 87.94730
#
# Velocity S-wave (km/s) = 8.08017 3.85286 6.32984
# Velocity P-wave (km/s) = 10.42676 6.99748 8.87925
#
# Compressibility (1/GPa) = 0.02102830
#
# Stress axis : x y z
#
# Youngs Moduli (GPa) = 112.83353 77.87136 136.09605
#
# Poissons Ratio (x) = 0.09089 0.55939
# Poissons Ratio (y) = 0.13169 -0.17223
# Poissons Ratio (z) = 0.46377 -0.09855
#
# Static dielectric constant tensor:
#      x y z
#    x 1.824590 0.000000 0.000000 
#    y 0.000000 1.853640 0.000000 
#    z 0.000000 0.000000 1.733770 
# 
# From -- ./inp_files/9172.got.cif
#   From: 2010.05.17/outbox.cif.g08.bks.cpg/sg51_5_cif.got.tgz:9172.got - 2010.06.03 11:52:47.
