data_PCOD9399956
_publ_section_title
;
Structure prediction by ZEFSAII (Michael W. Deem and Ramdas Pophale) SiO2 
 PCOD9399956
Probable space group: P M M A
;
_chemical_formula_sum "Si O2"
_cell_formula_units_Z 58
_cell_length_a 17.463120
_cell_length_b 15.473915
_cell_length_c 12.057828
_cell_angle_alpha 90.000000
_cell_angle_beta 90.000000
_cell_angle_gamma 90.000000
_cell_volume 3258.300460
_symmetry_space_group_name_H-M "P M M A"
_symmetry_group_IT_number 51
_symmetry_cell_setting 'orthorhombic'
loop_
_space_group_symop_operation_xyz
x,y,z
1/2-x,-y,z
1/2+x,-y,-z
-x,y,-z
-x,-y,-z
1/2+x,y,-z
1/2-x,y,z
x,-y,z
loop_
_atom_site_type_symbol
_atom_site_label
_atom_site_fract_x
_atom_site_fract_y
_atom_site_fract_z
Si Si1 0.071099 0.096520 0.852351
Si Si2 0.430711 0.601280 0.414322
Si Si3 0.163222 0.595841 0.992337
Si Si4 0.105848 0.873348 0.113435
Si Si5 0.339570 0.401973 0.621647
Si Si6 0.102596 0.717504 0.808988
Si Si7 0.250000 0.000000 0.153722
Si Si8 0.072185 0.683970 0.174877
O O1 0.109278 0.179581 0.794786
O O2 0.978444 0.100537 0.838482
O O3 0.096628 0.000000 0.820399
O O4 0.092593 0.111170 0.981846
O O5 0.500000 0.622640 0.500000
O O6 0.439787 0.500000 0.384279
O O7 0.356614 0.611041 0.492212
O O8 0.425241 0.656447 0.303167
O O9 0.250000 0.597922 0.034282
O O10 0.149622 0.500000 0.942817
O O11 0.106531 0.612609 0.093685
O O12 0.153929 0.670413 0.900864
O O13 0.114763 0.773134 0.145293
O O14 0.180586 0.925959 0.149243
O O15 0.250000 0.396073 0.645804
O O16 0.365827 0.500000 0.647894
O O17 0.383309 0.333234 0.695896
O O18 0.016558 0.701230 0.851262
#
# Coordination Sequence:
#
# PCOD9399956 Si02
#       8
#     8   8   8   8   8   8   2   8
#     4  10  18  37  54  80 113 149 186 233 280 340
#     4  10  20  37  60  85 114 150 199 248 282 335
#     4  11  24  37  50  77 122 161 188 226 286 353
#     4  10  20  33  55  80 113 144 184 228 282 344
#     4  10  21  38  59  84 114 152 196 244 295 340
#     4  11  21  35  59  84 113 152 194 237 286 342
#     4  12  20  34  56  84 112 152 184 234 284 352
#     4  11  22  36  57  86 113 150 196 240 286 342
#
# _framework density 17.800691
#
# number of rings (size 3 to 8) (size 9 to 14) (size 15 to 20)
#    0.000    1.517    4.138    2.069    0.966    3.862 
#    1.241    1.379    0.000    0.000    1.793    2.414 
#    0.000    0.000    0.000    0.000    0.000    0.000 
#
# Total GULP energy -322874.391669 kJ/mol
# GULP energy per Si atom -5566.799856 kJ/mol
# Density = 1.776018 g / cm^3
# Si number density = 17.800691 Si / 1000 Ang^3
#
#
#
# Elastic Constant Matrix: (Units=GPa)
#
#
# Indices 1 2 3 4 5 6 
#
# 1 57.7270 36.5954 6.6117 0.0000 0.0000 0.0000
# 2 36.5954 133.4995 30.3092 0.0000 0.0000 0.0000
# 3 6.6117 30.3092 48.3888 0.0000 0.0000 0.0000
# 4 0.0000 0.0000 0.0000 14.1459 0.0000 0.0000
# 5 0.0000 0.0000 0.0000 0.0000 16.4265 0.0000
# 6 0.0000 0.0000 0.0000 0.0000 0.0000 27.9545
#
#
#
# Elastic Compliance Matrix: (Units=1/GPa)
#
#
# Indices 1 2 3 4 5 6 
#
# 1 0.020997 -0.005951 0.000858 0.000000 0.000000 0.000000
# 2 -0.005951 0.010419 -0.005713 0.000000 0.000000 0.000000
# 3 0.000858 -0.005713 0.024127 0.000000 0.000000 0.000000
# 4 0.000000 0.000000 0.000000 0.070692 0.000000 0.000000
# 5 0.000000 0.000000 0.000000 0.000000 0.060877 0.000000
# 6 0.000000 0.000000 0.000000 0.000000 0.000000 0.035772
#
#
# Mechanical properties :
#
#
# Convention : Reuss Voigt Hill
#
# Bulk Modulus (GPa) = 29.47036 42.96087 36.21561
# Shear Modulus (GPa) = 19.54604 22.77863 21.16234
#
# Velocity S-wave (km/s) = 3.31728 3.58110 3.45171
# Velocity P-wave (km/s) = 5.59143 6.42540 6.02287
#
# Compressibility (1/GPa) = 0.03393240
#
# Stress axis : x y z
#
# Youngs Moduli (GPa) = 47.62591 95.97900 41.44713
#
# Poissons Ratio (x) = 0.57114 -0.03558
# Poissons Ratio (y) = 0.28341 0.23679
# Poissons Ratio (z) = -0.04088 0.54833
#
# Static dielectric constant tensor:
#      x y z
#    x 1.651430 0.000000 0.000000 
#    y 0.000000 1.647220 0.000000 
#    z 0.000000 0.000000 1.585160 
# 
# From -- ./inp_files/17494.got.cif
#   From: 2010.05.17/outbox.cif.g08.bks.cpg/sg51_9_cif.got.tgz:17494.got - 2010.06.03 11:52:47.
