data_PCOD9399284
_publ_section_title
;
Structure prediction by ZEFSAII (Michael W. Deem and Ramdas Pophale) SiO2 
 PCOD9399284
Probable space group: P M M A
;
_chemical_formula_sum "Si O2"
_cell_formula_units_Z 56
_cell_length_a 22.098296
_cell_length_b 7.728524
_cell_length_c 17.585939
_cell_angle_alpha 90.000000
_cell_angle_beta 90.000000
_cell_angle_gamma 90.000000
_cell_volume 3003.453475
_symmetry_space_group_name_H-M "P M M A"
_symmetry_group_IT_number 51
_symmetry_cell_setting 'orthorhombic'
loop_
_space_group_symop_operation_xyz
x,y,z
1/2-x,-y,z
1/2+x,-y,-z
-x,y,-z
-x,-y,-z
1/2+x,y,-z
1/2-x,y,z
x,-y,z
loop_
_atom_site_type_symbol
_atom_site_label
_atom_site_fract_x
_atom_site_fract_y
_atom_site_fract_z
Si Si1 0.091600 0.788470 0.972884
Si Si2 0.060065 0.708694 0.453574
Si Si3 0.972511 0.793838 0.881410
Si Si4 0.477555 0.700643 0.293414
Si Si5 0.181953 0.211740 0.851843
Si Si6 0.818448 0.208245 0.454189
Si Si7 0.383356 0.209994 0.698462
O O1 0.151848 0.732024 0.930554
O O2 0.036085 0.733252 0.917894
O O3 0.092030 0.000000 0.973262
O O4 0.077940 0.730230 0.058667
O O5 0.054845 0.500000 0.451695
O O6 0.056133 0.777342 0.366987
O O7 0.124601 0.747985 0.491927
O O8 0.000000 0.770724 0.500000
O O9 0.965666 0.761774 0.792344
O O10 0.974287 0.000000 0.889036
O O11 0.462399 0.500000 0.291774
O O12 0.548732 0.723827 0.310760
O O13 0.250000 0.271424 0.843233
O O14 0.142355 0.265444 0.779701
O O15 0.182196 0.000000 0.850793
O O16 0.750000 0.271141 0.472578
O O17 0.839820 0.265605 0.370069
O O18 0.815154 0.000000 0.452627
O O19 0.386229 0.000000 0.697866
#
# Coordination Sequence:
#
# PCOD9399284 Si02
#       7
#     8   8   8   8   8   8   8
#     4   8  14  25  44  69  94 123 159 193 230 288
#     4  10  21  37  53  72 101 138 177 213 252 304
#     4   9  16  29  48  68  93 124 159 198 243 289
#     4  11  21  32  49  73 101 129 167 213 248 290
#     4   9  15  24  43  71  99 126 157 193 233 287
#     4  10  21  35  53  80 108 132 167 214 260 309
#     4  10  18  30  49  73 103 135 161 192 248 309
#
# _framework density 18.645202999999999
#
# number of rings (size 3 to 8) (size 9 to 14) (size 15 to 20)
#    0.000    2.429    2.857    1.714    0.000    3.429 
#    0.000    1.429    0.000    2.143    0.000    2.000 
#    0.000    0.000    0.000    0.000    0.000    0.000 
#
# Total GULP energy -312078.174888 kJ/mol
# GULP energy per Si atom -5572.824552 kJ/mol
# Density = 1.860277 g / cm^3
# Si number density = 18.645203 Si / 1000 Ang^3
#
#
#
# Elastic Constant Matrix: (Units=GPa)
#
#
# Indices 1 2 3 4 5 6 
#
# 1 77.4844 -10.0686 53.0906 0.0000 0.0000 0.0000
# 2 -10.0686 19.2495 1.8160 0.0000 0.0000 0.0000
# 3 53.0906 1.8160 137.3467 0.0000 0.0000 0.0000
# 4 0.0000 0.0000 0.0000 27.6188 0.0000 0.0000
# 5 0.0000 0.0000 0.0000 0.0000 23.9546 0.0000
# 6 0.0000 0.0000 0.0000 0.0000 0.0000 13.7920
#
#
#
# Elastic Compliance Matrix: (Units=1/GPa)
#
#
# Indices 1 2 3 4 5 6 
#
# 1 0.019635 0.011000 -0.007735 0.000000 0.000000 0.000000
# 2 0.011000 0.058177 -0.005021 0.000000 0.000000 0.000000
# 3 -0.007735 -0.005021 0.010337 0.000000 0.000000 0.000000
# 4 0.000000 0.000000 0.000000 0.036207 0.000000 0.000000
# 5 0.000000 0.000000 0.000000 0.000000 0.041746 0.000000
# 6 0.000000 0.000000 0.000000 0.000000 0.000000 0.072506
#
#
# Mechanical properties :
#
#
# Convention : Reuss Voigt Hill
#
# Bulk Modulus (GPa) = 11.81521 35.97293 23.89407
# Shear Modulus (GPa) = 18.49570 25.68926 22.09248
#
# Velocity S-wave (km/s) = 3.15299 3.71589 3.44595
# Velocity P-wave (km/s) = 4.42784 6.14376 5.35497
#
# Compressibility (1/GPa) = 0.08463668
#
# Stress axis : x y z
#
# Youngs Moduli (GPa) = 50.92856 17.18895 96.73710
#
# Poissons Ratio (x) = -0.18908 0.74830
# Poissons Ratio (y) = -0.56022 0.48574
# Poissons Ratio (z) = 0.39395 0.08631
#
# Static dielectric constant tensor:
#      x y z
#    x 1.631360 0.000000 0.000000 
#    y 0.000000 1.695420 0.000000 
#    z 0.000000 0.000000 1.679280 
# 
# From -- ./inp_files/30391.got.cif
#   From: 2010.05.17/outbox.cif.g08.bks.cpg/sg51_16_cif.got.tgz:30391.got - 2010.06.03 11:52:47.
