data_PCOD9399123
_publ_section_title
;
Structure prediction by ZEFSAII (Michael W. Deem and Ramdas Pophale) SiO2 
 PCOD9399123
Probable space group: P M M A
;
_chemical_formula_sum "Si O2"
_cell_formula_units_Z 56
_cell_length_a 8.532565
_cell_length_b 15.090489
_cell_length_c 23.917642
_cell_angle_alpha 90.000000
_cell_angle_beta 90.000000
_cell_angle_gamma 90.000000
_cell_volume 3079.649415
_symmetry_space_group_name_H-M "P M M A"
_symmetry_group_IT_number 51
_symmetry_cell_setting 'orthorhombic'
loop_
_space_group_symop_operation_xyz
x,y,z
1/2-x,-y,z
1/2+x,-y,-z
-x,y,-z
-x,-y,-z
1/2+x,y,-z
1/2-x,y,z
x,-y,z
loop_
_atom_site_type_symbol
_atom_site_label
_atom_site_fract_x
_atom_site_fract_y
_atom_site_fract_z
Si Si1 0.436174 0.100850 0.392164
Si Si2 0.437511 0.898819 0.061954
Si Si3 0.436066 0.103848 0.730723
Si Si4 0.060473 0.218910 0.837846
Si Si5 0.941151 0.399395 0.212157
Si Si6 0.440669 0.398102 0.660365
Si Si7 0.436493 0.724167 0.559429
O O1 0.250000 0.104100 0.399682
O O2 0.477852 0.121293 0.327521
O O3 0.515262 0.174560 0.430082
O O4 0.490740 0.000000 0.403026
O O5 0.250000 0.897904 0.060894
O O6 0.496972 0.830233 0.107897
O O7 0.489462 0.000000 0.075900
O O8 0.500000 0.878569 0.000000
O O9 0.250000 0.119064 0.721319
O O10 0.486753 0.164067 0.782384
O O11 0.457743 0.000000 0.744779
O O12 0.250000 0.216864 0.840083
O O13 0.009242 0.320529 0.828646
O O14 0.750000 0.400243 0.212090
O O15 0.992065 0.500000 0.199178
O O16 0.989450 0.377134 0.276051
O O17 0.250000 0.393895 0.660548
O O18 0.484043 0.500000 0.648758
O O19 0.497525 0.332970 0.612066
O O20 0.500000 0.692649 0.500000
O O21 0.250000 0.717579 0.558826
#
# Coordination Sequence:
#
# PCOD9399123 Si02
#       7
#     8   8   8   8   8   8   8
#     4  10  21  36  52  70  95 128 165 206 251 297
#     4  10  21  36  53  74 103 139 176 213 253 296
#     4   9  17  29  47  73 102 130 162 201 247 300
#     4  10  18  29  50  78 106 137 172 208 246 291
#     4   8  14  26  47  76 105 131 163 203 245 291
#     4   8  15  30  52  76 101 129 161 198 243 296
#     4  11  22  35  52  73  97 126 162 204 249 299
#
# _framework density 18.183889000000001
#
# number of rings (size 3 to 8) (size 9 to 14) (size 15 to 20)
#    0.000    2.571    0.000    3.429    0.000    5.714 
#    0.000    1.429    0.000    2.143    0.000    4.000 
#    0.000    0.000    0.000    0.000    0.000    0.000 
#
# Total GULP energy -312445.603907 kJ/mol
# GULP energy per Si atom -5579.385784 kJ/mol
# Density = 1.814250 g / cm^3
# Si number density = 18.183889 Si / 1000 Ang^3
#
#
#
# Elastic Constant Matrix: (Units=GPa)
#
#
# Indices 1 2 3 4 5 6 
#
# 1 15.3052 21.5328 15.6148 0.0000 0.0000 0.0000
# 2 21.5328 104.5422 76.3313 0.0000 0.0000 0.0000
# 3 15.6148 76.3313 84.7920 0.0000 0.0000 0.0000
# 4 0.0000 0.0000 0.0000 19.9773 0.0000 0.0000
# 5 0.0000 0.0000 0.0000 0.0000 28.2669 0.0000
# 6 0.0000 0.0000 0.0000 0.0000 0.0000 9.8490
#
#
#
# Elastic Compliance Matrix: (Units=1/GPa)
#
#
# Indices 1 2 3 4 5 6 
#
# 1 0.091999 -0.019197 0.000340 0.000000 0.000000 0.000000
# 2 -0.019197 0.031918 -0.025197 0.000000 0.000000 0.000000
# 3 0.000340 -0.025197 0.034414 0.000000 0.000000 0.000000
# 4 0.000000 0.000000 0.000000 0.050057 0.000000 0.000000
# 5 0.000000 0.000000 0.000000 0.000000 0.035377 0.000000
# 6 0.000000 0.000000 0.000000 0.000000 0.000000 0.101533
#
#
# Mechanical properties :
#
#
# Convention : Reuss Voigt Hill
#
# Bulk Modulus (GPa) = 14.24077 47.95524 31.09801
# Shear Modulus (GPa) = 10.94534 17.69600 14.32067
#
# Velocity S-wave (km/s) = 2.45608 3.12295 2.80937
# Velocity P-wave (km/s) = 3.98643 6.27960 5.25952
#
# Compressibility (1/GPa) = 0.07022093
#
# Stress axis : x y z
#
# Youngs Moduli (GPa) = 10.86964 31.33076 29.05780
#
# Poissons Ratio (x) = 0.60147 -0.00988
# Poissons Ratio (y) = 0.20867 0.73218
# Poissons Ratio (z) = -0.00369 0.78945
#
# Static dielectric constant tensor:
#      x y z
#    x 1.628320 0.000000 0.000000 
#    y 0.000000 1.641930 0.000000 
#    z 0.000000 0.000000 1.599950 
# 
# From -- ./inp_files/32019.got.cif
#   From: 2010.05.17/outbox.cif.g08.bks.cpg/sg51_17_cif.got.tgz:32019.got - 2010.06.03 11:52:47.
