data_PCOD9399624
_publ_section_title
;
Structure prediction by ZEFSAII (Michael W. Deem and Ramdas Pophale) SiO2 
 PCOD9399624
Probable space group: P M M A
;
_chemical_formula_sum "Si O2"
_cell_formula_units_Z 52
_cell_length_a 8.990747
_cell_length_b 19.008219
_cell_length_c 16.192946
_cell_angle_alpha 90.000000
_cell_angle_beta 90.000000
_cell_angle_gamma 90.000000
_cell_volume 2767.343510
_symmetry_space_group_name_H-M "P M M A"
_symmetry_group_IT_number 51
_symmetry_cell_setting 'orthorhombic'
loop_
_space_group_symop_operation_xyz
x,y,z
1/2-x,-y,z
1/2+x,-y,-z
-x,y,-z
-x,-y,-z
1/2+x,y,-z
1/2-x,y,z
x,-y,z
loop_
_atom_site_type_symbol
_atom_site_label
_atom_site_fract_x
_atom_site_fract_y
_atom_site_fract_z
Si Si1 0.078976 0.280525 0.743817
Si Si2 0.580404 0.110630 0.917087
Si Si3 0.084150 0.916544 0.577585
Si Si4 0.430154 0.353674 0.407772
Si Si5 0.069292 0.500000 0.591922
Si Si6 0.577359 0.282425 0.914141
Si Si7 0.919775 0.111666 0.246835
O O1 0.250000 0.305435 0.735140
O O2 0.084064 0.196177 0.752986
O O3 0.984636 0.299334 0.662222
O O4 0.005427 0.305888 0.830113
O O5 0.750000 0.089136 0.918750
O O6 0.574779 0.196586 0.915317
O O7 0.502213 0.086315 0.833931
O O8 0.500000 0.087650 0.000000
O O9 0.250000 0.885549 0.582661
O O10 0.008605 0.908290 0.665991
O O11 0.000000 0.885025 0.500000
O O12 0.098339 0.000000 0.563914
O O13 0.500000 0.340799 0.500000
O O14 0.250000 0.357070 0.414154
O O15 0.500616 0.427525 0.374867
O O16 0.250000 0.500000 0.591692
O O17 0.000000 0.500000 0.500000
O O18 0.750000 0.303620 0.912367
O O19 0.500000 0.304997 0.000000
O O20 0.750000 0.085227 0.245941
#
# Coordination Sequence:
#
# PCOD9399624 Si02
#       7
#     8   8   8   8   4   8   8
#     4  10  19  31  46  69  99 128 158 194 238 286
#     4   9  16  26  43  66  92 121 152 186 227 277
#     4   9  18  33  51  69  89 117 155 197 238 281
#     4  11  21  34  50  70  97 129 163 198 236 280
#     4  10  18  32  52  72  93 122 161 200 236 276
#     4   9  16  27  43  65  92 124 158 193 233 278
#     4   9  18  31  47  68  95 124 154 192 238 284
#
# _framework density 18.790585
#
# number of rings (size 3 to 8) (size 9 to 14) (size 15 to 20)
#    0.000    2.462    0.000    4.385    0.000    5.538 
#    0.000    1.538    0.000    0.462    0.000    0.538 
#    0.000    0.000    0.000    0.000    0.000    0.000 
#
# Total GULP energy -289769.096454 kJ/mol
# GULP energy per Si atom -5572.482624 kJ/mol
# Density = 1.874782 g / cm^3
# Si number density = 18.790585 Si / 1000 Ang^3
#
#
#
# Elastic Constant Matrix: (Units=GPa)
#
#
# Indices 1 2 3 4 5 6 
#
# 1 151.9747 14.6033 90.0625 0.0000 0.0000 0.0000
# 2 14.6033 28.3488 8.5314 0.0000 0.0000 0.0000
# 3 90.0625 8.5314 184.5165 0.0000 0.0000 0.0000
# 4 0.0000 0.0000 0.0000 24.6977 0.0000 0.0000
# 5 0.0000 0.0000 0.0000 0.0000 33.2051 0.0000
# 6 0.0000 0.0000 0.0000 0.0000 0.0000 19.9268
#
#
#
# Elastic Compliance Matrix: (Units=1/GPa)
#
#
# Indices 1 2 3 4 5 6 
#
# 1 0.009605 -0.003587 -0.004522 0.000000 0.000000 0.000000
# 2 -0.003587 0.037112 0.000035 0.000000 0.000000 0.000000
# 3 -0.004522 0.000035 0.007625 0.000000 0.000000 0.000000
# 4 0.000000 0.000000 0.000000 0.040490 0.000000 0.000000
# 5 0.000000 0.000000 0.000000 0.000000 0.030116 0.000000
# 6 0.000000 0.000000 0.000000 0.000000 0.000000 0.050184
#
#
# Mechanical properties :
#
#
# Convention : Reuss Voigt Hill
#
# Bulk Modulus (GPa) = 26.18236 65.69269 45.93752
# Shear Modulus (GPa) = 24.50855 32.34211 28.42533
#
# Velocity S-wave (km/s) = 3.61543 4.15322 3.89362
# Velocity P-wave (km/s) = 5.60289 7.61809 6.68684
#
# Compressibility (1/GPa) = 0.03819366
#
# Stress axis : x y z
#
# Youngs Moduli (GPa) = 104.11687 26.94541 131.14360
#
# Poissons Ratio (x) = 0.09665 0.59305
# Poissons Ratio (y) = 0.37344 -0.00456
# Poissons Ratio (z) = 0.47083 -0.00094
#
# Static dielectric constant tensor:
#      x y z
#    x 1.659940 0.000000 0.000000 
#    y 0.000000 1.698110 0.000000 
#    z 0.000000 0.000000 1.676180 
# 
# From -- ./inp_files/21521.got.cif
#   From: 2010.05.17/outbox.cif.g08.bks.cpg/sg51_11_cif.got.tgz:21521.got - 2010.06.03 11:52:47.
