data_PCOD9399582
_publ_section_title
;
Structure prediction by ZEFSAII (Michael W. Deem and Ramdas Pophale) SiO2 
 PCOD9399582
Probable space group: P M M A
;
_chemical_formula_sum "Si O2"
_cell_formula_units_Z 48
_cell_length_a 7.863360
_cell_length_b 14.886370
_cell_length_c 21.355125
_cell_angle_alpha 90.000000
_cell_angle_beta 90.000000
_cell_angle_gamma 90.000000
_cell_volume 2499.764441
_symmetry_space_group_name_H-M "P M M A"
_symmetry_group_IT_number 51
_symmetry_cell_setting 'orthorhombic'
loop_
_space_group_symop_operation_xyz
x,y,z
1/2-x,-y,z
1/2+x,-y,-z
-x,y,-z
-x,-y,-z
1/2+x,y,-z
1/2-x,y,z
x,-y,z
loop_
_atom_site_type_symbol
_atom_site_label
_atom_site_fract_x
_atom_site_fract_y
_atom_site_fract_z
Si Si1 0.045200 0.901034 0.388295
Si Si2 0.455002 0.397307 0.070390
Si Si3 0.546382 0.716591 0.813042
Si Si4 0.949862 0.292062 0.431543
Si Si5 0.956446 0.603633 0.309682
Si Si6 0.542331 0.900329 0.757346
O O1 0.250000 0.902657 0.389202
O O2 0.991835 0.889286 0.315550
O O3 0.989928 0.813562 0.425392
O O4 0.984982 0.000000 0.409691
O O5 0.250000 0.399970 0.074895
O O6 0.517356 0.500000 0.079259
O O7 0.520540 0.332193 0.124836
O O8 0.500000 0.368917 0.000000
O O9 0.750000 0.724503 0.820358
O O10 0.513308 0.655320 0.752433
O O11 0.480258 0.816301 0.797547
O O12 0.750000 0.302190 0.427006
O O13 0.022662 0.345004 0.371667
O O14 0.000000 0.325703 0.500000
O O15 0.750000 0.604685 0.310141
O O16 0.011460 0.500000 0.309095
O O17 0.750000 0.899113 0.757666
O O18 0.489048 0.000000 0.777976
#
# Coordination Sequence:
#
# PCOD9399582 Si02
#       6
#     8   8   8   8   8   8
#     4   9  17  32  54  77 101 129 162 202 250 304
#     4   9  18  31  47  72 104 136 170 206 245 291
#     4  10  18  31  55  81 103 129 168 211 247 290
#     4  11  23  37  53  72  98 132 169 208 253 303
#     4  10  22  38  53  73 101 130 163 206 257 307
#     4   8  14  26  48  77 104 128 157 198 248 297
#
# _framework density 19.201809000000001
#
# number of rings (size 3 to 8) (size 9 to 14) (size 15 to 20)
#    0.000    2.500    1.667    2.000    0.000    3.333 
#    0.000    1.667    0.000    1.000    0.000    0.000 
#    0.000    0.000    0.000    0.000    0.000    0.000 
#
# Total GULP energy -267803.131548 kJ/mol
# GULP energy per Si atom -5579.231907 kJ/mol
# Density = 1.915810 g / cm^3
# Si number density = 19.201809 Si / 1000 Ang^3
#
#
#
# Elastic Constant Matrix: (Units=GPa)
#
#
# Indices 1 2 3 4 5 6 
#
# 1 16.2192 -2.1321 -1.5126 0.0000 0.0000 0.0000
# 2 -2.1321 126.8016 79.8427 0.0000 0.0000 0.0000
# 3 -1.5126 79.8427 137.4378 0.0000 0.0000 0.0000
# 4 0.0000 0.0000 0.0000 25.6790 0.0000 0.0000
# 5 0.0000 0.0000 0.0000 0.0000 18.9926 0.0000
# 6 0.0000 0.0000 0.0000 0.0000 0.0000 51.8250
#
#
#
# Elastic Compliance Matrix: (Units=1/GPa)
#
#
# Indices 1 2 3 4 5 6 
#
# 1 0.061793 0.000963 0.000121 0.000000 0.000000 0.000000
# 2 0.000963 0.012450 -0.007222 0.000000 0.000000 0.000000
# 3 0.000121 -0.007222 0.011473 0.000000 0.000000 0.000000
# 4 0.000000 0.000000 0.000000 0.038942 0.000000 0.000000
# 5 0.000000 0.000000 0.000000 0.000000 0.052652 0.000000
# 6 0.000000 0.000000 0.000000 0.000000 0.000000 0.019296
#
#
# Mechanical properties :
#
#
# Convention : Reuss Voigt Hill
#
# Bulk Modulus (GPa) = 13.61670 48.09494 30.85582
# Shear Modulus (GPa) = 21.42587 32.91671 27.17129
#
# Velocity S-wave (km/s) = 3.34402 4.14484 3.76578
# Velocity P-wave (km/s) = 4.69220 6.92876 5.91711
#
# Compressibility (1/GPa) = 0.07343925
#
# Stress axis : x y z
#
# Youngs Moduli (GPa) = 16.18304 80.32110 87.16178
#
# Poissons Ratio (x) = -0.07736 -0.01051
# Poissons Ratio (y) = -0.01559 0.62949
# Poissons Ratio (z) = -0.00195 0.58009
#
# Static dielectric constant tensor:
#      x y z
#    x 1.692950 0.000000 0.000000 
#    y 0.000000 1.696060 0.000000 
#    z 0.000000 0.000000 1.666070 
# 
# From -- ./inp_files/27559.got.cif
#   From: 2010.05.17/outbox.cif.g08.bks.cpg/sg51_14_cif.got.tgz:27559.got - 2010.06.03 11:52:47.
