data_PCOD9399904
_publ_section_title
;
Structure prediction by ZEFSAII (Michael W. Deem and Ramdas Pophale) SiO2 
 PCOD9399904
Probable space group: P M M A
;
_chemical_formula_sum "Si O2"
_cell_formula_units_Z 56
_cell_length_a 15.284793
_cell_length_b 8.659815
_cell_length_c 22.550931
_cell_angle_alpha 90.000000
_cell_angle_beta 90.000000
_cell_angle_gamma 90.000000
_cell_volume 2984.919697
_symmetry_space_group_name_H-M "P M M A"
_symmetry_group_IT_number 51
_symmetry_cell_setting 'orthorhombic'
loop_
_space_group_symop_operation_xyz
x,y,z
1/2-x,-y,z
1/2+x,-y,-z
-x,y,-z
-x,-y,-z
1/2+x,y,-z
1/2-x,y,z
x,-y,z
loop_
_atom_site_type_symbol
_atom_site_label
_atom_site_fract_x
_atom_site_fract_y
_atom_site_fract_z
Si Si1 0.561782 0.686688 0.444162
Si Si2 0.849908 0.316193 0.140189
Si Si3 0.154514 0.187914 0.114894
Si Si4 0.490067 0.184773 0.208203
Si Si5 0.103244 0.820623 0.986493
Si Si6 0.750000 0.184244 0.477679
Si Si7 0.937317 0.313768 0.664613
Si Si8 0.250000 0.312827 0.388765
O O1 0.500000 0.731099 0.500000
O O2 0.569392 0.500000 0.445483
O O3 0.659247 0.754641 0.449181
O O4 0.508223 0.732017 0.385303
O O5 0.750000 0.269314 0.150752
O O6 0.856953 0.500000 0.145850
O O7 0.874897 0.268484 0.073175
O O8 0.915537 0.237823 0.186016
O O9 0.250000 0.228582 0.138651
O O10 0.078178 0.241821 0.157923
O O11 0.148334 0.000000 0.111946
O O12 0.145716 0.240967 0.047015
O O13 0.463183 0.248301 0.271855
O O14 0.486223 0.000000 0.209318
O O15 0.129593 0.000000 0.977706
O O16 0.000000 0.818973 0.000000
O O17 0.750000 0.244253 0.545423
O O18 0.750000 0.000000 0.476204
O O19 0.937638 0.500000 0.667232
O O20 0.839463 0.266663 0.644435
O O21 0.250000 0.500000 0.393912
#
# Coordination Sequence:
#
# PCOD9399904 Si02
#       8
#     8   8   8   8   8   4   8   4
#     4  10  20  40  67  89 118 163 208 247 294 358
#     4  11  24  41  61  85 115 153 202 254 305 358
#     4   9  18  33  54  82 116 153 189 228 283 355
#     4  11  23  40  61  85 119 158 198 244 298 357
#     4  10  18  34  60  87 115 148 193 243 298 358
#     4  12  24  36  60  98 134 158 195 254 309 356
#     4  10  22  40  64  91 121 160 205 249 291 350
#     4  10  20  40  66  92 126 166 207 234 285 368
#
# _framework density 18.760974000000001
#
# number of rings (size 3 to 8) (size 9 to 14) (size 15 to 20)
#    0.000    1.714    2.857    1.929    1.000    3.429 
#    1.286    0.000    0.000    0.857    0.000    0.000 
#    0.000    0.000    0.000    0.000    0.000    0.000 
#
# Total GULP energy -312752.648070 kJ/mol
# GULP energy per Si atom -5584.868716 kJ/mol
# Density = 1.871827 g / cm^3
# Si number density = 18.760974 Si / 1000 Ang^3
#
#
#
# Elastic Constant Matrix: (Units=GPa)
#
#
# Indices 1 2 3 4 5 6 
#
# 1 172.6318 37.0721 86.6695 0.0000 0.0000 0.0000
# 2 37.0721 20.4350 32.7266 0.0000 0.0000 0.0000
# 3 86.6695 32.7266 135.7561 0.0000 0.0000 0.0000
# 4 0.0000 0.0000 0.0000 51.9435 0.0000 0.0000
# 5 0.0000 0.0000 0.0000 0.0000 7.6975 0.0000
# 6 0.0000 0.0000 0.0000 0.0000 0.0000 3.8812
#
#
#
# Elastic Compliance Matrix: (Units=1/GPa)
#
#
# Indices 1 2 3 4 5 6 
#
# 1 0.010370 -0.013373 -0.003396 0.000000 0.000000 0.000000
# 2 -0.013373 0.096954 -0.014835 0.000000 0.000000 0.000000
# 3 -0.003396 -0.014835 0.013111 0.000000 0.000000 0.000000
# 4 0.000000 0.000000 0.000000 0.019252 0.000000 0.000000
# 5 0.000000 0.000000 0.000000 0.000000 0.129911 0.000000
# 6 0.000000 0.000000 0.000000 0.000000 0.000000 0.257651
#
#
# Mechanical properties :
#
#
# Convention : Reuss Voigt Hill
#
# Bulk Modulus (GPa) = 17.47459 71.30659 44.39059
# Shear Modulus (GPa) = 8.20301 24.19477 16.19889
#
# Velocity S-wave (km/s) = 2.09329 3.59504 2.94161
# Velocity P-wave (km/s) = 3.89577 7.43794 5.93717
#
# Compressibility (1/GPa) = 0.05722596
#
# Stress axis : x y z
#
# Youngs Moduli (GPa) = 96.43599 10.31415 76.27279
#
# Poissons Ratio (x) = 0.13793 0.25906
# Poissons Ratio (y) = 1.28960 1.13153
# Poissons Ratio (z) = 0.32754 0.15301
#
# Static dielectric constant tensor:
#      x y z
#    x 1.669240 0.000000 0.000000 
#    y 0.000000 1.642180 0.000000 
#    z 0.000000 0.000000 1.620480 
# 
# From -- ./inp_files/33526.got.cif
#   From: 2010.05.17/outbox.cif.g08.bks.cpg/sg51_17_cif.got.tgz:33526.got - 2010.06.03 11:52:47.
