data_PCOD9399066
_publ_section_title
;
Structure prediction by ZEFSAII (Michael W. Deem and Ramdas Pophale) SiO2 
 PCOD9399066
Probable space group: P M M A
;
_chemical_formula_sum "Si O2"
_cell_formula_units_Z 64
_cell_length_a 8.993228
_cell_length_b 18.300637
_cell_length_c 23.799902
_cell_angle_alpha 90.000000
_cell_angle_beta 90.000000
_cell_angle_gamma 90.000000
_cell_volume 3917.030737
_symmetry_space_group_name_H-M "P M M A"
_symmetry_group_IT_number 51
_symmetry_cell_setting 'orthorhombic'
loop_
_space_group_symop_operation_xyz
x,y,z
1/2-x,-y,z
1/2+x,-y,-z
-x,y,-z
-x,-y,-z
1/2+x,y,-z
1/2-x,y,z
x,-y,z
loop_
_atom_site_type_symbol
_atom_site_label
_atom_site_fract_x
_atom_site_fract_y
_atom_site_fract_z
Si Si1 0.423257 0.688231 0.650910
Si Si2 0.078630 0.303556 0.943158
Si Si3 0.920436 0.674557 0.830258
Si Si4 0.574931 0.914065 0.822087
Si Si5 0.914907 0.415613 0.727697
Si Si6 0.071677 0.583842 0.438388
Si Si7 0.571050 0.792472 0.251514
Si Si8 0.576467 0.126476 0.059032
O O1 0.250000 0.695233 0.636488
O O2 0.453251 0.626591 0.697873
O O3 0.511046 0.650997 0.599285
O O4 0.470131 0.761640 0.685855
O O5 0.250000 0.324048 0.942853
O O6 0.070070 0.214931 0.939859
O O7 0.994813 0.333962 0.889649
O O8 0.000000 0.326625 0.000000
O O9 0.750000 0.699441 0.836296
O O10 0.921654 0.601652 0.793285
O O11 0.009090 0.733690 0.793264
O O12 0.750000 0.895067 0.824698
O O13 0.497129 0.867169 0.772791
O O14 0.502781 0.899067 0.883578
O O15 0.560631 0.000000 0.810604
O O16 0.750000 0.387515 0.708417
O O17 0.920278 0.500000 0.715672
O O18 0.250000 0.587904 0.441287
O O19 0.035294 0.500000 0.417669
O O20 0.000000 0.589296 0.500000
O O21 0.750000 0.794891 0.249273
O O22 0.750000 0.104571 0.059250
O O23 0.500000 0.102918 0.000000
#
# Coordination Sequence:
#
# PCOD9399066 Si02
#       8
#     8   8   8   8   8   8   8   8
#     4  10  20  32  49  73 101 132 169 208 243 279
#     4  10  19  30  46  67  88 111 144 186 231 284
#     4  10  18  29  48  68  89 117 147 189 237 280
#     4  11  23  36  51  71  96 126 159 198 245 297
#     4   9  18  31  46  67  94 124 158 193 234 283
#     4  10  20  33  50  74 107 146 183 214 246 285
#     4  10  20  34  50  70  95 125 161 200 240 286
#     4  10  20  33  50  69  92 122 154 192 237 291
#
# _framework density 16.338906999999999
#
# number of rings (size 3 to 8) (size 9 to 14) (size 15 to 20)
#    0.000    2.000    1.250    3.000    0.000    6.750 
#    0.000    0.000    0.000    0.375    0.000    0.000 
#    0.000    0.500    0.000    1.625    0.000    2.375 
#
# Total GULP energy -356590.858773 kJ/mol
# GULP energy per Si atom -5571.732168 kJ/mol
# Density = 1.630172 g / cm^3
# Si number density = 16.338907 Si / 1000 Ang^3
#
#
#
# Elastic Constant Matrix: (Units=GPa)
#
#
# Indices 1 2 3 4 5 6 
#
# 1 90.7533 30.1141 50.2743 0.0000 0.0000 0.0000
# 2 30.1141 39.1828 38.6675 0.0000 0.0000 0.0000
# 3 50.2743 38.6675 108.4758 0.0000 0.0000 0.0000
# 4 0.0000 0.0000 0.0000 17.5977 0.0000 0.0000
# 5 0.0000 0.0000 0.0000 0.0000 30.8216 0.0000
# 6 0.0000 0.0000 0.0000 0.0000 0.0000 8.7920
#
#
#
# Elastic Compliance Matrix: (Units=1/GPa)
#
#
# Indices 1 2 3 4 5 6 
#
# 1 0.016234 -0.007793 -0.004746 0.000000 0.000000 0.000000
# 2 -0.007793 0.043112 -0.011756 0.000000 0.000000 0.000000
# 3 -0.004746 -0.011756 0.015609 0.000000 0.000000 0.000000
# 4 0.000000 0.000000 0.000000 0.056826 0.000000 0.000000
# 5 0.000000 0.000000 0.000000 0.000000 0.032445 0.000000
# 6 0.000000 0.000000 0.000000 0.000000 0.000000 0.113740
#
#
# Mechanical properties :
#
#
# Convention : Reuss Voigt Hill
#
# Bulk Modulus (GPa) = 37.92938 52.94710 45.43824
# Shear Modulus (GPa) = 14.91008 19.39933 17.15470
#
# Velocity S-wave (km/s) = 3.02412 3.44947 3.24378
# Velocity P-wave (km/s) = 5.95469 6.95277 6.47300
#
# Compressibility (1/GPa) = 0.02636479
#
# Stress axis : x y z
#
# Youngs Moduli (GPa) = 61.59959 23.19519 64.06681
#
# Poissons Ratio (x) = 0.18077 0.30405
# Poissons Ratio (y) = 0.48006 0.75317
# Poissons Ratio (z) = 0.29234 0.27268
#
# Static dielectric constant tensor:
#      x y z
#    x 1.600260 0.000000 0.000000 
#    y 0.000000 1.555530 0.000000 
#    z 0.000000 0.000000 1.558480 
# 
# From -- ./inp_files/32540.got.cif
#   From: 2010.05.17/outbox.cif.g08.bks.cpg/sg51_17_cif.got.tgz:32540.got - 2010.06.03 11:52:47.
