data_PCOD9399111
_publ_section_title
;
Structure prediction by ZEFSAII (Michael W. Deem and Ramdas Pophale) SiO2 
 PCOD9399111
Probable space group: P M M A
;
_chemical_formula_sum "Si O2"
_cell_formula_units_Z 64
_cell_length_a 28.679834
_cell_length_b 8.869771
_cell_length_c 12.615238
_cell_angle_alpha 90.000000
_cell_angle_beta 90.000000
_cell_angle_gamma 90.000000
_cell_volume 3209.109151
_symmetry_space_group_name_H-M "P M M A"
_symmetry_group_IT_number 51
_symmetry_cell_setting 'orthorhombic'
loop_
_space_group_symop_operation_xyz
x,y,z
1/2-x,-y,z
1/2+x,-y,-z
-x,y,-z
-x,-y,-z
1/2+x,y,-z
1/2-x,y,z
x,-y,z
loop_
_atom_site_type_symbol
_atom_site_label
_atom_site_fract_x
_atom_site_fract_y
_atom_site_fract_z
Si Si1 0.302661 0.819758 0.052804
Si Si2 0.837666 0.320824 0.733087
Si Si3 0.802000 0.178508 0.283627
Si Si4 0.933368 0.826724 0.466226
Si Si5 0.176763 0.827253 0.481942
Si Si6 0.129987 0.320955 0.880403
Si Si7 0.458295 0.318416 0.758185
Si Si8 0.944423 0.681147 0.687744
O O1 0.250000 0.770068 0.022517
O O2 0.313147 0.764165 0.171203
O O3 0.303840 0.000000 0.046879
O O4 0.342990 0.755033 0.977367
O O5 0.835017 0.500000 0.749028
O O6 0.815936 0.274918 0.620162
O O7 0.892733 0.275989 0.726693
O O8 0.750000 0.194094 0.238586
O O9 0.800690 0.218667 0.407387
O O10 0.838663 0.277978 0.221207
O O11 0.814941 0.000000 0.276827
O O12 0.878195 0.825400 0.490673
O O13 0.941980 0.741802 0.356387
O O14 0.954249 0.751812 0.572109
O O15 0.948208 0.000000 0.455350
O O16 0.190250 0.000000 0.457523
O O17 0.129129 0.500000 0.897731
O O18 0.077752 0.268088 0.849174
O O19 0.455651 0.500000 0.756022
O O20 0.512907 0.276664 0.764897
O O21 0.944088 0.500000 0.675490
#
# Coordination Sequence:
#
# PCOD9399111 Si02
#       8
#     8   8   8   8   8   8   8   8
#     4  11  25  45  67  86 108 145 189 234 292 357
#     4  10  21  38  62  88 115 146 188 242 289 331
#     4  10  20  35  55  79 112 153 190 228 286 354
#     4  10  18  29  49  79 115 154 196 238 273 317
#     4   9  18  33  52  79 117 155 188 227 281 343
#     4  11  23  38  59  86 115 147 191 242 286 331
#     4  10  20  34  53  79 115 158 195 227 276 340
#     4   9  19  35  54  80 117 157 192 228 278 339
#
# _framework density 19.94323
#
# number of rings (size 3 to 8) (size 9 to 14) (size 15 to 20)
#    0.000    2.000    1.250    2.250    0.000    7.250 
#    0.000    1.875    0.000    3.750    0.000    0.000 
#    0.000    0.000    0.000    0.000    0.000    0.000 
#
# Total GULP energy -357277.698936 kJ/mol
# GULP energy per Si atom -5582.464046 kJ/mol
# Density = 1.989784 g / cm^3
# Si number density = 19.943230 Si / 1000 Ang^3
#
#
#
# Elastic Constant Matrix: (Units=GPa)
#
#
# Indices 1 2 3 4 5 6 
#
# 1 40.3039 8.0010 5.0469 0.0000 0.0000 0.0000
# 2 8.0010 20.1402 8.1616 0.0000 0.0000 0.0000
# 3 5.0469 8.1616 56.9617 0.0000 0.0000 0.0000
# 4 0.0000 0.0000 0.0000 35.1592 0.0000 0.0000
# 5 0.0000 0.0000 0.0000 0.0000 29.1202 0.0000
# 6 0.0000 0.0000 0.0000 0.0000 0.0000 17.7216
#
#
#
# Elastic Compliance Matrix: (Units=1/GPa)
#
#
# Indices 1 2 3 4 5 6 
#
# 1 0.026980 -0.010350 -0.000907 0.000000 0.000000 0.000000
# 2 -0.010350 0.056683 -0.007205 0.000000 0.000000 0.000000
# 3 -0.000907 -0.007205 0.018668 0.000000 0.000000 0.000000
# 4 0.000000 0.000000 0.000000 0.028442 0.000000 0.000000
# 5 0.000000 0.000000 0.000000 0.000000 0.034340 0.000000
# 6 0.000000 0.000000 0.000000 0.000000 0.000000 0.056428
#
#
# Mechanical properties :
#
#
# Convention : Reuss Voigt Hill
#
# Bulk Modulus (GPa) = 15.28900 17.75832 16.52366
# Shear Modulus (GPa) = 17.83997 22.81329 20.32663
#
# Velocity S-wave (km/s) = 2.99413 3.38585 3.19599
# Velocity P-wave (km/s) = 4.43125 4.92027 4.68215
#
# Compressibility (1/GPa) = 0.06540649
#
# Stress axis : x y z
#
# Youngs Moduli (GPa) = 37.06469 17.64187 53.56660
#
# Poissons Ratio (x) = 0.18260 0.04861
# Poissons Ratio (y) = 0.38364 0.38593
# Poissons Ratio (z) = 0.03363 0.12710
#
# Static dielectric constant tensor:
#      x y z
#    x 1.756610 0.000000 0.000000 
#    y 0.000000 1.672040 0.000000 
#    z 0.000000 0.000000 1.678790 
# 
# From -- ./inp_files/19618.got.cif
#   From: 2010.05.17/outbox.cif.g08.bks.cpg/sg51_10_cif.got.tgz:19618.got - 2010.06.03 11:52:47.
