data_PCOD9399663
_publ_section_title
;
Structure prediction by ZEFSAII (Michael W. Deem and Ramdas Pophale) SiO2 
 PCOD9399663
Probable space group: P M M A
;
_chemical_formula_sum "Si O2"
_cell_formula_units_Z 64
_cell_length_a 8.935772
_cell_length_b 25.205296
_cell_length_c 15.577129
_cell_angle_alpha 90.000000
_cell_angle_beta 90.000000
_cell_angle_gamma 90.000000
_cell_volume 3508.417733
_symmetry_space_group_name_H-M "P M M A"
_symmetry_group_IT_number 51
_symmetry_cell_setting 'orthorhombic'
loop_
_space_group_symop_operation_xyz
x,y,z
1/2-x,-y,z
1/2+x,-y,-z
-x,y,-z
-x,-y,-z
1/2+x,y,-z
1/2-x,y,z
x,-y,z
loop_
_atom_site_type_symbol
_atom_site_label
_atom_site_fract_x
_atom_site_fract_y
_atom_site_fract_z
Si Si1 0.570503 0.560650 0.773455
Si Si2 0.571377 0.397301 0.586270
Si Si3 0.929602 0.360013 0.090246
Si Si4 0.423297 0.253433 0.823663
Si Si5 0.928412 0.143838 0.778665
Si Si6 0.923659 0.284906 0.373973
Si Si7 0.929127 0.827457 0.586377
Si Si8 0.928449 0.062386 0.091384
O O1 0.750000 0.567653 0.782681
O O2 0.533038 0.500000 0.795279
O O3 0.534146 0.571968 0.673867
O O4 0.488221 0.601758 0.834979
O O5 0.500000 0.420542 0.500000
O O6 0.750000 0.395227 0.577680
O O7 0.505875 0.338066 0.597680
O O8 0.750000 0.361640 0.087478
O O9 0.974682 0.299266 0.111965
O O10 0.000000 0.376250 0.000000
O O11 0.250000 0.239209 0.841775
O O12 0.519541 0.200324 0.817622
O O13 0.426281 0.280287 0.729353
O O14 0.750000 0.139231 0.784717
O O15 0.969235 0.145005 0.677176
O O16 0.005959 0.097691 0.832426
O O17 0.750000 0.285147 0.401969
O O18 0.006416 0.232167 0.405758
O O19 0.750000 0.825997 0.579435
O O20 0.000000 0.851380 0.500000
O O21 0.750000 0.068576 0.086821
O O22 0.962691 0.000000 0.104606
O O23 0.000000 0.078221 0.000000
#
# Coordination Sequence:
#
# PCOD9399663 Si02
#       8
#     8   8   8   8   8   8   8   8
#     4  10  23  43  63  82 107 141 182 231 282 333
#     4  11  22  35  55  81 110 142 179 224 275 334
#     4  11  23  40  62  88 113 144 183 226 280 338
#     4   9  19  35  55  80 114 150 185 226 275 332
#     4  10  21  35  56  86 119 155 194 236 284 336
#     4  10  18  32  53  77 108 145 185 227 272 326
#     4  10  20  33  50  78 114 154 195 234 280 329
#     4  10  21  38  61  87 116 152 194 240 289 338
#
# _framework density 18.241841000000001
#
# number of rings (size 3 to 8) (size 9 to 14) (size 15 to 20)
#    0.000    1.875    1.250    2.625    0.000    5.500 
#    0.000    1.250    0.000    0.375    0.000    0.000 
#    0.000    0.000    0.000    0.000    0.000    0.000 
#
# Total GULP energy -357439.400519 kJ/mol
# GULP energy per Si atom -5584.990633 kJ/mol
# Density = 1.820032 g / cm^3
# Si number density = 18.241841 Si / 1000 Ang^3
#
#
#
# Elastic Constant Matrix: (Units=GPa)
#
#
# Indices 1 2 3 4 5 6 
#
# 1 64.3004 39.2588 53.2920 0.0000 0.0000 0.0000
# 2 39.2588 71.0078 54.8108 0.0000 0.0000 0.0000
# 3 53.2920 54.8108 117.4500 0.0000 0.0000 0.0000
# 4 0.0000 0.0000 0.0000 4.6215 0.0000 0.0000
# 5 0.0000 0.0000 0.0000 0.0000 32.5145 0.0000
# 6 0.0000 0.0000 0.0000 0.0000 0.0000 24.0560
#
#
#
# Elastic Compliance Matrix: (Units=1/GPa)
#
#
# Indices 1 2 3 4 5 6 
#
# 1 0.028120 -0.008906 -0.008603 0.000000 0.000000 0.000000
# 2 -0.008906 0.024833 -0.007548 0.000000 0.000000 0.000000
# 3 -0.008603 -0.007548 0.015940 0.000000 0.000000 0.000000
# 4 0.000000 0.000000 0.000000 0.216379 0.000000 0.000000
# 5 0.000000 0.000000 0.000000 0.000000 0.030755 0.000000
# 6 0.000000 0.000000 0.000000 0.000000 0.000000 0.041570
#
#
# Mechanical properties :
#
#
# Convention : Reuss Voigt Hill
#
# Bulk Modulus (GPa) = 53.25054 60.83127 57.04091
# Shear Modulus (GPa) = 12.07813 19.26485 15.67149
#
# Velocity S-wave (km/s) = 2.57594 3.25326 2.93421
# Velocity P-wave (km/s) = 6.17269 6.89428 6.54344
#
# Compressibility (1/GPa) = 0.01877915
#
# Stress axis : x y z
#
# Youngs Moduli (GPa) = 35.56212 40.26855 62.73516
#
# Poissons Ratio (x) = 0.35865 0.53969
# Poissons Ratio (y) = 0.31673 0.47351
# Poissons Ratio (z) = 0.30593 0.30394
#
# Static dielectric constant tensor:
#      x y z
#    x 1.609070 0.000000 0.000000 
#    y 0.000000 1.594280 0.000000 
#    z 0.000000 0.000000 1.652440 
# 
# From -- ./inp_files/22280.got.cif
#   From: 2010.05.17/outbox.cif.g08.bks.cpg/sg51_12_cif.got.tgz:22280.got - 2010.06.03 11:52:47.
