data_PCOD9399999
_publ_section_title
;
Structure prediction by ZEFSAII (Michael W. Deem and Ramdas Pophale) SiO2 
 PCOD9399999
Probable space group: P M M A
;
_chemical_formula_sum "Si O2"
_cell_formula_units_Z 64
_cell_length_a 14.539464
_cell_length_b 15.077866
_cell_length_c 18.594167
_cell_angle_alpha 90.000000
_cell_angle_beta 90.000000
_cell_angle_gamma 90.000000
_cell_volume 4076.289338
_symmetry_space_group_name_H-M "P M M A"
_symmetry_group_IT_number 51
_symmetry_cell_setting 'orthorhombic'
loop_
_space_group_symop_operation_xyz
x,y,z
1/2-x,-y,z
1/2+x,-y,-z
-x,y,-z
-x,-y,-z
1/2+x,y,-z
1/2-x,y,z
x,-y,z
loop_
_atom_site_type_symbol
_atom_site_label
_atom_site_fract_x
_atom_site_fract_y
_atom_site_fract_z
Si Si1 0.143962 0.368354 0.985635
Si Si2 0.855077 0.835688 0.970278
Si Si3 0.858903 0.901161 0.122708
Si Si4 0.980285 0.596605 0.877990
Si Si5 0.646115 0.107491 0.386261
Si Si6 0.860345 0.896639 0.545832
Si Si7 0.961381 0.892911 0.689522
Si Si8 0.026771 0.794040 0.168584
O O1 0.250000 0.395113 0.977658
O O2 0.076897 0.395625 0.921134
O O3 0.141164 0.261944 0.993741
O O4 0.097470 0.401298 0.059495
O O5 0.750000 0.852909 0.947427
O O6 0.920509 0.831329 0.901832
O O7 0.878216 0.898579 0.036920
O O8 0.750000 0.884469 0.131283
O O9 0.922756 0.828941 0.159656
O O10 0.879634 0.000000 0.150908
O O11 0.976066 0.500000 0.841637
O O12 0.968470 0.687258 0.833426
O O13 0.750000 0.137450 0.369653
O O14 0.617722 0.140020 0.466396
O O15 0.567977 0.126924 0.328914
O O16 0.649752 0.000000 0.391351
O O17 0.750000 0.893388 0.551956
O O18 0.906238 0.862537 0.618397
O O19 0.889217 0.000000 0.543807
O O20 0.933738 0.839466 0.760174
O O21 0.950146 0.000000 0.699004
#
# Coordination Sequence:
#
# PCOD9399999 Si02
#       8
#     8   8   8   8   8   8   8   8
#     4   9  16  30  50  68  84 101 131 184 238 277
#     4   9  18  32  47  62  82 110 147 187 224 263
#     4  10  20  33  48  62  79 112 155 190 219 254
#     4  10  20  31  45  66  86 108 141 180 228 279
#     4   8  14  26  44  64  86 113 142 171 205 245
#     4   8  14  26  44  64  87 114 142 173 206 243
#     4  10  19  28  41  63  89 118 147 171 204 252
#     4  11  21  32  44  62  90 118 143 182 225 262
#
# _framework density 15.700554
#
# number of rings (size 3 to 8) (size 9 to 14) (size 15 to 20)
#    0.000    2.625    1.250    2.625    0.000    5.000 
#    0.000    1.250    0.000    0.000    0.000    0.000 
#    0.000    2.000    0.000    2.750    0.000    0.250 
#
# Total GULP energy -356508.704449 kJ/mol
# GULP energy per Si atom -5570.448507 kJ/mol
# Density = 1.566482 g / cm^3
# Si number density = 15.700554 Si / 1000 Ang^3
#
#
#
# Elastic Constant Matrix: (Units=GPa)
#
#
# Indices 1 2 3 4 5 6 
#
# 1 39.8923 5.5985 6.5069 0.0000 0.0000 0.0000
# 2 5.5985 59.3856 14.0191 0.0000 0.0000 0.0000
# 3 6.5069 14.0191 38.0632 0.0000 0.0000 0.0000
# 4 0.0000 0.0000 0.0000 5.9645 0.0000 0.0000
# 5 0.0000 0.0000 0.0000 0.0000 8.1975 0.0000
# 6 0.0000 0.0000 0.0000 0.0000 0.0000 7.0523
#
#
#
# Elastic Compliance Matrix: (Units=1/GPa)
#
#
# Indices 1 2 3 4 5 6 
#
# 1 0.025913 -0.001530 -0.003866 0.000000 0.000000 0.000000
# 2 -0.001530 0.018533 -0.006564 0.000000 0.000000 0.000000
# 3 -0.003866 -0.006564 0.029351 0.000000 0.000000 0.000000
# 4 0.000000 0.000000 0.000000 0.167658 0.000000 0.000000
# 5 0.000000 0.000000 0.000000 0.000000 0.121988 0.000000
# 6 0.000000 0.000000 0.000000 0.000000 0.000000 0.141799
#
#
# Mechanical properties :
#
#
# Convention : Reuss Voigt Hill
#
# Bulk Modulus (GPa) = 20.05008 21.06557 20.55783
# Shear Modulus (GPa) = 9.16108 11.65731 10.40919
#
# Velocity S-wave (km/s) = 2.41817 2.72780 2.57764
# Velocity P-wave (km/s) = 4.53814 4.83398 4.68840
#
# Compressibility (1/GPa) = 0.04987510
#
# Stress axis : x y z
#
# Youngs Moduli (GPa) = 38.59089 53.95781 34.07075
#
# Poissons Ratio (x) = 0.08257 0.13172
# Poissons Ratio (y) = 0.05905 0.22365
# Poissons Ratio (z) = 0.14920 0.35420
#
# Static dielectric constant tensor:
#      x y z
#    x 1.561790 0.000000 0.000000 
#    y 0.000000 1.536460 0.000000 
#    z 0.000000 0.000000 1.534630 
# 
# From -- ./inp_files/29982.got.cif
#   From: 2010.05.17/outbox.cif.g08.bks.cpg/sg51_15_cif.got.tgz:29982.got - 2010.06.03 11:52:47.
