data_PCOD9399643
_publ_section_title
;
Structure prediction by ZEFSAII (Michael W. Deem and Ramdas Pophale) SiO2 
 PCOD9399643
Probable space group: P M M A
;
_chemical_formula_sum "Si O2"
_cell_formula_units_Z 64
_cell_length_a 29.877267
_cell_length_b 8.045036
_cell_length_c 12.817506
_cell_angle_alpha 90.000000
_cell_angle_beta 90.000000
_cell_angle_gamma 90.000000
_cell_volume 3080.863021
_symmetry_space_group_name_H-M "P M M A"
_symmetry_group_IT_number 51
_symmetry_cell_setting 'orthorhombic'
loop_
_space_group_symop_operation_xyz
x,y,z
1/2-x,-y,z
1/2+x,-y,-z
-x,y,-z
-x,-y,-z
1/2+x,y,-z
1/2-x,y,z
x,-y,z
loop_
_atom_site_type_symbol
_atom_site_label
_atom_site_fract_x
_atom_site_fract_y
_atom_site_fract_z
Si Si1 0.346764 0.797521 0.759967
Si Si2 0.132600 0.298983 0.154438
Si Si3 0.933915 0.692522 0.515224
Si Si4 0.956807 0.301440 0.745492
Si Si5 0.663445 0.195521 0.470323
Si Si6 0.052568 0.804617 0.716794
Si Si7 0.797791 0.300066 0.674415
Si Si8 0.699242 0.799766 0.028955
O O1 0.325513 0.754751 0.647793
O O2 0.398777 0.739872 0.754196
O O3 0.347877 0.000000 0.765812
O O4 0.318902 0.738435 0.858945
O O5 0.132552 0.500000 0.151973
O O6 0.081588 0.241454 0.174683
O O7 0.161258 0.242832 0.254972
O O8 0.161369 0.243292 0.055559
O O9 0.947558 0.500000 0.511146
O O10 0.947722 0.764158 0.627590
O O11 0.880475 0.706407 0.506842
O O12 0.950810 0.773785 0.408103
O O13 0.950933 0.500000 0.738537
O O14 0.008390 0.267303 0.770415
O O15 0.699168 0.228162 0.558942
O O16 0.651686 0.000000 0.467889
O O17 0.052585 0.000000 0.734777
O O18 0.750000 0.254790 0.723370
O O19 0.800100 0.500000 0.667732
O O20 0.750000 0.738506 0.006542
O O21 0.701764 0.000000 0.033136
#
# Coordination Sequence:
#
# PCOD9399643 Si02
#       8
#     8   8   8   8   8   8   8   8
#     4   8  18  37  56  78 112 147 179 223 282 337
#     4  10  21  39  58  79 110 146 184 228 279 333
#     4  10  18  32  52  75 110 153 190 221 264 327
#     4  10  20  34  53  77 109 151 190 221 269 334
#     4  10  19  32  53  81 112 144 182 227 275 328
#     4  10  20  33  52  81 114 148 186 230 277 324
#     4  10  20  35  54  76 108 148 181 217 278 347
#     4  10  21  39  63  85 104 136 186 236 280 331
#
# _framework density 20.773399000000001
#
# number of rings (size 3 to 8) (size 9 to 14) (size 15 to 20)
#    0.000    2.250    1.250    2.625    0.000    5.000 
#    0.000    5.625    0.000    3.750    0.000    0.000 
#    0.000    0.000    0.000    0.000    0.000    0.000 
#
# Total GULP energy -356971.952329 kJ/mol
# GULP energy per Si atom -5577.686755 kJ/mol
# Density = 2.072612 g / cm^3
# Si number density = 20.773399 Si / 1000 Ang^3
#
#
#
# Elastic Constant Matrix: (Units=GPa)
#
#
# Indices 1 2 3 4 5 6 
#
# 1 42.6058 6.3425 19.7505 0.0000 0.0000 0.0000
# 2 6.3425 13.3428 -1.9070 0.0000 0.0000 0.0000
# 3 19.7505 -1.9070 78.1657 0.0000 0.0000 0.0000
# 4 0.0000 0.0000 0.0000 23.0494 0.0000 0.0000
# 5 0.0000 0.0000 0.0000 0.0000 16.5301 0.0000
# 6 0.0000 0.0000 0.0000 0.0000 0.0000 23.4490
#
#
#
# Elastic Compliance Matrix: (Units=1/GPa)
#
#
# Indices 1 2 3 4 5 6 
#
# 1 0.029315 -0.015046 -0.007774 0.000000 0.000000 0.000000
# 2 -0.015046 0.082932 0.005825 0.000000 0.000000 0.000000
# 3 -0.007774 0.005825 0.014900 0.000000 0.000000 0.000000
# 4 0.000000 0.000000 0.000000 0.043385 0.000000 0.000000
# 5 0.000000 0.000000 0.000000 0.000000 0.060496 0.000000
# 6 0.000000 0.000000 0.000000 0.000000 0.000000 0.042646
#
#
# Mechanical properties :
#
#
# Convention : Reuss Voigt Hill
#
# Bulk Modulus (GPa) = 10.73470 20.27627 15.50548
# Shear Modulus (GPa) = 14.76169 19.93424 17.34797
#
# Velocity S-wave (km/s) = 2.66861 3.10111 2.89295
# Velocity P-wave (km/s) = 3.83067 4.75441 4.31732
#
# Compressibility (1/GPa) = 0.09315585
#
# Stress axis : x y z
#
# Youngs Moduli (GPa) = 34.11273 12.05813 67.11516
#
# Poissons Ratio (x) = 0.18142 0.52176
# Poissons Ratio (y) = 0.51326 -0.39094
# Poissons Ratio (z) = 0.26520 -0.07024
#
# Static dielectric constant tensor:
#      x y z
#    x 1.784900 0.000000 0.000000 
#    y 0.000000 1.590690 0.000000 
#    z 0.000000 0.000000 1.743050 
# 
# From -- ./inp_files/19599.got.cif
#   From: 2010.05.17/outbox.cif.g08.bks.cpg/sg51_10_cif.got.tgz:19599.got - 2010.06.03 11:52:47.
