data_PCOD9399770
_publ_section_title
;
Structure prediction by ZEFSAII (Michael W. Deem and Ramdas Pophale) SiO2 
 PCOD9399770
Probable space group: P M M A
;
_chemical_formula_sum "Si O2"
_cell_formula_units_Z 52
_cell_length_a 9.246399
_cell_length_b 15.421190
_cell_length_c 20.660461
_cell_angle_alpha 90.000000
_cell_angle_beta 90.000000
_cell_angle_gamma 90.000000
_cell_volume 2945.984964
_symmetry_space_group_name_H-M "P M M A"
_symmetry_group_IT_number 51
_symmetry_cell_setting 'orthorhombic'
loop_
_space_group_symop_operation_xyz
x,y,z
1/2-x,-y,z
1/2+x,-y,-z
-x,y,-z
-x,-y,-z
1/2+x,y,-z
1/2-x,y,z
x,-y,z
loop_
_atom_site_type_symbol
_atom_site_label
_atom_site_fract_x
_atom_site_fract_y
_atom_site_fract_z
Si Si1 0.926803 0.717080 0.321955
Si Si2 0.577684 0.398092 0.569017
Si Si3 0.081276 0.667047 0.931547
Si Si4 0.925631 0.596179 0.202503
Si Si5 0.412124 0.857103 0.867504
Si Si6 0.915372 0.000000 0.934364
Si Si7 0.420041 0.098752 0.716455
O O1 0.750000 0.714379 0.326373
O O2 0.967472 0.669772 0.253996
O O3 0.975933 0.817885 0.322941
O O4 0.000164 0.662002 0.378363
O O5 0.500000 0.384897 0.500000
O O6 0.750000 0.381196 0.564814
O O7 0.559050 0.500000 0.586159
O O8 0.250000 0.645498 0.943170
O O9 0.023669 0.609937 0.871403
O O10 0.076815 0.762901 0.899359
O O11 0.000000 0.662706 0.000000
O O12 0.750000 0.600416 0.199191
O O13 0.966350 0.500000 0.225567
O O14 0.250000 0.890100 0.884039
O O15 0.424404 0.867013 0.790474
O O16 0.535811 0.916281 0.895704
O O17 0.750000 0.000000 0.948089
O O18 0.000000 0.000000 0.000000
O O19 0.250000 0.091524 0.700302
O O20 0.480363 0.000000 0.711412
#
# Coordination Sequence:
#
# PCOD9399770 Si02
#       7
#     8   8   8   8   8   4   8
#     4  10  18  32  57  86 111 142 182 223 268 318
#     4  10  21  37  58  87 122 155 183 215 260 312
#     4  10  20  33  49  69  94 130 175 221 270 323
#     4   9  17  30  50  75 101 133 177 222 263 318
#     4  10  18  33  53  70  94 128 169 218 270 326
#     4  12  24  34  46  68  94 124 165 216 279 340
#     4   9  16  29  54  81 105 138 179 220 266 324
#
# _framework density 17.651143000000001
#
# number of rings (size 3 to 8) (size 9 to 14) (size 15 to 20)
#    0.000    2.154    2.308    2.077    0.000    3.692 
#    0.000    1.538    0.000    1.385    0.000    0.000 
#    0.000    0.000    0.000    0.000    0.000    0.000 
#
# Total GULP energy -289645.444658 kJ/mol
# GULP energy per Si atom -5570.104705 kJ/mol
# Density = 1.761097 g / cm^3
# Si number density = 17.651143 Si / 1000 Ang^3
#
#
#
# Elastic Constant Matrix: (Units=GPa)
#
#
# Indices 1 2 3 4 5 6 
#
# 1 57.4077 29.7814 32.4424 0.0000 0.0000 0.0000
# 2 29.7814 120.6559 60.9037 0.0000 0.0000 0.0000
# 3 32.4424 60.9037 95.1641 0.0000 0.0000 0.0000
# 4 0.0000 0.0000 0.0000 26.2020 0.0000 0.0000
# 5 0.0000 0.0000 0.0000 0.0000 28.0632 0.0000
# 6 0.0000 0.0000 0.0000 0.0000 0.0000 18.8836
#
#
#
# Elastic Compliance Matrix: (Units=1/GPa)
#
#
# Indices 1 2 3 4 5 6 
#
# 1 0.022050 -0.002435 -0.005959 0.000000 0.000000 0.000000
# 2 -0.002435 0.012512 -0.007177 0.000000 0.000000 0.000000
# 3 -0.005959 -0.007177 0.017133 0.000000 0.000000 0.000000
# 4 0.000000 0.000000 0.000000 0.038165 0.000000 0.000000
# 5 0.000000 0.000000 0.000000 0.000000 0.035634 0.000000
# 6 0.000000 0.000000 0.000000 0.000000 0.000000 0.052956
#
#
# Mechanical properties :
#
#
# Convention : Reuss Voigt Hill
#
# Bulk Modulus (GPa) = 48.65506 57.72030 53.18768
# Shear Modulus (GPa) = 23.10082 24.63645 23.86864
#
# Velocity S-wave (km/s) = 3.62158 3.74002 3.68128
# Velocity P-wave (km/s) = 6.71658 7.17091 6.94746
#
# Compressibility (1/GPa) = 0.02055285
#
# Stress axis : x y z
#
# Youngs Moduli (GPa) = 45.35197 79.92340 58.36661
#
# Poissons Ratio (x) = 0.19459 0.34780
# Poissons Ratio (y) = 0.11042 0.41893
# Poissons Ratio (z) = 0.27024 0.57365
#
# Static dielectric constant tensor:
#      x y z
#    x 1.587200 0.000000 0.000000 
#    y 0.000000 1.663690 0.000000 
#    z 0.000000 0.000000 1.628100 
# 
# From -- ./inp_files/31780.got.cif
#   From: 2010.05.17/outbox.cif.g08.bks.cpg/sg51_16_cif.got.tgz:31780.got - 2010.06.03 11:52:47.
