data_PCOD9399877
_publ_section_title
;
Structure prediction by ZEFSAII (Michael W. Deem and Ramdas Pophale) SiO2 
 PCOD9399877
Probable space group: P M M A
;
_chemical_formula_sum "Si O2"
_cell_formula_units_Z 56
_cell_length_a 21.964684
_cell_length_b 9.274345
_cell_length_c 15.039623
_cell_angle_alpha 90.000000
_cell_angle_beta 90.000000
_cell_angle_gamma 90.000000
_cell_volume 3063.692383
_symmetry_space_group_name_H-M "P M M A"
_symmetry_group_IT_number 51
_symmetry_cell_setting 'orthorhombic'
loop_
_space_group_symop_operation_xyz
x,y,z
1/2-x,-y,z
1/2+x,-y,-z
-x,y,-z
-x,-y,-z
1/2+x,y,-z
1/2-x,y,z
x,-y,z
loop_
_atom_site_type_symbol
_atom_site_label
_atom_site_fract_x
_atom_site_fract_y
_atom_site_fract_z
Si Si1 0.929314 0.335063 0.473678
Si Si2 0.179450 0.672975 0.870627
Si Si3 0.872192 0.171445 0.635174
Si Si4 0.579401 0.672768 0.266908
Si Si5 0.750000 0.330883 0.684995
Si Si6 0.250000 0.158289 0.144682
Si Si7 0.875382 0.834322 0.965039
Si Si8 0.039566 0.826555 0.197271
O O1 0.905331 0.500000 0.483198
O O2 0.899664 0.226924 0.543137
O O3 0.922153 0.289861 0.371203
O O4 0.000000 0.339846 0.500000
O O5 0.250000 0.723735 0.873491
O O6 0.180677 0.500000 0.880637
O O7 0.143758 0.706548 0.779556
O O8 0.138677 0.739753 0.949105
O O9 0.809623 0.254830 0.647829
O O10 0.916380 0.207029 0.718754
O O11 0.863653 0.000000 0.635560
O O12 0.569779 0.500000 0.261099
O O13 0.524489 0.751085 0.215748
O O14 0.750000 0.500000 0.669162
O O15 0.750000 0.290760 0.788970
O O16 0.311152 0.163061 0.087561
O O17 0.250000 0.000000 0.191799
O O18 0.926545 0.784357 0.894581
O O19 0.889726 0.000000 0.990638
O O20 0.032394 0.000000 0.194878
#
# Coordination Sequence:
#
# PCOD9399877 Si02
#       8
#     8   8   8   8   4   4   8   8
#     4  10  20  37  61  88 115 150 198 245 295 360
#     4  10  22  40  60  83 112 153 200 240 287 346
#     4  11  22  38  59  85 122 160 196 244 299 357
#     4  10  22  40  60  83 118 154 191 247 301 346
#     4  12  24  36  56  87 122 159 198 243 298 356
#     4  10  18  34  56  81 116 155 192 231 286 346
#     4  10  20  36  59  85 115 152 191 236 287 341
#     4  10  21  36  58  88 119 152 190 235 294 356
#
# _framework density 18.278597999999999
#
# number of rings (size 3 to 8) (size 9 to 14) (size 15 to 20)
#    0.000    1.714    3.571    1.071    0.000    3.714 
#    1.286    2.857    0.000    0.000    0.000    0.000 
#    0.000    0.000    0.000    0.000    0.000    0.000 
#
# Total GULP energy -312537.215822 kJ/mol
# GULP energy per Si atom -5581.021711 kJ/mol
# Density = 1.823700 g / cm^3
# Si number density = 18.278598 Si / 1000 Ang^3
#
#
#
# Elastic Constant Matrix: (Units=GPa)
#
#
# Indices 1 2 3 4 5 6 
#
# 1 69.6584 35.9172 44.4760 0.0000 0.0000 0.0000
# 2 35.9172 46.0560 34.1075 0.0000 0.0000 0.0000
# 3 44.4760 34.1075 124.2681 0.0000 0.0000 0.0000
# 4 0.0000 0.0000 0.0000 31.4039 0.0000 0.0000
# 5 0.0000 0.0000 0.0000 0.0000 22.9983 0.0000
# 6 0.0000 0.0000 0.0000 0.0000 0.0000 30.2122
#
#
#
# Elastic Compliance Matrix: (Units=1/GPa)
#
#
# Indices 1 2 3 4 5 6 
#
# 1 0.026028 -0.016818 -0.004700 0.000000 0.000000 0.000000
# 2 -0.016818 0.038119 -0.004443 0.000000 0.000000 0.000000
# 3 -0.004700 -0.004443 0.010949 0.000000 0.000000 0.000000
# 4 0.000000 0.000000 0.000000 0.031843 0.000000 0.000000
# 5 0.000000 0.000000 0.000000 0.000000 0.043481 0.000000
# 6 0.000000 0.000000 0.000000 0.000000 0.000000 0.033099
#
#
# Mechanical properties :
#
#
# Convention : Reuss Voigt Hill
#
# Bulk Modulus (GPa) = 43.15153 52.10936 47.63044
# Shear Modulus (GPa) = 20.56216 25.28833 22.92525
#
# Velocity S-wave (km/s) = 3.35764 3.72357 3.54533
# Velocity P-wave (km/s) = 6.22017 6.85980 6.54780
#
# Compressibility (1/GPa) = 0.02317415
#
# Stress axis : x y z
#
# Youngs Moduli (GPa) = 38.42017 26.23383 91.33571
#
# Poissons Ratio (x) = 0.44120 0.42924
# Poissons Ratio (y) = 0.64614 0.40582
# Poissons Ratio (z) = 0.18056 0.11656
#
# Static dielectric constant tensor:
#      x y z
#    x 1.613240 0.000000 0.000000 
#    y 0.000000 1.622480 0.000000 
#    z 0.000000 0.000000 1.638440 
# 
# From -- ./inp_files/25855.got.cif
#   From: 2010.05.17/outbox.cif.g08.bks.cpg/sg51_13_cif.got.tgz:25855.got - 2010.06.03 11:52:47.
