data_PCOD9399912
_publ_section_title
;
Structure prediction by ZEFSAII (Michael W. Deem and Ramdas Pophale) SiO2 
 PCOD9399912
Probable space group: P M M A
;
_chemical_formula_sum "Si O2"
_cell_formula_units_Z 56
_cell_length_a 16.024402
_cell_length_b 7.621233
_cell_length_c 21.638376
_cell_angle_alpha 90.000000
_cell_angle_beta 90.000000
_cell_angle_gamma 90.000000
_cell_volume 2642.601845
_symmetry_space_group_name_H-M "P M M A"
_symmetry_group_IT_number 51
_symmetry_cell_setting 'orthorhombic'
loop_
_space_group_symop_operation_xyz
x,y,z
1/2-x,-y,z
1/2+x,-y,-z
-x,y,-z
-x,-y,-z
1/2+x,y,-z
1/2-x,y,z
x,-y,z
loop_
_atom_site_type_symbol
_atom_site_label
_atom_site_fract_x
_atom_site_fract_y
_atom_site_fract_z
Si Si1 0.992811 0.705268 0.146297
Si Si2 0.597077 0.787609 0.501012
Si Si3 0.000036 0.797061 0.285851
Si Si4 0.842090 0.705179 0.366363
Si Si5 0.843775 0.285809 0.061953
Si Si6 0.656881 0.214627 0.635879
Si Si7 0.343326 0.285953 0.080920
O O1 0.995191 0.500000 0.129493
O O2 0.982308 0.716427 0.219425
O O3 0.081914 0.777968 0.124038
O O4 0.914876 0.779609 0.108067
O O5 0.500000 0.733523 0.500000
O O6 0.642180 0.723813 0.439481
O O7 0.638372 0.731369 0.565273
O O8 0.598952 0.000000 0.499186
O O9 0.920069 0.785903 0.330417
O O10 0.081468 0.722962 0.320764
O O11 0.017873 0.000000 0.273719
O O12 0.750000 0.777313 0.351288
O O13 0.842483 0.500000 0.350530
O O14 0.750000 0.227762 0.078144
O O15 0.842657 0.500000 0.063876
O O16 0.860478 0.238506 0.990563
O O17 0.750000 0.268432 0.654709
O O18 0.654557 0.000000 0.635866
O O19 0.250000 0.225368 0.097527
O O20 0.340840 0.500000 0.083221
#
# Coordination Sequence:
#
# PCOD9399912 Si02
#       7
#     8   8   8   8   8   8   8
#     4  10  19  31  50  76 104 135 173 218 268 313
#     4  10  18  34  61  88 110 137 175 220 269 323
#     4  11  23  39  55  75 106 146 189 225 263 318
#     4  11  24  40  58  82 111 142 178 224 277 324
#     4   8  14  26  47  75 103 131 167 213 262 314
#     4   9  18  34  56  79 104 138 180 221 260 311
#     4   8  14  26  47  76 106 134 168 212 262 317
#
# _framework density 21.191237000000001
#
# number of rings (size 3 to 8) (size 9 to 14) (size 15 to 20)
#    0.000    2.429    1.429    2.571    0.000    4.857 
#    0.000    1.429    0.000    3.857    0.000    2.000 
#    0.000    0.000    0.000    0.000    0.000    0.000 
#
# Total GULP energy -312676.578163 kJ/mol
# GULP energy per Si atom -5583.510324 kJ/mol
# Density = 2.114300 g / cm^3
# Si number density = 21.191237 Si / 1000 Ang^3
#
#
#
# Elastic Constant Matrix: (Units=GPa)
#
#
# Indices 1 2 3 4 5 6 
#
# 1 119.6849 1.9193 29.5087 0.0000 0.0000 0.0000
# 2 1.9193 39.2311 -7.5135 0.0000 0.0000 0.0000
# 3 29.5087 -7.5135 50.5277 0.0000 0.0000 0.0000
# 4 0.0000 0.0000 0.0000 26.3731 0.0000 0.0000
# 5 0.0000 0.0000 0.0000 0.0000 -0.7157 0.0000
# 6 0.0000 0.0000 0.0000 0.0000 0.0000 1.2509
#
#
#
# Elastic Compliance Matrix: (Units=1/GPa)
#
#
# Indices 1 2 3 4 5 6 
#
# 1 0.009861 -0.001632 -0.006002 0.000000 0.000000 0.000000
# 2 -0.001632 0.026507 0.004895 0.000000 0.000000 0.000000
# 3 -0.006002 0.004895 0.024024 0.000000 0.000000 0.000000
# 4 0.000000 0.000000 0.000000 0.037917 0.000000 0.000000
# 5 0.000000 0.000000 0.000000 0.000000 -1.397255 0.000000
# 6 0.000000 0.000000 0.000000 0.000000 0.000000 0.799414
#
#
# Mechanical properties :
#
#
# Convention : Reuss Voigt Hill
#
# Bulk Modulus (GPa) = 18.21011 28.58587 23.39799
# Shear Modulus (GPa) = -10.50976 17.75026 3.62025
#
# Velocity S-wave (km/s) = -2.22941 2.89731 1.30847
# Velocity P-wave (km/s) = 1.40886 4.97105 3.65350
#
# Compressibility (1/GPa) = 0.05491455
#
# Stress axis : x y z
#
# Youngs Moduli (GPa) = 101.40769 37.72561 41.62500
#
# Poissons Ratio (x) = 0.06156 0.24982
# Poissons Ratio (y) = 0.16548 -0.20374
# Poissons Ratio (z) = 0.60862 -0.18465
#
# Static dielectric constant tensor:
#      x y z
#    x 1.776060 0.000000 0.000000 
#    y 0.000000 1.821260 0.000000 
#    z 0.000000 0.000000 1.703010 
# 
# From -- ./inp_files/33396.got.cif
#   From: 2010.05.17/outbox.cif.g08.bks.cpg/sg51_17_cif.got.tgz:33396.got - 2010.06.03 11:52:47.
