data_PCOD9399810
_publ_section_title
;
Structure prediction by ZEFSAII (Michael W. Deem and Ramdas Pophale) SiO2 
 PCOD9399810
Probable space group: P M M A
;
_chemical_formula_sum "Si O2"
_cell_formula_units_Z 48
_cell_length_a 19.287902
_cell_length_b 8.346612
_cell_length_c 15.191786
_cell_angle_alpha 90.000000
_cell_angle_beta 90.000000
_cell_angle_gamma 90.000000
_cell_volume 2445.704881
_symmetry_space_group_name_H-M "P M M A"
_symmetry_group_IT_number 51
_symmetry_cell_setting 'orthorhombic'
loop_
_space_group_symop_operation_xyz
x,y,z
1/2-x,-y,z
1/2+x,-y,-z
-x,y,-z
-x,-y,-z
1/2+x,y,-z
1/2-x,y,z
x,-y,z
loop_
_atom_site_type_symbol
_atom_site_label
_atom_site_fract_x
_atom_site_fract_y
_atom_site_fract_z
Si Si1 0.073874 0.306522 0.876428
Si Si2 0.671292 0.191482 0.966428
Si Si3 0.099090 0.688735 0.549395
Si Si4 0.544233 0.812806 0.624205
Si Si5 0.326855 0.695422 0.720232
Si Si6 0.076780 0.307595 0.182940
O O1 0.073436 0.500000 0.877668
O O2 0.115651 0.251103 0.789739
O O3 0.994155 0.254711 0.867133
O O4 0.117287 0.251098 0.960215
O O5 0.750000 0.250301 0.982680
O O6 0.641883 0.248134 0.872733
O O7 0.672277 0.000000 0.968610
O O8 0.107977 0.500000 0.532456
O O9 0.095850 0.779185 0.457014
O O10 0.154704 0.744670 0.621171
O O11 0.025096 0.715594 0.597977
O O12 0.572431 0.757676 0.718078
O O13 0.526637 0.000000 0.626315
O O14 0.250000 0.746863 0.746710
O O15 0.328507 0.500000 0.720583
O O16 0.076848 0.500000 0.185949
#
# Coordination Sequence:
#
# PCOD9399810 Si02
#       6
#     8   8   8   8   8   8
#     4  10  20  37  61  88 115 148 194 242 287 341
#     4  11  25  42  58  83 120 157 190 233 293 351
#     4  10  18  33  55  81 114 151 194 239 280 336
#     4  11  21  34  55  83 114 149 188 236 294 345
#     4   9  17  31  54  84 117 151 189 237 289 336
#     4  11  22  39  63  90 113 147 197 245 289 340
#
# _framework density 19.626242999999999
#
# number of rings (size 3 to 8) (size 9 to 14) (size 15 to 20)
#    0.000    1.667    1.667    5.000    0.000    5.333 
#    0.000    0.833    0.000    6.000    0.000    0.000 
#    0.000    0.000    0.000    0.000    0.000    0.000 
#
# Total GULP energy -268106.948425 kJ/mol
# GULP energy per Si atom -5585.561426 kJ/mol
# Density = 1.958157 g / cm^3
# Si number density = 19.626243 Si / 1000 Ang^3
#
#
#
# Elastic Constant Matrix: (Units=GPa)
#
#
# Indices 1 2 3 4 5 6 
#
# 1 47.3778 2.7393 17.1181 0.0000 0.0000 0.0000
# 2 2.7393 24.9435 2.9540 0.0000 0.0000 0.0000
# 3 17.1181 2.9540 108.9562 0.0000 0.0000 0.0000
# 4 0.0000 0.0000 0.0000 83.7096 0.0000 0.0000
# 5 0.0000 0.0000 0.0000 0.0000 17.9204 0.0000
# 6 0.0000 0.0000 0.0000 0.0000 0.0000 -0.5685
#
#
#
# Elastic Compliance Matrix: (Units=1/GPa)
#
#
# Indices 1 2 3 4 5 6 
#
# 1 0.022482 -0.002057 -0.003476 0.000000 0.000000 0.000000
# 2 -0.002057 0.040408 -0.000772 0.000000 0.000000 0.000000
# 3 -0.003476 -0.000772 0.009745 0.000000 0.000000 0.000000
# 4 0.000000 0.000000 0.000000 0.011946 0.000000 0.000000
# 5 0.000000 0.000000 0.000000 0.000000 0.055802 0.000000
# 6 0.000000 0.000000 0.000000 0.000000 0.000000 -1.759036
#
#
# Mechanical properties :
#
#
# Convention : Reuss Voigt Hill
#
# Bulk Modulus (GPa) = 16.66025 25.21116 20.93571
# Shear Modulus (GPa) = -3.15252 30.77670 13.81209
#
# Velocity S-wave (km/s) = -1.26877 3.96427 2.65572
# Velocity P-wave (km/s) = 2.52207 5.81614 4.48265
#
# Compressibility (1/GPa) = 0.06002312
#
# Stress axis : x y z
#
# Youngs Moduli (GPa) = 44.48019 24.74753 102.61551
#
# Poissons Ratio (x) = 0.05091 0.35673
# Poissons Ratio (y) = 0.09151 0.07925
# Poissons Ratio (z) = 0.15463 0.01911
#
# Static dielectric constant tensor:
#      x y z
#    x 1.689350 0.000000 0.000000 
#    y 0.000000 1.675010 0.000000 
#    z 0.000000 0.000000 1.687660 
# 
# From -- ./inp_files/24779.got.cif
#   From: 2010.05.17/outbox.cif.g08.bks.cpg/sg51_13_cif.got.tgz:24779.got - 2010.06.03 11:52:47.
