data_PCOD9399503
_publ_section_title
;
Structure prediction by ZEFSAII (Michael W. Deem and Ramdas Pophale) SiO2 
 PCOD9399503
Probable space group: P M M A
;
_chemical_formula_sum "Si O2"
_cell_formula_units_Z 48
_cell_length_a 19.781398
_cell_length_b 7.466398
_cell_length_c 15.563107
_cell_angle_alpha 90.000000
_cell_angle_beta 90.000000
_cell_angle_gamma 90.000000
_cell_volume 2298.605390
_symmetry_space_group_name_H-M "P M M A"
_symmetry_group_IT_number 51
_symmetry_cell_setting 'orthorhombic'
loop_
_space_group_symop_operation_xyz
x,y,z
1/2-x,-y,z
1/2+x,-y,-z
-x,y,-z
-x,-y,-z
1/2+x,y,-z
1/2-x,y,z
x,-y,z
loop_
_atom_site_type_symbol
_atom_site_label
_atom_site_fract_x
_atom_site_fract_y
_atom_site_fract_z
Si Si1 0.081071 0.293461 0.219935
Si Si2 0.826809 0.789474 0.620117
Si Si3 0.672751 0.281878 0.128169
Si Si4 0.066756 0.719750 0.728623
Si Si5 0.073327 0.283981 0.533923
Si Si6 0.827506 0.281050 0.933345
O O1 0.067461 0.500000 0.196787
O O2 0.129686 0.291546 0.302556
O O3 0.121195 0.215016 0.139045
O O4 0.008373 0.217749 0.245808
O O5 0.750000 0.720094 0.615672
O O6 0.867720 0.765778 0.531826
O O7 0.823588 0.000000 0.638334
O O8 0.750000 0.226424 0.145209
O O9 0.672217 0.500000 0.128647
O O10 0.620861 0.222270 0.200642
O O11 0.654916 0.227696 0.030733
O O12 0.066498 0.500000 0.727470
O O13 0.083515 0.776743 0.631668
O O14 0.070678 0.500000 0.534649
O O15 0.000000 0.221305 0.500000
O O16 0.750000 0.226474 0.915356
O O17 0.827413 0.500000 0.931165
#
# Coordination Sequence:
#
# PCOD9399503 Si02
#       6
#     8   8   8   8   8   8
#     4  10  18  31  51  75 103 132 166 209 254 302
#     4  11  24  38  52  75 104 134 172 213 254 305
#     4   8  14  25  40  65 103 136 163 202 251 303
#     4   9  17  28  46  72 100 131 166 206 253 305
#     4  10  19  35  55  76 103 133 170 213 256 305
#     4   8  14  24  41  67  99 134 166 199 248 303
#
# _framework density 20.882228000000001
#
# number of rings (size 3 to 8) (size 9 to 14) (size 15 to 20)
#    0.000    2.667    1.667    2.000    0.000    3.667 
#    0.000    5.000    0.000    0.000    0.000    3.500 
#    0.000    5.333    0.000    0.000    0.000    0.000 
#
# Total GULP energy -267985.473854 kJ/mol
# GULP energy per Si atom -5583.030705 kJ/mol
# Density = 2.083470 g / cm^3
# Si number density = 20.882228 Si / 1000 Ang^3
#
#
#
# Elastic Constant Matrix: (Units=GPa)
#
#
# Indices 1 2 3 4 5 6 
#
# 1 153.2044 -6.7385 107.7041 0.0000 0.0000 0.0000
# 2 -6.7385 59.0873 -6.6388 0.0000 0.0000 0.0000
# 3 107.7041 -6.6388 174.6819 0.0000 0.0000 0.0000
# 4 0.0000 0.0000 0.0000 -47.2834 0.0000 0.0000
# 5 0.0000 0.0000 0.0000 0.0000 45.3701 0.0000
# 6 0.0000 0.0000 0.0000 0.0000 0.0000 -48.2375
#
#
#
# Elastic Compliance Matrix: (Units=1/GPa)
#
#
# Indices 1 2 3 4 5 6 
#
# 1 0.011537 0.000519 -0.007094 0.000000 0.000000 0.000000
# 2 0.000519 0.017020 0.000327 0.000000 0.000000 0.000000
# 3 -0.007094 0.000327 0.010111 0.000000 0.000000 0.000000
# 4 0.000000 0.000000 0.000000 -0.021149 0.000000 0.000000
# 5 0.000000 0.000000 0.000000 0.000000 0.022041 0.000000
# 6 0.000000 0.000000 0.000000 0.000000 0.000000 -0.020731
#
#
# Mechanical properties :
#
#
# Convention : Reuss Voigt Hill
#
# Bulk Modulus (GPa) = 38.20879 63.95858 51.08368
# Shear Modulus (GPa) = 124.84768 9.47963 67.16366
#
# Velocity S-wave (km/s) = 7.74057 2.13294 5.67740
# Velocity P-wave (km/s) = 9.91088 6.06305 8.21542
#
# Compressibility (1/GPa) = 0.02617199
#
# Stress axis : x y z
#
# Youngs Moduli (GPa) = 86.67800 58.75436 98.90341
#
# Poissons Ratio (x) = -0.03048 0.70159
# Poissons Ratio (y) = -0.04496 -0.03234
# Poissons Ratio (z) = 0.61486 -0.01921
#
# Static dielectric constant tensor:
#      x y z
#    x 1.715510 0.000000 0.000000 
#    y 0.000000 1.807250 0.000000 
#    z 0.000000 0.000000 1.711440 
# 
# From -- ./inp_files/24793.got.cif
#   From: 2010.05.17/outbox.cif.g08.bks.cpg/sg51_13_cif.got.tgz:24793.got - 2010.06.03 11:52:47.
