data_PCOD9399168
_publ_section_title
;
Structure prediction by ZEFSAII (Michael W. Deem and Ramdas Pophale) SiO2 
 PCOD9399168
Probable space group: P M M A
;
_chemical_formula_sum "Si O2"
_cell_formula_units_Z 44
_cell_length_a 8.611073
_cell_length_b 14.307957
_cell_length_c 19.416574
_cell_angle_alpha 90.000000
_cell_angle_beta 90.000000
_cell_angle_gamma 90.000000
_cell_volume 2392.255157
_symmetry_space_group_name_H-M "P M M A"
_symmetry_group_IT_number 51
_symmetry_cell_setting 'orthorhombic'
loop_
_space_group_symop_operation_xyz
x,y,z
1/2-x,-y,z
1/2+x,-y,-z
-x,y,-z
-x,-y,-z
1/2+x,y,-z
1/2-x,y,z
x,-y,z
loop_
_atom_site_type_symbol
_atom_site_label
_atom_site_fract_x
_atom_site_fract_y
_atom_site_fract_z
Si Si1 0.562524 0.894984 0.800827
Si Si2 0.935956 0.720253 0.706561
Si Si3 0.937230 0.394269 0.171307
Si Si4 0.564451 0.000000 0.577865
Si Si5 0.934516 0.197134 0.422867
Si Si6 0.563877 0.779852 0.076792
O O1 0.750000 0.894214 0.801964
O O2 0.513266 0.814276 0.747788
O O3 0.500509 0.862383 0.874926
O O4 0.511616 0.000000 0.783016
O O5 0.750000 0.720549 0.700313
O O6 0.990861 0.637033 0.755941
O O7 0.011499 0.725393 0.631464
O O8 0.750000 0.390177 0.176951
O O9 0.981976 0.500000 0.153187
O O10 0.984379 0.317133 0.114620
O O11 0.500000 0.000000 0.500000
O O12 0.502634 0.098303 0.605258
O O13 0.750000 0.000000 0.579897
O O14 0.750000 0.190221 0.426840
O O15 0.000000 0.211619 0.500000
O O16 0.750000 0.783642 0.075867
O O17 0.500000 0.784363 0.000000
#
# Coordination Sequence:
#
# PCOD9399168 Si02
#       6
#     8   8   8   4   8   8
#     4   9  19  35  53  74 102 140 180 217 259 307
#     4  10  20  34  54  80 107 138 176 221 268 319
#     4   9  19  37  58  79 105 137 173 216 267 321
#     4  10  18  30  46  68 100 136 175 216 259 306
#     4  11  21  34  51  75 106 143 182 222 267 316
#     4  10  20  34  53  78 107 138 173 216 261 312
#
# _framework density 18.392686999999999
#
# number of rings (size 3 to 8) (size 9 to 14) (size 15 to 20)
#    0.000    2.182    0.000    4.636    1.273    2.909 
#    0.000    0.000    0.000    0.545    0.000    0.000 
#    0.000    0.000    0.000    0.000    0.000    0.000 
#
# Total GULP energy -245547.635605 kJ/mol
# GULP energy per Si atom -5580.628082 kJ/mol
# Density = 1.835082 g / cm^3
# Si number density = 18.392687 Si / 1000 Ang^3
#
#
#
# Elastic Constant Matrix: (Units=GPa)
#
#
# Indices 1 2 3 4 5 6 
#
# 1 50.0914 -0.8201 5.9255 0.0000 0.0000 0.0000
# 2 -0.8201 44.6121 -7.6599 0.0000 0.0000 0.0000
# 3 5.9255 -7.6599 77.1456 0.0000 0.0000 0.0000
# 4 0.0000 0.0000 0.0000 17.9536 0.0000 0.0000
# 5 0.0000 0.0000 0.0000 0.0000 24.5781 0.0000
# 6 0.0000 0.0000 0.0000 0.0000 0.0000 22.4211
#
#
#
# Elastic Compliance Matrix: (Units=1/GPa)
#
#
# Indices 1 2 3 4 5 6 
#
# 1 0.020147 0.000106 -0.001537 0.000000 0.000000 0.000000
# 2 0.000106 0.022805 0.002256 0.000000 0.000000 0.000000
# 3 -0.001537 0.002256 0.013305 0.000000 0.000000 0.000000
# 4 0.000000 0.000000 0.000000 0.055699 0.000000 0.000000
# 5 0.000000 0.000000 0.000000 0.000000 0.040687 0.000000
# 6 0.000000 0.000000 0.000000 0.000000 0.000000 0.044601
#
#
# Mechanical properties :
#
#
# Convention : Reuss Voigt Hill
#
# Bulk Modulus (GPa) = 17.26883 18.52668 17.89776
# Shear Modulus (GPa) = 23.26727 24.61747 23.94237
#
# Velocity S-wave (km/s) = 3.56058 3.66244 3.61187
# Velocity P-wave (km/s) = 5.12962 5.28955 5.21020
#
# Compressibility (1/GPa) = 0.05790780
#
# Stress axis : x y z
#
# Youngs Moduli (GPa) = 49.63504 43.85045 75.16217
#
# Poissons Ratio (x) = -0.00467 0.11552
# Poissons Ratio (y) = -0.00528 -0.16958
# Poissons Ratio (z) = 0.07628 -0.09893
#
# Static dielectric constant tensor:
#      x y z
#    x 2.094890 0.000000 0.000000 
#    y 0.000000 1.652800 0.000000 
#    z 0.000000 0.000000 1.622120 
# 
# From -- ./inp_files/27398.got.cif
#   From: 2010.05.17/outbox.cif.g08.bks.cpg/sg51_14_cif.got.tgz:27398.got - 2010.06.03 11:52:47.
