data_PCOD9399497
_publ_section_title
;
Structure prediction by ZEFSAII (Michael W. Deem and Ramdas Pophale) SiO2 
 PCOD9399497
Probable space group: P M M A
;
_chemical_formula_sum "Si O2"
_cell_formula_units_Z 56
_cell_length_a 21.711727
_cell_length_b 7.490895
_cell_length_c 17.662028
_cell_angle_alpha 90.000000
_cell_angle_beta 90.000000
_cell_angle_gamma 90.000000
_cell_volume 2872.556954
_symmetry_space_group_name_H-M "P M M A"
_symmetry_group_IT_number 51
_symmetry_cell_setting 'orthorhombic'
loop_
_space_group_symop_operation_xyz
x,y,z
1/2-x,-y,z
1/2+x,-y,-z
-x,y,-z
-x,-y,-z
1/2+x,y,-z
1/2-x,y,z
x,-y,z
loop_
_atom_site_type_symbol
_atom_site_label
_atom_site_fract_x
_atom_site_fract_y
_atom_site_fract_z
Si Si1 0.107372 0.292227 0.195895
Si Si2 0.031568 0.781818 0.620033
Si Si3 0.819015 0.216268 0.653982
Si Si4 0.468059 0.796853 0.789290
Si Si5 0.940363 0.786255 0.048051
Si Si6 0.319761 0.714481 0.050443
Si Si7 0.091776 0.782987 0.469997
O O1 0.094993 0.500000 0.179498
O O2 0.138373 0.275358 0.277268
O O3 0.154105 0.223291 0.131873
O O4 0.041530 0.199012 0.196626
O O5 0.040710 0.716271 0.705533
O O6 0.080586 0.726008 0.556150
O O7 0.966119 0.729744 0.582894
O O8 0.030528 0.000000 0.623560
O O9 0.750000 0.280017 0.665207
O O10 0.847735 0.274196 0.574213
O O11 0.819021 0.000000 0.654810
O O12 0.440997 0.714501 0.866012
O O13 0.444350 0.000000 0.784361
O O14 0.949006 0.000000 0.053675
O O15 0.875076 0.755786 0.007533
O O16 0.000000 0.719636 0.000000
O O17 0.250000 0.780638 0.034974
O O18 0.315431 0.500000 0.053704
O O19 0.090772 0.000000 0.471632
#
# Coordination Sequence:
#
# PCOD9399497 Si02
#       7
#     8   8   8   8   8   8   8
#     4  11  21  32  48  71 101 132 162 198 243 294
#     4   8  13  23  44  68  91 120 151 190 230 274
#     4  10  19  30  46  68  95 126 159 196 238 289
#     4  10  18  31  51  74 102 130 161 200 246 298
#     4  10  20  33  52  78 104 130 163 207 257 302
#     4  10  22  38  53  70  97 135 174 207 244 298
#     4   8  13  23  42  68  91 118 156 188 226 274
#
# _framework density 19.494827999999998
#
# number of rings (size 3 to 8) (size 9 to 14) (size 15 to 20)
#    0.000    2.429    2.857    1.714    0.000    2.571 
#    0.000    0.000    0.000    2.571    0.000    4.000 
#    0.000    0.000    0.000    0.000    0.000    0.000 
#
# Total GULP energy -312296.734775 kJ/mol
# GULP energy per Si atom -5576.727407 kJ/mol
# Density = 1.945046 g / cm^3
# Si number density = 19.494828 Si / 1000 Ang^3
#
#
#
# Elastic Constant Matrix: (Units=GPa)
#
#
# Indices 1 2 3 4 5 6 
#
# 1 81.6880 -7.0656 56.4373 0.0000 0.0000 0.0000
# 2 -7.0656 54.5846 3.0853 0.0000 0.0000 0.0000
# 3 56.4373 3.0853 170.8759 0.0000 0.0000 0.0000
# 4 0.0000 0.0000 0.0000 13.8377 0.0000 0.0000
# 5 0.0000 0.0000 0.0000 0.0000 22.0503 0.0000
# 6 0.0000 0.0000 0.0000 0.0000 0.0000 27.3339
#
#
#
# Elastic Compliance Matrix: (Units=1/GPa)
#
#
# Indices 1 2 3 4 5 6 
#
# 1 0.016168 0.002397 -0.005383 0.000000 0.000000 0.000000
# 2 0.002397 0.018694 -0.001129 0.000000 0.000000 0.000000
# 3 -0.005383 -0.001129 0.007651 0.000000 0.000000 0.000000
# 4 0.000000 0.000000 0.000000 0.072266 0.000000 0.000000
# 5 0.000000 0.000000 0.000000 0.000000 0.045351 0.000000
# 6 0.000000 0.000000 0.000000 0.000000 0.000000 0.036585
#
#
# Mechanical properties :
#
#
# Convention : Reuss Voigt Hill
#
# Bulk Modulus (GPa) = 29.16958 45.78473 37.47715
# Shear Modulus (GPa) = 23.10817 29.62383 26.36600
#
# Velocity S-wave (km/s) = 3.44662 3.90240 3.68157
# Velocity P-wave (km/s) = 5.55285 6.62129 6.11047
#
# Compressibility (1/GPa) = 0.03428229
#
# Stress axis : x y z
#
# Youngs Moduli (GPa) = 61.84910 53.49220 130.70806
#
# Poissons Ratio (x) = -0.12823 0.70366
# Poissons Ratio (y) = -0.14826 0.14761
# Poissons Ratio (z) = 0.33296 0.06041
#
# Static dielectric constant tensor:
#      x y z
#    x 1.655110 0.000000 0.000000 
#    y 0.000000 1.769940 0.000000 
#    z 0.000000 0.000000 1.706520 
# 
# From -- ./inp_files/30450.got.cif
#   From: 2010.05.17/outbox.cif.g08.bks.cpg/sg51_16_cif.got.tgz:30450.got - 2010.06.03 11:52:47.
