data_PCOD9399703
_publ_section_title
;
Structure prediction by ZEFSAII (Michael W. Deem and Ramdas Pophale) SiO2 
 PCOD9399703
Probable space group: P M M A
;
_chemical_formula_sum "Si O2"
_cell_formula_units_Z 52
_cell_length_a 8.496004
_cell_length_b 22.123541
_cell_length_c 15.036831
_cell_angle_alpha 90.000000
_cell_angle_beta 90.000000
_cell_angle_gamma 90.000000
_cell_volume 2826.348210
_symmetry_space_group_name_H-M "P M M A"
_symmetry_group_IT_number 51
_symmetry_cell_setting 'orthorhombic'
loop_
_space_group_symop_operation_xyz
x,y,z
1/2-x,-y,z
1/2+x,-y,-z
-x,y,-z
-x,-y,-z
1/2+x,y,-z
1/2-x,y,z
x,-y,z
loop_
_atom_site_type_symbol
_atom_site_label
_atom_site_fract_x
_atom_site_fract_y
_atom_site_fract_z
Si Si1 0.563038 0.933684 0.652998
Si Si2 0.562684 0.500000 0.899118
Si Si3 0.566278 0.731022 0.768997
Si Si4 0.070188 0.187194 0.908391
Si Si5 0.431519 0.068579 0.132871
Si Si6 0.936459 0.371726 0.101356
Si Si7 0.941130 0.800774 0.596854
O O1 0.750000 0.934769 0.632565
O O2 0.550189 0.930851 0.759972
O O3 0.500751 0.869854 0.615876
O O4 0.497939 0.000000 0.624308
O O5 0.750000 0.500000 0.898047
O O6 0.500274 0.563722 0.863487
O O7 0.500000 0.500000 0.000000
O O8 0.750000 0.715904 0.762367
O O9 0.539434 0.790068 0.829366
O O10 0.484151 0.679109 0.827297
O O11 0.507054 0.752929 0.672560
O O12 0.250000 0.206162 0.896345
O O13 0.053309 0.115267 0.907599
O O14 0.000000 0.211426 0.000000
O O15 0.250000 0.086401 0.113015
O O16 0.454800 0.000000 0.103763
O O17 0.750000 0.374691 0.093338
O O18 0.000000 0.361211 0.000000
O O19 0.750000 0.802171 0.600634
O O20 0.000000 0.782980 0.500000
#
# Coordination Sequence:
#
# PCOD9399703 Si02
#       7
#     8   4   8   8   8   8   8
#     4   8  14  29  53  76  98 129 167 212 273 337
#     4  10  18  32  54  84 121 160 195 228 262 306
#     4  11  22  39  57  77 107 145 185 225 271 323
#     4  12  24  36  52  74 102 135 174 221 267 322
#     4   9  17  33  55  73  94 128 170 215 266 323
#     4  11  21  35  56  86 121 157 192 229 269 313
#     4  10  21  36  56  79 106 138 176 224 278 336
#
# _framework density 18.398299999999999
#
# number of rings (size 3 to 8) (size 9 to 14) (size 15 to 20)
#    0.000    1.846    1.538    6.231    0.000    2.154 
#    0.000    0.000    0.000    0.000    0.000    0.538 
#    0.000    0.000    0.000    0.000    0.000    0.000 
#
# Total GULP energy -290084.735128 kJ/mol
# GULP energy per Si atom -5578.552599 kJ/mol
# Density = 1.835642 g / cm^3
# Si number density = 18.398300 Si / 1000 Ang^3
#
#
#
# Elastic Constant Matrix: (Units=GPa)
#
#
# Indices 1 2 3 4 5 6 
#
# 1 62.9842 37.2171 21.6505 0.0000 0.0000 0.0000
# 2 37.2171 119.5998 42.2916 0.0000 0.0000 0.0000
# 3 21.6505 42.2916 103.6171 0.0000 0.0000 0.0000
# 4 0.0000 0.0000 0.0000 12.0130 0.0000 0.0000
# 5 0.0000 0.0000 0.0000 0.0000 20.0220 0.0000
# 6 0.0000 0.0000 0.0000 0.0000 0.0000 25.9098
#
#
#
# Elastic Compliance Matrix: (Units=1/GPa)
#
#
# Indices 1 2 3 4 5 6 
#
# 1 0.019767 -0.005482 -0.001893 0.000000 0.000000 0.000000
# 2 -0.005482 0.011292 -0.003463 0.000000 0.000000 0.000000
# 3 -0.001893 -0.003463 0.011460 0.000000 0.000000 0.000000
# 4 0.000000 0.000000 0.000000 0.083243 0.000000 0.000000
# 5 0.000000 0.000000 0.000000 0.000000 0.049945 0.000000
# 6 0.000000 0.000000 0.000000 0.000000 0.000000 0.038595
#
#
# Mechanical properties :
#
#
# Convention : Reuss Voigt Hill
#
# Bulk Modulus (GPa) = 47.97850 54.27994 51.12922
# Shear Modulus (GPa) = 20.58245 23.92509 22.25377
#
# Velocity S-wave (km/s) = 3.34835 3.61001 3.48164
# Velocity P-wave (km/s) = 6.40959 6.85150 6.63422
#
# Compressibility (1/GPa) = 0.02084267
#
# Stress axis : x y z
#
# Youngs Moduli (GPa) = 50.59001 88.56070 87.26004
#
# Poissons Ratio (x) = 0.48546 0.16517
# Poissons Ratio (y) = 0.27732 0.30221
# Poissons Ratio (z) = 0.09576 0.30672
#
# Static dielectric constant tensor:
#      x y z
#    x 1.631940 0.000000 0.000000 
#    y 0.000000 1.696800 0.000000 
#    z 0.000000 0.000000 1.633550 
# 
# From -- ./inp_files/21546.got.cif
#   From: 2010.05.17/outbox.cif.g08.bks.cpg/sg51_11_cif.got.tgz:21546.got - 2010.06.03 11:52:47.
