data_PCOD9399536
_publ_section_title
;
Structure prediction by ZEFSAII (Michael W. Deem and Ramdas Pophale) SiO2 
 PCOD9399536
Probable space group: P M M A
;
_chemical_formula_sum "Si O2"
_cell_formula_units_Z 64
_cell_length_a 14.165011
_cell_length_b 14.392006
_cell_length_c 17.836096
_cell_angle_alpha 90.000000
_cell_angle_beta 90.000000
_cell_angle_gamma 90.000000
_cell_volume 3636.118671
_symmetry_space_group_name_H-M "P M M A"
_symmetry_group_IT_number 51
_symmetry_cell_setting 'orthorhombic'
loop_
_space_group_symop_operation_xyz
x,y,z
1/2-x,-y,z
1/2+x,-y,-z
-x,y,-z
-x,-y,-z
1/2+x,y,-z
1/2-x,y,z
x,-y,z
loop_
_atom_site_type_symbol
_atom_site_label
_atom_site_fract_x
_atom_site_fract_y
_atom_site_fract_z
Si Si1 0.638887 0.748489 0.643686
Si Si2 0.994766 0.889412 0.915346
Si Si3 0.137374 0.800651 0.812614
Si Si4 0.637004 0.890989 0.778142
Si Si5 0.136415 0.398515 0.771817
Si Si6 0.364859 0.105285 0.656188
Si Si7 0.525631 0.392874 0.383247
Si Si8 0.638450 0.245684 0.471926
O O1 0.750000 0.723468 0.653265
O O2 0.615410 0.824705 0.707111
O O3 0.568304 0.661113 0.643456
O O4 0.628334 0.784013 0.558037
O O5 0.092150 0.862797 0.876044
O O6 0.916141 0.858894 0.854116
O O7 0.982556 0.000000 0.920711
O O8 0.000000 0.851757 0.000000
O O9 0.250000 0.803986 0.816273
O O10 0.106014 0.693257 0.816256
O O11 0.108115 0.842456 0.732243
O O12 0.750000 0.887484 0.789350
O O13 0.612062 0.000000 0.763883
O O14 0.250000 0.395613 0.767387
O O15 0.108544 0.500000 0.802334
O O16 0.095504 0.390929 0.688299
O O17 0.250000 0.102180 0.655412
O O18 0.393513 0.165316 0.584761
O O19 0.399703 0.000000 0.655243
O O20 0.507113 0.500000 0.402785
O O21 0.579511 0.336268 0.448361
O O22 0.750000 0.263984 0.459039
#
# Coordination Sequence:
#
# PCOD9399536 Si02
#       8
#     8   8   8   8   8   8   8   8
#     4  10  22  37  52  71  99 137 182 224 257 299
#     4  10  21  35  53  79 108 137 170 210 257 312
#     4  10  18  31  52  78 109 138 166 204 256 317
#     4   9  19  37  58  76  99 137 180 218 256 302
#     4   9  17  30  52  81 107 133 167 207 256 313
#     4   9  17  29  47  73 104 136 166 201 252 309
#     4  11  21  34  52  72 100 138 179 223 269 309
#     4  10  20  34  50  73 104 136 174 219 263 310
#
# _framework density 17.601185999999998
#
# number of rings (size 3 to 8) (size 9 to 14) (size 15 to 20)
#    0.000    2.250    1.250    1.875    0.000    3.750 
#    0.000    5.000    0.000    1.875    0.000    0.000 
#    0.000    2.000    0.000    0.000    0.000    0.000 
#
# Total GULP energy -356859.680681 kJ/mol
# GULP energy per Si atom -5575.932511 kJ/mol
# Density = 1.756112 g / cm^3
# Si number density = 17.601186 Si / 1000 Ang^3
#
#
#
# Elastic Constant Matrix: (Units=GPa)
#
#
# Indices 1 2 3 4 5 6 
#
# 1 54.0948 31.1417 27.5831 0.0000 0.0000 0.0000
# 2 31.1417 72.3352 35.0229 0.0000 0.0000 0.0000
# 3 27.5831 35.0229 98.0547 0.0000 0.0000 0.0000
# 4 0.0000 0.0000 0.0000 33.6340 0.0000 0.0000
# 5 0.0000 0.0000 0.0000 0.0000 12.5800 0.0000
# 6 0.0000 0.0000 0.0000 0.0000 0.0000 23.4373
#
#
#
# Elastic Compliance Matrix: (Units=1/GPa)
#
#
# Indices 1 2 3 4 5 6 
#
# 1 0.025800 -0.009181 -0.003978 0.000000 0.000000 0.000000
# 2 -0.009181 0.019982 -0.004555 0.000000 0.000000 0.000000
# 3 -0.003978 -0.004555 0.012944 0.000000 0.000000 0.000000
# 4 0.000000 0.000000 0.000000 0.029732 0.000000 0.000000
# 5 0.000000 0.000000 0.000000 0.000000 0.079491 0.000000
# 6 0.000000 0.000000 0.000000 0.000000 0.000000 0.042667
#
#
# Mechanical properties :
#
#
# Convention : Reuss Voigt Hill
#
# Bulk Modulus (GPa) = 42.92104 45.77559 44.34831
# Shear Modulus (GPa) = 19.69966 22.64605 21.17285
#
# Velocity S-wave (km/s) = 3.34911 3.59084 3.47208
# Velocity P-wave (km/s) = 6.27643 6.57691 6.42843
#
# Compressibility (1/GPa) = 0.02329860
#
# Stress axis : x y z
#
# Youngs Moduli (GPa) = 38.75938 50.04393 77.25417
#
# Poissons Ratio (x) = 0.45947 0.30734
# Poissons Ratio (y) = 0.35586 0.35186
# Poissons Ratio (z) = 0.15420 0.22793
#
# Static dielectric constant tensor:
#      x y z
#    x 1.633870 0.000000 0.000000 
#    y 0.000000 1.612510 0.000000 
#    z 0.000000 0.000000 1.589730 
# 
# From -- ./inp_files/29972.got.cif
#   From: 2010.05.17/outbox.cif.g08.bks.cpg/sg51_15_cif.got.tgz:29972.got - 2010.06.03 11:52:47.
