data_PCOD9399585
_publ_section_title
;
Structure prediction by ZEFSAII (Michael W. Deem and Ramdas Pophale) SiO2 
 PCOD9399585
Probable space group: P M M A
;
_chemical_formula_sum "Si O2"
_cell_formula_units_Z 64
_cell_length_a 17.955530
_cell_length_b 20.135449
_cell_length_c 10.326564
_cell_angle_alpha 90.000000
_cell_angle_beta 90.000000
_cell_angle_gamma 90.000000
_cell_volume 3733.493403
_symmetry_space_group_name_H-M "P M M A"
_symmetry_group_IT_number 51
_symmetry_cell_setting 'orthorhombic'
loop_
_space_group_symop_operation_xyz
x,y,z
1/2-x,-y,z
1/2+x,-y,-z
-x,y,-z
-x,-y,-z
1/2+x,y,-z
1/2-x,y,z
x,-y,z
loop_
_atom_site_type_symbol
_atom_site_label
_atom_site_fract_x
_atom_site_fract_y
_atom_site_fract_z
Si Si1 0.583743 0.158265 0.954970
Si Si2 0.339075 0.802366 0.788448
Si Si3 0.659618 0.173577 0.496084
Si Si4 0.839714 0.680764 0.595991
Si Si5 0.582194 0.687674 0.866219
Si Si6 0.592551 0.340592 0.151164
Si Si7 0.160759 0.078419 0.272079
Si Si8 0.339507 0.423169 0.625654
O O1 0.584588 0.233148 0.895844
O O2 0.617098 0.109236 0.848830
O O3 0.500000 0.143266 0.000000
O O4 0.632879 0.159969 0.084820
O O5 0.250000 0.798528 0.788844
O O6 0.364563 0.834150 0.652584
O O7 0.371145 0.727858 0.797822
O O8 0.750000 0.173385 0.494763
O O9 0.636323 0.246451 0.545617
O O10 0.636917 0.117772 0.598360
O O11 0.750000 0.680657 0.602268
O O12 0.871995 0.670937 0.738626
O O13 0.862515 0.624904 0.492473
O O14 0.496441 0.667891 0.844445
O O15 0.611180 0.653811 0.998564
O O16 0.621677 0.398218 0.243408
O O17 0.250000 0.089735 0.254281
O O18 0.148803 0.000000 0.284133
O O19 0.250000 0.416086 0.640825
O O20 0.355944 0.500000 0.598603
#
# Coordination Sequence:
#
# PCOD9399585 Si02
#       8
#     8   8   8   8   8   8   8   8
#     4  11  20  35  53  81 115 146 183 230 281 328
#     4  10  18  31  55  83 107 137 183 237 278 321
#     4   9  17  31  53  80 105 134 182 234 279 319
#     4  10  19  33  54  80 106 141 186 233 277 325
#     4  10  20  34  53  82 114 142 184 234 280 318
#     4  10  19  35  52  81 112 144 180 229 276 332
#     4  10  21  37  57  81 112 150 188 227 278 339
#     4  10  21  38  58  81 113 148 184 229 282 341
#
# _framework density 17.142120999999999
#
# number of rings (size 3 to 8) (size 9 to 14) (size 15 to 20)
#    0.000    2.000    5.000    0.750    0.000    3.250 
#    0.000    5.625    0.000    4.500    0.000    0.000 
#    0.000    0.000    0.000    0.000    0.000    0.000 
#
# Total GULP energy -356981.632335 kJ/mol
# GULP energy per Si atom -5577.838005 kJ/mol
# Density = 1.710311 g / cm^3
# Si number density = 17.142121 Si / 1000 Ang^3
#
#
#
# Elastic Constant Matrix: (Units=GPa)
#
#
# Indices 1 2 3 4 5 6 
#
# 1 35.0726 31.6064 46.3342 0.0000 0.0000 0.0000
# 2 31.6064 100.1866 74.6383 0.0000 0.0000 0.0000
# 3 46.3342 74.6383 162.8229 0.0000 0.0000 0.0000
# 4 0.0000 0.0000 0.0000 28.8129 0.0000 0.0000
# 5 0.0000 0.0000 0.0000 0.0000 10.8613 0.0000
# 6 0.0000 0.0000 0.0000 0.0000 0.0000 12.0676
#
#
#
# Elastic Compliance Matrix: (Units=1/GPa)
#
#
# Indices 1 2 3 4 5 6 
#
# 1 0.049362 -0.007757 -0.010491 0.000000 0.000000 0.000000
# 2 -0.007757 0.016377 -0.005300 0.000000 0.000000 0.000000
# 3 -0.010491 -0.005300 0.011557 0.000000 0.000000 0.000000
# 4 0.000000 0.000000 0.000000 0.034707 0.000000 0.000000
# 5 0.000000 0.000000 0.000000 0.000000 0.092070 0.000000
# 6 0.000000 0.000000 0.000000 0.000000 0.000000 0.082867
#
#
# Mechanical properties :
#
#
# Convention : Reuss Voigt Hill
#
# Bulk Modulus (GPa) = 33.11249 67.02667 50.06958
# Shear Modulus (GPa) = 14.53062 20.04857 17.28960
#
# Velocity S-wave (km/s) = 2.91461 3.42358 3.17930
# Velocity P-wave (km/s) = 5.53940 7.40360 6.53828
#
# Compressibility (1/GPa) = 0.03020008
#
# Stress axis : x y z
#
# Youngs Moduli (GPa) = 20.25838 61.06220 86.53079
#
# Poissons Ratio (x) = 0.47364 0.90782
# Poissons Ratio (y) = 0.15714 0.45860
# Poissons Ratio (z) = 0.21254 0.32362
#
# Static dielectric constant tensor:
#      x y z
#    x 1.581990 0.000000 0.000000 
#    y 0.000000 1.562790 0.000000 
#    z 0.000000 0.000000 1.581000 
# 
# From -- ./inp_files/10076.got.cif
#   From: 2010.05.17/outbox.cif.g08.bks.cpg/sg51_6_cif.got.tgz:10076.got - 2010.06.03 11:52:47.
