data_PCOD9399795
_publ_section_title
;
Structure prediction by ZEFSAII (Michael W. Deem and Ramdas Pophale) SiO2 
 PCOD9399795
Probable space group: P M M A
;
_chemical_formula_sum "Si O2"
_cell_formula_units_Z 64
_cell_length_a 17.936199
_cell_length_b 20.129448
_cell_length_c 10.151220
_cell_angle_alpha 90.000000
_cell_angle_beta 90.000000
_cell_angle_gamma 90.000000
_cell_volume 3665.055195
_symmetry_space_group_name_H-M "P M M A"
_symmetry_group_IT_number 51
_symmetry_cell_setting 'orthorhombic'
loop_
_space_group_symop_operation_xyz
x,y,z
1/2-x,-y,z
1/2+x,-y,-z
-x,y,-z
-x,-y,-z
1/2+x,y,-z
1/2-x,y,z
x,-y,z
loop_
_atom_site_type_symbol
_atom_site_label
_atom_site_fract_x
_atom_site_fract_y
_atom_site_fract_z
Si Si1 0.836961 0.297201 0.484544
Si Si2 0.837771 0.203430 0.229979
Si Si3 0.589630 0.713207 0.003020
Si Si4 0.340707 0.074542 0.322860
Si Si5 0.571387 0.425758 0.404878
Si Si6 0.072719 0.573227 0.906366
Si Si7 0.340726 0.073462 0.629659
Si Si8 0.340537 0.779505 0.250521
O O1 0.750000 0.311717 0.505127
O O2 0.843514 0.249902 0.358086
O O3 0.878309 0.365404 0.453609
O O4 0.862567 0.255785 0.612137
O O5 0.750000 0.198953 0.193944
O O6 0.882627 0.236083 0.113123
O O7 0.866223 0.131596 0.275413
O O8 0.615303 0.638765 0.044416
O O9 0.500000 0.712682 0.000000
O O10 0.623169 0.737856 0.866187
O O11 0.250000 0.073817 0.319368
O O12 0.362320 0.082556 0.476879
O O13 0.363645 0.142486 0.250548
O O14 0.364838 0.000000 0.279469
O O15 0.500000 0.424931 0.500000
O O16 0.605326 0.500000 0.416773
O O17 0.553224 0.417133 0.248745
O O18 0.109288 0.500000 0.917307
O O19 0.000000 0.570435 0.000000
O O20 0.250000 0.076236 0.629387
O O21 0.363593 0.000000 0.671952
O O22 0.250000 0.778054 0.241108
#
# Coordination Sequence:
#
# PCOD9399795 Si02
#       8
#     8   8   8   8   8   8   8   8
#     4  10  20  33  53  80 110 138 166 210 274 322
#     4  10  18  33  54  78 108 137 169 214 266 312
#     4  11  23  36  53  78 103 140 180 216 257 307
#     4   8  13  25  49  79 105 131 170 217 261 306
#     4  10  21  36  57  82 105 137 180 221 261 305
#     4   9  19  36  54  75 102 134 174 218 261 301
#     4   8  13  24  48  80 106 130 169 218 261 304
#     4  10  20  35  54  79 109 140 172 214 266 316
#
# _framework density 17.462219999999999
#
# number of rings (size 3 to 8) (size 9 to 14) (size 15 to 20)
#    0.000    2.500    2.500    1.125    3.500    0.250 
#    0.000    0.625    0.000    6.750    0.000    1.750 
#    0.000    0.000    0.000    0.000    0.000    0.000 
#
# Total GULP energy -356389.894280 kJ/mol
# GULP energy per Si atom -5568.592098 kJ/mol
# Density = 1.742248 g / cm^3
# Si number density = 17.462220 Si / 1000 Ang^3
#
#
#
# Elastic Constant Matrix: (Units=GPa)
#
#
# Indices 1 2 3 4 5 6 
#
# 1 15.5196 30.9481 23.3382 0.0000 0.0000 0.0000
# 2 30.9481 142.9533 40.7528 0.0000 0.0000 0.0000
# 3 23.3382 40.7528 82.4445 0.0000 0.0000 0.0000
# 4 0.0000 0.0000 0.0000 16.3534 0.0000 0.0000
# 5 0.0000 0.0000 0.0000 0.0000 19.4883 0.0000
# 6 0.0000 0.0000 0.0000 0.0000 0.0000 20.7186
#
#
#
# Elastic Compliance Matrix: (Units=1/GPa)
#
#
# Indices 1 2 3 4 5 6 
#
# 1 0.171094 -0.027044 -0.035065 0.000000 0.000000 0.000000
# 2 -0.027044 0.012417 0.001518 0.000000 0.000000 0.000000
# 3 -0.035065 0.001518 0.021305 0.000000 0.000000 0.000000
# 4 0.000000 0.000000 0.000000 0.061149 0.000000 0.000000
# 5 0.000000 0.000000 0.000000 0.000000 0.051313 0.000000
# 6 0.000000 0.000000 0.000000 0.000000 0.000000 0.048266
#
#
# Mechanical properties :
#
#
# Convention : Reuss Voigt Hill
#
# Bulk Modulus (GPa) = 11.95687 47.88842 29.92265
# Shear Modulus (GPa) = 9.71618 21.03727 15.37672
#
# Velocity S-wave (km/s) = 2.36140 3.47469 2.97066
# Velocity P-wave (km/s) = 3.78115 6.60163 5.37952
#
# Compressibility (1/GPa) = 0.08363390
#
# Stress axis : x y z
#
# Youngs Moduli (GPa) = 5.84475 80.53176 46.93666
#
# Poissons Ratio (x) = 2.17790 1.64582
# Poissons Ratio (y) = 0.15807 -0.07123
# Poissons Ratio (z) = 0.20494 -0.12221
#
# Static dielectric constant tensor:
#      x y z
#    x 1.583940 0.000000 0.000000 
#    y 0.000000 1.634700 0.000000 
#    z 0.000000 0.000000 1.580440 
# 
# From -- ./inp_files/10060.got.cif
#   From: 2010.05.17/outbox.cif.g08.bks.cpg/sg51_6_cif.got.tgz:10060.got - 2010.06.03 11:52:47.
