data_PCOD9399379
_publ_section_title
;
Structure prediction by ZEFSAII (Michael W. Deem and Ramdas Pophale) SiO2 
 PCOD9399379
Probable space group: P M M A
;
_chemical_formula_sum "Si O2"
_cell_formula_units_Z 64
_cell_length_a 19.690812
_cell_length_b 8.785645
_cell_length_c 22.071822
_cell_angle_alpha 90.000000
_cell_angle_beta 90.000000
_cell_angle_gamma 90.000000
_cell_volume 3818.347601
_symmetry_space_group_name_H-M "P M M A"
_symmetry_group_IT_number 51
_symmetry_cell_setting 'orthorhombic'
loop_
_space_group_symop_operation_xyz
x,y,z
1/2-x,-y,z
1/2+x,-y,-z
-x,y,-z
-x,-y,-z
1/2+x,y,-z
1/2-x,y,z
x,-y,z
loop_
_atom_site_type_symbol
_atom_site_label
_atom_site_fract_x
_atom_site_fract_y
_atom_site_fract_z
Si Si1 0.028838 0.815854 0.065130
Si Si2 0.329662 0.182851 0.463368
Si Si3 0.447341 0.182767 0.690337
Si Si4 0.139523 0.673696 0.226411
Si Si5 0.177203 0.182010 0.104190
Si Si6 0.672858 0.814710 0.397951
Si Si7 0.481175 0.673782 0.813564
Si Si8 0.590540 0.682760 0.647798
O O1 0.107054 0.762210 0.074220
O O2 0.984880 0.753324 0.121206
O O3 0.028400 0.000000 0.068415
O O4 0.000000 0.769915 0.000000
O O5 0.250000 0.216626 0.452023
O O6 0.344414 0.229001 0.532868
O O7 0.377200 0.262345 0.414579
O O8 0.338060 0.000000 0.459068
O O9 0.383437 0.234300 0.650038
O O10 0.442883 0.240561 0.759479
O O11 0.516831 0.246069 0.660933
O O12 0.450553 0.000000 0.690283
O O13 0.164887 0.500000 0.222537
O O14 0.172989 0.775299 0.175082
O O15 0.139727 0.727476 0.295753
O O16 0.059621 0.671333 0.209035
O O17 0.250000 0.239532 0.080263
O O18 0.176789 0.000000 0.098120
O O19 0.750000 0.764406 0.384531
O O20 0.673648 0.000000 0.397394
O O21 0.457922 0.500000 0.818858
O O22 0.584677 0.500000 0.649973
#
# Coordination Sequence:
#
# PCOD9399379 Si02
#       8
#     8   8   8   8   8   8   8   8
#     4   9  17  30  49  71  94 124 161 192 221 268
#     4   9  18  33  50  66  88 121 161 202 242 289
#     4  10  18  30  52  75  94 120 156 199 242 284
#     4   8  16  29  42  58  84 119 151 178 214 264
#     4   9  17  28  43  65  91 116 146 189 232 263
#     4   8  16  32  52  72  92 117 155 203 251 296
#     4   9  17  30  47  69  97 122 147 184 230 277
#     4  10  20  32  45  66  98 129 157 192 237 288
#
# _framework density 16.761177
#
# number of rings (size 3 to 8) (size 9 to 14) (size 15 to 20)
#    0.000    3.000    0.000    2.625    0.000    5.250 
#    0.000    6.250    0.000    3.750    0.000    3.500 
#    0.000    0.000    0.000    0.000    0.000    0.000 
#
# Total GULP energy -356414.768850 kJ/mol
# GULP energy per Si atom -5568.980763 kJ/mol
# Density = 1.672303 g / cm^3
# Si number density = 16.761177 Si / 1000 Ang^3
#
#
#
# Elastic Constant Matrix: (Units=GPa)
#
#
# Indices 1 2 3 4 5 6 
#
# 1 81.9597 25.2581 77.9393 0.0000 0.0000 0.0000
# 2 25.2581 29.2331 34.3596 0.0000 0.0000 0.0000
# 3 77.9393 34.3596 149.0222 0.0000 0.0000 0.0000
# 4 0.0000 0.0000 0.0000 5.3019 0.0000 0.0000
# 5 0.0000 0.0000 0.0000 0.0000 10.4921 0.0000
# 6 0.0000 0.0000 0.0000 0.0000 0.0000 -0.5453
#
#
#
# Elastic Compliance Matrix: (Units=1/GPa)
#
#
# Indices 1 2 3 4 5 6 
#
# 1 0.025837 -0.008836 -0.011475 0.000000 0.000000 0.000000
# 2 -0.008836 0.049946 -0.006895 0.000000 0.000000 0.000000
# 3 -0.011475 -0.006895 0.014302 0.000000 0.000000 0.000000
# 4 0.000000 0.000000 0.000000 0.188613 0.000000 0.000000
# 5 0.000000 0.000000 0.000000 0.000000 0.095310 0.000000
# 6 0.000000 0.000000 0.000000 0.000000 0.000000 -1.834008
#
#
# Mechanical properties :
#
#
# Convention : Reuss Voigt Hill
#
# Bulk Modulus (GPa) = 28.03267 59.48099 43.75683
# Shear Modulus (GPa) = -3.58758 11.22694 3.81968
#
# Velocity S-wave (km/s) = -1.46460 2.59089 1.51124
# Velocity P-wave (km/s) = 3.72840 6.67193 5.40443
#
# Compressibility (1/GPa) = 0.03567266
#
# Stress axis : x y z
#
# Youngs Moduli (GPa) = 38.70487 20.02164 69.92106
#
# Poissons Ratio (x) = 0.17690 0.80238
# Poissons Ratio (y) = 0.34198 0.48210
# Poissons Ratio (z) = 0.44416 0.13805
#
# Static dielectric constant tensor:
#      x y z
#    x 1.576880 0.000000 0.000000 
#    y 0.000000 1.567410 0.000000 
#    z 0.000000 0.000000 1.559180 
# 
# From -- ./inp_files/33990.got.cif
#   From: 2010.05.17/outbox.cif.g08.bks.cpg/sg51_17_cif.got.tgz:33990.got - 2010.06.03 11:52:47.
