data_PCOD9399657
_publ_section_title
;
Structure prediction by ZEFSAII (Michael W. Deem and Ramdas Pophale) SiO2 
 PCOD9399657
Probable space group: P M M A
;
_chemical_formula_sum "Si O2"
_cell_formula_units_Z 44
_cell_length_a 8.605622
_cell_length_b 29.844723
_cell_length_c 9.630833
_cell_angle_alpha 90.000000
_cell_angle_beta 90.000000
_cell_angle_gamma 90.000000
_cell_volume 2473.510000
_symmetry_space_group_name_H-M "P M M A"
_symmetry_group_IT_number 51
_symmetry_cell_setting 'orthorhombic'
loop_
_space_group_symop_operation_xyz
x,y,z
1/2-x,-y,z
1/2+x,-y,-z
-x,y,-z
-x,-y,-z
1/2+x,y,-z
1/2-x,y,z
x,-y,z
loop_
_atom_site_type_symbol
_atom_site_label
_atom_site_fract_x
_atom_site_fract_y
_atom_site_fract_z
Si Si1 0.563380 0.629858 0.343121
Si Si2 0.062444 0.174084 0.657867
Si Si3 0.064252 0.000000 0.842129
Si Si4 0.936096 0.449498 0.844669
Si Si5 0.436911 0.727558 0.656856
Si Si6 0.064436 0.906354 0.157024
O O1 0.500000 0.626754 0.500000
O O2 0.750000 0.628088 0.346667
O O3 0.500397 0.589087 0.253407
O O4 0.515284 0.679120 0.283756
O O5 0.250000 0.170873 0.656447
O O6 0.016798 0.223797 0.714818
O O7 0.000000 0.170679 0.500000
O O8 0.992176 0.134992 0.750952
O O9 0.000990 0.046667 0.782576
O O10 0.250000 0.000000 0.843231
O O11 0.000000 0.000000 0.000000
O O12 0.750000 0.447296 0.847494
O O13 0.981367 0.500000 0.798744
O O14 0.000000 0.443459 0.000000
O O15 0.500000 0.727413 0.500000
O O16 0.250000 0.727574 0.652856
O O17 0.250000 0.908570 0.151525
O O18 0.000000 0.901482 0.000000
#
# Coordination Sequence:
#
# PCOD9399657 Si02
#       6
#     8   8   4   8   8   8
#     4  10  19  33  54  80 106 134 170 213 256 299
#     4  10  19  34  54  78 106 138 173 210 254 306
#     4  10  18  32  53  76 101 134 171 210 256 308
#     4  10  21  37  55  75 101 135 172 210 256 310
#     4   8  16  30  50  74 102 134 169 207 250 301
#     4  11  21  35  54  78 105 136 173 215 258 303
#
# _framework density 17.788488000000001
#
# number of rings (size 3 to 8) (size 9 to 14) (size 15 to 20)
#    0.000    2.182    0.000    5.182    0.000    2.909 
#    0.000    1.364    0.000    0.000    0.000    0.000 
#    0.000    0.000    0.000    0.000    0.000    0.000 
#
# Total GULP energy -245267.154427 kJ/mol
# GULP energy per Si atom -5574.253510 kJ/mol
# Density = 1.774800 g / cm^3
# Si number density = 17.788488 Si / 1000 Ang^3
#
#
#
# Elastic Constant Matrix: (Units=GPa)
#
#
# Indices 1 2 3 4 5 6 
#
# 1 99.7654 70.8841 29.0395 0.0000 0.0000 0.0000
# 2 70.8841 234.7677 76.5734 0.0000 0.0000 0.0000
# 3 29.0395 76.5734 47.8539 0.0000 0.0000 0.0000
# 4 0.0000 0.0000 0.0000 49.9614 0.0000 0.0000
# 5 0.0000 0.0000 0.0000 0.0000 28.4624 0.0000
# 6 0.0000 0.0000 0.0000 0.0000 0.0000 63.5117
#
#
#
# Elastic Compliance Matrix: (Units=1/GPa)
#
#
# Indices 1 2 3 4 5 6 
#
# 1 0.013015 -0.002831 -0.003368 0.000000 0.000000 0.000000
# 2 -0.002831 0.009526 -0.013524 0.000000 0.000000 0.000000
# 3 -0.003368 -0.013524 0.044581 0.000000 0.000000 0.000000
# 4 0.000000 0.000000 0.000000 0.020015 0.000000 0.000000
# 5 0.000000 0.000000 0.000000 0.000000 0.035134 0.000000
# 6 0.000000 0.000000 0.000000 0.000000 0.000000 0.015745
#
#
# Mechanical properties :
#
#
# Convention : Reuss Voigt Hill
#
# Bulk Modulus (GPa) = 36.13249 81.70899 58.92074
# Shear Modulus (GPa) = 26.78264 42.11312 34.44788
#
# Velocity S-wave (km/s) = 3.88444 4.87091 4.40537
# Velocity P-wave (km/s) = 6.36198 8.81293 7.68578
#
# Compressibility (1/GPa) = 0.02767592
#
# Stress axis : x y z
#
# Youngs Moduli (GPa) = 76.83159 104.98108 22.43104
#
# Poissons Ratio (x) = 0.29724 0.07554
# Poissons Ratio (y) = 0.21754 0.30336
# Poissons Ratio (z) = 0.25874 1.41977
#
# Static dielectric constant tensor:
#      x y z
#    x 1.595340 0.000000 0.000000 
#    y 0.000000 1.666100 0.000000 
#    z 0.000000 0.000000 1.575860 
# 
# From -- ./inp_files/5825.got.cif
#   From: 2010.05.17/outbox.cif.g08.bks.cpg/sg51_3_cif.got.tgz:5825.got - 2010.06.03 11:52:47.
