data_PCOD9399558
_publ_section_title
;
Structure prediction by ZEFSAII (Michael W. Deem and Ramdas Pophale) SiO2 
 PCOD9399558
Probable space group: P M M A
;
_chemical_formula_sum "Si O2"
_cell_formula_units_Z 64
_cell_length_a 8.726899
_cell_length_b 15.754217
_cell_length_c 25.229542
_cell_angle_alpha 90.000000
_cell_angle_beta 90.000000
_cell_angle_gamma 90.000000
_cell_volume 3468.695202
_symmetry_space_group_name_H-M "P M M A"
_symmetry_group_IT_number 51
_symmetry_cell_setting 'orthorhombic'
loop_
_space_group_symop_operation_xyz
x,y,z
1/2-x,-y,z
1/2+x,-y,-z
-x,y,-z
-x,-y,-z
1/2+x,y,-z
1/2-x,y,z
x,-y,z
loop_
_atom_site_type_symbol
_atom_site_label
_atom_site_fract_x
_atom_site_fract_y
_atom_site_fract_z
Si Si1 0.431100 0.367746 0.207974
Si Si2 0.432319 0.592812 0.903308
Si Si3 0.932312 0.226241 0.356390
Si Si4 0.434539 0.406439 0.329180
Si Si5 0.566753 0.768376 0.943310
Si Si6 0.933470 0.903023 0.558590
Si Si7 0.068377 0.190346 0.764683
Si Si8 0.933416 0.904765 0.855336
O O1 0.250000 0.380842 0.199159
O O2 0.523691 0.404253 0.158846
O O3 0.471484 0.402467 0.266230
O O4 0.471600 0.268548 0.211751
O O5 0.250000 0.601236 0.909245
O O6 0.479809 0.500000 0.924241
O O7 0.512333 0.673403 0.929607
O O8 0.750000 0.227599 0.363255
O O9 0.965979 0.188133 0.297823
O O10 0.992940 0.323259 0.355590
O O11 0.006114 0.166598 0.400509
O O12 0.250000 0.399840 0.333267
O O13 0.481141 0.500000 0.349265
O O14 0.750000 0.769795 0.945033
O O15 0.516111 0.834055 0.897708
O O16 0.500000 0.793295 0.000000
O O17 0.750000 0.899348 0.556409
O O18 0.000000 0.887817 0.500000
O O19 0.978036 0.000000 0.574028
O O20 0.250000 0.206918 0.770508
O O21 0.017813 0.111271 0.799779
O O22 0.750000 0.895837 0.847487
O O23 0.962897 0.000000 0.874804
#
# Coordination Sequence:
#
# PCOD9399558 Si02
#       8
#     8   8   8   8   8   8   8   8
#     4  10  18  31  53  80 111 148 187 228 276 329
#     4  11  23  37  56  83 113 144 180 225 275 332
#     4  10  21  35  54  84 120 157 195 238 284 336
#     4   9  18  32  51  78 114 155 197 238 280 331
#     4  11  24  42  63  83 107 142 181 230 282 335
#     4  10  21  38  61  87 115 151 195 243 293 343
#     4  10  20  34  54  82 117 153 189 228 276 330
#     4  10  22  40  61  85 112 144 183 227 279 339
#
# _framework density 18.450741000000001
#
# number of rings (size 3 to 8) (size 9 to 14) (size 15 to 20)
#    0.000    1.875    1.250    2.625    0.000    6.250 
#    0.000    2.500    0.000    0.375    0.000    0.000 
#    0.000    0.000    0.000    0.000    0.000    0.000 
#
# Total GULP energy -357315.024366 kJ/mol
# GULP energy per Si atom -5583.047256 kJ/mol
# Density = 1.840875 g / cm^3
# Si number density = 18.450741 Si / 1000 Ang^3
#
#
#
# Elastic Constant Matrix: (Units=GPa)
#
#
# Indices 1 2 3 4 5 6 
#
# 1 39.0220 37.2163 31.9689 0.0000 0.0000 0.0000
# 2 37.2163 127.0659 66.5250 0.0000 0.0000 0.0000
# 3 31.9689 66.5250 85.8943 0.0000 0.0000 0.0000
# 4 0.0000 0.0000 0.0000 -0.6952 0.0000 0.0000
# 5 0.0000 0.0000 0.0000 0.0000 30.6807 0.0000
# 6 0.0000 0.0000 0.0000 0.0000 0.0000 17.7648
#
#
#
# Elastic Compliance Matrix: (Units=1/GPa)
#
#
# Indices 1 2 3 4 5 6 
#
# 1 0.039889 -0.006577 -0.009752 0.000000 0.000000 0.000000
# 2 -0.006577 0.014322 -0.008644 0.000000 0.000000 0.000000
# 3 -0.009752 -0.008644 0.021967 0.000000 0.000000 0.000000
# 4 0.000000 0.000000 0.000000 -1.438446 0.000000 0.000000
# 5 0.000000 0.000000 0.000000 0.000000 0.032594 0.000000
# 6 0.000000 0.000000 0.000000 0.000000 0.000000 0.056291
#
#
# Mechanical properties :
#
#
# Convention : Reuss Voigt Hill
#
# Bulk Modulus (GPa) = 38.12387 58.15585 48.13986
# Shear Modulus (GPa) = -4.11627 17.30152 6.59262
#
# Velocity S-wave (km/s) = -1.49526 3.06553 1.89231
# Velocity P-wave (km/s) = 4.21026 6.64213 5.56077
#
# Compressibility (1/GPa) = 0.02623028
#
# Stress axis : x y z
#
# Youngs Moduli (GPa) = 25.06956 69.82171 45.52295
#
# Poissons Ratio (x) = 0.45925 0.44394
# Poissons Ratio (y) = 0.16489 0.39352
# Poissons Ratio (z) = 0.24448 0.60357
#
# Static dielectric constant tensor:
#      x y z
#    x 1.617710 0.000000 0.000000 
#    y 0.000000 1.668160 0.000000 
#    z 0.000000 0.000000 1.617920 
# 
# From -- ./inp_files/34906.got.cif
#   From: 2010.05.17/outbox.cif.g08.bks.cpg/sg51_18_cif.got.tgz:34906.got - 2010.06.03 11:52:47.
