data_PCOD9399335
_publ_section_title
;
Structure prediction by ZEFSAII (Michael W. Deem and Ramdas Pophale) SiO2 
 PCOD9399335
Probable space group: P M M A
;
_chemical_formula_sum "Si O2"
_cell_formula_units_Z 44
_cell_length_a 8.746104
_cell_length_b 13.647387
_cell_length_c 19.531626
_cell_angle_alpha 90.000000
_cell_angle_beta 90.000000
_cell_angle_gamma 90.000000
_cell_volume 2331.323513
_symmetry_space_group_name_H-M "P M M A"
_symmetry_group_IT_number 51
_symmetry_cell_setting 'orthorhombic'
loop_
_space_group_symop_operation_xyz
x,y,z
1/2-x,-y,z
1/2+x,-y,-z
-x,y,-z
-x,-y,-z
1/2+x,y,-z
1/2-x,y,z
x,-y,z
loop_
_atom_site_type_symbol
_atom_site_label
_atom_site_fract_x
_atom_site_fract_y
_atom_site_fract_z
Si Si1 0.072339 0.388872 0.297272
Si Si2 0.565140 0.889232 0.923659
Si Si3 0.567023 0.105711 0.576944
Si Si4 0.063470 0.696477 0.157924
Si Si5 0.429936 0.306781 0.575416
Si Si6 0.935175 0.500000 0.923679
O O1 0.250000 0.365074 0.312617
O O2 0.069268 0.500000 0.270094
O O3 0.014513 0.319700 0.236384
O O4 0.980419 0.382963 0.367432
O O5 0.750000 0.886058 0.926886
O O6 0.514466 0.798700 0.876160
O O7 0.522058 0.000000 0.900734
O O8 0.500000 0.875642 0.000000
O O9 0.500000 0.102140 0.500000
O O10 0.750000 0.115732 0.573910
O O11 0.493696 0.203761 0.605285
O O12 0.531280 0.000000 0.609562
O O13 0.250000 0.695960 0.159118
O O14 0.016714 0.600367 0.114616
O O15 0.500000 0.323782 0.500000
O O16 0.250000 0.301402 0.567375
O O17 0.750000 0.500000 0.925413
O O18 0.000000 0.500000 0.000000
#
# Coordination Sequence:
#
# PCOD9399335 Si02
#       6
#     8   8   8   8   8   4
#     4  10  20  37  58  75  97 136 180 225 279 335
#     4   9  17  30  50  77 109 144 180 218 258 307
#     4   9  16  28  49  76 104 133 166 207 256 310
#     4   9  17  32  53  75 102 138 180 217 261 321
#     4  11  22  36  55  79 107 138 176 224 274 332
#     4  10  18  30  50  78 105 134 171 214 259 306
#
# _framework density 18.873398000000002
#
# number of rings (size 3 to 8) (size 9 to 14) (size 15 to 20)
#    0.000    2.364    0.909    3.818    0.000    1.818 
#    0.000    2.727    0.000    3.273    0.000    0.000 
#    0.000    0.000    0.000    0.000    0.000    0.000 
#
# Total GULP energy -245215.682345 kJ/mol
# GULP energy per Si atom -5573.083690 kJ/mol
# Density = 1.883044 g / cm^3
# Si number density = 18.873398 Si / 1000 Ang^3
#
#
#
# Elastic Constant Matrix: (Units=GPa)
#
#
# Indices 1 2 3 4 5 6 
#
# 1 52.9965 26.1858 26.7808 0.0000 0.0000 0.0000
# 2 26.1858 124.7848 59.4740 0.0000 0.0000 0.0000
# 3 26.7808 59.4740 101.7658 0.0000 0.0000 0.0000
# 4 0.0000 0.0000 0.0000 29.5335 0.0000 0.0000
# 5 0.0000 0.0000 0.0000 0.0000 22.0666 0.0000
# 6 0.0000 0.0000 0.0000 0.0000 0.0000 16.3020
#
#
#
# Elastic Compliance Matrix: (Units=1/GPa)
#
#
# Indices 1 2 3 4 5 6 
#
# 1 0.022363 -0.002617 -0.004356 0.000000 0.000000 0.000000
# 2 -0.002617 0.011414 -0.005982 0.000000 0.000000 0.000000
# 3 -0.004356 -0.005982 0.014469 0.000000 0.000000 0.000000
# 4 0.000000 0.000000 0.000000 0.033860 0.000000 0.000000
# 5 0.000000 0.000000 0.000000 0.000000 0.045317 0.000000
# 6 0.000000 0.000000 0.000000 0.000000 0.000000 0.061342
#
#
# Mechanical properties :
#
#
# Convention : Reuss Voigt Hill
#
# Bulk Modulus (GPa) = 44.76909 56.04761 50.40835
# Shear Modulus (GPa) = 22.51033 24.72084 23.61559
#
# Velocity S-wave (km/s) = 3.45730 3.62308 3.54116
# Velocity P-wave (km/s) = 6.30154 6.87483 6.59442
#
# Compressibility (1/GPa) = 0.02233684
#
# Stress axis : x y z
#
# Youngs Moduli (GPa) = 44.71612 87.61166 69.11460
#
# Poissons Ratio (x) = 0.22927 0.30105
# Poissons Ratio (y) = 0.11702 0.41344
# Poissons Ratio (z) = 0.19477 0.52409
#
# Static dielectric constant tensor:
#      x y z
#    x 1.638580 0.000000 0.000000 
#    y 0.000000 1.739660 0.000000 
#    z 0.000000 0.000000 1.811500 
# 
# From -- ./inp_files/27369.got.cif
#   From: 2010.05.17/outbox.cif.g08.bks.cpg/sg51_14_cif.got.tgz:27369.got - 2010.06.03 11:52:47.
