data_PCOD9399813
_publ_section_title
;
Structure prediction by ZEFSAII (Michael W. Deem and Ramdas Pophale) SiO2 
 PCOD9399813
Probable space group: P M M A
;
_chemical_formula_sum "Si O2"
_cell_formula_units_Z 48
_cell_length_a 15.406775
_cell_length_b 7.466829
_cell_length_c 19.624084
_cell_angle_alpha 90.000000
_cell_angle_beta 90.000000
_cell_angle_gamma 90.000000
_cell_volume 2257.549803
_symmetry_space_group_name_H-M "P M M A"
_symmetry_group_IT_number 51
_symmetry_cell_setting 'orthorhombic'
loop_
_space_group_symop_operation_xyz
x,y,z
1/2-x,-y,z
1/2+x,-y,-z
-x,y,-z
-x,-y,-z
1/2+x,y,-z
1/2-x,y,z
x,-y,z
loop_
_atom_site_type_symbol
_atom_site_label
_atom_site_fract_x
_atom_site_fract_y
_atom_site_fract_z
Si Si1 0.345193 0.207659 0.660432
Si Si2 0.988061 0.705190 0.742392
Si Si3 0.499863 0.281278 0.104570
Si Si4 0.851168 0.718040 0.001014
Si Si5 0.844964 0.718408 0.639724
Si Si6 0.601052 0.715822 0.491834
O O1 0.250000 0.283263 0.674022
O O2 0.421352 0.296697 0.702696
O O3 0.362890 0.217000 0.579567
O O4 0.346142 0.000000 0.680131
O O5 0.959233 0.500000 0.753184
O O6 0.996542 0.782829 0.817749
O O7 0.919073 0.786597 0.689874
O O8 0.502096 0.500000 0.103729
O O9 0.588044 0.226378 0.065067
O O10 0.412676 0.229944 0.063060
O O11 0.750000 0.778074 0.000606
O O12 0.848007 0.500000 0.001256
O O13 0.750000 0.763783 0.665793
O O14 0.852225 0.500000 0.636356
O O15 0.854910 0.778165 0.561575
O O16 0.500000 0.761090 0.500000
O O17 0.608339 0.500000 0.488315
#
# Coordination Sequence:
#
# PCOD9399813 Si02
#       6
#     8   8   8   8   8   8
#     4  11  24  38  51  71 100 134 170 209 255 302
#     4  10  19  33  51  73 101 132 169 208 248 296
#     4   8  15  25  40  65  96 128 160 195 237 290
#     4   8  13  23  39  63  97 130 157 192 241 289
#     4   9  17  29  47  72  99 125 158 205 255 297
#     4  10  18  33  56  76  95 125 167 212 256 298
#
# _framework density 21.261990999999998
#
# number of rings (size 3 to 8) (size 9 to 14) (size 15 to 20)
#    0.000    2.667    1.667    2.000    0.000    3.667 
#    0.000    5.000    0.000    0.500    0.000    2.333 
#    0.000    1.333    0.000    0.000    0.000    0.000 
#
# Total GULP energy -267818.603780 kJ/mol
# GULP energy per Si atom -5579.554245 kJ/mol
# Density = 2.121360 g / cm^3
# Si number density = 21.261991 Si / 1000 Ang^3
#
#
#
# Elastic Constant Matrix: (Units=GPa)
#
#
# Indices 1 2 3 4 5 6 
#
# 1 158.2107 3.3725 73.0588 0.0000 0.0000 0.0000
# 2 3.3725 57.1255 -1.6545 0.0000 0.0000 0.0000
# 3 73.0588 -1.6545 165.6068 0.0000 0.0000 0.0000
# 4 0.0000 0.0000 0.0000 -379.5946 0.0000 0.0000
# 5 0.0000 0.0000 0.0000 0.0000 -30.7862 0.0000
# 6 0.0000 0.0000 0.0000 0.0000 0.0000 -133.7469
#
#
#
# Elastic Compliance Matrix: (Units=1/GPa)
#
#
# Indices 1 2 3 4 5 6 
#
# 1 0.007956 -0.000572 -0.003516 0.000000 0.000000 0.000000
# 2 -0.000572 0.017551 0.000427 0.000000 0.000000 0.000000
# 3 -0.003516 0.000427 0.007594 0.000000 0.000000 0.000000
# 4 0.000000 0.000000 0.000000 -0.002634 0.000000 0.000000
# 5 0.000000 0.000000 0.000000 0.000000 -0.032482 0.000000
# 6 0.000000 0.000000 0.000000 0.000000 0.000000 -0.007477
#
#
# Mechanical properties :
#
#
# Convention : Reuss Voigt Hill
#
# Bulk Modulus (GPa) = 38.78688 58.94407 48.86547
# Shear Modulus (GPa) = 778.60958 -88.41447 345.09755
#
# Velocity S-wave (km/s) = 19.15706 -6.45551 12.75381
# Velocity P-wave (km/s) = 22.53011 5.27085 15.48909
#
# Compressibility (1/GPa) = 0.02578191
#
# Stress axis : x y z
#
# Youngs Moduli (GPa) = 125.68544 56.97535 131.68869
#
# Poissons Ratio (x) = 0.03256 0.46298
# Poissons Ratio (y) = 0.07183 -0.05629
# Poissons Ratio (z) = 0.44188 -0.02436
#
# Static dielectric constant tensor:
#      x y z
#    x 1.751650 0.000000 0.000000 
#    y 0.000000 1.837480 0.000000 
#    z 0.000000 0.000000 1.744230 
# 
# From -- ./inp_files/29489.got.cif
#   From: 2010.05.17/outbox.cif.g08.bks.cpg/sg51_15_cif.got.tgz:29489.got - 2010.06.03 11:52:47.
