data_PCOD9399573
_publ_section_title
;
Structure prediction by ZEFSAII (Michael W. Deem and Ramdas Pophale) SiO2 
 PCOD9399573
Probable space group: P M M A
;
_chemical_formula_sum "Si O2"
_cell_formula_units_Z 48
_cell_length_a 8.197397
_cell_length_b 14.814942
_cell_length_c 21.445062
_cell_angle_alpha 90.000000
_cell_angle_beta 90.000000
_cell_angle_gamma 90.000000
_cell_volume 2604.373275
_symmetry_space_group_name_H-M "P M M A"
_symmetry_group_IT_number 51
_symmetry_cell_setting 'orthorhombic'
loop_
_space_group_symop_operation_xyz
x,y,z
1/2-x,-y,z
1/2+x,-y,-z
-x,y,-z
-x,-y,-z
1/2+x,y,-z
1/2-x,y,z
x,-y,z
loop_
_atom_site_type_symbol
_atom_site_label
_atom_site_fract_x
_atom_site_fract_y
_atom_site_fract_z
Si Si1 0.443470 0.710958 0.567347
Si Si2 0.446642 0.100724 0.239355
Si Si3 0.553065 0.603929 0.068949
Si Si4 0.946292 0.286617 0.188577
Si Si5 0.050239 0.395607 0.689096
Si Si6 0.446835 0.899304 0.384071
O O1 0.500000 0.677966 0.500000
O O2 0.250000 0.704843 0.569164
O O3 0.507806 0.654319 0.626410
O O4 0.491397 0.815369 0.576694
O O5 0.250000 0.101705 0.239234
O O6 0.507642 0.182754 0.197957
O O7 0.498364 0.114089 0.311690
O O8 0.500110 0.000000 0.220306
O O9 0.750000 0.603264 0.070518
O O10 0.497851 0.500000 0.078222
O O11 0.493785 0.667130 0.125029
O O12 0.500000 0.633000 0.000000
O O13 0.750000 0.292894 0.188302
O O14 0.004515 0.341892 0.249417
O O15 0.250000 0.393886 0.689037
O O16 0.000909 0.500000 0.690869
O O17 0.250000 0.898567 0.385400
O O18 0.500870 0.000000 0.403677
#
# Coordination Sequence:
#
# PCOD9399573 Si02
#       6
#     8   8   8   8   8   8
#     4  11  22  35  52  73  98 132 169 209 256 304
#     4   9  18  32  51  76 106 136 163 201 257 309
#     4   9  18  32  51  77 110 144 174 207 250 299
#     4  10  18  31  54  81 104 132 171 212 250 292
#     4   9  18  33  52  74  99 128 166 209 252 298
#     4   9  18  34  54  74  99 130 163 204 255 308
#
# _framework density 18.430537999999999
#
# number of rings (size 3 to 8) (size 9 to 14) (size 15 to 20)
#    0.000    2.500    1.667    2.000    0.000    4.000 
#    0.000    1.667    0.000    5.500    0.000    0.000 
#    0.000    0.000    0.000    0.000    0.000    0.000 
#
# Total GULP energy -267798.683583 kJ/mol
# GULP energy per Si atom -5579.139241 kJ/mol
# Density = 1.838859 g / cm^3
# Si number density = 18.430538 Si / 1000 Ang^3
#
#
#
# Elastic Constant Matrix: (Units=GPa)
#
#
# Indices 1 2 3 4 5 6 
#
# 1 8.1320 7.5005 14.7915 0.0000 0.0000 0.0000
# 2 7.5005 126.3153 87.6323 0.0000 0.0000 0.0000
# 3 14.7915 87.6323 150.4708 0.0000 0.0000 0.0000
# 4 0.0000 0.0000 0.0000 4.8958 0.0000 0.0000
# 5 0.0000 0.0000 0.0000 0.0000 22.1350 0.0000
# 6 0.0000 0.0000 0.0000 0.0000 0.0000 8.9222
#
#
#
# Elastic Compliance Matrix: (Units=1/GPa)
#
#
# Indices 1 2 3 4 5 6 
#
# 1 0.150117 0.002221 -0.016050 0.000000 0.000000 0.000000
# 2 0.002221 0.013317 -0.007974 0.000000 0.000000 0.000000
# 3 -0.016050 -0.007974 0.012867 0.000000 0.000000 0.000000
# 4 0.000000 0.000000 0.000000 0.204258 0.000000 0.000000
# 5 0.000000 0.000000 0.000000 0.000000 0.045177 0.000000
# 6 0.000000 0.000000 0.000000 0.000000 0.000000 0.112080
#
#
# Mechanical properties :
#
#
# Convention : Reuss Voigt Hill
#
# Bulk Modulus (GPa) = 7.53608 56.08519 31.81063
# Shear Modulus (GPa) = 7.99164 18.85685 13.42424
#
# Velocity S-wave (km/s) = 2.08459 3.20211 2.70176
# Velocity P-wave (km/s) = 3.14512 6.64590 5.19903
#
# Compressibility (1/GPa) = 0.13269501
#
# Stress axis : x y z
#
# Youngs Moduli (GPa) = 6.66149 75.09357 77.71562
#
# Poissons Ratio (x) = -0.16680 1.24735
# Poissons Ratio (y) = -0.01480 0.61969
# Poissons Ratio (z) = 0.10692 0.59878
#
# Static dielectric constant tensor:
#      x y z
#    x 1.654130 0.000000 0.000000 
#    y 0.000000 1.629380 0.000000 
#    z 0.000000 0.000000 1.632280 
# 
# From -- ./inp_files/27602.got.cif
#   From: 2010.05.17/outbox.cif.g08.bks.cpg/sg51_14_cif.got.tgz:27602.got - 2010.06.03 11:52:47.
