data_PCOD9399432
_publ_section_title
;
Structure prediction by ZEFSAII (Michael W. Deem and Ramdas Pophale) SiO2 
 PCOD9399432
Probable space group: P M M A
;
_chemical_formula_sum "Si O2"
_cell_formula_units_Z 32
_cell_length_a 15.562402
_cell_length_b 12.199546
_cell_length_c 7.993819
_cell_angle_alpha 90.000000
_cell_angle_beta 90.000000
_cell_angle_gamma 90.000000
_cell_volume 1517.660424
_symmetry_space_group_name_H-M "P M M A"
_symmetry_group_IT_number 51
_symmetry_cell_setting 'orthorhombic'
loop_
_space_group_symop_operation_xyz
x,y,z
1/2-x,-y,z
1/2+x,-y,-z
-x,y,-z
-x,-y,-z
1/2+x,y,-z
1/2-x,y,z
x,-y,z
loop_
_atom_site_type_symbol
_atom_site_label
_atom_site_fract_x
_atom_site_fract_y
_atom_site_fract_z
Si Si1 0.105497 0.372857 0.489716
Si Si2 0.100345 0.767094 0.800211
Si Si3 0.654660 0.000000 0.728548
Si Si4 0.601188 0.238350 0.829552
Si Si5 0.587204 0.000000 0.381388
O O1 0.128853 0.500000 0.488749
O O2 0.136862 0.308448 0.653484
O O3 0.136599 0.311010 0.322406
O O4 0.000000 0.366501 0.500000
O O5 0.000196 0.736327 0.826046
O O6 0.097545 0.891823 0.731300
O O7 0.138777 0.749856 0.984484
O O8 0.609258 0.110472 0.785526
O O9 0.750000 0.000000 0.799667
O O10 0.656608 0.000000 0.528240
O O11 0.500000 0.000000 0.500000
#
# Coordination Sequence:
#
# PCOD9399432 Si02
#       5
#     8   8   4   8   4
#     4   9  17  30  50  81 115 139 171 224 268 304
#     4  10  18  30  56  81 104 138 184 216 258 318
#     4  12  23  35  53  80 112 141 173 222 281 324
#     4  10  19  33  52  79 108 142 173 216 266 320
#     4  12  17  33  56  76 104 142 180 225 268 322
#
# _framework density 21.085083999999998
#
# number of rings (size 3 to 8) (size 9 to 14) (size 15 to 20)
#    0.000    1.750    5.000    1.500    0.000    3.000 
#    0.000    7.500    0.000    0.750    0.000    0.000 
#    0.000    0.000    0.000    0.000    0.000    0.000 
#
# Total GULP energy -178477.166852 kJ/mol
# GULP energy per Si atom -5577.411464 kJ/mol
# Density = 2.103709 g / cm^3
# Si number density = 21.085084 Si / 1000 Ang^3
#
#
#
# Elastic Constant Matrix: (Units=GPa)
#
#
# Indices 1 2 3 4 5 6 
#
# 1 37.8576 -7.3050 -0.4188 0.0000 0.0000 0.0000
# 2 -7.3050 166.6593 121.5946 0.0000 0.0000 0.0000
# 3 -0.4188 121.5946 248.9766 0.0000 0.0000 0.0000
# 4 0.0000 0.0000 0.0000 -0.5981 0.0000 0.0000
# 5 0.0000 0.0000 0.0000 0.0000 -4.0616 0.0000
# 6 0.0000 0.0000 0.0000 0.0000 0.0000 -17.1459
#
#
#
# Elastic Compliance Matrix: (Units=1/GPa)
#
#
# Indices 1 2 3 4 5 6 
#
# 1 0.026747 0.001770 -0.000820 0.000000 0.000000 0.000000
# 2 0.001770 0.009439 -0.004607 0.000000 0.000000 0.000000
# 3 -0.000820 -0.004607 0.006265 0.000000 0.000000 0.000000
# 4 0.000000 0.000000 0.000000 -1.671834 0.000000 0.000000
# 5 0.000000 0.000000 0.000000 0.000000 -0.246207 0.000000
# 6 0.000000 0.000000 0.000000 0.000000 0.000000 -0.058323
#
#
# Mechanical properties :
#
#
# Convention : Reuss Voigt Hill
#
# Bulk Modulus (GPa) = 28.45832 75.69280 52.07556
# Shear Modulus (GPa) = -2.61112 18.28038 7.83463
#
# Velocity S-wave (km/s) = -1.11403 2.94765 1.92971
# Velocity P-wave (km/s) = 3.44550 6.89649 5.45128
#
# Compressibility (1/GPa) = 0.03513911
#
# Stress axis : x y z
#
# Youngs Moduli (GPa) = 37.38693 105.94341 159.61864
#
# Poissons Ratio (x) = -0.18756 0.13083
# Poissons Ratio (y) = -0.06619 0.73533
# Poissons Ratio (z) = 0.03064 0.48806
#
# Static dielectric constant tensor:
#      x y z
#    x 1.779200 0.000000 0.000000 
#    y 0.000000 1.710480 0.000000 
#    z 0.000000 0.000000 1.793000 
# 
# From -- ./inp_files/9180.got.cif
#   From: 2010.05.17/outbox.cif.g08.bks.cpg/sg51_5_cif.got.tgz:9180.got - 2010.06.03 11:52:47.
