data_PCOD9399547
_publ_section_title
;
Structure prediction by ZEFSAII (Michael W. Deem and Ramdas Pophale) SiO2 
 PCOD9399547
Probable space group: P M M A
;
_chemical_formula_sum "Si O2"
_cell_formula_units_Z 64
_cell_length_a 20.744661
_cell_length_b 8.653671
_cell_length_c 20.431074
_cell_angle_alpha 90.000000
_cell_angle_beta 90.000000
_cell_angle_gamma 90.000000
_cell_volume 3667.734740
_symmetry_space_group_name_H-M "P M M A"
_symmetry_group_IT_number 51
_symmetry_cell_setting 'orthorhombic'
loop_
_space_group_symop_operation_xyz
x,y,z
1/2-x,-y,z
1/2+x,-y,-z
-x,y,-z
-x,-y,-z
1/2+x,y,-z
1/2-x,y,z
x,-y,z
loop_
_atom_site_type_symbol
_atom_site_label
_atom_site_fract_x
_atom_site_fract_y
_atom_site_fract_z
Si Si1 0.902518 0.813843 0.692915
Si Si2 0.542989 0.315640 0.331881
Si Si3 0.563713 0.685561 0.183794
Si Si4 0.922282 0.814702 0.840883
Si Si5 0.676018 0.314792 0.947366
Si Si6 0.822004 0.188416 0.570720
Si Si7 0.931302 0.186617 0.469632
Si Si8 0.323955 0.185288 0.907071
O O1 0.894600 0.772254 0.768891
O O2 0.846568 0.768022 0.643027
O O3 0.969034 0.740653 0.668318
O O4 0.909514 0.000000 0.689571
O O5 0.545397 0.500000 0.335796
O O6 0.569613 0.268217 0.260442
O O7 0.575734 0.244794 0.395748
O O8 0.561095 0.500000 0.180670
O O9 0.495370 0.751141 0.157935
O O10 0.623205 0.746700 0.141751
O O11 0.876201 0.748158 0.896572
O O12 0.924367 0.000000 0.845882
O O13 0.750000 0.272069 0.928843
O O14 0.672217 0.500000 0.950100
O O15 0.664239 0.247295 0.019643
O O16 0.750000 0.243425 0.557739
O O17 0.874040 0.239077 0.517171
O O18 0.821411 0.000000 0.568943
O O19 0.000000 0.237339 0.500000
O O20 0.931923 0.000000 0.468878
O O21 0.250000 0.228544 0.889496
O O22 0.328326 0.000000 0.907290
#
# Coordination Sequence:
#
# PCOD9399547 Si02
#       8
#     8   8   8   8   8   8   8   8
#     4   9  17  32  52  74 102 136 173 213 260 311
#     4  10  20  33  52  78 105 134 172 216 260 311
#     4  10  21  37  56  80 111 144 178 219 271 331
#     4  10  20  33  54  82 111 142 179 227 273 314
#     4  10  21  37  56  78 109 149 186 220 266 329
#     4   9  17  30  49  74 102 132 171 216 260 308
#     4  10  18  31  53  76  99 134 176 216 258 309
#     4  10  21  38  60  84 108 136 178 230 276 321
#
# _framework density 17.449463000000002
#
# number of rings (size 3 to 8) (size 9 to 14) (size 15 to 20)
#    0.000    2.250    1.250    1.875    0.000    4.750 
#    0.000    4.375    0.000    3.750    0.000    0.000 
#    0.000    0.000    0.000    0.000    0.000    0.000 
#
# Total GULP energy -357060.655993 kJ/mol
# GULP energy per Si atom -5579.072750 kJ/mol
# Density = 1.740975 g / cm^3
# Si number density = 17.449463 Si / 1000 Ang^3
#
#
#
# Elastic Constant Matrix: (Units=GPa)
#
#
# Indices 1 2 3 4 5 6 
#
# 1 148.5787 37.3110 111.6374 0.0000 0.0000 0.0000
# 2 37.3110 31.4076 36.4921 0.0000 0.0000 0.0000
# 3 111.6374 36.4921 136.5251 0.0000 0.0000 0.0000
# 4 0.0000 0.0000 0.0000 25.7276 0.0000 0.0000
# 5 0.0000 0.0000 0.0000 0.0000 28.7240 0.0000
# 6 0.0000 0.0000 0.0000 0.0000 0.0000 19.6717
#
#
#
# Elastic Compliance Matrix: (Units=1/GPa)
#
#
# Indices 1 2 3 4 5 6 
#
# 1 0.018277 -0.006306 -0.013259 0.000000 0.000000 0.000000
# 2 -0.006306 0.048358 -0.007769 0.000000 0.000000 0.000000
# 3 -0.013259 -0.007769 0.020244 0.000000 0.000000 0.000000
# 4 0.000000 0.000000 0.000000 0.038869 0.000000 0.000000
# 5 0.000000 0.000000 0.000000 0.000000 0.034814 0.000000
# 6 0.000000 0.000000 0.000000 0.000000 0.000000 0.050835
#
#
# Mechanical properties :
#
#
# Convention : Reuss Voigt Hill
#
# Bulk Modulus (GPa) = 31.04743 76.37693 53.71218
# Shear Modulus (GPa) = 18.06352 23.56271 20.81312
#
# Velocity S-wave (km/s) = 3.22093 3.67868 3.45739
# Velocity P-wave (km/s) = 5.62707 7.86823 6.84006
#
# Compressibility (1/GPa) = 0.03220878
#
# Stress axis : x y z
#
# Youngs Moduli (GPa) = 54.71433 20.67924 49.39832
#
# Poissons Ratio (x) = 0.13041 0.65499
# Poissons Ratio (y) = 0.34503 0.38378
# Poissons Ratio (z) = 0.72548 0.16066
#
# Static dielectric constant tensor:
#      x y z
#    x 1.572960 0.000000 0.000000 
#    y 0.000000 1.585150 0.000000 
#    z 0.000000 0.000000 1.588710 
# 
# From -- ./inp_files/33909.got.cif
#   From: 2010.05.17/outbox.cif.g08.bks.cpg/sg51_17_cif.got.tgz:33909.got - 2010.06.03 11:52:47.
