data_PCOD9399824
_publ_section_title
;
Structure prediction by ZEFSAII (Michael W. Deem and Ramdas Pophale) SiO2 
 PCOD9399824
Probable space group: P M M A
;
_chemical_formula_sum "Si O2"
_cell_formula_units_Z 56
_cell_length_a 14.602910
_cell_length_b 8.517758
_cell_length_c 23.435988
_cell_angle_alpha 90.000000
_cell_angle_beta 90.000000
_cell_angle_gamma 90.000000
_cell_volume 2915.063185
_symmetry_space_group_name_H-M "P M M A"
_symmetry_group_IT_number 51
_symmetry_cell_setting 'orthorhombic'
loop_
_space_group_symop_operation_xyz
x,y,z
1/2-x,-y,z
1/2+x,-y,-z
-x,y,-z
-x,-y,-z
1/2+x,y,-z
1/2-x,y,z
x,-y,z
loop_
_atom_site_type_symbol
_atom_site_label
_atom_site_fract_x
_atom_site_fract_y
_atom_site_fract_z
Si Si1 0.957967 0.810630 0.585914
Si Si2 0.352458 0.808357 0.857045
Si Si3 0.145055 0.686752 0.303272
Si Si4 0.146859 0.677721 0.103728
Si Si5 0.966911 0.817610 0.801668
Si Si6 0.854976 0.191238 0.469556
Si Si7 0.107616 0.181195 0.986519
O O1 0.912844 0.750839 0.643585
O O2 0.894099 0.764005 0.532034
O O3 0.063175 0.759507 0.573474
O O4 0.958895 0.000000 0.586899
O O5 0.250000 0.760671 0.841583
O O6 0.431077 0.755144 0.813794
O O7 0.372971 0.761382 0.922540
O O8 0.356735 0.000000 0.857311
O O9 0.250000 0.748017 0.303363
O O10 0.149278 0.500000 0.307707
O O11 0.092552 0.730917 0.245433
O O12 0.250000 0.688335 0.126574
O O13 0.113239 0.500000 0.112605
O O14 0.083583 0.797442 0.137633
O O15 0.148984 0.716849 0.037061
O O16 0.971593 0.000000 0.785673
O O17 0.750000 0.245191 0.460162
O O18 0.852669 0.000000 0.468060
O O19 0.139795 0.000000 0.990495
O O20 0.000000 0.181588 0.000000
#
# Coordination Sequence:
#
# PCOD9399824 Si02
#       7
#     8   8   8   8   8   8   8
#     4   9  17  31  55  85 113 147 189 226 263 312
#     4   9  18  34  56  80 105 132 167 217 270 316
#     4  11  24  40  56  77 108 143 177 220 276 327
#     4  11  23  36  51  76 110 142 170 208 264 323
#     4  11  22  38  59  80 101 132 180 226 265 314
#     4   8  14  27  51  85 121 150 181 226 271 307
#     4  10  18  33  56  81 105 133 172 215 260 314
#
# _framework density 19.210560999999998
#
# number of rings (size 3 to 8) (size 9 to 14) (size 15 to 20)
#    0.000    2.143    1.429    3.429    0.000    5.429 
#    0.000    2.143    0.000    8.143    0.000    0.000 
#    0.000    0.000    0.000    0.000    0.000    0.000 
#
# Total GULP energy -312409.168321 kJ/mol
# GULP energy per Si atom -5578.735149 kJ/mol
# Density = 1.916684 g / cm^3
# Si number density = 19.210561 Si / 1000 Ang^3
#
#
#
# Elastic Constant Matrix: (Units=GPa)
#
#
# Indices 1 2 3 4 5 6 
#
# 1 174.6548 17.3362 63.7815 0.0000 0.0000 0.0000
# 2 17.3362 14.4958 7.3083 0.0000 0.0000 0.0000
# 3 63.7815 7.3083 91.7625 0.0000 0.0000 0.0000
# 4 0.0000 0.0000 0.0000 -261.6847 0.0000 0.0000
# 5 0.0000 0.0000 0.0000 0.0000 23.5750 0.0000
# 6 0.0000 0.0000 0.0000 0.0000 0.0000 -1.3887
#
#
#
# Elastic Compliance Matrix: (Units=1/GPa)
#
#
# Indices 1 2 3 4 5 6 
#
# 1 0.008366 -0.007370 -0.005228 0.000000 0.000000 0.000000
# 2 -0.007370 0.078363 -0.001119 0.000000 0.000000 0.000000
# 3 -0.005228 -0.001119 0.014621 0.000000 0.000000 0.000000
# 4 0.000000 0.000000 0.000000 -0.003821 0.000000 0.000000
# 5 0.000000 0.000000 0.000000 0.000000 0.042418 0.000000
# 6 0.000000 0.000000 0.000000 0.000000 0.000000 -0.720100
#
#
# Mechanical properties :
#
#
# Convention : Reuss Voigt Hill
#
# Bulk Modulus (GPa) = 13.52869 50.86282 32.19576
# Shear Modulus (GPa) = -9.46825 -35.06720 -22.26772
#
# Velocity S-wave (km/s) = -2.22247 -4.27712 -3.40831
# Velocity P-wave (km/s) = 0.68687 1.46366 1.14326
#
# Compressibility (1/GPa) = 0.07391697
#
# Stress axis : x y z
#
# Youngs Moduli (GPa) = 119.52556 12.76110 68.39559
#
# Poissons Ratio (x) = 0.09405 0.35759
# Poissons Ratio (y) = 0.88088 0.07650
# Poissons Ratio (z) = 0.62492 0.01427
#
# Static dielectric constant tensor:
#      x y z
#    x 1.713680 0.000000 0.000000 
#    y 0.000000 1.661310 0.000000 
#    z 0.000000 0.000000 1.645150 
# 
# From -- ./inp_files/33411.got.cif
#   From: 2010.05.17/outbox.cif.g08.bks.cpg/sg51_17_cif.got.tgz:33411.got - 2010.06.03 11:52:47.
