data_PCOD9399649
_publ_section_title
;
Structure prediction by ZEFSAII (Michael W. Deem and Ramdas Pophale) SiO2 
 PCOD9399649
Probable space group: P M M A
;
_chemical_formula_sum "Si O2"
_cell_formula_units_Z 48
_cell_length_a 16.499326
_cell_length_b 9.968117
_cell_length_c 13.914289
_cell_angle_alpha 90.000000
_cell_angle_beta 90.000000
_cell_angle_gamma 90.000000
_cell_volume 2288.444319
_symmetry_space_group_name_H-M "P M M A"
_symmetry_group_IT_number 51
_symmetry_cell_setting 'orthorhombic'
loop_
_space_group_symop_operation_xyz
x,y,z
1/2-x,-y,z
1/2+x,-y,-z
-x,y,-z
-x,-y,-z
1/2+x,y,-z
1/2-x,y,z
x,-y,z
loop_
_atom_site_type_symbol
_atom_site_label
_atom_site_fract_x
_atom_site_fract_y
_atom_site_fract_z
Si Si1 0.425602 0.846033 0.927512
Si Si2 0.343682 0.846858 0.451957
Si Si3 0.750000 0.156520 0.083300
Si Si4 0.911071 0.345525 0.399157
Si Si5 0.344132 0.152435 0.220086
Si Si6 0.490045 0.341343 0.214395
Si Si7 0.750000 0.344905 0.269222
O O1 0.335652 0.822664 0.969810
O O2 0.442080 0.735851 0.846762
O O3 0.427530 0.000000 0.889921
O O4 0.500000 0.834508 0.000000
O O5 0.250000 0.810155 0.473897
O O6 0.402097 0.750532 0.510491
O O7 0.349530 0.845042 0.336676
O O8 0.357022 0.000000 0.483391
O O9 0.750000 0.245854 0.179017
O O10 0.750000 0.000000 0.111344
O O11 0.913196 0.500000 0.431081
O O12 0.829745 0.326929 0.334716
O O13 0.984795 0.322785 0.325634
O O14 0.250000 0.174536 0.194837
O O15 0.406837 0.265779 0.189111
O O16 0.366696 0.000000 0.188642
O O17 0.487990 0.500000 0.194723
O O18 0.750000 0.500000 0.235366
#
# Coordination Sequence:
#
# PCOD9399649 Si02
#       7
#     8   8   4   8   8   8   4
#     4  10  22  41  63  89 121 153 190 238 290 346
#     4   9  18  32  52  78 108 146 195 245 287 332
#     4  10  20  36  62  90 113 148 193 234 283 344
#     4  10  20  32  50  79 114 151 187 229 284 339
#     4   9  20  40  60  78 107 151 199 245 293 341
#     4  11  23  38  58  85 117 150 188 236 288 348
#     4  10  18  32  52  78 115 154 187 224 279 342
#
# _framework density 20.974948999999999
#
# number of rings (size 3 to 8) (size 9 to 14) (size 15 to 20)
#    0.000    2.167    2.500    1.500    0.000    4.000 
#    1.500    5.000    0.000    0.000    0.000    0.000 
#    0.000    0.000    0.000    0.000    0.000    0.000 
#
# Total GULP energy -268055.358010 kJ/mol
# GULP energy per Si atom -5584.486625 kJ/mol
# Density = 2.092721 g / cm^3
# Si number density = 20.974949 Si / 1000 Ang^3
#
#
#
# Elastic Constant Matrix: (Units=GPa)
#
#
# Indices 1 2 3 4 5 6 
#
# 1 138.6376 61.8419 23.7031 0.0000 0.0000 0.0000
# 2 61.8419 81.4080 35.4704 0.0000 0.0000 0.0000
# 3 23.7031 35.4704 37.2854 0.0000 0.0000 0.0000
# 4 0.0000 0.0000 0.0000 45.5058 0.0000 0.0000
# 5 0.0000 0.0000 0.0000 0.0000 28.8346 0.0000
# 6 0.0000 0.0000 0.0000 0.0000 0.0000 8.7361
#
#
#
# Elastic Compliance Matrix: (Units=1/GPa)
#
#
# Indices 1 2 3 4 5 6 
#
# 1 0.010968 -0.009041 0.001629 0.000000 0.000000 0.000000
# 2 -0.009041 0.028433 -0.021302 0.000000 0.000000 0.000000
# 3 0.001629 -0.021302 0.046049 0.000000 0.000000 0.000000
# 4 0.000000 0.000000 0.000000 0.021975 0.000000 0.000000
# 5 0.000000 0.000000 0.000000 0.000000 0.034681 0.000000
# 6 0.000000 0.000000 0.000000 0.000000 0.000000 0.114467
#
#
# Mechanical properties :
#
#
# Convention : Reuss Voigt Hill
#
# Bulk Modulus (GPa) = 35.68587 55.48464 45.58525
# Shear Modulus (GPa) = 15.46350 25.70303 20.58326
#
# Velocity S-wave (km/s) = 2.71816 3.50439 3.13601
# Velocity P-wave (km/s) = 5.18668 6.54863 5.90704
#
# Compressibility (1/GPa) = 0.02802230
#
# Stress axis : x y z
#
# Youngs Moduli (GPa) = 91.17762 35.16982 21.71580
#
# Poissons Ratio (x) = 0.31798 -0.03537
# Poissons Ratio (y) = 0.82436 0.46258
# Poissons Ratio (z) = -0.14852 0.74918
#
# Static dielectric constant tensor:
#      x y z
#    x 1.798190 0.000000 0.000000 
#    y 0.000000 1.700200 0.000000 
#    z 0.000000 0.000000 1.762060 
# 
# From -- ./inp_files/29632.got.cif
#   From: 2010.05.17/outbox.cif.g08.bks.cpg/sg51_15_cif.got.tgz:29632.got - 2010.06.03 11:52:47.
