data_PCOD9399892
_publ_section_title
;
Structure prediction by ZEFSAII (Michael W. Deem and Ramdas Pophale) SiO2 
 PCOD9399892
Probable space group: P M M A
;
_chemical_formula_sum "Si O2"
_cell_formula_units_Z 48
_cell_length_a 16.940622
_cell_length_b 7.626351
_cell_length_c 15.837957
_cell_angle_alpha 90.000000
_cell_angle_beta 90.000000
_cell_angle_gamma 90.000000
_cell_volume 2046.186906
_symmetry_space_group_name_H-M "P M M A"
_symmetry_group_IT_number 51
_symmetry_cell_setting 'orthorhombic'
loop_
_space_group_symop_operation_xyz
x,y,z
1/2-x,-y,z
1/2+x,-y,-z
-x,y,-z
-x,-y,-z
1/2+x,y,-z
1/2-x,y,z
x,-y,z
loop_
_atom_site_type_symbol
_atom_site_label
_atom_site_fract_x
_atom_site_fract_y
_atom_site_fract_z
Si Si1 0.423748 0.285597 0.555072
Si Si2 0.662221 0.294402 0.789482
Si Si3 0.582794 0.201193 0.963593
Si Si4 0.250000 0.203652 0.729050
Si Si5 0.250000 0.697552 0.540313
Si Si6 0.497536 0.285510 0.272644
Si Si7 0.883638 0.707757 0.138548
O O1 0.500000 0.237796 0.500000
O O2 0.418703 0.500000 0.555340
O O3 0.337399 0.223638 0.523433
O O4 0.448064 0.228017 0.649596
O O5 0.750000 0.217193 0.783797
O O6 0.668436 0.500000 0.769128
O O7 0.592900 0.223944 0.728768
O O8 0.628192 0.283510 0.884967
O O9 0.634282 0.207932 0.049086
O O10 0.567692 0.000000 0.941208
O O11 0.500000 0.280403 0.000000
O O12 0.250000 0.309284 0.642547
O O13 0.322513 0.248522 0.788714
O O14 0.250000 0.000000 0.705851
O O15 0.250000 0.500000 0.504022
O O16 0.497906 0.500000 0.275266
O O17 0.534681 0.234983 0.182549
O O18 0.884705 0.500000 0.125708
#
# Coordination Sequence:
#
# PCOD9399892 Si02
#       7
#     8   8   8   4   4   8   8
#     4   9  17  31  54  86 120 146 181 235 288 339
#     4  10  21  37  55  77 108 149 195 237 282 343
#     4  11  23  37  54  79 110 144 189 243 292 339
#     4  12  24  36  54  84 117 144 183 242 295 340
#     4  10  18  34  58  86 115 152 191 226 287 358
#     4   9  17  32  55  80 108 144 186 233 282 340
#     4  11  21  36  58  80 109 150 192 233 286 346
#
# _framework density 23.458265999999998
#
# number of rings (size 3 to 8) (size 9 to 14) (size 15 to 20)
#    0.000    1.833    3.333    1.750    1.167    1.000 
#    1.500    0.000    0.000    0.500    0.000    0.000 
#    0.000    0.000    0.000    0.000    0.000    0.000 
#
# Total GULP energy -267891.677198 kJ/mol
# GULP energy per Si atom -5581.076608 kJ/mol
# Density = 2.340487 g / cm^3
# Si number density = 23.458266 Si / 1000 Ang^3
#
#
#
# Elastic Constant Matrix: (Units=GPa)
#
#
# Indices 1 2 3 4 5 6 
#
# 1 188.5689 1.9050 20.5461 0.0000 0.0000 0.0000
# 2 1.9050 72.7252 -5.4792 0.0000 0.0000 0.0000
# 3 20.5461 -5.4792 42.2497 0.0000 0.0000 0.0000
# 4 0.0000 0.0000 0.0000 -27.6121 0.0000 0.0000
# 5 0.0000 0.0000 0.0000 0.0000 32.7070 0.0000
# 6 0.0000 0.0000 0.0000 0.0000 0.0000 3.1374
#
#
#
# Elastic Compliance Matrix: (Units=1/GPa)
#
#
# Indices 1 2 3 4 5 6 
#
# 1 0.005609 -0.000356 -0.002774 0.000000 0.000000 0.000000
# 2 -0.000356 0.013909 0.001977 0.000000 0.000000 0.000000
# 3 -0.002774 0.001977 0.025274 0.000000 0.000000 0.000000
# 4 0.000000 0.000000 0.000000 -0.036216 0.000000 0.000000
# 5 0.000000 0.000000 0.000000 0.000000 0.030574 0.000000
# 6 0.000000 0.000000 0.000000 0.000000 0.000000 0.318740
#
#
# Mechanical properties :
#
#
# Convention : Reuss Voigt Hill
#
# Bulk Modulus (GPa) = 23.53721 37.49863 30.51792
# Shear Modulus (GPa) = 13.35622 20.75125 17.05374
#
# Velocity S-wave (km/s) = 2.38872 2.97745 2.69919
# Velocity P-wave (km/s) = 4.20278 5.27639 4.76989
#
# Compressibility (1/GPa) = 0.04248592
#
# Stress axis : x y z
#
# Youngs Moduli (GPa) = 178.28744 71.89767 39.56629
#
# Poissons Ratio (x) = 0.02559 0.10975
# Poissons Ratio (y) = 0.06345 -0.07822
# Poissons Ratio (z) = 0.49453 -0.14213
#
# Static dielectric constant tensor:
#      x y z
#    x 2.011370 0.000000 0.000000 
#    y 0.000000 1.873060 0.000000 
#    z 0.000000 0.000000 1.867220 
# 
# From -- ./inp_files/29592.got.cif
#   From: 2010.05.17/outbox.cif.g08.bks.cpg/sg51_15_cif.got.tgz:29592.got - 2010.06.03 11:52:47.
