data_PCOD9399674
_publ_section_title
;
Structure prediction by ZEFSAII (Michael W. Deem and Ramdas Pophale) SiO2 
 PCOD9399674
Probable space group: P M M A
;
_chemical_formula_sum "Si O2"
_cell_formula_units_Z 48
_cell_length_a 8.574824
_cell_length_b 31.910175
_cell_length_c 9.291527
_cell_angle_alpha 90.000000
_cell_angle_beta 90.000000
_cell_angle_gamma 90.000000
_cell_volume 2542.386033
_symmetry_space_group_name_H-M "P M M A"
_symmetry_group_IT_number 51
_symmetry_cell_setting 'orthorhombic'
loop_
_space_group_symop_operation_xyz
x,y,z
1/2-x,-y,z
1/2+x,-y,-z
-x,y,-z
-x,-y,-z
1/2+x,y,-z
1/2-x,y,z
x,-y,z
loop_
_atom_site_type_symbol
_atom_site_label
_atom_site_fract_x
_atom_site_fract_y
_atom_site_fract_z
Si Si1 0.061351 0.500000 0.662248
Si Si2 0.436430 0.000000 0.664378
Si Si3 0.563400 0.255983 0.837409
Si Si4 0.436438 0.087365 0.337162
Si Si5 0.062208 0.665213 0.661801
Si Si6 0.936701 0.833898 0.162169
Si Si7 0.561874 0.417681 0.162010
O O1 0.250000 0.500000 0.657575
O O2 0.010400 0.541435 0.748754
O O3 0.000000 0.500000 0.500000
O O4 0.500000 0.000000 0.500000
O O5 0.499696 0.956458 0.727669
O O6 0.250000 0.000000 0.662749
O O7 0.750000 0.254588 0.841821
O O8 0.504981 0.293572 0.738087
O O9 0.498240 0.211198 0.784678
O O10 0.500000 0.262237 0.000000
O O11 0.500000 0.090108 0.500000
O O12 0.250000 0.086225 0.339182
O O13 0.497981 0.127514 0.252663
O O14 0.250000 0.667360 0.660206
O O15 0.014476 0.624445 0.754252
O O16 0.000000 0.661586 0.500000
O O17 0.750000 0.834007 0.162376
O O18 0.000000 0.837963 0.000000
O O19 0.750000 0.418281 0.156705
O O20 0.500000 0.418287 0.000000
#
# Coordination Sequence:
#
# PCOD9399674 Si02
#       7
#     4   4   8   8   8   8   8
#     4  10  21  38  58  86 118 152 191 238 288 340
#     4  10  18  32  53  80 111 148 189 234 284 338
#     4  11  22  39  61  85 112 148 188 231 279 337
#     4  11  21  36  57  84 114 149 190 236 284 337
#     4  11  23  39  58  85 116 150 189 236 287 340
#     4  11  22  39  60  85 115 150 188 232 283 341
#     4  10  22  38  59  85 116 151 194 237 283 340
#
# _framework density 18.879902000000001
#
# number of rings (size 3 to 8) (size 9 to 14) (size 15 to 20)
#    0.000    1.333    0.000    9.000    0.000    4.000 
#    0.000    3.750    0.000    0.000    0.000    0.000 
#    0.000    0.000    0.000    0.000    0.000    0.000 
#
# Total GULP energy -268353.217944 kJ/mol
# GULP energy per Si atom -5590.692041 kJ/mol
# Density = 1.883693 g / cm^3
# Si number density = 18.879902 Si / 1000 Ang^3
#
#
#
# Elastic Constant Matrix: (Units=GPa)
#
#
# Indices 1 2 3 4 5 6 
#
# 1 153.3525 78.8850 45.9727 0.0000 0.0000 0.0000
# 2 78.8850 228.8466 108.7456 0.0000 0.0000 0.0000
# 3 45.9727 108.7456 117.8924 0.0000 0.0000 0.0000
# 4 0.0000 0.0000 0.0000 41.4317 0.0000 0.0000
# 5 0.0000 0.0000 0.0000 0.0000 35.5396 0.0000
# 6 0.0000 0.0000 0.0000 0.0000 0.0000 34.0509
#
#
#
# Elastic Compliance Matrix: (Units=1/GPa)
#
#
# Indices 1 2 3 4 5 6 
#
# 1 0.007995 -0.002269 -0.001025 0.000000 0.000000 0.000000
# 2 -0.002269 0.008424 -0.006885 0.000000 0.000000 0.000000
# 3 -0.001025 -0.006885 0.015233 0.000000 0.000000 0.000000
# 4 0.000000 0.000000 0.000000 0.024136 0.000000 0.000000
# 5 0.000000 0.000000 0.000000 0.000000 0.028138 0.000000
# 6 0.000000 0.000000 0.000000 0.000000 0.000000 0.029368
#
#
# Mechanical properties :
#
#
# Convention : Reuss Voigt Hill
#
# Bulk Modulus (GPa) = 88.54464 107.47758 98.01111
# Shear Modulus (GPa) = 36.38566 39.97032 38.17799
#
# Velocity S-wave (km/s) = 4.39477 4.60617 4.50171
# Velocity P-wave (km/s) = 8.52952 9.23794 8.89079
#
# Compressibility (1/GPa) = 0.01129374
#
# Stress axis : x y z
#
# Youngs Moduli (GPa) = 125.07243 118.71179 65.64655
#
# Poissons Ratio (x) = 0.26937 0.06727
# Poissons Ratio (y) = 0.28380 0.45200
# Poissons Ratio (z) = 0.12817 0.81737
#
# Static dielectric constant tensor:
#      x y z
#    x 1.632720 0.000000 0.000000 
#    y 0.000000 1.665450 0.000000 
#    z 0.000000 0.000000 1.612810 
# 
# From -- ./inp_files/6203.got.cif
#   From: 2010.05.17/outbox.cif.g08.bks.cpg/sg51_4_cif.got.tgz:6203.got - 2010.06.03 11:52:47.
