data_PCOD9399173
_publ_section_title
;
Structure prediction by ZEFSAII (Michael W. Deem and Ramdas Pophale) SiO2 
 PCOD9399173
Probable space group: P M M A
;
_chemical_formula_sum "Si O2"
_cell_formula_units_Z 44
_cell_length_a 8.727889
_cell_length_b 14.176346
_cell_length_c 19.324793
_cell_angle_alpha 90.000000
_cell_angle_beta 90.000000
_cell_angle_gamma 90.000000
_cell_volume 2391.048412
_symmetry_space_group_name_H-M "P M M A"
_symmetry_group_IT_number 51
_symmetry_cell_setting 'orthorhombic'
loop_
_space_group_symop_operation_xyz
x,y,z
1/2-x,-y,z
1/2+x,-y,-z
-x,y,-z
-x,-y,-z
1/2+x,y,-z
1/2-x,y,z
x,-y,z
loop_
_atom_site_type_symbol
_atom_site_label
_atom_site_fract_x
_atom_site_fract_y
_atom_site_fract_z
Si Si1 0.433364 0.891845 0.790016
Si Si2 0.931600 0.720066 0.704951
Si Si3 0.065154 0.393133 0.161918
Si Si4 0.433848 0.000000 0.422045
Si Si5 0.931995 0.197791 0.423216
Si Si6 0.568647 0.778670 0.075036
O O1 0.250000 0.881039 0.776605
O O2 0.524574 0.816168 0.745156
O O3 0.460827 0.861973 0.869689
O O4 0.475637 0.000000 0.776887
O O5 0.750000 0.716126 0.692644
O O6 0.975673 0.639101 0.759875
O O7 0.018277 0.723849 0.632062
O O8 0.250000 0.388905 0.157429
O O9 0.015498 0.500000 0.147949
O O10 0.998037 0.316556 0.109343
O O11 0.500000 0.000000 0.500000
O O12 0.499238 0.901512 0.394658
O O13 0.250000 0.000000 0.421109
O O14 0.750000 0.189056 0.428143
O O15 0.000000 0.213361 0.500000
O O16 0.750000 0.767742 0.068871
O O17 0.500000 0.796361 0.000000
#
# Coordination Sequence:
#
# PCOD9399173 Si02
#       6
#     8   8   8   4   8   8
#     4   9  19  35  52  72 102 140 180 216 254 302
#     4  10  20  34  53  78 105 134 172 217 262 314
#     4   9  19  37  59  80 103 133 170 214 265 317
#     4  10  18  30  46  68  98 132 171 210 251 298
#     4  11  21  34  51  73 104 140 176 216 261 307
#     4  10  20  34  53  78 107 138 172 214 259 308
#
# _framework density 18.401968
#
# number of rings (size 3 to 8) (size 9 to 14) (size 15 to 20)
#    0.000    2.182    0.000    4.636    1.273    2.909 
#    0.000    0.000    0.000    0.545    0.000    0.000 
#    0.000    0.000    0.000    0.000    0.000    0.000 
#
# Total GULP energy -245546.678495 kJ/mol
# GULP energy per Si atom -5580.606329 kJ/mol
# Density = 1.836008 g / cm^3
# Si number density = 18.401968 Si / 1000 Ang^3
#
#
#
# Elastic Constant Matrix: (Units=GPa)
#
#
# Indices 1 2 3 4 5 6 
#
# 1 69.6156 -2.0208 19.9663 0.0000 0.0000 0.0000
# 2 -2.0208 30.6176 -19.7087 0.0000 0.0000 0.0000
# 3 19.9663 -19.7087 68.8704 0.0000 0.0000 0.0000
# 4 0.0000 0.0000 0.0000 16.1033 0.0000 0.0000
# 5 0.0000 0.0000 0.0000 0.0000 32.8736 0.0000
# 6 0.0000 0.0000 0.0000 0.0000 0.0000 19.3920
#
#
#
# Elastic Compliance Matrix: (Units=1/GPa)
#
#
# Indices 1 2 3 4 5 6 
#
# 1 0.015802 -0.002336 -0.005250 0.000000 0.000000 0.000000
# 2 -0.002336 0.040381 0.012233 0.000000 0.000000 0.000000
# 3 -0.005250 0.012233 0.019543 0.000000 0.000000 0.000000
# 4 0.000000 0.000000 0.000000 0.062099 0.000000 0.000000
# 5 0.000000 0.000000 0.000000 0.000000 0.030420 0.000000
# 6 0.000000 0.000000 0.000000 0.000000 0.000000 0.051568
#
#
# Mechanical properties :
#
#
# Convention : Reuss Voigt Hill
#
# Bulk Modulus (GPa) = 11.76184 18.39746 15.07965
# Shear Modulus (GPa) = 20.93285 25.06492 22.99888
#
# Velocity S-wave (km/s) = 3.37639 3.69464 3.53909
# Velocity P-wave (km/s) = 4.64818 5.31222 4.99126
#
# Compressibility (1/GPa) = 0.08502069
#
# Stress axis : x y z
#
# Youngs Moduli (GPa) = 63.28117 24.76390 51.16954
#
# Poissons Ratio (x) = 0.05786 0.26864
# Poissons Ratio (y) = 0.14785 -0.62597
# Poissons Ratio (z) = 0.33222 -0.30295
#
# Static dielectric constant tensor:
#      x y z
#    x 1.623170 0.000000 0.000000 
#    y 0.000000 1.633210 0.000000 
#    z 0.000000 0.000000 1.620550 
# 
# From -- ./inp_files/27400.got.cif
#   From: 2010.05.17/outbox.cif.g08.bks.cpg/sg51_14_cif.got.tgz:27400.got - 2010.06.03 11:52:47.
