data_PCOD9399191
_publ_section_title
;
Structure prediction by ZEFSAII (Michael W. Deem and Ramdas Pophale) SiO2 
 PCOD9399191
Probable space group: P M M A
;
_chemical_formula_sum "Si O2"
_cell_formula_units_Z 44
_cell_length_a 7.520232
_cell_length_b 18.395676
_cell_length_c 14.975694
_cell_angle_alpha 90.000000
_cell_angle_beta 90.000000
_cell_angle_gamma 90.000000
_cell_volume 2071.733784
_symmetry_space_group_name_H-M "P M M A"
_symmetry_group_IT_number 51
_symmetry_cell_setting 'orthorhombic'
loop_
_space_group_symop_operation_xyz
x,y,z
1/2-x,-y,z
1/2+x,-y,-z
-x,y,-z
-x,-y,-z
1/2+x,y,-z
1/2-x,y,z
x,-y,z
loop_
_atom_site_type_symbol
_atom_site_label
_atom_site_fract_x
_atom_site_fract_y
_atom_site_fract_z
Si Si1 0.532794 0.416347 0.208352
Si Si2 0.462536 0.000000 0.894916
Si Si3 0.462215 0.416802 0.595333
Si Si4 0.462933 0.719974 0.896878
Si Si5 0.462705 0.916565 0.599385
Si Si6 0.968146 0.858102 0.213668
O O1 0.750000 0.418196 0.206209
O O2 0.474879 0.500000 0.196375
O O3 0.479059 0.389119 0.307856
O O4 0.470580 0.358592 0.135693
O O5 0.526253 0.927470 0.845042
O O6 0.250000 0.000000 0.884445
O O7 0.500000 0.000000 0.000000
O O8 0.500000 0.380322 0.500000
O O9 0.250000 0.420703 0.600362
O O10 0.532465 0.500000 0.590520
O O11 0.250000 0.718648 0.886818
O O12 0.529438 0.784494 0.833423
O O13 0.500000 0.734578 0.000000
O O14 0.500000 0.888240 0.500000
O O15 0.250000 0.920780 0.607682
O O16 0.525889 0.870747 0.684232
O O17 0.531124 0.000000 0.604747
O O18 0.750000 0.856984 0.213054
#
# Coordination Sequence:
#
# PCOD9399191 Si02
#       6
#     8   4   8   8   8   8
#     4   8  15  29  48  68  91 122 158 192 231 285
#     4  10  18  30  47  68  92 120 155 192 227 268
#     4   8  13  23  41  64  88 114 144 178 218 266
#     4  10  20  34  51  69  91 122 158 196 239 283
#     4   9  16  29  49  71  95 125 158 190 225 271
#     4   9  17  31  50  69  93 126 157 185 227 283
#
# _framework density 21.238251000000002
#
# number of rings (size 3 to 8) (size 9 to 14) (size 15 to 20)
#    0.000    3.091    0.909    1.636    0.000    0.364 
#    0.000    3.636    0.000    1.091    0.000    0.000 
#    0.000    0.000    0.000    0.000    0.000    0.000 
#
# Total GULP energy -245274.814538 kJ/mol
# GULP energy per Si atom -5574.427603 kJ/mol
# Density = 2.118991 g / cm^3
# Si number density = 21.238251 Si / 1000 Ang^3
#
#
#
# Elastic Constant Matrix: (Units=GPa)
#
#
# Indices 1 2 3 4 5 6 
#
# 1 50.9213 7.1208 -1.7238 0.0000 0.0000 0.0000
# 2 7.1208 114.6635 89.1977 0.0000 0.0000 0.0000
# 3 -1.7238 89.1977 199.0028 0.0000 0.0000 0.0000
# 4 0.0000 0.0000 0.0000 33.6534 0.0000 0.0000
# 5 0.0000 0.0000 0.0000 0.0000 23.9247 0.0000
# 6 0.0000 0.0000 0.0000 0.0000 0.0000 -5.4812
#
#
#
# Elastic Compliance Matrix: (Units=1/GPa)
#
#
# Indices 1 2 3 4 5 6 
#
# 1 0.019971 -0.002111 0.001119 0.000000 0.000000 0.000000
# 2 -0.002111 0.013613 -0.006120 0.000000 0.000000 0.000000
# 3 0.001119 -0.006120 0.007778 0.000000 0.000000 0.000000
# 4 0.000000 0.000000 0.000000 0.029715 0.000000 0.000000
# 5 0.000000 0.000000 0.000000 0.000000 0.041798 0.000000
# 6 0.000000 0.000000 0.000000 0.000000 0.000000 -0.182443
#
#
# Mechanical properties :
#
#
# Convention : Reuss Voigt Hill
#
# Bulk Modulus (GPa) = 36.84767 61.53078 49.18922
# Shear Modulus (GPa) = -107.99465 28.41893 -39.78786
#
# Velocity S-wave (km/s) = -7.13859 3.66197 -4.33298
# Velocity P-wave (km/s) = 7.11046 6.84943 1.34982
#
# Compressibility (1/GPa) = 0.02713876
#
# Stress axis : x y z
#
# Youngs Moduli (GPa) = 50.07213 73.45912 128.57012
#
# Poissons Ratio (x) = 0.15506 -0.14388
# Poissons Ratio (y) = 0.10569 0.78684
# Poissons Ratio (z) = -0.05604 0.44957
#
# Static dielectric constant tensor:
#      x y z
#    x 1.884920 0.000000 0.000000 
#    y 0.000000 1.751650 0.000000 
#    z 0.000000 0.000000 1.781680 
# 
# From -- ./inp_files/20893.got.cif
#   From: 2010.05.17/outbox.cif.g08.bks.cpg/sg51_11_cif.got.tgz:20893.got - 2010.06.03 11:52:47.
