data_PCOD9399411
_publ_section_title
;
Structure prediction by ZEFSAII (Michael W. Deem and Ramdas Pophale) SiO2 
 PCOD9399411
Probable space group: P M M A
;
_chemical_formula_sum "Si O2"
_cell_formula_units_Z 44
_cell_length_a 8.753545
_cell_length_b 29.978702
_cell_length_c 9.226280
_cell_angle_alpha 90.000000
_cell_angle_beta 90.000000
_cell_angle_gamma 90.000000
_cell_volume 2421.159632
_symmetry_space_group_name_H-M "P M M A"
_symmetry_group_IT_number 51
_symmetry_cell_setting 'orthorhombic'
loop_
_space_group_symop_operation_xyz
x,y,z
1/2-x,-y,z
1/2+x,-y,-z
-x,y,-z
-x,-y,-z
1/2+x,y,-z
1/2-x,y,z
x,-y,z
loop_
_atom_site_type_symbol
_atom_site_label
_atom_site_fract_x
_atom_site_fract_y
_atom_site_fract_z
Si Si1 0.932704 0.000000 0.836072
Si Si2 0.933126 0.737164 0.837629
Si Si3 0.932832 0.451283 0.163780
Si Si4 0.567470 0.638456 0.836845
Si Si5 0.432722 0.180653 0.659947
Si Si6 0.066873 0.091590 0.838172
O O1 0.995564 0.046275 0.772556
O O2 0.750000 0.000000 0.840005
O O3 0.000000 0.000000 0.000000
O O4 0.750000 0.740739 0.845667
O O5 0.970132 0.687549 0.776348
O O6 0.000284 0.776706 0.742677
O O7 0.000000 0.740369 0.000000
O O8 0.750000 0.447712 0.155242
O O9 0.971313 0.500000 0.228999
O O10 0.999198 0.406260 0.233737
O O11 0.000000 0.452247 0.000000
O O12 0.750000 0.634088 0.844404
O O13 0.500000 0.639697 0.000000
O O14 0.500000 0.178454 0.500000
O O15 0.250000 0.184346 0.654662
O O16 0.470894 0.135376 0.746479
O O17 0.250000 0.086659 0.847389
O O18 0.000000 0.097130 0.000000
#
# Coordination Sequence:
#
# PCOD9399411 Si02
#       6
#     4   8   8   8   8   8
#     4  10  18  30  53  82 109 138 170 208 250 292
#     4  10  20  34  53  76 102 132 171 215 258 306
#     4   9  15  21  31  50  79 116 154 192 237 290
#     4   9  16  25  39  60  86 119 157 199 244 291
#     4  11  24  39  56  77 104 138 173 213 261 309
#     4  10  20  35  56  82 109 138 172 210 251 297
#
# _framework density 18.173110999999999
#
# number of rings (size 3 to 8) (size 9 to 14) (size 15 to 20)
#    0.000    2.182    0.000    6.273    0.000    7.636 
#    0.000    0.455    0.000    0.000    0.000    0.000 
#    0.000    0.727    0.000    2.364    0.000   10.182 
#
# Total GULP energy -245306.339458 kJ/mol
# GULP energy per Si atom -5575.144079 kJ/mol
# Density = 1.813175 g / cm^3
# Si number density = 18.173111 Si / 1000 Ang^3
#
#
#
# Elastic Constant Matrix: (Units=GPa)
#
#
# Indices 1 2 3 4 5 6 
#
# 1 85.5800 89.6287 26.5098 0.0000 0.0000 0.0000
# 2 89.6287 241.0491 61.8603 0.0000 0.0000 0.0000
# 3 26.5098 61.8603 47.6074 0.0000 0.0000 0.0000
# 4 0.0000 0.0000 0.0000 -5.1698 0.0000 0.0000
# 5 0.0000 0.0000 0.0000 0.0000 18.4293 0.0000
# 6 0.0000 0.0000 0.0000 0.0000 0.0000 37.9426
#
#
#
# Elastic Compliance Matrix: (Units=1/GPa)
#
#
# Indices 1 2 3 4 5 6 
#
# 1 0.019281 -0.006622 -0.002132 0.000000 0.000000 0.000000
# 2 -0.006622 0.008498 -0.007355 0.000000 0.000000 0.000000
# 3 -0.002132 -0.007355 0.031749 0.000000 0.000000 0.000000
# 4 0.000000 0.000000 0.000000 -0.193430 0.000000 0.000000
# 5 0.000000 0.000000 0.000000 0.000000 0.054262 0.000000
# 6 0.000000 0.000000 0.000000 0.000000 0.000000 0.026356
#
#
# Mechanical properties :
#
#
# Convention : Reuss Voigt Hill
#
# Bulk Modulus (GPa) = 36.61599 81.13711 58.87655
# Shear Modulus (GPa) = -417.94022 23.32292 -197.30865
#
# Velocity S-wave (km/s) = -15.18145 3.58631 -10.43108
# Velocity P-wave (km/s) = 16.94432 7.86718 10.61172
#
# Compressibility (1/GPa) = 0.02731047
#
# Stress axis : x y z
#
# Youngs Moduli (GPa) = 51.86564 117.67033 31.49663
#
# Poissons Ratio (x) = 0.77921 0.06714
# Poissons Ratio (y) = 0.34345 0.23166
# Poissons Ratio (z) = 0.11057 0.86549
#
# Static dielectric constant tensor:
#      x y z
#    x 1.606330 0.000000 0.000000 
#    y 0.000000 1.702400 0.000000 
#    z 0.000000 0.000000 1.568060 
# 
# From -- ./inp_files/5790.got.cif
#   From: 2010.05.17/outbox.cif.g08.bks.cpg/sg51_3_cif.got.tgz:5790.got - 2010.06.03 11:52:47.
