data_PCOD9399591
_publ_section_title
;
Structure prediction by ZEFSAII (Michael W. Deem and Ramdas Pophale) SiO2 
 PCOD9399591
Probable space group: P M M A
;
_chemical_formula_sum "Si O2"
_cell_formula_units_Z 32
_cell_length_a 14.056715
_cell_length_b 8.145520
_cell_length_c 11.830629
_cell_angle_alpha 90.000000
_cell_angle_beta 90.000000
_cell_angle_gamma 90.000000
_cell_volume 1354.598185
_symmetry_space_group_name_H-M "P M M A"
_symmetry_group_IT_number 51
_symmetry_cell_setting 'orthorhombic'
loop_
_space_group_symop_operation_xyz
x,y,z
1/2-x,-y,z
1/2+x,-y,-z
-x,y,-z
-x,-y,-z
1/2+x,y,-z
1/2-x,y,z
x,-y,z
loop_
_atom_site_type_symbol
_atom_site_label
_atom_site_fract_x
_atom_site_fract_y
_atom_site_fract_z
Si Si1 0.134014 0.816617 0.063860
Si Si2 0.634894 0.695874 0.186293
Si Si3 0.093761 0.821932 0.576798
Si Si4 0.353259 0.500000 0.449935
Si Si5 0.366889 0.500000 0.204834
O O1 0.250000 0.819255 0.069245
O O2 0.101930 0.667115 0.143171
O O3 0.101311 0.000000 0.094839
O O4 0.109753 0.772689 0.934663
O O5 0.750000 0.717181 0.202192
O O6 0.617377 0.500000 0.185364
O O7 0.584668 0.785492 0.290772
O O8 0.139981 0.659789 0.525491
O O9 0.000000 0.830386 0.500000
O O10 0.141243 0.000000 0.563384
O O11 0.250000 0.500000 0.399219
O O12 0.410245 0.500000 0.332543
O O13 0.250000 0.500000 0.188817
#
# Coordination Sequence:
#
# PCOD9399591 Si02
#       5
#     8   8   8   4   4
#     4   9  16  28  49  77 109 141 174 222 279 328
#     4  10  18  31  56  86 111 138 179 234 286 329
#     4  11  24  40  58  81 113 152 190 231 281 337
#     4  11  23  38  59  85 115 150 187 230 274 329
#     4   9  18  32  49  77 112 143 179 218 267 329
#
# _framework density 23.623239999999999
#
# number of rings (size 3 to 8) (size 9 to 14) (size 15 to 20)
#    0.000    2.000    2.500    1.875    0.000    4.000 
#    0.000    2.500    0.000    3.000    0.000    5.250 
#    0.000    0.000    0.000    0.000    0.000    0.000 
#
# Total GULP energy -178790.253793 kJ/mol
# GULP energy per Si atom -5587.195431 kJ/mol
# Density = 2.356947 g / cm^3
# Si number density = 23.623240 Si / 1000 Ang^3
#
#
#
# Elastic Constant Matrix: (Units=GPa)
#
#
# Indices 1 2 3 4 5 6 
#
# 1 41.2772 15.8212 -10.1163 0.0000 0.0000 0.0000
# 2 15.8212 246.4104 89.3096 0.0000 0.0000 0.0000
# 3 -10.1163 89.3096 153.9228 0.0000 0.0000 0.0000
# 4 0.0000 0.0000 0.0000 16.2477 0.0000 0.0000
# 5 0.0000 0.0000 0.0000 0.0000 22.3600 0.0000
# 6 0.0000 0.0000 0.0000 0.0000 0.0000 13.3271
#
#
#
# Elastic Compliance Matrix: (Units=1/GPa)
#
#
# Indices 1 2 3 4 5 6 
#
# 1 0.026182 -0.002918 0.003414 0.000000 0.000000 0.000000
# 2 -0.002918 0.005464 -0.003362 0.000000 0.000000 0.000000
# 3 0.003414 -0.003362 0.008672 0.000000 0.000000 0.000000
# 4 0.000000 0.000000 0.000000 0.061547 0.000000 0.000000
# 5 0.000000 0.000000 0.000000 0.000000 0.044723 0.000000
# 6 0.000000 0.000000 0.000000 0.000000 0.000000 0.075035
#
#
# Mechanical properties :
#
#
# Convention : Reuss Voigt Hill
#
# Bulk Modulus (GPa) = 28.91447 70.18215 49.54831
# Shear Modulus (GPa) = 20.93058 33.49335 27.21196
#
# Velocity S-wave (km/s) = 2.97983 3.76947 3.39767
# Velocity P-wave (km/s) = 4.90975 6.97988 6.03425
#
# Compressibility (1/GPa) = 0.03458476
#
# Stress axis : x y z
#
# Youngs Moduli (GPa) = 38.19451 183.00595 115.31307
#
# Poissons Ratio (x) = 0.53409 -0.39369
# Poissons Ratio (y) = 0.11147 0.38772
# Poissons Ratio (z) = -0.13040 0.61533
#
# Static dielectric constant tensor:
#      x y z
#    x 1.716430 0.000000 0.000000 
#    y 0.000000 1.848210 0.000000 
#    z 0.000000 0.000000 1.841560 
# 
# From -- ./inp_files/15962.got.cif
#   From: 2010.05.17/outbox.cif.g08.bks.cpg/sg51_8_cif.got.tgz:15962.got - 2010.06.03 11:52:47.
