data_PCOD9399028
_publ_section_title
;
Structure prediction by ZEFSAII (Michael W. Deem and Ramdas Pophale) SiO2 
 PCOD9399028
Probable space group: P M M A
;
_chemical_formula_sum "Si O2"
_cell_formula_units_Z 48
_cell_length_a 16.724093
_cell_length_b 17.129807
_cell_length_c 9.530122
_cell_angle_alpha 90.000000
_cell_angle_beta 90.000000
_cell_angle_gamma 90.000000
_cell_volume 2730.193976
_symmetry_space_group_name_H-M "P M M A"
_symmetry_group_IT_number 51
_symmetry_cell_setting 'orthorhombic'
loop_
_space_group_symop_operation_xyz
x,y,z
1/2-x,-y,z
1/2+x,-y,-z
-x,y,-z
-x,-y,-z
1/2+x,y,-z
1/2-x,y,z
x,-y,z
loop_
_atom_site_type_symbol
_atom_site_label
_atom_site_fract_x
_atom_site_fract_y
_atom_site_fract_z
Si Si1 0.155733 0.684020 0.706732
Si Si2 0.346484 0.087053 0.801137
Si Si3 0.594509 0.412753 0.527849
Si Si4 0.154794 0.266902 0.293695
Si Si5 0.591221 0.171448 0.461542
Si Si6 0.346618 0.763879 0.981365
O O1 0.250000 0.704224 0.687577
O O2 0.137396 0.606478 0.620562
O O3 0.102711 0.749411 0.629273
O O4 0.137859 0.693883 0.870918
O O5 0.250000 0.089604 0.801534
O O6 0.374140 0.106829 0.643009
O O7 0.372146 0.000000 0.842147
O O8 0.374155 0.155863 0.906379
O O9 0.500000 0.408967 0.500000
O O10 0.615364 0.500000 0.576117
O O11 0.618652 0.344758 0.635999
O O12 0.250000 0.277897 0.289312
O O13 0.136380 0.193534 0.395042
O O14 0.122765 0.251295 0.137329
O O15 0.500000 0.156707 0.500000
O O16 0.250000 0.770148 0.992995
#
# Coordination Sequence:
#
# PCOD9399028 Si02
#       6
#     8   8   8   8   8   8
#     4   9  16  30  50  68  90 124 166 200 229 280
#     4   9  17  32  52  70  93 128 165 199 239 289
#     4  10  20  33  48  70  99 126 155 193 236 282
#     4  10  18  31  52  74  96 122 157 200 240 278
#     4  10  18  29  46  70  98 126 160 196 235 281
#     4   8  16  30  49  73  95 119 157 202 241 280
#
# _framework density 17.58117
#
# number of rings (size 3 to 8) (size 9 to 14) (size 15 to 20)
#    0.000    2.667    0.000    6.000    0.000    1.667 
#    0.000    9.167    0.000    9.000    0.000    0.000 
#    0.000    0.000    0.000    0.000    0.000    0.000 
#
# Total GULP energy -267214.490093 kJ/mol
# GULP energy per Si atom -5566.968544 kJ/mol
# Density = 1.754115 g / cm^3
# Si number density = 17.581170 Si / 1000 Ang^3
#
#
#
# Elastic Constant Matrix: (Units=GPa)
#
#
# Indices 1 2 3 4 5 6 
#
# 1 24.2285 21.2679 18.6330 0.0000 0.0000 0.0000
# 2 21.2679 86.4054 52.6112 0.0000 0.0000 0.0000
# 3 18.6330 52.6112 151.2933 0.0000 0.0000 0.0000
# 4 0.0000 0.0000 0.0000 13.7518 0.0000 0.0000
# 5 0.0000 0.0000 0.0000 0.0000 -18.1354 0.0000
# 6 0.0000 0.0000 0.0000 0.0000 0.0000 25.0204
#
#
#
# Elastic Compliance Matrix: (Units=1/GPa)
#
#
# Indices 1 2 3 4 5 6 
#
# 1 0.053411 -0.011597 -0.002545 0.000000 0.000000 0.000000
# 2 -0.011597 0.017200 -0.004553 0.000000 0.000000 0.000000
# 3 -0.002545 -0.004553 0.008506 0.000000 0.000000 0.000000
# 4 0.000000 0.000000 0.000000 0.072718 0.000000 0.000000
# 5 0.000000 0.000000 0.000000 0.000000 -0.055141 0.000000
# 6 0.000000 0.000000 0.000000 0.000000 0.000000 0.039967
#
#
# Mechanical properties :
#
#
# Convention : Reuss Voigt Hill
#
# Bulk Modulus (GPa) = 23.96511 49.66127 36.81319
# Shear Modulus (GPa) = 26.60125 15.42170 21.01148
#
# Velocity S-wave (km/s) = 3.89402 2.96492 3.46079
# Velocity P-wave (km/s) = 5.82053 6.32686 6.07897
#
# Compressibility (1/GPa) = 0.04172732
#
# Stress axis : x y z
#
# Youngs Moduli (GPa) = 18.72273 58.13942 117.55844
#
# Poissons Ratio (x) = 0.67423 0.29922
# Poissons Ratio (y) = 0.21712 0.53524
# Poissons Ratio (z) = 0.04765 0.26471
#
# Static dielectric constant tensor:
#      x y z
#    x 1.607000 0.000000 0.000000 
#    y 0.000000 1.615870 0.000000 
#    z 0.000000 0.000000 1.626120 
# 
# From -- ./inp_files/8253.got.cif
#   From: 2010.05.17/outbox.cif.g08.bks.cpg/sg51_5_cif.got.tgz:8253.got - 2010.06.03 11:52:47.
