data_PCOD9399260
_publ_section_title
;
Structure prediction by ZEFSAII (Michael W. Deem and Ramdas Pophale) SiO2 
 PCOD9399260
Probable space group: P M M A
;
_chemical_formula_sum "Si O2"
_cell_formula_units_Z 36
_cell_length_a 7.470966
_cell_length_b 16.712615
_cell_length_c 13.854817
_cell_angle_alpha 90.000000
_cell_angle_beta 90.000000
_cell_angle_gamma 90.000000
_cell_volume 1729.903839
_symmetry_space_group_name_H-M "P M M A"
_symmetry_group_IT_number 51
_symmetry_cell_setting 'orthorhombic'
loop_
_space_group_symop_operation_xyz
x,y,z
1/2-x,-y,z
1/2+x,-y,-z
-x,y,-z
-x,-y,-z
1/2+x,y,-z
1/2-x,y,z
x,-y,z
loop_
_atom_site_type_symbol
_atom_site_label
_atom_site_fract_x
_atom_site_fract_y
_atom_site_fract_z
Si Si1 0.968764 0.588352 0.806855
Si Si2 0.963176 0.665765 0.608709
Si Si3 0.964184 0.000000 0.613440
Si Si4 0.030926 0.168256 0.304413
Si Si5 0.036758 0.246540 0.108123
O O1 0.750000 0.587276 0.808888
O O2 0.029937 0.500000 0.835002
O O3 0.025066 0.610213 0.697057
O O4 0.029360 0.662887 0.872123
O O5 0.750000 0.668348 0.618695
O O6 0.027319 0.756588 0.629374
O O7 0.000000 0.639585 0.500000
O O8 0.032846 0.917550 0.659510
O O9 0.000000 0.000000 0.500000
O O10 0.750000 0.000000 0.627518
O O11 0.250000 0.166790 0.306899
O O12 0.973646 0.190675 0.195686
O O13 0.250000 0.249899 0.118926
O O14 0.000000 0.219713 0.000000
#
# Coordination Sequence:
#
# PCOD9399260 Si02
#       5
#     8   8   4   8   8
#     4   8  15  28  44  61  84 115 146 174 211 263
#     4   9  16  27  43  62  85 114 146 176 210 254
#     4  10  18  30  49  70  92 118 147 176 209 250
#     4   8  16  30  46  64  88 118 146 172 210 263
#     4   9  17  31  49  66  85 112 146 180 216 257
#
# _framework density 20.810404999999999
#
# number of rings (size 3 to 8) (size 9 to 14) (size 15 to 20)
#    0.000    3.333    0.000    3.333    0.000    0.889 
#    0.000    6.111    0.000    1.333    0.000    0.000 
#    0.000    0.000    0.000    0.000    0.000    0.000 
#
# Total GULP energy -200751.700070 kJ/mol
# GULP energy per Si atom -5576.436113 kJ/mol
# Density = 2.076304 g / cm^3
# Si number density = 20.810405 Si / 1000 Ang^3
#
#
#
# Elastic Constant Matrix: (Units=GPa)
#
#
# Indices 1 2 3 4 5 6 
#
# 1 55.4301 5.0691 -8.4891 0.0000 0.0000 0.0000
# 2 5.0691 109.3853 22.7537 0.0000 0.0000 0.0000
# 3 -8.4891 22.7537 99.4773 0.0000 0.0000 0.0000
# 4 0.0000 0.0000 0.0000 10.2349 0.0000 0.0000
# 5 0.0000 0.0000 0.0000 0.0000 22.7616 0.0000
# 6 0.0000 0.0000 0.0000 0.0000 0.0000 7.7952
#
#
#
# Elastic Compliance Matrix: (Units=1/GPa)
#
#
# Indices 1 2 3 4 5 6 
#
# 1 0.018439 -0.001241 0.001857 0.000000 0.000000 0.000000
# 2 -0.001241 0.009682 -0.002321 0.000000 0.000000 0.000000
# 3 0.001857 -0.002321 0.010742 0.000000 0.000000 0.000000
# 4 0.000000 0.000000 0.000000 0.097705 0.000000 0.000000
# 5 0.000000 0.000000 0.000000 0.000000 0.043934 0.000000
# 6 0.000000 0.000000 0.000000 0.000000 0.000000 0.128285
#
#
# Mechanical properties :
#
#
# Convention : Reuss Voigt Hill
#
# Bulk Modulus (GPa) = 28.20508 33.66224 30.93366
# Shear Modulus (GPa) = 15.43151 24.48893 19.96022
#
# Velocity S-wave (km/s) = 2.72606 3.43412 3.10037
# Velocity P-wave (km/s) = 4.84678 5.65111 5.26433
#
# Compressibility (1/GPa) = 0.03545461
#
# Stress axis : x y z
#
# Youngs Moduli (GPa) = 54.23390 103.28230 93.09409
#
# Poissons Ratio (x) = 0.12816 -0.17291
# Poissons Ratio (y) = 0.06730 0.21603
# Poissons Ratio (z) = -0.10073 0.23967
#
# Static dielectric constant tensor:
#      x y z
#    x 1.799420 0.000000 0.000000 
#    y 0.000000 1.737200 0.000000 
#    z 0.000000 0.000000 1.735050 
# 
# From -- ./inp_files/15327.got.cif
#   From: 2010.05.17/outbox.cif.g08.bks.cpg/sg51_8_cif.got.tgz:15327.got - 2010.06.03 11:52:47.
