data_PCOD9399772
_publ_section_title
;
Structure prediction by ZEFSAII (Michael W. Deem and Ramdas Pophale) SiO2 
 PCOD9399772
Probable space group: P M M A
;
_chemical_formula_sum "Si O2"
_cell_formula_units_Z 58
_cell_length_a 27.834012
_cell_length_b 7.631490
_cell_length_c 11.805846
_cell_angle_alpha 90.000000
_cell_angle_beta 90.000000
_cell_angle_gamma 90.000000
_cell_volume 2507.738592
_symmetry_space_group_name_H-M "P M M A"
_symmetry_group_IT_number 51
_symmetry_cell_setting 'orthorhombic'
loop_
_space_group_symop_operation_xyz
x,y,z
1/2-x,-y,z
1/2+x,-y,-z
-x,y,-z
-x,-y,-z
1/2+x,y,-z
1/2-x,y,z
x,-y,z
loop_
_atom_site_type_symbol
_atom_site_label
_atom_site_fract_x
_atom_site_fract_y
_atom_site_fract_z
Si Si1 0.395079 0.793451 0.480511
Si Si2 0.173535 0.702399 0.308448
Si Si3 0.135895 0.796588 0.820225
Si Si4 0.132664 0.289222 0.078127
Si Si5 0.042585 0.697300 0.686699
Si Si6 0.024776 0.714861 0.119321
Si Si7 0.197604 0.212979 0.621446
Si Si8 0.250000 0.000000 0.370704
O O1 0.380918 0.710344 0.360510
O O2 0.440105 0.764233 0.563830
O O3 0.348763 0.726999 0.552600
O O4 0.392552 0.000000 0.464521
O O5 0.189527 0.500000 0.317787
O O6 0.169602 0.756217 0.176854
O O7 0.208062 0.844693 0.365493
O O8 0.089605 0.699769 0.768839
O O9 0.183216 0.746874 0.750348
O O10 0.126070 0.000000 0.792611
O O11 0.142910 0.774588 0.952395
O O12 0.131132 0.500000 0.073693
O O13 0.079561 0.227759 0.111610
O O14 0.026986 0.500000 0.664641
O O15 0.002224 0.780998 0.767638
O O16 0.022647 0.500000 0.122116
O O17 0.000000 0.766459 0.000000
O O18 0.250000 0.282115 0.592460
O O19 0.200116 0.000000 0.608514
#
# Coordination Sequence:
#
# PCOD9399772 Si02
#       8
#     8   8   8   8   8   8   8   2
#     4  10  20  36  61  86 124 159 200 260 319 372
#     4  11  25  44  68  96 123 164 213 260 320 375
#     4  10  19  31  51  80 117 156 195 249 317 374
#     4  10  21  39  60  84 120 159 207 262 308 374
#     4  10  18  32  57  87 120 160 207 256 311 369
#     4   9  16  31  58  88 118 162 213 256 305 367
#     4   8  16  30  50  77 106 145 192 240 304 375
#     4  12  26  48  72  90 122 164 212 272 304 370
#
# _framework density 23.128406999999999
#
# number of rings (size 3 to 8) (size 9 to 14) (size 15 to 20)
#    0.000    2.207    2.069    2.276    1.931    0.000 
#    1.241    2.759    0.000   12.000    0.000    0.000 
#    0.000    0.000    0.000    0.000    0.000    0.000 
#
# Total GULP energy -323200.122144 kJ/mol
# GULP energy per Si atom -5572.415899 kJ/mol
# Density = 2.307577 g / cm^3
# Si number density = 23.128407 Si / 1000 Ang^3
#
#
#
# Elastic Constant Matrix: (Units=GPa)
#
#
# Indices 1 2 3 4 5 6 
#
# 1 39.3269 8.6120 0.3854 0.0000 0.0000 0.0000
# 2 8.6120 75.1857 2.8295 0.0000 0.0000 0.0000
# 3 0.3854 2.8295 73.1374 0.0000 0.0000 0.0000
# 4 0.0000 0.0000 0.0000 24.9128 0.0000 0.0000
# 5 0.0000 0.0000 0.0000 0.0000 10.5483 0.0000
# 6 0.0000 0.0000 0.0000 0.0000 0.0000 1.9741
#
#
#
# Elastic Compliance Matrix: (Units=1/GPa)
#
#
# Indices 1 2 3 4 5 6 
#
# 1 0.026082 -0.002987 -0.000022 0.000000 0.000000 0.000000
# 2 -0.002987 0.013662 -0.000513 0.000000 0.000000 0.000000
# 3 -0.000022 -0.000513 0.013693 0.000000 0.000000 0.000000
# 4 0.000000 0.000000 0.000000 0.040140 0.000000 0.000000
# 5 0.000000 0.000000 0.000000 0.000000 0.094802 0.000000
# 6 0.000000 0.000000 0.000000 0.000000 0.000000 0.506568
#
#
# Mechanical properties :
#
#
# Convention : Reuss Voigt Hill
#
# Bulk Modulus (GPa) = 21.55450 23.47819 22.51635
# Shear Modulus (GPa) = 6.96909 19.20858 13.08883
#
# Velocity S-wave (km/s) = 1.73774 2.88500 2.38149
# Velocity P-wave (km/s) = 3.65596 4.61204 4.16155
#
# Compressibility (1/GPa) = 0.04639402
#
# Stress axis : x y z
#
# Youngs Moduli (GPa) = 38.34040 73.19680 73.03086
#
# Poissons Ratio (x) = 0.21862 0.00160
# Poissons Ratio (y) = 0.11451 0.03745
# Poissons Ratio (z) = 0.00084 0.03754
#
# Static dielectric constant tensor:
#      x y z
#    x 1.881900 0.000000 0.000000 
#    y 0.000000 1.879750 0.000000 
#    z 0.000000 0.000000 1.940840 
# 
# From -- ./inp_files/19410.got.cif
#   From: 2010.05.17/outbox.cif.g08.bks.cpg/sg51_10_cif.got.tgz:19410.got - 2010.06.03 11:52:47.
