data_PCOD9399469
_publ_section_title
;
Structure prediction by ZEFSAII (Michael W. Deem and Ramdas Pophale) SiO2 
 PCOD9399469
Probable space group: P M M A
;
_chemical_formula_sum "Si O2"
_cell_formula_units_Z 64
_cell_length_a 29.306799
_cell_length_b 8.978108
_cell_length_c 15.914379
_cell_angle_alpha 90.000000
_cell_angle_beta 90.000000
_cell_angle_gamma 90.000000
_cell_volume 4187.385141
_symmetry_space_group_name_H-M "P M M A"
_symmetry_group_IT_number 51
_symmetry_cell_setting 'orthorhombic'
loop_
_space_group_symop_operation_xyz
x,y,z
1/2-x,-y,z
1/2+x,-y,-z
-x,y,-z
-x,-y,-z
1/2+x,y,-z
1/2-x,y,z
x,-y,z
loop_
_atom_site_type_symbol
_atom_site_label
_atom_site_fract_x
_atom_site_fract_y
_atom_site_fract_z
Si Si1 0.804118 0.822318 0.494331
Si Si2 0.194647 0.171598 0.002655
Si Si3 0.696519 0.677479 0.825050
Si Si4 0.645586 0.820414 0.668771
Si Si5 0.642663 0.322463 0.339219
Si Si6 0.449355 0.819646 0.403331
Si Si7 0.948074 0.180125 0.399646
Si Si8 0.803819 0.820054 0.185213
O O1 0.750000 0.794631 0.493240
O O2 0.825288 0.784550 0.585039
O O3 0.829395 0.735697 0.420356
O O4 0.811551 0.000000 0.481129
O O5 0.250000 0.172240 0.000364
O O6 0.180926 0.222698 0.909347
O O7 0.180293 0.000000 0.014194
O O8 0.180883 0.266511 0.083209
O O9 0.750000 0.721306 0.815165
O O10 0.693961 0.500000 0.821162
O O11 0.667741 0.749120 0.750457
O O12 0.593702 0.769615 0.650899
O O13 0.646026 0.000000 0.677438
O O14 0.642235 0.500000 0.337614
O O15 0.591731 0.257721 0.348323
O O16 0.667269 0.257410 0.257120
O O17 0.500217 0.774124 0.376581
O O18 0.442255 0.780909 0.501431
O O19 0.449343 0.000000 0.401589
O O20 0.944241 0.000000 0.392791
O O21 0.750000 0.783855 0.195222
O O22 0.807554 0.000000 0.191442
#
# Coordination Sequence:
#
# PCOD9399469 Si02
#       8
#     8   8   8   8   8   8   8   8
#     4  10  20  33  48  64  88 127 168 200 230 267
#     4   8  15  30  51  71  89 115 156 202 239 270
#     4  10  20  31  44  67 100 133 159 186 228 280
#     4  10  18  31  50  71  91 118 160 201 235 274
#     4  12  23  31  43  68  99 130 158 189 233 284
#     4   8  15  29  53  74  86 111 156 206 246 275
#     4   9  16  32  53  69  88 117 156 201 242 281
#     4   9  18  33  52  71  92 122 161 201 237 275
#
# _framework density 15.284000000000001
#
# number of rings (size 3 to 8) (size 9 to 14) (size 15 to 20)
#    0.000    2.500    1.250    3.750    0.000    4.250 
#    0.000    3.125    0.000    0.000    0.000    0.875 
#    0.000    7.000    0.000    0.000    0.000    0.000 
#
# Total GULP energy -356795.930999 kJ/mol
# GULP energy per Si atom -5574.936422 kJ/mol
# Density = 1.524921 g / cm^3
# Si number density = 15.284000 Si / 1000 Ang^3
#
#
#
# Elastic Constant Matrix: (Units=GPa)
#
#
# Indices 1 2 3 4 5 6 
#
# 1 108.5596 45.1208 74.1995 0.0000 0.0000 0.0000
# 2 45.1208 38.1207 52.0657 0.0000 0.0000 0.0000
# 3 74.1995 52.0657 134.5585 0.0000 0.0000 0.0000
# 4 0.0000 0.0000 0.0000 -13.1261 0.0000 0.0000
# 5 0.0000 0.0000 0.0000 0.0000 6.2609 0.0000
# 6 0.0000 0.0000 0.0000 0.0000 0.0000 9.2014
#
#
#
# Elastic Compliance Matrix: (Units=1/GPa)
#
#
# Indices 1 2 3 4 5 6 
#
# 1 0.018989 -0.017337 -0.003763 0.000000 0.000000 0.000000
# 2 -0.017337 0.071462 -0.018091 0.000000 0.000000 0.000000
# 3 -0.003763 -0.018091 0.016507 0.000000 0.000000 0.000000
# 4 0.000000 0.000000 0.000000 -0.076184 0.000000 0.000000
# 5 0.000000 0.000000 0.000000 0.000000 0.159722 0.000000
# 6 0.000000 0.000000 0.000000 0.000000 0.000000 0.108679
#
#
# Mechanical properties :
#
#
# Convention : Reuss Voigt Hill
#
# Bulk Modulus (GPa) = 34.99419 69.33455 52.16437
# Shear Modulus (GPa) = 12.91710 7.79074 10.35392
#
# Velocity S-wave (km/s) = 2.91028 2.26017 2.60558
# Velocity P-wave (km/s) = 5.85138 7.23006 6.57695
#
# Compressibility (1/GPa) = 0.02857617
#
# Stress axis : x y z
#
# Youngs Moduli (GPa) = 52.66167 13.99343 60.58043
#
# Poissons Ratio (x) = 0.24260 0.22796
# Poissons Ratio (y) = 0.91297 1.09599
# Poissons Ratio (z) = 0.19817 0.25316
#
# Static dielectric constant tensor:
#      x y z
#    x 1.508790 0.000000 0.000000 
#    y 0.000000 1.504510 0.000000 
#    z 0.000000 0.000000 1.493320 
# 
# From -- ./inp_files/26686.got.cif
#   From: 2010.05.17/outbox.cif.g08.bks.cpg/sg51_14_cif.got.tgz:26686.got - 2010.06.03 11:52:47.
