data_PCOD9399339
_publ_section_title
;
Structure prediction by ZEFSAII (Michael W. Deem and Ramdas Pophale) SiO2 
 PCOD9399339
Probable space group: P M M A
;
_chemical_formula_sum "Si O2"
_cell_formula_units_Z 52
_cell_length_a 8.788899
_cell_length_b 22.046516
_cell_length_c 14.964623
_cell_angle_alpha 90.000000
_cell_angle_beta 90.000000
_cell_angle_gamma 90.000000
_cell_volume 2899.614226
_symmetry_space_group_name_H-M "P M M A"
_symmetry_group_IT_number 51
_symmetry_cell_setting 'orthorhombic'
loop_
_space_group_symop_operation_xyz
x,y,z
1/2-x,-y,z
1/2+x,-y,-z
-x,y,-z
-x,-y,-z
1/2+x,y,-z
1/2-x,y,z
x,-y,z
loop_
_atom_site_type_symbol
_atom_site_label
_atom_site_fract_x
_atom_site_fract_y
_atom_site_fract_z
Si Si1 0.077285 0.324400 0.919869
Si Si2 0.934712 0.872358 0.101491
Si Si3 0.566507 0.000000 0.899761
Si Si4 0.069100 0.698332 0.406476
Si Si5 0.069482 0.431727 0.643271
Si Si6 0.423682 0.432587 0.165145
Si Si7 0.924959 0.767320 0.241076
O O1 0.250000 0.339137 0.942172
O O2 0.076366 0.288225 0.828299
O O3 0.975776 0.382929 0.903872
O O4 0.000000 0.287586 0.000000
O O5 0.750000 0.873180 0.094252
O O6 0.977188 0.822577 0.176910
O O7 0.999552 0.936869 0.135933
O O8 0.000000 0.862179 0.000000
O O9 0.750000 0.000000 0.899421
O O10 0.500000 0.000000 0.000000
O O11 0.250000 0.696529 0.409872
O O12 0.000000 0.720218 0.500000
O O13 0.009327 0.628879 0.393483
O O14 0.016424 0.742550 0.326076
O O15 0.250000 0.427301 0.627877
O O16 0.018956 0.500000 0.612783
O O17 0.032201 0.430132 0.748829
O O18 0.250000 0.421479 0.195467
O O19 0.431016 0.500000 0.127056
O O20 0.750000 0.779786 0.268459
#
# Coordination Sequence:
#
# PCOD9399339 Si02
#       7
#     8   8   4   8   8   8   8
#     4  11  22  35  53  75 104 139 178 223 268 322
#     4  10  19  33  55  84 120 159 195 232 271 317
#     4  10  18  30  50  80 119 158 197 236 270 314
#     4  12  25  40  61  83 109 142 180 229 281 339
#     4  10  20  36  58  81 106 135 171 221 282 344
#     4  10  20  34  52  74  99 131 174 220 270 327
#     4  10  22  39  57  80 111 146 184 227 274 327
#
# _framework density 17.933420999999999
#
# number of rings (size 3 to 8) (size 9 to 14) (size 15 to 20)
#    0.000    1.538    1.538    5.308    0.000    4.308 
#    0.000    0.000    0.000    0.000    0.000    0.538 
#    0.000    0.000    0.000    0.000    0.000    0.000 
#
# Total GULP energy -290005.251802 kJ/mol
# GULP energy per Si atom -5577.024073 kJ/mol
# Density = 1.789260 g / cm^3
# Si number density = 17.933421 Si / 1000 Ang^3
#
#
#
# Elastic Constant Matrix: (Units=GPa)
#
#
# Indices 1 2 3 4 5 6 
#
# 1 98.4842 49.7127 44.5165 0.0000 0.0000 0.0000
# 2 49.7127 114.7675 47.6993 0.0000 0.0000 0.0000
# 3 44.5165 47.6993 96.6932 0.0000 0.0000 0.0000
# 4 0.0000 0.0000 0.0000 15.0927 0.0000 0.0000
# 5 0.0000 0.0000 0.0000 0.0000 27.4308 0.0000
# 6 0.0000 0.0000 0.0000 0.0000 0.0000 37.0772
#
#
#
# Elastic Compliance Matrix: (Units=1/GPa)
#
#
# Indices 1 2 3 4 5 6 
#
# 1 0.014379 -0.004374 -0.004462 0.000000 0.000000 0.000000
# 2 -0.004374 0.012291 -0.004050 0.000000 0.000000 0.000000
# 3 -0.004462 -0.004050 0.014394 0.000000 0.000000 0.000000
# 4 0.000000 0.000000 0.000000 0.066257 0.000000 0.000000
# 5 0.000000 0.000000 0.000000 0.000000 0.036455 0.000000
# 6 0.000000 0.000000 0.000000 0.000000 0.000000 0.026971
#
#
# Mechanical properties :
#
#
# Convention : Reuss Voigt Hill
#
# Bulk Modulus (GPa) = 65.39105 65.97798 65.68452
# Shear Modulus (GPa) = 24.79971 27.12125 25.96048
#
# Velocity S-wave (km/s) = 3.72274 3.89309 3.80887
# Velocity P-wave (km/s) = 7.41760 7.55504 7.48663
#
# Compressibility (1/GPa) = 0.01529261
#
# Stress axis : x y z
#
# Youngs Moduli (GPa) = 69.54763 81.36152 69.47340
#
# Poissons Ratio (x) = 0.35585 0.31000
# Poissons Ratio (y) = 0.30418 0.28134
# Poissons Ratio (z) = 0.31034 0.32948
#
# Static dielectric constant tensor:
#      x y z
#    x 1.606790 0.000000 0.000000 
#    y 0.000000 1.656510 0.000000 
#    z 0.000000 0.000000 1.639730 
# 
# From -- ./inp_files/21600.got.cif
#   From: 2010.05.17/outbox.cif.g08.bks.cpg/sg51_11_cif.got.tgz:21600.got - 2010.06.03 11:52:47.
