data_PCOD9399771
_publ_section_title
;
Structure prediction by ZEFSAII (Michael W. Deem and Ramdas Pophale) SiO2 
 PCOD9399771
Probable space group: P M M A
;
_chemical_formula_sum "Si O2"
_cell_formula_units_Z 64
_cell_length_a 31.957753
_cell_length_b 7.612413
_cell_length_c 12.205957
_cell_angle_alpha 90.000000
_cell_angle_beta 90.000000
_cell_angle_gamma 90.000000
_cell_volume 2969.411688
_symmetry_space_group_name_H-M "P M M A"
_symmetry_group_IT_number 51
_symmetry_cell_setting 'orthorhombic'
loop_
_space_group_symop_operation_xyz
x,y,z
1/2-x,-y,z
1/2+x,-y,-z
-x,y,-z
-x,-y,-z
1/2+x,y,-z
1/2-x,y,z
x,-y,z
loop_
_atom_site_type_symbol
_atom_site_label
_atom_site_fract_x
_atom_site_fract_y
_atom_site_fract_z
Si Si1 0.318627 0.294963 0.510512
Si Si2 0.542517 0.204813 0.720216
Si Si3 0.795620 0.715467 0.728525
Si Si4 0.083895 0.213470 0.502617
Si Si5 0.796650 0.286950 0.247926
Si Si6 0.122237 0.701921 0.147378
Si Si7 0.049591 0.785543 0.739930
Si Si8 0.376805 0.206218 0.897895
O O1 0.306635 0.500000 0.512566
O O2 0.300305 0.223807 0.397258
O O3 0.368599 0.278762 0.502223
O O4 0.304331 0.221993 0.627553
O O5 0.559387 0.278047 0.604754
O O6 0.579722 0.215096 0.807471
O O7 0.497856 0.275480 0.759947
O O8 0.534389 0.000000 0.697249
O O9 0.750000 0.767917 0.771673
O O10 0.796533 0.500000 0.729199
O O11 0.835798 0.776646 0.796752
O O12 0.062347 0.264231 0.616444
O O13 0.085602 0.000000 0.499322
O O14 0.750000 0.234702 0.212119
O O15 0.798198 0.500000 0.249355
O O16 0.834183 0.227619 0.170469
O O17 0.119406 0.500000 0.182842
O O18 0.125789 0.710645 0.017233
O O19 0.084645 0.723139 0.825136
O O20 0.051398 0.000000 0.745077
O O21 0.383892 0.000000 0.916493
#
# Coordination Sequence:
#
# PCOD9399771 Si02
#       8
#     8   8   8   8   8   8   8   8
#     4  10  18  32  57  86 115 145 180 223 275 335
#     4  10  20  36  60  85 112 147 188 231 281 341
#     4   9  18  34  57  82 109 145 184 222 270 330
#     4  10  18  32  57  86 115 145 181 227 281 339
#     4  10  21  37  59  87 117 149 185 226 276 336
#     4  11  23  39  58  82 113 147 190 240 288 335
#     4   9  19  36  58  84 112 148 188 229 279 340
#     4  11  23  40  60  81 110 148 194 240 281 328
#
# _framework density 21.553090000000001
#
# number of rings (size 3 to 8) (size 9 to 14) (size 15 to 20)
#    0.000    2.000    2.500    1.500    0.000    4.250 
#    0.000    5.625    0.000    5.250    0.000    0.000 
#    0.000    0.000    0.000    0.000    0.000    0.000 
#
# Total GULP energy -357512.223302 kJ/mol
# GULP energy per Si atom -5586.128489 kJ/mol
# Density = 2.150403 g / cm^3
# Si number density = 21.553090 Si / 1000 Ang^3
#
#
#
# Elastic Constant Matrix: (Units=GPa)
#
#
# Indices 1 2 3 4 5 6 
#
# 1 179.6170 -11.1700 62.8303 0.0000 0.0000 0.0000
# 2 -11.1700 42.6899 -10.5452 0.0000 0.0000 0.0000
# 3 62.8303 -10.5452 122.8525 0.0000 0.0000 0.0000
# 4 0.0000 0.0000 0.0000 15.1056 0.0000 0.0000
# 5 0.0000 0.0000 0.0000 0.0000 0.2521 0.0000
# 6 0.0000 0.0000 0.0000 0.0000 0.0000 19.3354
#
#
#
# Elastic Compliance Matrix: (Units=1/GPa)
#
#
# Indices 1 2 3 4 5 6 
#
# 1 0.006817 0.000943 -0.003406 0.000000 0.000000 0.000000
# 2 0.000943 0.024063 0.001583 0.000000 0.000000 0.000000
# 3 -0.003406 0.001583 0.010018 0.000000 0.000000 0.000000
# 4 0.000000 0.000000 0.000000 0.066201 0.000000 0.000000
# 5 0.000000 0.000000 0.000000 0.000000 3.967097 0.000000
# 6 0.000000 0.000000 0.000000 0.000000 0.000000 0.051719
#
#
# Mechanical properties :
#
#
# Convention : Reuss Voigt Hill
#
# Bulk Modulus (GPa) = 25.55071 47.48772 36.51922
# Shear Modulus (GPa) = 1.20752 27.20823 14.20787
#
# Velocity S-wave (km/s) = 0.74931 3.55686 2.57028
# Velocity P-wave (km/s) = 3.55375 6.24092 5.07830
#
# Compressibility (1/GPa) = 0.03913785
#
# Stress axis : x y z
#
# Youngs Moduli (GPa) = 146.68519 41.55843 99.82523
#
# Poissons Ratio (x) = -0.03917 0.33997
# Poissons Ratio (y) = -0.13825 -0.15806
# Poissons Ratio (z) = 0.49956 -0.06580
#
# Static dielectric constant tensor:
#      x y z
#    x 1.771850 0.000000 0.000000 
#    y 0.000000 1.840710 0.000000 
#    z 0.000000 0.000000 1.742000 
# 
# From -- ./inp_files/19524.got.cif
#   From: 2010.05.17/outbox.cif.g08.bks.cpg/sg51_10_cif.got.tgz:19524.got - 2010.06.03 11:52:47.
