data_PCOD9399222
_publ_section_title
;
Structure prediction by ZEFSAII (Michael W. Deem and Ramdas Pophale) SiO2 
 PCOD9399222
Probable space group: P M M A
;
_chemical_formula_sum "Si O2"
_cell_formula_units_Z 64
_cell_length_a 9.390854
_cell_length_b 22.524846
_cell_length_c 18.384271
_cell_angle_alpha 90.000000
_cell_angle_beta 90.000000
_cell_angle_gamma 90.000000
_cell_volume 3888.779622
_symmetry_space_group_name_H-M "P M M A"
_symmetry_group_IT_number 51
_symmetry_cell_setting 'orthorhombic'
loop_
_space_group_symop_operation_xyz
x,y,z
1/2-x,-y,z
1/2+x,-y,-z
-x,y,-z
-x,-y,-z
1/2+x,y,-z
1/2-x,y,z
x,-y,z
loop_
_atom_site_type_symbol
_atom_site_label
_atom_site_fract_x
_atom_site_fract_y
_atom_site_fract_z
Si Si1 0.591965 0.431667 0.215273
Si Si2 0.578505 0.312072 0.572310
Si Si3 0.584229 0.432167 0.390673
Si Si4 0.412782 0.329890 0.153359
Si Si5 0.407785 0.754181 0.936686
Si Si6 0.584315 0.234718 0.714834
Si Si7 0.915711 0.928691 0.924437
Si Si8 0.912410 0.148290 0.189419
O O1 0.750000 0.408156 0.196374
O O2 0.583011 0.500000 0.192817
O O3 0.581632 0.430474 0.302795
O O4 0.471533 0.392037 0.180663
O O5 0.500000 0.289477 0.500000
O O6 0.750000 0.314185 0.565204
O O7 0.516405 0.378682 0.584323
O O8 0.543679 0.269404 0.640932
O O9 0.750000 0.422188 0.413017
O O10 0.544654 0.500000 0.412264
O O11 0.250000 0.332495 0.130461
O O12 0.511488 0.303836 0.090703
O O13 0.422730 0.284369 0.221520
O O14 0.250000 0.741636 0.962675
O O15 0.401826 0.798710 0.869409
O O16 0.500000 0.782383 0.000000
O O17 0.750000 0.216274 0.708917
O O18 0.489106 0.179238 0.741484
O O19 0.750000 0.908697 0.929775
O O20 0.993486 0.899587 0.854692
O O21 0.916055 0.000000 0.916166
O O22 0.000000 0.916361 0.000000
O O23 0.750000 0.128229 0.204867
#
# Coordination Sequence:
#
# PCOD9399222 Si02
#       8
#     8   8   8   8   8   8   8   8
#     4   9  17  29  46  67  89 113 144 185 232 283
#     4  11  22  35  50  70  95 128 162 201 251 301
#     4   9  18  32  49  68  91 121 156 196 242 295
#     4  10  18  30  48  68  89 115 148 190 235 282
#     4  10  20  32  46  68  94 122 155 192 236 282
#     4   9  19  34  49  68  95 124 160 202 244 289
#     4  10  20  33  50  74 108 148 183 213 245 282
#     4  10  20  32  51  75  99 132 169 206 245 281
#
# _framework density 16.457605999999998
#
# number of rings (size 3 to 8) (size 9 to 14) (size 15 to 20)
#    0.000    2.250    1.250    3.000    0.000    5.500 
#    0.000    1.250    0.000    0.375    0.000    0.000 
#    0.000    0.500    0.000    1.625    0.000    2.000 
#
# Total GULP energy -356749.652947 kJ/mol
# GULP energy per Si atom -5574.213327 kJ/mol
# Density = 1.642015 g / cm^3
# Si number density = 16.457606 Si / 1000 Ang^3
#
#
#
# Elastic Constant Matrix: (Units=GPa)
#
#
# Indices 1 2 3 4 5 6 
#
# 1 124.7949 47.4891 46.5020 0.0000 0.0000 0.0000
# 2 47.4891 55.6401 30.9901 0.0000 0.0000 0.0000
# 3 46.5020 30.9901 61.5861 0.0000 0.0000 0.0000
# 4 0.0000 0.0000 0.0000 17.8065 0.0000 0.0000
# 5 0.0000 0.0000 0.0000 0.0000 21.5865 0.0000
# 6 0.0000 0.0000 0.0000 0.0000 0.0000 -18.1938
#
#
#
# Elastic Compliance Matrix: (Units=1/GPa)
#
#
# Indices 1 2 3 4 5 6 
#
# 1 0.013299 -0.008000 -0.006016 0.000000 0.000000 0.000000
# 2 -0.008000 0.029784 -0.008947 0.000000 0.000000 0.000000
# 3 -0.006016 -0.008947 0.025282 0.000000 0.000000 0.000000
# 4 0.000000 0.000000 0.000000 0.056159 0.000000 0.000000
# 5 0.000000 0.000000 0.000000 0.000000 0.046325 0.000000
# 6 0.000000 0.000000 0.000000 0.000000 0.000000 -0.054964
#
#
# Mechanical properties :
#
#
# Convention : Reuss Voigt Hill
#
# Bulk Modulus (GPa) = 44.56466 54.66483 49.61474
# Shear Modulus (GPa) = 29.53487 12.04251 20.78869
#
# Velocity S-wave (km/s) = 4.24087 2.70798 3.55796
# Velocity P-wave (km/s) = 7.14963 6.56241 6.86230
#
# Compressibility (1/GPa) = 0.02243930
#
# Stress axis : x y z
#
# Youngs Moduli (GPa) = 75.19176 33.57535 39.55369
#
# Poissons Ratio (x) = 0.26861 0.23797
# Poissons Ratio (y) = 0.60154 0.35387
# Poissons Ratio (z) = 0.45238 0.30038
#
# Static dielectric constant tensor:
#      x y z
#    x 1.580850 0.000000 0.000000 
#    y 0.000000 1.543900 0.000000 
#    z 0.000000 0.000000 1.569280 
# 
# From -- ./inp_files/28321.got.cif
#   From: 2010.05.17/outbox.cif.g08.bks.cpg/sg51_15_cif.got.tgz:28321.got - 2010.06.03 11:52:47.
