data_PCOD9399765
_publ_section_title
;
Structure prediction by ZEFSAII (Michael W. Deem and Ramdas Pophale) SiO2 
 PCOD9399765
Probable space group: P M M A
;
_chemical_formula_sum "Si O2"
_cell_formula_units_Z 56
_cell_length_a 18.899848
_cell_length_b 7.563190
_cell_length_c 16.988767
_cell_angle_alpha 90.000000
_cell_angle_beta 90.000000
_cell_angle_gamma 90.000000
_cell_volume 2428.427723
_symmetry_space_group_name_H-M "P M M A"
_symmetry_group_IT_number 51
_symmetry_cell_setting 'orthorhombic'
loop_
_space_group_symop_operation_xyz
x,y,z
1/2-x,-y,z
1/2+x,-y,-z
-x,y,-z
-x,-y,-z
1/2+x,y,-z
1/2-x,y,z
x,-y,z
loop_
_atom_site_type_symbol
_atom_site_label
_atom_site_fract_x
_atom_site_fract_y
_atom_site_fract_z
Si Si1 0.582346 0.216852 0.499507
Si Si2 0.394938 0.199770 0.331166
Si Si3 0.829787 0.216208 0.000249
Si Si4 0.330876 0.787823 0.654352
Si Si5 0.164913 0.793843 0.172185
Si Si6 0.532932 0.299451 0.258821
Si Si7 0.535261 0.786897 0.082193
O O1 0.500000 0.271630 0.500000
O O2 0.615004 0.277323 0.582702
O O3 0.628202 0.274574 0.424590
O O4 0.582264 0.000000 0.499899
O O5 0.362635 0.287225 0.253113
O O6 0.478819 0.191129 0.312762
O O7 0.365419 0.000000 0.334410
O O8 0.750000 0.275129 0.012966
O O9 0.855240 0.278035 0.913693
O O10 0.829277 0.000000 0.996083
O O11 0.883229 0.264707 0.068352
O O12 0.250000 0.722098 0.661925
O O13 0.385638 0.747728 0.724775
O O14 0.326667 0.000000 0.649075
O O15 0.250000 0.792268 0.172900
O O16 0.140898 0.000000 0.172086
O O17 0.522098 0.500000 0.282571
O O18 0.512438 0.277397 0.167456
O O19 0.528358 0.000000 0.084512
O O20 0.500000 0.729166 0.000000
#
# Coordination Sequence:
#
# PCOD9399765 Si02
#       7
#     8   8   8   8   8   8   8
#     4   9  16  30  55  84 111 138 176 232 285 329
#     4  10  18  32  57  82 111 147 186 226 276 341
#     4   8  14  26  45  71 102 131 163 209 265 323
#     4  10  21  39  62  86 113 149 194 240 289 346
#     4   8  14  25  46  80 113 136 166 217 275 326
#     4  12  25  38  54  79 114 152 190 235 286 339
#     4  10  20  35  57  82 106 138 187 236 282 336
#
# _framework density 23.060189000000001
#
# number of rings (size 3 to 8) (size 9 to 14) (size 15 to 20)
#    0.000    2.429    1.429    3.000    0.000    4.000 
#    0.000    5.714    0.000    0.429    0.000    2.000 
#    0.000    0.000    0.000    0.000    0.000    0.000 
#
# Total GULP energy -312579.084347 kJ/mol
# GULP energy per Si atom -5581.769363 kJ/mol
# Density = 2.300770 g / cm^3
# Si number density = 23.060189 Si / 1000 Ang^3
#
#
#
# Elastic Constant Matrix: (Units=GPa)
#
#
# Indices 1 2 3 4 5 6 
#
# 1 65.0889 -1.9428 15.8709 0.0000 0.0000 0.0000
# 2 -1.9428 62.3761 -1.0208 0.0000 0.0000 0.0000
# 3 15.8709 -1.0208 104.5051 0.0000 0.0000 0.0000
# 4 0.0000 0.0000 0.0000 856.2025 0.0000 0.0000
# 5 0.0000 0.0000 0.0000 0.0000 38.3792 0.0000
# 6 0.0000 0.0000 0.0000 0.0000 0.0000 -11.6901
#
#
#
# Elastic Compliance Matrix: (Units=1/GPa)
#
#
# Indices 1 2 3 4 5 6 
#
# 1 0.015967 0.000458 -0.002420 0.000000 0.000000 0.000000
# 2 0.000458 0.016047 0.000087 0.000000 0.000000 0.000000
# 3 -0.002420 0.000087 0.009937 0.000000 0.000000 0.000000
# 4 0.000000 0.000000 0.000000 0.001168 0.000000 0.000000
# 5 0.000000 0.000000 0.000000 0.000000 0.026056 0.000000
# 6 0.000000 0.000000 0.000000 0.000000 0.000000 -0.085542
#
#
# Mechanical properties :
#
#
# Convention : Reuss Voigt Hill
#
# Bulk Modulus (GPa) = 26.17713 28.64272 27.40993
# Shear Modulus (GPa) = 42252.51932 191.18250 21221.85091
#
# Velocity S-wave (km/s) = 135.50826 9.11514 96.03534
# Velocity P-wave (km/s) = 156.50781 11.10085 110.94576
#
# Compressibility (1/GPa) = 0.03820128
#
# Stress axis : x y z
#
# Youngs Moduli (GPa) = 62.62738 62.31516 100.63042
#
# Poissons Ratio (x) = -0.02852 0.24357
# Poissons Ratio (y) = -0.02867 -0.00878
# Poissons Ratio (z) = 0.15159 -0.00544
#
# Static dielectric constant tensor:
#      x y z
#    x 1.886730 0.000000 0.000000 
#    y 0.000000 1.934080 0.000000 
#    z 0.000000 0.000000 1.850370 
# 
# From -- ./inp_files/25737.got.cif
#   From: 2010.05.17/outbox.cif.g08.bks.cpg/sg51_13_cif.got.tgz:25737.got - 2010.06.03 11:52:47.
