data_PCOD9399348
_publ_section_title
;
Structure prediction by ZEFSAII (Michael W. Deem and Ramdas Pophale) SiO2 
 PCOD9399348
Probable space group: P M M A
;
_chemical_formula_sum "Si O2"
_cell_formula_units_Z 64
_cell_length_a 19.994433
_cell_length_b 9.987993
_cell_length_c 19.112719
_cell_angle_alpha 90.000000
_cell_angle_beta 90.000000
_cell_angle_gamma 90.000000
_cell_volume 3816.891344
_symmetry_space_group_name_H-M "P M M A"
_symmetry_group_IT_number 51
_symmetry_cell_setting 'orthorhombic'
loop_
_space_group_symop_operation_xyz
x,y,z
1/2-x,-y,z
1/2+x,-y,-z
-x,y,-z
-x,-y,-z
1/2+x,y,-z
1/2-x,y,z
x,-y,z
loop_
_atom_site_type_symbol
_atom_site_label
_atom_site_fract_x
_atom_site_fract_y
_atom_site_fract_z
Si Si1 0.172795 0.658055 0.483730
Si Si2 0.377983 0.653456 0.328546
Si Si3 0.825007 0.653811 0.820889
Si Si4 0.502676 0.157779 0.297952
Si Si5 0.563834 0.155880 0.450301
Si Si6 0.556831 0.838165 0.146579
Si Si7 0.672516 0.162669 0.049183
Si Si8 0.585158 0.839242 0.911679
O O1 0.250000 0.687799 0.497812
O O2 0.161424 0.500000 0.496228
O O3 0.156660 0.683400 0.402028
O O4 0.123501 0.747969 0.528501
O O5 0.403638 0.500000 0.332218
O O6 0.328474 0.659321 0.262920
O O7 0.437457 0.754580 0.312102
O O8 0.750000 0.684359 0.845335
O O9 0.841367 0.500000 0.841059
O O10 0.876932 0.758541 0.851504
O O11 0.545745 0.169881 0.368704
O O12 0.538769 0.201836 0.225979
O O13 0.485460 0.000000 0.289784
O O14 0.500000 0.187883 0.500000
O O15 0.580256 0.000000 0.463821
O O16 0.627451 0.790796 0.115040
O O17 0.493551 0.805097 0.096097
O O18 0.560477 0.000000 0.146995
O O19 0.750000 0.209700 0.046101
O O20 0.675836 0.000000 0.051250
O O21 0.626237 0.195214 0.981913
O O22 0.590049 0.000000 0.902513
#
# Coordination Sequence:
#
# PCOD9399348 Si02
#       8
#     8   8   8   8   8   8   8   8
#     4  10  21  36  54  77 104 135 174 215 255 306
#     4  10  19  32  51  73 101 135 170 206 249 301
#     4  10  20  32  46  69 105 141 167 197 245 302
#     4  10  19  33  52  76 102 132 171 211 252 304
#     4  10  20  34  53  76 106 137 169 211 259 308
#     4   9  17  30  49  72 101 133 166 208 254 296
#     4   9  17  29  47  74 103 130 166 212 257 299
#     4  10  18  30  51  76 100 128 166 209 252 300
#
# _framework density 16.767572000000001
#
# number of rings (size 3 to 8) (size 9 to 14) (size 15 to 20)
#    0.000    2.250    2.500    1.125    0.000    4.750 
#    0.000    0.625    0.000    6.750    0.000    0.000 
#    0.000    0.000    0.000    0.000    0.000    0.000 
#
# Total GULP energy -356553.082301 kJ/mol
# GULP energy per Si atom -5571.141911 kJ/mol
# Density = 1.672941 g / cm^3
# Si number density = 16.767572 Si / 1000 Ang^3
#
#
#
# Elastic Constant Matrix: (Units=GPa)
#
#
# Indices 1 2 3 4 5 6 
#
# 1 125.8521 46.0817 57.7317 0.0000 0.0000 0.0000
# 2 46.0817 28.3591 28.2559 0.0000 0.0000 0.0000
# 3 57.7317 28.2559 72.9443 0.0000 0.0000 0.0000
# 4 0.0000 0.0000 0.0000 13.5049 0.0000 0.0000
# 5 0.0000 0.0000 0.0000 0.0000 20.5585 0.0000
# 6 0.0000 0.0000 0.0000 0.0000 0.0000 22.6448
#
#
#
# Elastic Compliance Matrix: (Units=1/GPa)
#
#
# Indices 1 2 3 4 5 6 
#
# 1 0.020897 -0.028462 -0.005513 0.000000 0.000000 0.000000
# 2 -0.028462 0.096193 -0.014735 0.000000 0.000000 0.000000
# 3 -0.005513 -0.014735 0.023780 0.000000 0.000000 0.000000
# 4 0.000000 0.000000 0.000000 0.074047 0.000000 0.000000
# 5 0.000000 0.000000 0.000000 0.000000 0.048642 0.000000
# 6 0.000000 0.000000 0.000000 0.000000 0.000000 0.044160
#
#
# Mechanical properties :
#
#
# Convention : Reuss Voigt Hill
#
# Bulk Modulus (GPa) = 23.01580 54.58824 38.80202
# Shear Modulus (GPa) = 11.91543 17.68072 14.79808
#
# Velocity S-wave (km/s) = 2.66864 3.25077 2.97398
# Velocity P-wave (km/s) = 4.82200 6.83495 5.91474
#
# Compressibility (1/GPa) = 0.04344841
#
# Stress axis : x y z
#
# Youngs Moduli (GPa) = 47.85445 10.39577 42.05131
#
# Poissons Ratio (x) = 0.29589 0.23184
# Poissons Ratio (y) = 1.36205 0.61963
# Poissons Ratio (z) = 0.26384 0.15318
#
# Static dielectric constant tensor:
#      x y z
#    x 1.558970 0.000000 0.000000 
#    y 0.000000 1.544200 0.000000 
#    z 0.000000 0.000000 1.588920 
# 
# From -- ./inp_files/30595.got.cif
#   From: 2010.05.17/outbox.cif.g08.bks.cpg/sg51_16_cif.got.tgz:30595.got - 2010.06.03 11:52:47.
