data_PCOD9399515
_publ_section_title
;
Structure prediction by ZEFSAII (Michael W. Deem and Ramdas Pophale) SiO2 
 PCOD9399515
Probable space group: P M M A
;
_chemical_formula_sum "Si O2"
_cell_formula_units_Z 64
_cell_length_a 22.238948
_cell_length_b 8.842124
_cell_length_c 19.680372
_cell_angle_alpha 90.000000
_cell_angle_beta 90.000000
_cell_angle_gamma 90.000000
_cell_volume 3869.939215
_symmetry_space_group_name_H-M "P M M A"
_symmetry_group_IT_number 51
_symmetry_cell_setting 'orthorhombic'
loop_
_space_group_symop_operation_xyz
x,y,z
1/2-x,-y,z
1/2+x,-y,-z
-x,y,-z
-x,-y,-z
1/2+x,y,-z
1/2-x,y,z
x,-y,z
loop_
_atom_site_type_symbol
_atom_site_label
_atom_site_fract_x
_atom_site_fract_y
_atom_site_fract_z
Si Si1 0.432527 0.826629 0.467962
Si Si2 0.317584 0.817261 0.967277
Si Si3 0.439740 0.816366 0.041174
Si Si4 0.126604 0.321799 0.836906
Si Si5 0.179569 0.829420 0.707839
Si Si6 0.113290 0.677978 0.596529
Si Si7 0.003262 0.818113 0.178523
Si Si8 0.005800 0.817354 0.335248
O O1 0.500000 0.825576 0.500000
O O2 0.394726 0.722592 0.518014
O O3 0.441916 0.780870 0.389672
O O4 0.411079 0.000000 0.471529
O O5 0.250000 0.770105 0.988946
O O6 0.330835 0.759062 0.891517
O O7 0.318419 0.000000 0.967262
O O8 0.375842 0.764466 0.010676
O O9 0.449113 0.776532 0.120236
O O10 0.439365 0.000000 0.036183
O O11 0.500000 0.766523 0.000000
O O12 0.127205 0.500000 0.847709
O O13 0.148529 0.279206 0.761878
O O14 0.059601 0.256279 0.842670
O O15 0.250000 0.831902 0.721183
O O16 0.166139 0.768847 0.633014
O O17 0.155133 0.000000 0.715961
O O18 0.120035 0.500000 0.604493
O O19 0.053740 0.734987 0.637068
O O20 0.017510 0.778356 0.256746
O O21 0.995742 0.000000 0.176192
O O22 0.996562 0.000000 0.340038
#
# Coordination Sequence:
#
# PCOD9399515 Si02
#       8
#     8   8   8   8   8   8   8   8
#     4   8  15  28  44  64  90 122 160 194 228 277
#     4  10  20  35  54  73  95 129 170 209 250 298
#     4   9  16  29  51  76  97 124 168 212 248 294
#     4  12  23  33  48  72 101 130 164 206 249 294
#     4  11  23  37  51  66  90 130 173 206 241 293
#     4  11  20  29  45  69  96 125 156 199 248 288
#     4  10  18  31  52  72  98 134 169 203 248 299
#     4   9  17  29  47  68  92 127 165 198 235 288
#
# _framework density 16.537727
#
# number of rings (size 3 to 8) (size 9 to 14) (size 15 to 20)
#    0.000    2.000    2.500    3.750    0.000    5.000 
#    0.000    1.250    0.000    0.000    0.000    0.875 
#    0.000    5.000    0.000    0.000    0.000    0.000 
#
# Total GULP energy -356769.616904 kJ/mol
# GULP energy per Si atom -5574.525264 kJ/mol
# Density = 1.650009 g / cm^3
# Si number density = 16.537727 Si / 1000 Ang^3
#
#
#
# Elastic Constant Matrix: (Units=GPa)
#
#
# Indices 1 2 3 4 5 6 
#
# 1 71.4634 9.4695 38.9954 0.0000 0.0000 0.0000
# 2 9.4695 19.3064 11.2300 0.0000 0.0000 0.0000
# 3 38.9954 11.2300 91.3032 0.0000 0.0000 0.0000
# 4 0.0000 0.0000 0.0000 -8.1223 0.0000 0.0000
# 5 0.0000 0.0000 0.0000 0.0000 19.0450 0.0000
# 6 0.0000 0.0000 0.0000 0.0000 0.0000 -7.3598
#
#
#
# Elastic Compliance Matrix: (Units=1/GPa)
#
#
# Indices 1 2 3 4 5 6 
#
# 1 0.018660 -0.004865 -0.007371 0.000000 0.000000 0.000000
# 2 -0.004865 0.057056 -0.004940 0.000000 0.000000 0.000000
# 3 -0.007371 -0.004940 0.014708 0.000000 0.000000 0.000000
# 4 0.000000 0.000000 0.000000 -0.123117 0.000000 0.000000
# 5 0.000000 0.000000 0.000000 0.000000 0.052507 0.000000
# 6 0.000000 0.000000 0.000000 0.000000 0.000000 -0.135874
#
#
# Mechanical properties :
#
#
# Convention : Reuss Voigt Hill
#
# Bulk Modulus (GPa) = 17.83417 33.49585 25.66501
# Shear Modulus (GPa) = -79.34382 8.87112 -35.23635
#
# Velocity S-wave (km/s) = -6.93409 2.31858 -4.62092
# Velocity P-wave (km/s) = 7.30079 5.24079 3.59413
#
# Compressibility (1/GPa) = 0.05607213
#
# Stress axis : x y z
#
# Youngs Moduli (GPa) = 53.59030 17.52673 67.98834
#
# Poissons Ratio (x) = 0.08526 0.50116
# Poissons Ratio (y) = 0.26070 0.33586
# Poissons Ratio (z) = 0.39503 0.08658
#
# Static dielectric constant tensor:
#      x y z
#    x 1.560370 0.000000 0.000000 
#    y 0.000000 1.547840 0.000000 
#    z 0.000000 0.000000 1.581930 
# 
# From -- ./inp_files/34102.got.cif
#   From: 2010.05.17/outbox.cif.g08.bks.cpg/sg51_18_cif.got.tgz:34102.got - 2010.06.03 11:52:47.
