data_PCOD9399320
_publ_section_title
;
Structure prediction by ZEFSAII (Michael W. Deem and Ramdas Pophale) SiO2 
 PCOD9399320
Probable space group: P M M A
;
_chemical_formula_sum "Si O2"
_cell_formula_units_Z 48
_cell_length_a 17.320572
_cell_length_b 7.291139
_cell_length_c 16.866421
_cell_angle_alpha 90.000000
_cell_angle_beta 90.000000
_cell_angle_gamma 90.000000
_cell_volume 2130.004615
_symmetry_space_group_name_H-M "P M M A"
_symmetry_group_IT_number 51
_symmetry_cell_setting 'orthorhombic'
loop_
_space_group_symop_operation_xyz
x,y,z
1/2-x,-y,z
1/2+x,-y,-z
-x,y,-z
-x,-y,-z
1/2+x,y,-z
1/2-x,y,z
x,-y,z
loop_
_atom_site_type_symbol
_atom_site_label
_atom_site_fract_x
_atom_site_fract_y
_atom_site_fract_z
Si Si1 0.339328 0.222756 0.363207
Si Si2 0.918714 0.709915 0.965676
Si Si3 0.101335 0.223257 0.704437
Si Si4 0.250000 0.708832 0.987729
Si Si5 0.557777 0.777492 0.782801
Si Si6 0.340644 0.223132 0.537282
Si Si7 0.250000 0.222183 0.803967
O O1 0.250000 0.274444 0.359314
O O2 0.383083 0.283560 0.285078
O O3 0.368779 0.281290 0.450130
O O4 0.343190 0.000000 0.363120
O O5 0.916439 0.500000 0.996419
O O6 0.833883 0.789758 0.987334
O O7 0.925496 0.711622 0.870899
O O8 0.000000 0.788918 0.000000
O O9 0.111466 0.283849 0.613595
O O10 0.175305 0.278719 0.754879
O O11 0.025284 0.280672 0.750276
O O12 0.100031 0.000000 0.702308
O O13 0.250000 0.500000 0.020124
O O14 0.250000 0.708277 0.892914
O O15 0.559516 0.000000 0.786622
O O16 0.250000 0.274323 0.546407
O O17 0.341528 0.000000 0.537544
O O18 0.250000 0.000000 0.808081
#
# Coordination Sequence:
#
# PCOD9399320 Si02
#       7
#     8   8   8   4   8   8   4
#     4   8  15  26  41  65 100 136 165 196 237 285
#     4  10  22  40  57  73  98 130 166 206 249 303
#     4   9  16  26  43  71 103 132 162 199 242 290
#     4  10  22  38  56  75  94 126 168 203 244 304
#     4  10  20  31  48  76 104 127 161 208 249 288
#     4   8  12  22  40  63  98 139 166 190 235 287
#     4  10  18  30  50  75 100 124 158 203 252 296
#
# _framework density 22.535163000000001
#
# number of rings (size 3 to 8) (size 9 to 14) (size 15 to 20)
#    0.000    2.833    0.833    2.000    1.167    1.667 
#    0.000    3.333    0.000    0.000    0.000    3.500 
#    0.000    0.000    0.000    0.000    0.000    0.000 
#
# Total GULP energy -267967.683428 kJ/mol
# GULP energy per Si atom -5582.660071 kJ/mol
# Density = 2.248387 g / cm^3
# Si number density = 22.535163 Si / 1000 Ang^3
#
#
#
# Elastic Constant Matrix: (Units=GPa)
#
#
# Indices 1 2 3 4 5 6 
#
# 1 157.3642 4.9660 98.9231 0.0000 0.0000 0.0000
# 2 4.9660 94.2123 -7.5300 0.0000 0.0000 0.0000
# 3 98.9231 -7.5300 206.3717 0.0000 0.0000 0.0000
# 4 0.0000 0.0000 0.0000 33.5820 0.0000 0.0000
# 5 0.0000 0.0000 0.0000 0.0000 37.4914 0.0000
# 6 0.0000 0.0000 0.0000 0.0000 0.0000 -22.3304
#
#
#
# Elastic Compliance Matrix: (Units=1/GPa)
#
#
# Indices 1 2 3 4 5 6 
#
# 1 0.009161 -0.000836 -0.004422 0.000000 0.000000 0.000000
# 2 -0.000836 0.010722 0.000792 0.000000 0.000000 0.000000
# 3 -0.004422 0.000792 0.006994 0.000000 0.000000 0.000000
# 4 0.000000 0.000000 0.000000 0.029778 0.000000 0.000000
# 5 0.000000 0.000000 0.000000 0.000000 0.026673 0.000000
# 6 0.000000 0.000000 0.000000 0.000000 0.000000 -0.044782
#
#
# Mechanical properties :
#
#
# Convention : Reuss Voigt Hill
#
# Bulk Modulus (GPa) = 55.72668 72.29627 64.01147
# Shear Modulus (GPa) = 93.53101 33.85452 63.69277
#
# Velocity S-wave (km/s) = 6.44939 3.88015 5.32213
# Velocity P-wave (km/s) = 8.95778 7.22671 8.13840
#
# Compressibility (1/GPa) = 0.01794473
#
# Stress axis : x y z
#
# Youngs Moduli (GPa) = 109.16313 93.26868 142.97987
#
# Poissons Ratio (x) = 0.07800 0.63220
# Poissons Ratio (y) = 0.09129 -0.11325
# Poissons Ratio (z) = 0.48268 -0.07387
#
# Static dielectric constant tensor:
#      x y z
#    x 1.850610 0.000000 0.000000 
#    y 0.000000 1.906490 0.000000 
#    z 0.000000 0.000000 1.765870 
# 
# From -- ./inp_files/24097.got.cif
#   From: 2010.05.17/outbox.cif.g08.bks.cpg/sg51_13_cif.got.tgz:24097.got - 2010.06.03 11:52:47.
