data_PCOD9399655
_publ_section_title
;
Structure prediction by ZEFSAII (Michael W. Deem and Ramdas Pophale) SiO2 
 PCOD9399655
Probable space group: P M M A
;
_chemical_formula_sum "Si O2"
_cell_formula_units_Z 40
_cell_length_a 19.600425
_cell_length_b 9.326767
_cell_length_c 12.905152
_cell_angle_alpha 90.000000
_cell_angle_beta 90.000000
_cell_angle_gamma 90.000000
_cell_volume 2359.172732
_symmetry_space_group_name_H-M "P M M A"
_symmetry_group_IT_number 51
_symmetry_cell_setting 'orthorhombic'
loop_
_space_group_symop_operation_xyz
x,y,z
1/2-x,-y,z
1/2+x,-y,-z
-x,y,-z
-x,-y,-z
1/2+x,y,-z
1/2-x,y,z
x,-y,z
loop_
_atom_site_type_symbol
_atom_site_label
_atom_site_fract_x
_atom_site_fract_y
_atom_site_fract_z
Si Si1 0.104333 0.831117 0.815561
Si Si2 0.077073 0.170576 0.460443
Si Si3 0.418032 0.664697 0.020162
Si Si4 0.941718 0.831998 0.778020
Si Si5 0.169210 0.668144 0.624153
O O1 0.146884 0.750632 0.727971
O O2 0.024017 0.816660 0.785574
O O3 0.119866 0.000000 0.818893
O O4 0.113302 0.757639 0.927298
O O5 0.080337 0.204337 0.338460
O O6 0.128509 0.260887 0.529563
O O7 0.000000 0.196725 0.500000
O O8 0.089988 0.000000 0.473919
O O9 0.395182 0.500000 0.017142
O O10 0.408950 0.736472 0.132158
O O11 0.500000 0.665732 0.000000
O O12 0.927025 0.000000 0.797304
O O13 0.250000 0.681422 0.608767
O O14 0.151859 0.500000 0.633562
#
# Coordination Sequence:
#
# PCOD9399655 Si02
#       5
#     8   8   8   8   8
#     4  10  18  32  53  75 103 138 176 218 266 316
#     4  10  19  35  56  80 107 139 182 227 270 319
#     4   9  17  28  45  74 108 137 168 207 258 315
#     4   9  17  30  50  77 107 136 171 219 267 313
#     4  11  24  38  52  76 110 145 181 222 272 328
#
# _framework density 16.955096999999999
#
# number of rings (size 3 to 8) (size 9 to 14) (size 15 to 20)
#    0.000    2.200    2.000    1.800    0.000    6.000 
#    0.000    0.000    0.000    1.200    0.000    5.600 
#    0.000    0.000    0.000    0.000    0.000    0.000 
#
# Total GULP energy -223193.529850 kJ/mol
# GULP energy per Si atom -5579.838246 kJ/mol
# Density = 1.691651 g / cm^3
# Si number density = 16.955097 Si / 1000 Ang^3
#
#
#
# Elastic Constant Matrix: (Units=GPa)
#
#
# Indices 1 2 3 4 5 6 
#
# 1 38.1445 57.6773 48.3367 0.0000 0.0000 0.0000
# 2 57.6773 140.2764 111.8773 0.0000 0.0000 0.0000
# 3 48.3367 111.8773 167.6725 0.0000 0.0000 0.0000
# 4 0.0000 0.0000 0.0000 14.7890 0.0000 0.0000
# 5 0.0000 0.0000 0.0000 0.0000 11.5565 0.0000
# 6 0.0000 0.0000 0.0000 0.0000 0.0000 20.3277
#
#
#
# Elastic Compliance Matrix: (Units=1/GPa)
#
#
# Indices 1 2 3 4 5 6 
#
# 1 0.069639 -0.026979 -0.002074 0.000000 0.000000 0.000000
# 2 -0.026979 0.025690 -0.009363 0.000000 0.000000 0.000000
# 3 -0.002074 -0.009363 0.012810 0.000000 0.000000 0.000000
# 4 0.000000 0.000000 0.000000 0.067618 0.000000 0.000000
# 5 0.000000 0.000000 0.000000 0.000000 0.086531 0.000000
# 6 0.000000 0.000000 0.000000 0.000000 0.000000 0.049194
#
#
# Mechanical properties :
#
#
# Convention : Reuss Voigt Hill
#
# Bulk Modulus (GPa) = 31.94414 86.87511 59.40963
# Shear Modulus (GPa) = 12.53921 17.88144 15.21032
#
# Velocity S-wave (km/s) = 2.72242 3.25104 2.99840
# Velocity P-wave (km/s) = 5.36316 8.08962 6.86314
#
# Compressibility (1/GPa) = 0.03130464
#
# Stress axis : x y z
#
# Youngs Moduli (GPa) = 14.35981 38.92631 78.06665
#
# Poissons Ratio (x) = 1.05020 0.16191
# Poissons Ratio (y) = 0.38742 0.73097
# Poissons Ratio (z) = 0.02978 0.36449
#
# Static dielectric constant tensor:
#      x y z
#    x 1.530690 0.000000 0.000000 
#    y 0.000000 1.565790 0.000000 
#    z 0.000000 0.000000 1.561410 
# 
# From -- ./inp_files/17075.got.cif
#   From: 2010.05.17/outbox.cif.g08.bks.cpg/sg51_9_cif.got.tgz:17075.got - 2010.06.03 11:52:47.
