data_PCOD9399466
_publ_section_title
;
Structure prediction by ZEFSAII (Michael W. Deem and Ramdas Pophale) SiO2 
 PCOD9399466
Probable space group: P M M A
;
_chemical_formula_sum "Si O2"
_cell_formula_units_Z 64
_cell_length_a 8.901518
_cell_length_b 15.304082
_cell_length_c 30.333602
_cell_angle_alpha 90.000000
_cell_angle_beta 90.000000
_cell_angle_gamma 90.000000
_cell_volume 4132.333296
_symmetry_space_group_name_H-M "P M M A"
_symmetry_group_IT_number 51
_symmetry_cell_setting 'orthorhombic'
loop_
_space_group_symop_operation_xyz
x,y,z
1/2-x,-y,z
1/2+x,-y,-z
-x,y,-z
-x,-y,-z
1/2+x,y,-z
1/2-x,y,z
x,-y,z
loop_
_atom_site_type_symbol
_atom_site_label
_atom_site_fract_x
_atom_site_fract_y
_atom_site_fract_z
Si Si1 0.925491 0.237260 0.698707
Si Si2 0.420999 0.894272 0.864329
Si Si3 0.576466 0.106512 0.954409
Si Si4 0.433093 0.598075 0.355360
Si Si5 0.425080 0.154852 0.542245
Si Si6 0.568496 0.898726 0.771333
Si Si7 0.069333 0.346896 0.454253
Si Si8 0.917153 0.905624 0.623152
O O1 0.750000 0.254531 0.710010
O O2 0.989090 0.327733 0.678745
O O3 0.988498 0.177289 0.738325
O O4 0.928763 0.171755 0.657381
O O5 0.250000 0.863459 0.859436
O O6 0.492782 0.863336 0.910190
O O7 0.517163 0.875822 0.820773
O O8 0.416970 0.000000 0.867242
O O9 0.750000 0.132334 0.953334
O O10 0.571950 0.000000 0.954260
O O11 0.500000 0.134854 0.000000
O O12 0.250000 0.604206 0.355406
O O13 0.475633 0.500000 0.342376
O O14 0.476036 0.613164 0.406824
O O15 0.500000 0.110824 0.500000
O O16 0.250000 0.170129 0.535243
O O17 0.511222 0.247144 0.547745
O O18 0.458699 0.102271 0.586139
O O19 0.750000 0.900025 0.768389
O O20 0.518770 0.000000 0.761957
O O21 0.250000 0.350277 0.457460
O O22 0.000000 0.383936 0.500000
O O23 0.750000 0.899306 0.602303
O O24 0.925012 0.000000 0.645844
#
# Coordination Sequence:
#
# PCOD9399466 Si02
#       8
#     8   8   8   8   8   8   8   8
#     4   9  16  29  47  66  87 110 137 170 208 251
#     4   9  16  25  36  52  77 108 142 182 224 262
#     4   9  15  22  33  50  74 106 145 187 227 264
#     4   9  17  29  48  72  93 111 134 166 205 251
#     4  11  21  33  49  66  87 112 138 165 199 238
#     4   9  16  26  42  62  81 106 142 181 216 251
#     4  10  18  31  50  70  91 112 137 164 199 244
#     4  10  19  32  50  69  87 110 139 170 204 243
#
# _framework density 15.487619
#
# number of rings (size 3 to 8) (size 9 to 14) (size 15 to 20)
#    0.000    2.500    1.250    3.375    0.000    5.250 
#    0.000    0.625    0.000    2.625    0.000    0.000 
#    0.000    0.000    0.000    0.000    0.000    0.625 
#
# Total GULP energy -356297.080630 kJ/mol
# GULP energy per Si atom -5567.141885 kJ/mol
# Density = 1.545237 g / cm^3
# Si number density = 15.487619 Si / 1000 Ang^3
#
#
#
# Elastic Constant Matrix: (Units=GPa)
#
#
# Indices 1 2 3 4 5 6 
#
# 1 38.9224 8.9441 21.2297 0.0000 0.0000 0.0000
# 2 8.9441 77.2651 37.8609 0.0000 0.0000 0.0000
# 3 21.2297 37.8609 100.0031 0.0000 0.0000 0.0000
# 4 0.0000 0.0000 0.0000 6.1796 0.0000 0.0000
# 5 0.0000 0.0000 0.0000 0.0000 19.4745 0.0000
# 6 0.0000 0.0000 0.0000 0.0000 0.0000 2.1776
#
#
#
# Elastic Compliance Matrix: (Units=1/GPa)
#
#
# Indices 1 2 3 4 5 6 
#
# 1 0.029068 -0.000419 -0.006012 0.000000 0.000000 0.000000
# 2 -0.000419 0.015896 -0.005929 0.000000 0.000000 0.000000
# 3 -0.006012 -0.005929 0.013521 0.000000 0.000000 0.000000
# 4 0.000000 0.000000 0.000000 0.161823 0.000000 0.000000
# 5 0.000000 0.000000 0.000000 0.000000 0.051349 0.000000
# 6 0.000000 0.000000 0.000000 0.000000 0.000000 0.459218
#
#
# Mechanical properties :
#
#
# Convention : Reuss Voigt Hill
#
# Bulk Modulus (GPa) = 29.61722 39.14000 34.37861
# Shear Modulus (GPa) = 6.52017 15.44340 10.98179
#
# Velocity S-wave (km/s) = 2.05404 3.16119 2.66572
# Velocity P-wave (km/s) = 4.97897 6.21698 5.63209
#
# Compressibility (1/GPa) = 0.03376414
#
# Stress axis : x y z
#
# Youngs Moduli (GPa) = 34.40244 62.90722 73.95951
#
# Poissons Ratio (x) = 0.02634 0.44466
# Poissons Ratio (y) = 0.01441 0.43854
# Poissons Ratio (z) = 0.20684 0.37301
#
# Static dielectric constant tensor:
#      x y z
#    x 1.529440 0.000000 0.000000 
#    y 0.000000 1.526450 0.000000 
#    z 0.000000 0.000000 1.531700 
# 
# From -- ./inp_files/37549.got.cif
#   From: 2010.05.17/outbox.cif.g08.bks.cpg/sg51_19_cif.got.tgz:37549.got - 2010.06.03 11:52:47.
