data_PCOD9399440
_publ_section_title
;
Structure prediction by ZEFSAII (Michael W. Deem and Ramdas Pophale) SiO2 
 PCOD9399440
Probable space group: P M M A
;
_chemical_formula_sum "Si O2"
_cell_formula_units_Z 64
_cell_length_a 26.123940
_cell_length_b 8.956619
_cell_length_c 17.485245
_cell_angle_alpha 90.000000
_cell_angle_beta 90.000000
_cell_angle_gamma 90.000000
_cell_volume 4091.235697
_symmetry_space_group_name_H-M "P M M A"
_symmetry_group_IT_number 51
_symmetry_cell_setting 'orthorhombic'
loop_
_space_group_symop_operation_xyz
x,y,z
1/2-x,-y,z
1/2+x,-y,-z
-x,y,-z
-x,-y,-z
1/2+x,y,-z
1/2-x,y,z
x,-y,z
loop_
_atom_site_type_symbol
_atom_site_label
_atom_site_fract_x
_atom_site_fract_y
_atom_site_fract_z
Si Si1 0.436861 0.178484 0.654363
Si Si2 0.402287 0.677685 0.184014
Si Si3 0.005266 0.820313 0.089868
Si Si4 0.310000 0.178606 0.097197
Si Si5 0.192075 0.818160 0.920442
Si Si6 0.441028 0.177216 0.338116
Si Si7 0.402429 0.181883 0.819008
Si Si8 0.437842 0.671974 0.496368
O O1 0.497636 0.205823 0.667214
O O2 0.408088 0.229079 0.731036
O O3 0.420222 0.257499 0.576310
O O4 0.430960 0.000000 0.645490
O O5 0.404009 0.500000 0.184730
O O6 0.446469 0.741890 0.128450
O O7 0.348404 0.736274 0.152096
O O8 0.413898 0.741305 0.268139
O O9 0.953392 0.776507 0.134126
O O10 0.011617 0.000000 0.098024
O O11 0.000000 0.787495 0.000000
O O12 0.250000 0.206421 0.112603
O O13 0.318602 0.000000 0.103465
O O14 0.319796 0.221493 0.008454
O O15 0.250000 0.769099 0.902181
O O16 0.148277 0.765977 0.862801
O O17 0.192319 0.000000 0.918490
O O18 0.423374 0.236894 0.420674
O O19 0.433604 0.000000 0.332414
O O20 0.401535 0.000000 0.818611
O O21 0.500000 0.676822 0.500000
O O22 0.422313 0.500000 0.489486
#
# Coordination Sequence:
#
# PCOD9399440 Si02
#       8
#     8   8   8   8   8   8   8   8
#     4   9  16  27  43  64  92 126 161 194 231 282
#     4  12  23  32  46  70 102 130 156 196 248 298
#     4  10  19  32  49  66  90 129 170 202 236 285
#     4   9  18  34  54  72  91 122 168 212 244 281
#     4   8  14  26  47  73  95 117 155 208 251 276
#     4  10  18  31  48  66  92 126 164 196 230 282
#     4   9  15  25  42  67  95 124 158 196 236 281
#     4   9  17  28  43  65  93 122 154 192 241 287
#
# _framework density 15.643196
#
# number of rings (size 3 to 8) (size 9 to 14) (size 15 to 20)
#    0.000    2.500    1.250    3.375    0.000    4.500 
#    0.000    0.000    0.000    0.750    0.000    0.875 
#    0.000    5.000    0.000    0.000    0.000    0.000 
#
# Total GULP energy -356838.213263 kJ/mol
# GULP energy per Si atom -5575.597082 kJ/mol
# Density = 1.560759 g / cm^3
# Si number density = 15.643196 Si / 1000 Ang^3
#
#
#
# Elastic Constant Matrix: (Units=GPa)
#
#
# Indices 1 2 3 4 5 6 
#
# 1 66.2106 41.0774 66.9539 0.0000 0.0000 0.0000
# 2 41.0774 48.5729 60.8655 0.0000 0.0000 0.0000
# 3 66.9539 60.8655 150.6833 0.0000 0.0000 0.0000
# 4 0.0000 0.0000 0.0000 6.2483 0.0000 0.0000
# 5 0.0000 0.0000 0.0000 0.0000 18.1122 0.0000
# 6 0.0000 0.0000 0.0000 0.0000 0.0000 8.7575
#
#
#
# Elastic Compliance Matrix: (Units=1/GPa)
#
#
# Indices 1 2 3 4 5 6 
#
# 1 0.035396 -0.020707 -0.007364 0.000000 0.000000 0.000000
# 2 -0.020707 0.053802 -0.012531 0.000000 0.000000 0.000000
# 3 -0.007364 -0.012531 0.014970 0.000000 0.000000 0.000000
# 4 0.000000 0.000000 0.000000 0.160044 0.000000 0.000000
# 5 0.000000 0.000000 0.000000 0.000000 0.055212 0.000000
# 6 0.000000 0.000000 0.000000 0.000000 0.000000 0.114188
#
#
# Mechanical properties :
#
#
# Convention : Reuss Voigt Hill
#
# Bulk Modulus (GPa) = 43.54553 67.02892 55.28723
# Shear Modulus (GPa) = 9.56991 13.06158 11.31575
#
# Velocity S-wave (km/s) = 2.47606 2.89272 2.69246
# Velocity P-wave (km/s) = 6.00597 7.35518 6.71455
#
# Compressibility (1/GPa) = 0.02296447
#
# Stress axis : x y z
#
# Youngs Moduli (GPa) = 28.25140 18.58662 66.79933
#
# Poissons Ratio (x) = 0.38487 0.49189
# Poissons Ratio (y) = 0.58500 0.83709
# Poissons Ratio (z) = 0.20803 0.23292
#
# Static dielectric constant tensor:
#      x y z
#    x 1.504470 0.000000 0.000000 
#    y 0.000000 1.518120 0.000000 
#    z 0.000000 0.000000 1.518680 
# 
# From -- ./inp_files/30916.got.cif
#   From: 2010.05.17/outbox.cif.g08.bks.cpg/sg51_16_cif.got.tgz:30916.got - 2010.06.03 11:52:47.
