data_PCOD9399996
_publ_section_title
;
Structure prediction by ZEFSAII (Michael W. Deem and Ramdas Pophale) SiO2 
 PCOD9399996
Probable space group: P M M A
;
_chemical_formula_sum "Si O2"
_cell_formula_units_Z 64
_cell_length_a 8.438695
_cell_length_b 13.956679
_cell_length_c 30.645880
_cell_angle_alpha 90.000000
_cell_angle_beta 90.000000
_cell_angle_gamma 90.000000
_cell_volume 3609.353983
_symmetry_space_group_name_H-M "P M M A"
_symmetry_group_IT_number 51
_symmetry_cell_setting 'orthorhombic'
loop_
_space_group_symop_operation_xyz
x,y,z
1/2-x,-y,z
1/2+x,-y,-z
-x,y,-z
-x,-y,-z
1/2+x,y,-z
1/2-x,y,z
x,-y,z
loop_
_atom_site_type_symbol
_atom_site_label
_atom_site_fract_x
_atom_site_fract_y
_atom_site_fract_z
Si Si1 0.561162 0.888776 0.045483
Si Si2 0.441565 0.891649 0.682402
Si Si3 0.558477 0.606272 0.270109
Si Si4 0.440874 0.200563 0.774367
Si Si5 0.059644 0.103587 0.549347
Si Si6 0.065619 0.689347 0.451165
Si Si7 0.938836 0.110203 0.862921
Si Si8 0.559421 0.304834 0.641189
O O1 0.750000 0.889322 0.044694
O O2 0.503579 0.847680 0.091558
O O3 0.502501 0.000000 0.045962
O O4 0.500000 0.845615 0.000000
O O5 0.250000 0.890995 0.679058
O O6 0.484656 0.864599 0.732391
O O7 0.500383 0.803479 0.652697
O O8 0.496309 0.000000 0.672613
O O9 0.750000 0.609055 0.271678
O O10 0.507765 0.500000 0.257105
O O11 0.507888 0.691939 0.238242
O O12 0.496845 0.632408 0.318087
O O13 0.250000 0.197927 0.777265
O O14 0.509756 0.164727 0.819593
O O15 0.250000 0.121680 0.550937
O O16 0.000000 0.091803 0.500000
O O17 0.963802 0.198489 0.560431
O O18 0.031629 0.000000 0.571381
O O19 0.250000 0.667379 0.454529
O O20 0.001763 0.649314 0.405057
O O21 0.000000 0.670796 0.500000
O O22 0.750000 0.108160 0.865586
O O23 0.998252 0.000000 0.859075
O O24 0.750000 0.302188 0.639627
#
# Coordination Sequence:
#
# PCOD9399996 Si02
#       8
#     8   8   8   8   8   8   8   8
#     4   9  16  26  40  58  85 126 175 221 258 289
#     4   9  18  32  49  68  93 128 165 196 228 273
#     4   9  19  37  59  78  95 119 151 187 231 286
#     4   9  17  30  48  70  95 121 153 194 237 282
#     4   9  16  25  38  56  78 107 143 179 212 246
#     4  10  20  32  46  64  87 115 145 178 217 261
#     4  10  19  28  40  63  97 136 174 208 242 282
#     4  10  21  34  49  73  99 121 149 186 229 275
#
# _framework density 17.731705000000002
#
# number of rings (size 3 to 8) (size 9 to 14) (size 15 to 20)
#    0.000    2.625    0.000    3.750    0.000    8.500 
#    0.000    2.500    0.000    0.375    0.000    0.000 
#    0.000    0.500    0.000    1.375    0.000    2.000 
#
# Total GULP energy -356310.422006 kJ/mol
# GULP energy per Si atom -5567.350344 kJ/mol
# Density = 1.769135 g / cm^3
# Si number density = 17.731705 Si / 1000 Ang^3
#
#
#
# Elastic Constant Matrix: (Units=GPa)
#
#
# Indices 1 2 3 4 5 6 
#
# 1 13.7565 8.8724 28.9144 0.0000 0.0000 0.0000
# 2 8.8724 52.3355 30.7523 0.0000 0.0000 0.0000
# 3 28.9144 30.7523 173.0723 0.0000 0.0000 0.0000
# 4 0.0000 0.0000 0.0000 4.8208 0.0000 0.0000
# 5 0.0000 0.0000 0.0000 0.0000 20.2104 0.0000
# 6 0.0000 0.0000 0.0000 0.0000 0.0000 10.7481
#
#
#
# Elastic Compliance Matrix: (Units=1/GPa)
#
#
# Indices 1 2 3 4 5 6 
#
# 1 0.115898 -0.009235 -0.017722 0.000000 0.000000 0.000000
# 2 -0.009235 0.022071 -0.002379 0.000000 0.000000 0.000000
# 3 -0.017722 -0.002379 0.009161 0.000000 0.000000 0.000000
# 4 0.000000 0.000000 0.000000 0.207433 0.000000 0.000000
# 5 0.000000 0.000000 0.000000 0.000000 0.049479 0.000000
# 6 0.000000 0.000000 0.000000 0.000000 0.000000 0.093040
#
#
# Mechanical properties :
#
#
# Convention : Reuss Voigt Hill
#
# Bulk Modulus (GPa) = 11.30462 41.80470 26.55466
# Shear Modulus (GPa) = 8.54351 18.53089 13.53720
#
# Velocity S-wave (km/s) = 2.19742 3.23626 2.76605
# Velocity P-wave (km/s) = 3.58154 6.13123 5.02093
#
# Compressibility (1/GPa) = 0.08845940
#
# Stress axis : x y z
#
# Youngs Moduli (GPa) = 8.62829 45.30863 109.15508
#
# Poissons Ratio (x) = 0.41842 1.93440
# Poissons Ratio (y) = 0.07968 0.25966
# Poissons Ratio (z) = 0.15291 0.10778
#
# Static dielectric constant tensor:
#      x y z
#    x 1.603070 0.000000 0.000000 
#    y 0.000000 1.823970 0.000000 
#    z 0.000000 0.000000 1.570750 
# 
# From -- ./inp_files/37519.got.cif
#   From: 2010.05.17/outbox.cif.g08.bks.cpg/sg51_19_cif.got.tgz:37519.got - 2010.06.03 11:52:47.
