data_PCOD9399416
_publ_section_title
;
Structure prediction by ZEFSAII (Michael W. Deem and Ramdas Pophale) SiO2 
 PCOD9399416
Probable space group: P M M A
;
_chemical_formula_sum "Si O2"
_cell_formula_units_Z 44
_cell_length_a 8.534377
_cell_length_b 29.921346
_cell_length_c 9.258220
_cell_angle_alpha 90.000000
_cell_angle_beta 90.000000
_cell_angle_gamma 90.000000
_cell_volume 2364.179495
_symmetry_space_group_name_H-M "P M M A"
_symmetry_group_IT_number 51
_symmetry_cell_setting 'orthorhombic'
loop_
_space_group_symop_operation_xyz
x,y,z
1/2-x,-y,z
1/2+x,-y,-z
-x,y,-z
-x,-y,-z
1/2+x,y,-z
1/2-x,y,z
x,-y,z
loop_
_atom_site_type_symbol
_atom_site_label
_atom_site_fract_x
_atom_site_fract_y
_atom_site_fract_z
Si Si1 0.938066 0.682054 0.337556
Si Si2 0.062157 0.406482 0.836167
Si Si3 0.438192 0.767063 0.162277
Si Si4 0.439348 0.952024 0.334961
Si Si5 0.563475 0.500000 0.835175
Si Si6 0.439543 0.854445 0.335920
O O1 0.750000 0.683906 0.338158
O O2 0.986009 0.636385 0.256725
O O3 0.000000 0.682523 0.500000
O O4 0.002252 0.724628 0.251653
O O5 0.250000 0.408850 0.841802
O O6 0.998439 0.453276 0.773096
O O7 0.000000 0.401509 0.000000
O O8 0.250000 0.766645 0.161042
O O9 0.492175 0.812825 0.239884
O O10 0.500000 0.764898 0.000000
O O11 0.500000 0.952112 0.500000
O O12 0.250000 0.952130 0.336093
O O13 0.489315 0.903477 0.276579
O O14 0.490757 0.000000 0.269870
O O15 0.750000 0.500000 0.836982
O O16 0.500000 0.500000 0.000000
O O17 0.500000 0.849842 0.500000
O O18 0.250000 0.853749 0.340657
#
# Coordination Sequence:
#
# PCOD9399416 Si02
#       6
#     8   8   8   8   4   8
#     4  11  24  40  59  82 109 141 177 219 267 318
#     4  10  20  35  56  82 111 143 179 219 261 307
#     4  11  23  38  56  77 104 137 176 220 266 319
#     4   8  13  23  41  66  96 128 163 204 250 301
#     4  10  18  30  53  82 111 144 180 218 258 304
#     4   9  18  31  49  75 103 133 169 211 260 311
#
# _framework density 18.611105999999999
#
# number of rings (size 3 to 8) (size 9 to 14) (size 15 to 20)
#    0.000    2.182    0.000    4.636    0.000    7.273 
#    0.000    0.455    0.000    0.545    0.000    0.000 
#    0.000    0.000    0.000    0.000    0.000    0.182 
#
# Total GULP energy -245399.781750 kJ/mol
# GULP energy per Si atom -5577.267767 kJ/mol
# Density = 1.856875 g / cm^3
# Si number density = 18.611106 Si / 1000 Ang^3
#
#
#
# Elastic Constant Matrix: (Units=GPa)
#
#
# Indices 1 2 3 4 5 6 
#
# 1 40.3294 46.8004 21.6674 0.0000 0.0000 0.0000
# 2 46.8004 246.8461 91.7057 0.0000 0.0000 0.0000
# 3 21.6674 91.7057 94.2200 0.0000 0.0000 0.0000
# 4 0.0000 0.0000 0.0000 37.2484 0.0000 0.0000
# 5 0.0000 0.0000 0.0000 0.0000 25.1312 0.0000
# 6 0.0000 0.0000 0.0000 0.0000 0.0000 32.7121
#
#
#
# Elastic Compliance Matrix: (Units=1/GPa)
#
#
# Indices 1 2 3 4 5 6 
#
# 1 0.032101 -0.005237 -0.002284 0.000000 0.000000 0.000000
# 2 -0.005237 0.007200 -0.005804 0.000000 0.000000 0.000000
# 3 -0.002284 -0.005804 0.016788 0.000000 0.000000 0.000000
# 4 0.000000 0.000000 0.000000 0.026847 0.000000 0.000000
# 5 0.000000 0.000000 0.000000 0.000000 0.039791 0.000000
# 6 0.000000 0.000000 0.000000 0.000000 0.000000 0.030570
#
#
# Mechanical properties :
#
#
# Convention : Reuss Voigt Hill
#
# Bulk Modulus (GPa) = 33.97005 77.97138 55.97072
# Shear Modulus (GPa) = 26.34906 33.76646 30.05776
#
# Velocity S-wave (km/s) = 3.76675 4.26410 4.02312
# Velocity P-wave (km/s) = 6.10001 8.13815 7.19165
#
# Compressibility (1/GPa) = 0.02943769
#
# Stress axis : x y z
#
# Youngs Moduli (GPa) = 31.15171 138.88524 59.56794
#
# Poissons Ratio (x) = 0.72740 0.13608
# Poissons Ratio (y) = 0.16316 0.34571
# Poissons Ratio (z) = 0.07116 0.80604
#
# Static dielectric constant tensor:
#      x y z
#    x 1.632420 0.000000 0.000000 
#    y 0.000000 1.703450 0.000000 
#    z 0.000000 0.000000 1.593560 
# 
# From -- ./inp_files/5741.got.cif
#   From: 2010.05.17/outbox.cif.g08.bks.cpg/sg51_3_cif.got.tgz:5741.got - 2010.06.03 11:52:47.
