data_PCOD9399745
_publ_section_title
;
Structure prediction by ZEFSAII (Michael W. Deem and Ramdas Pophale) SiO2 
 PCOD9399745
Probable space group: P M M A
;
_chemical_formula_sum "Si O2"
_cell_formula_units_Z 40
_cell_length_a 7.634564
_cell_length_b 12.413879
_cell_length_c 20.911382
_cell_angle_alpha 90.000000
_cell_angle_beta 90.000000
_cell_angle_gamma 90.000000
_cell_volume 1981.866897
_symmetry_space_group_name_H-M "P M M A"
_symmetry_group_IT_number 51
_symmetry_cell_setting 'orthorhombic'
loop_
_space_group_symop_operation_xyz
x,y,z
1/2-x,-y,z
1/2+x,-y,-z
-x,y,-z
-x,-y,-z
1/2+x,y,-z
1/2-x,y,z
x,-y,z
loop_
_atom_site_type_symbol
_atom_site_label
_atom_site_fract_x
_atom_site_fract_y
_atom_site_fract_z
Si Si1 0.958042 0.378879 0.926473
Si Si2 0.959821 0.230410 0.427574
Si Si3 0.457189 0.232817 0.808410
Si Si4 0.036371 0.000000 0.621204
Si Si5 0.963949 0.000000 0.228787
Si Si6 0.035127 0.623613 0.689884
O O1 0.750000 0.383957 0.920409
O O2 0.029309 0.500000 0.913275
O O3 0.020400 0.291679 0.875738
O O4 0.000000 0.352597 0.000000
O O5 0.750000 0.226301 0.421023
O O6 0.025814 0.109788 0.411980
O O7 0.022090 0.314099 0.374013
O O8 0.000000 0.261261 0.500000
O O9 0.250000 0.224231 0.796346
O O10 0.525772 0.309156 0.751615
O O11 0.526803 0.111221 0.802865
O O12 0.989521 0.000000 0.696107
O O13 0.250000 0.000000 0.618697
O O14 0.750000 0.000000 0.225741
O O15 0.250000 0.622513 0.690394
O O16 0.977835 0.500000 0.691987
#
# Coordination Sequence:
#
# PCOD9399745 Si02
#       6
#     8   8   8   4   4   8
#     4  10  21  37  57  82 112 143 174 210 253 301
#     4  10  19  31  48  69  96 129 168 213 260 310
#     4  10  18  32  56  82 106 134 174 219 261 308
#     4   9  15  29  50  71  95 127 168 214 258 302
#     4   9  16  29  53  81 104 133 173 216 261 310
#     4   9  17  29  48  73  98 129 171 214 256 309
#
# _framework density 20.182991000000001
#
# number of rings (size 3 to 8) (size 9 to 14) (size 15 to 20)
#    0.000    2.400    2.000    1.500    0.000    2.400 
#    0.000    2.000    0.000    2.400    0.000    0.000 
#    0.000    0.000    0.000    0.000    0.000    0.000 
#
# Total GULP energy -223324.012398 kJ/mol
# GULP energy per Si atom -5583.100310 kJ/mol
# Density = 2.013705 g / cm^3
# Si number density = 20.182991 Si / 1000 Ang^3
#
#
#
# Elastic Constant Matrix: (Units=GPa)
#
#
# Indices 1 2 3 4 5 6 
#
# 1 35.5060 10.6729 -8.9382 0.0000 0.0000 0.0000
# 2 10.6729 198.2240 111.3657 0.0000 0.0000 0.0000
# 3 -8.9382 111.3657 139.7485 0.0000 0.0000 0.0000
# 4 0.0000 0.0000 0.0000 34.9020 0.0000 0.0000
# 5 0.0000 0.0000 0.0000 0.0000 19.6922 0.0000
# 6 0.0000 0.0000 0.0000 0.0000 0.0000 -3.1039
#
#
#
# Elastic Compliance Matrix: (Units=1/GPa)
#
#
# Indices 1 2 3 4 5 6 
#
# 1 0.031209 -0.005073 0.006039 0.000000 0.000000 0.000000
# 2 -0.005073 0.009959 -0.008261 0.000000 0.000000 0.000000
# 3 0.006039 -0.008261 0.014125 0.000000 0.000000 0.000000
# 4 0.000000 0.000000 0.000000 0.028652 0.000000 0.000000
# 5 0.000000 0.000000 0.000000 0.000000 0.050782 0.000000
# 6 0.000000 0.000000 0.000000 0.000000 0.000000 -0.322172
#
#
# Mechanical properties :
#
#
# Convention : Reuss Voigt Hill
#
# Bulk Modulus (GPa) = 24.56799 66.63104 45.59951
# Shear Modulus (GPa) = -31.38992 27.65659 -1.86666
#
# Velocity S-wave (km/s) = -3.94796 3.70576 -0.96274
# Velocity P-wave (km/s) = 2.92965 7.16906 4.62669
#
# Compressibility (1/GPa) = 0.04070338
#
# Stress axis : x y z
#
# Youngs Moduli (GPa) = 32.04157 100.41136 70.79634
#
# Poissons Ratio (x) = 0.50941 -0.42754
# Poissons Ratio (y) = 0.16255 0.58484
# Poissons Ratio (z) = -0.19350 0.82948
#
# Static dielectric constant tensor:
#      x y z
#    x 1.758330 0.000000 0.000000 
#    y 0.000000 1.720040 0.000000 
#    z 0.000000 0.000000 1.702630 
# 
# From -- ./inp_files/31434.got.cif
#   From: 2010.05.17/outbox.cif.g08.bks.cpg/sg51_16_cif.got.tgz:31434.got - 2010.06.03 11:52:47.
