data_PCOD9399137
_publ_section_title
;
Structure prediction by ZEFSAII (Michael W. Deem and Ramdas Pophale) SiO2 
 PCOD9399137
Probable space group: P M M A
;
_chemical_formula_sum "Si O2"
_cell_formula_units_Z 30
_cell_length_a 5.551246
_cell_length_b 22.677678
_cell_length_c 12.155233
_cell_angle_alpha 90.000000
_cell_angle_beta 90.000000
_cell_angle_gamma 90.000000
_cell_volume 1530.214616
_symmetry_space_group_name_H-M "P M M A"
_symmetry_group_IT_number 51
_symmetry_cell_setting 'orthorhombic'
loop_
_space_group_symop_operation_xyz
x,y,z
1/2-x,-y,z
1/2+x,-y,-z
-x,y,-z
-x,-y,-z
1/2+x,y,-z
1/2-x,y,z
x,-y,z
loop_
_atom_site_type_symbol
_atom_site_label
_atom_site_fract_x
_atom_site_fract_y
_atom_site_fract_z
Si Si1 0.750000 0.775890 0.512583
Si Si2 0.250000 0.000000 0.568106
Si Si3 0.250000 0.125306 0.685983
Si Si4 0.750000 0.832229 0.756371
Si Si5 0.750000 0.710128 0.819293
Si Si6 0.250000 0.567092 0.567424
Si Si7 0.750000 0.608677 0.009651
Si Si8 0.750000 0.334206 0.249042
O O1 0.500000 0.741741 0.500000
O O2 0.750000 0.827603 0.417990
O O3 0.750000 0.804307 0.632829
O O4 0.250000 0.939779 0.636493
O O5 0.500000 0.000000 0.500000
O O6 0.494720 0.134615 0.755433
O O7 0.750000 0.779438 0.845034
O O8 0.502762 0.700477 0.751291
O O9 0.750000 0.663181 0.920448
O O10 0.250000 0.500000 0.612638
O O11 0.500000 0.573009 0.500000
O O12 0.250000 0.615960 0.660365
O O13 0.750000 0.636157 0.129645
O O14 0.500000 0.575084 0.000000
#
# Coordination Sequence:
#
# PCOD9399137 Si02
#       8
#     4   2   4   4   4   4   4   4
#     4   8  14  25  36  49  75 110 149 191 234 281
#     4  12  20  30  48  64  82 124 184 236 270 310
#     4  10  19  30  43  61  88 125 173 221 262 310
#     4  10  18  30  43  62  93 127 161 206 262 313
#     4  10  19  32  53  77 104 142 175 213 269 327
#     4  10  21  38  58  79 108 145 185 225 260 303
#     4   8  16  30  51  75 102 134 167 211 263 314
#     4  10  19  35  55  79 107 138 177 222 265 311
#
# _framework density 19.605091000000002
#
# number of rings (size 3 to 8) (size 9 to 14) (size 15 to 20)
#    0.000    2.400    0.000    4.800    0.000    0.000 
#    0.000   12.000    0.000    7.200    0.000    0.000 
#    0.000    0.000    0.000  108.000    0.000    3.600 
#
# Total GULP energy -167078.399637 kJ/mol
# GULP energy per Si atom -5569.279988 kJ/mol
# Density = 1.956047 g / cm^3
# Si number density = 19.605091 Si / 1000 Ang^3
#
#
#
# Elastic Constant Matrix: (Units=GPa)
#
#
# Indices 1 2 3 4 5 6 
#
# 1 209.3611 27.6181 8.0912 0.0000 0.0000 0.0000
# 2 27.6181 72.3971 22.4952 0.0000 0.0000 0.0000
# 3 8.0912 22.4952 25.1540 0.0000 0.0000 0.0000
# 4 0.0000 0.0000 0.0000 -15.2630 0.0000 0.0000
# 5 0.0000 0.0000 0.0000 0.0000 -7.4431 0.0000
# 6 0.0000 0.0000 0.0000 0.0000 0.0000 152.8937
#
#
#
# Elastic Compliance Matrix: (Units=1/GPa)
#
#
# Indices 1 2 3 4 5 6 
#
# 1 0.005030 -0.001961 0.000136 0.000000 0.000000 0.000000
# 2 -0.001961 0.019892 -0.017159 0.000000 0.000000 0.000000
# 3 0.000136 -0.017159 0.055057 0.000000 0.000000 0.000000
# 4 0.000000 0.000000 0.000000 -0.065518 0.000000 0.000000
# 5 0.000000 0.000000 0.000000 0.000000 -0.134353 0.000000
# 6 0.000000 0.000000 0.000000 0.000000 0.000000 0.006540
#
#
# Mechanical properties :
#
#
# Convention : Reuss Voigt Hill
#
# Bulk Modulus (GPa) = 23.80353 47.03569 35.41961
# Shear Modulus (GPa) = -81.46040 42.61803 -19.42119
#
# Velocity S-wave (km/s) = -6.45297 4.66749 -3.15083
# Velocity P-wave (km/s) = 6.58432 7.28635 2.20654
#
# Compressibility (1/GPa) = 0.04201057
#
# Stress axis : x y z
#
# Youngs Moduli (GPa) = 198.81207 50.27038 18.16310
#
# Poissons Ratio (x) = 0.09858 -0.00247
# Poissons Ratio (y) = 0.38987 0.31166
# Poissons Ratio (z) = -0.02699 0.86259
#
# Static dielectric constant tensor:
#      x y z
#    x 1.830420 0.000000 0.000000 
#    y 0.000000 1.660230 0.000000 
#    z 0.000000 0.000000 1.672370 
# 
# From -- ./inp_files/13396.got.cif
#   From: 2010.05.17/outbox.cif.g08.bks.cpg/sg51_7_cif.got.tgz:13396.got - 2010.06.03 11:52:47.
