data_PCOD9399601
_publ_section_title
;
Structure prediction by ZEFSAII (Michael W. Deem and Ramdas Pophale) SiO2 
 PCOD9399601
Probable space group: P M M A
;
_chemical_formula_sum "Si O2"
_cell_formula_units_Z 48
_cell_length_a 18.766890
_cell_length_b 15.263642
_cell_length_c 7.020657
_cell_angle_alpha 90.000000
_cell_angle_beta 90.000000
_cell_angle_gamma 90.000000
_cell_volume 2011.074853
_symmetry_space_group_name_H-M "P M M A"
_symmetry_group_IT_number 51
_symmetry_cell_setting 'orthorhombic'
loop_
_space_group_symop_operation_xyz
x,y,z
1/2-x,-y,z
1/2+x,-y,-z
-x,y,-z
-x,-y,-z
1/2+x,y,-z
1/2-x,y,z
x,-y,z
loop_
_atom_site_type_symbol
_atom_site_label
_atom_site_fract_x
_atom_site_fract_y
_atom_site_fract_z
Si Si1 0.420421 0.746405 0.762696
Si Si2 0.168227 0.900664 0.828734
Si Si3 0.483728 0.905809 0.225589
Si Si4 0.668976 0.323511 0.588562
Si Si5 0.671903 0.877586 0.631664
Si Si6 0.474198 0.400810 0.278525
O O1 0.372882 0.812181 0.890912
O O2 0.476057 0.821517 0.689049
O O3 0.365940 0.698229 0.618510
O O4 0.473382 0.668751 0.820838
O O5 0.250000 0.890975 0.881991
O O6 0.165442 0.895741 0.596090
O O7 0.146764 0.000000 0.885596
O O8 0.400422 0.906768 0.270343
O O9 0.512367 0.000000 0.293813
O O10 0.500000 0.901519 0.000000
O O11 0.750000 0.359690 0.577970
O O12 0.673833 0.225771 0.667366
O O13 0.609259 0.374997 0.708684
O O14 0.750000 0.910895 0.688268
O O15 0.500000 0.397616 0.500000
O O16 0.482692 0.500000 0.211928
#
# Coordination Sequence:
#
# PCOD9399601 Si02
#       6
#     8   8   8   8   8   8
#     4  10  18  32  49  71 102 134 161 210 256 294
#     4   9  17  28  48  78 104 130 165 205 256 313
#     4  11  23  35  48  70  97 136 185 217 246 295
#     4   9  17  30  51  78 103 128 160 196 253 318
#     4   9  17  32  50  70  98 128 159 203 254 303
#     4   9  17  29  48  75 106 133 158 196 253 316
#
# _framework density 23.867833999999998
#
# number of rings (size 3 to 8) (size 9 to 14) (size 15 to 20)
#    0.000    2.500    1.667    2.500    2.333    1.333 
#    0.000    4.167    0.000    4.000    0.000    0.000 
#    0.000    0.000    0.000    0.000    0.000    0.000 
#
# Total GULP energy -267649.497283 kJ/mol
# GULP energy per Si atom -5576.031193 kJ/mol
# Density = 2.381351 g / cm^3
# Si number density = 23.867834 Si / 1000 Ang^3
#
#
#
# Elastic Constant Matrix: (Units=GPa)
#
#
# Indices 1 2 3 4 5 6 
#
# 1 228.9766 68.8855 11.4660 0.0000 0.0000 0.0000
# 2 68.8855 173.4257 -1.8883 0.0000 0.0000 0.0000
# 3 11.4660 -1.8883 90.3167 0.0000 0.0000 0.0000
# 4 0.0000 0.0000 0.0000 51.4960 0.0000 0.0000
# 5 0.0000 0.0000 0.0000 0.0000 2.4853 0.0000
# 6 0.0000 0.0000 0.0000 0.0000 0.0000 168.7923
#
#
#
# Elastic Compliance Matrix: (Units=1/GPa)
#
#
# Indices 1 2 3 4 5 6 
#
# 1 0.005001 -0.001994 -0.000677 0.000000 0.000000 0.000000
# 2 -0.001994 0.006562 0.000390 0.000000 0.000000 0.000000
# 3 -0.000677 0.000390 0.011166 0.000000 0.000000 0.000000
# 4 0.000000 0.000000 0.000000 0.019419 0.000000 0.000000
# 5 0.000000 0.000000 0.000000 0.000000 0.402370 0.000000
# 6 0.000000 0.000000 0.000000 0.000000 0.000000 0.005924
#
#
# Mechanical properties :
#
#
# Convention : Reuss Voigt Hill
#
# Bulk Modulus (GPa) = 55.03743 72.18280 63.61011
# Shear Modulus (GPa) = 10.84458 72.17176 41.50817
#
# Velocity S-wave (km/s) = 2.13388 5.50488 4.17476
# Velocity P-wave (km/s) = 5.40191 8.40912 7.06732
#
# Compressibility (1/GPa) = 0.01816945
#
# Stress axis : x y z
#
# Youngs Moduli (GPa) = 199.96226 152.38463 89.55595
#
# Poissons Ratio (x) = 0.30382 0.06059
# Poissons Ratio (y) = 0.39868 -0.03496
# Poissons Ratio (z) = 0.13529 -0.05948
#
# Static dielectric constant tensor:
#      x y z
#    x 1.980700 0.000000 0.000000 
#    y 0.000000 1.866570 0.000000 
#    z 0.000000 0.000000 1.953050 
# 
# From -- ./inp_files/9830.got.cif
#   From: 2010.05.17/outbox.cif.g08.bks.cpg/sg51_5_cif.got.tgz:9830.got - 2010.06.03 11:52:47.
