data_PCOD9399245
_publ_section_title
;
Structure prediction by ZEFSAII (Michael W. Deem and Ramdas Pophale) SiO2 
 PCOD9399245
Probable space group: P M M A
;
_chemical_formula_sum "Si O2"
_cell_formula_units_Z 64
_cell_length_a 21.446527
_cell_length_b 8.868457
_cell_length_c 18.833975
_cell_angle_alpha 90.000000
_cell_angle_beta 90.000000
_cell_angle_gamma 90.000000
_cell_volume 3582.176891
_symmetry_space_group_name_H-M "P M M A"
_symmetry_group_IT_number 51
_symmetry_cell_setting 'orthorhombic'
loop_
_space_group_symop_operation_xyz
x,y,z
1/2-x,-y,z
1/2+x,-y,-z
-x,y,-z
-x,-y,-z
1/2+x,y,-z
1/2-x,y,z
x,-y,z
loop_
_atom_site_type_symbol
_atom_site_label
_atom_site_fract_x
_atom_site_fract_y
_atom_site_fract_z
Si Si1 0.655197 0.825457 0.083122
Si Si2 0.918181 0.327173 0.818257
Si Si3 0.994416 0.820796 0.287735
Si Si4 0.855648 0.181581 0.239041
Si Si5 0.966755 0.664120 0.075599
Si Si6 0.544813 0.682043 0.435771
Si Si7 0.179055 0.675439 0.067779
Si Si8 0.819245 0.681983 0.389254
O O1 0.671710 0.768615 0.162586
O O2 0.580908 0.799746 0.081798
O O3 0.672373 0.000000 0.079221
O O4 0.676194 0.746330 0.010655
O O5 0.901170 0.500000 0.798402
O O6 0.943331 0.235664 0.751266
O O7 0.865488 0.260777 0.870608
O O8 0.979061 0.333168 0.867611
O O9 0.930124 0.785705 0.244445
O O10 0.984741 0.740244 0.362710
O O11 0.996151 0.000000 0.296506
O O12 0.826831 0.255766 0.309048
O O13 0.848153 0.000000 0.242807
O O14 0.933657 0.500000 0.081736
O O15 0.000000 0.669457 0.000000
O O16 0.500000 0.733329 0.500000
O O17 0.544899 0.500000 0.436443
O O18 0.618302 0.730197 0.432623
O O19 0.250000 0.683119 0.092313
O O20 0.160202 0.500000 0.059995
O O21 0.750000 0.727146 0.415924
O O22 0.820690 0.500000 0.386583
#
# Coordination Sequence:
#
# PCOD9399245 Si02
#       8
#     8   8   8   8   8   8   8   8
#     4  11  21  32  47  69 100 131 167 213 260 312
#     4  10  19  32  52  74  95 124 163 211 258 302
#     4  10  19  32  51  78 107 132 162 201 250 304
#     4   9  19  32  45  68 102 136 167 200 243 298
#     4  10  18  30  48  71  96 123 163 210 259 306
#     4   9  18  34  56  81 109 139 169 204 246 298
#     4  10  22  39  53  66  90 129 177 222 265 313
#     4   9  18  32  51  76 103 133 170 207 244 288
#
# _framework density 17.866232
#
# number of rings (size 3 to 8) (size 9 to 14) (size 15 to 20)
#    0.000    2.250    2.500    0.750    0.000    3.500 
#    0.000    2.500    0.000    0.750    0.000    3.500 
#    0.000    0.000    0.000    0.000    0.000    0.000 
#
# Total GULP energy -356435.009317 kJ/mol
# GULP energy per Si atom -5569.297021 kJ/mol
# Density = 1.782557 g / cm^3
# Si number density = 17.866232 Si / 1000 Ang^3
#
#
#
# Elastic Constant Matrix: (Units=GPa)
#
#
# Indices 1 2 3 4 5 6 
#
# 1 101.1820 18.0996 55.1903 0.0000 0.0000 0.0000
# 2 18.0996 11.3513 16.1130 0.0000 0.0000 0.0000
# 3 55.1903 16.1130 86.4973 0.0000 0.0000 0.0000
# 4 0.0000 0.0000 0.0000 14.0090 0.0000 0.0000
# 5 0.0000 0.0000 0.0000 0.0000 9.4160 0.0000
# 6 0.0000 0.0000 0.0000 0.0000 0.0000 -31.7518
#
#
#
# Elastic Compliance Matrix: (Units=1/GPa)
#
#
# Indices 1 2 3 4 5 6 
#
# 1 0.017051 -0.015967 -0.007905 0.000000 0.000000 0.000000
# 2 -0.015967 0.134715 -0.014907 0.000000 0.000000 0.000000
# 3 -0.007905 -0.014907 0.019382 0.000000 0.000000 0.000000
# 4 0.000000 0.000000 0.000000 0.071382 0.000000 0.000000
# 5 0.000000 0.000000 0.000000 0.000000 0.106202 0.000000
# 6 0.000000 0.000000 0.000000 0.000000 0.000000 -0.031494
#
#
# Mechanical properties :
#
#
# Convention : Reuss Voigt Hill
#
# Bulk Modulus (GPa) = 10.68499 41.98181 26.33340
# Shear Modulus (GPa) = 11.73726 5.64318 8.69022
#
# Velocity S-wave (km/s) = 2.56589 1.77917 2.20785
# Velocity P-wave (km/s) = 3.84342 5.26967 4.61201
#
# Compressibility (1/GPa) = 0.09358926
#
# Stress axis : x y z
#
# Youngs Moduli (GPa) = 58.64616 7.42310 51.59376
#
# Poissons Ratio (x) = 0.11852 0.40787
# Poissons Ratio (y) = 0.93638 0.76913
# Poissons Ratio (z) = 0.46363 0.11066
#
# Static dielectric constant tensor:
#      x y z
#    x 1.585200 0.000000 0.000000 
#    y 0.000000 1.629280 0.000000 
#    z 0.000000 0.000000 1.609860 
# 
# From -- ./inp_files/30839.got.cif
#   From: 2010.05.17/outbox.cif.g08.bks.cpg/sg51_16_cif.got.tgz:30839.got - 2010.06.03 11:52:47.
