data_PCOD9399221
_publ_section_title
;
Structure prediction by ZEFSAII (Michael W. Deem and Ramdas Pophale) SiO2 
 PCOD9399221
Probable space group: P M M A
;
_chemical_formula_sum "Si O2"
_cell_formula_units_Z 64
_cell_length_a 29.896024
_cell_length_b 7.815853
_cell_length_c 15.975437
_cell_angle_alpha 90.000000
_cell_angle_beta 90.000000
_cell_angle_gamma 90.000000
_cell_volume 3732.867399
_symmetry_space_group_name_H-M "P M M A"
_symmetry_group_IT_number 51
_symmetry_cell_setting 'orthorhombic'
loop_
_space_group_symop_operation_xyz
x,y,z
1/2-x,-y,z
1/2+x,-y,-z
-x,y,-z
-x,-y,-z
1/2+x,y,-z
1/2-x,y,z
x,-y,z
loop_
_atom_site_type_symbol
_atom_site_label
_atom_site_fract_x
_atom_site_fract_y
_atom_site_fract_z
Si Si1 0.149081 0.296375 0.643963
Si Si2 0.045821 0.709100 0.395926
Si Si3 0.301481 0.207052 0.813418
Si Si4 0.636862 0.701132 0.676188
Si Si5 0.304156 0.199410 0.995085
Si Si6 0.300680 0.297860 0.178803
Si Si7 0.698985 0.798619 0.524034
Si Si8 0.052647 0.291724 0.591219
O O1 0.148456 0.500000 0.631665
O O2 0.169550 0.257792 0.734124
O O3 0.179436 0.224420 0.568960
O O4 0.098139 0.231924 0.634317
O O5 0.046240 0.500000 0.393658
O O6 0.087545 0.773319 0.341947
O O7 0.054038 0.755612 0.493074
O O8 0.995501 0.765126 0.373649
O O9 0.250000 0.265024 0.801612
O O10 0.300387 0.000000 0.817965
O O11 0.318788 0.268768 0.904441
O O12 0.630289 0.500000 0.694216
O O13 0.665596 0.776229 0.752579
O O14 0.666275 0.715128 0.591890
O O15 0.250000 0.210885 0.991590
O O16 0.317191 0.279809 0.083379
O O17 0.316272 0.000000 0.999935
O O18 0.250000 0.225430 0.184923
O O19 0.296862 0.500000 0.196080
O O20 0.750000 0.732899 0.529292
O O21 0.699751 0.000000 0.542903
O O22 0.052349 0.500000 0.594291
#
# Coordination Sequence:
#
# PCOD9399221 Si02
#       8
#     8   8   8   8   8   8   8   8
#     4  11  20  30  46  68  89 114 149 186 222 262
#     4   8  13  25  45  65  86 112 144 183 223 261
#     4   9  18  32  47  64  89 119 149 181 218 262
#     4  10  18  30  48  68  88 116 151 185 221 262
#     4   8  15  29  47  63  82 114 151 180 211 258
#     4   9  17  27  41  65  94 116 138 177 223 259
#     4  11  23  34  42  57  88 127 157 180 211 255
#     4   8  14  25  43  66  87 110 144 184 223 261
#
# _framework density 17.144995999999999
#
# number of rings (size 3 to 8) (size 9 to 14) (size 15 to 20)
#    0.000    2.750    1.250    3.000    0.000    4.250 
#    0.000    2.500    0.000    2.250    0.000    0.875 
#    0.000    7.000    0.000    0.000    0.000    0.000 
#
# Total GULP energy -356589.352211 kJ/mol
# GULP energy per Si atom -5571.708628 kJ/mol
# Density = 1.710597 g / cm^3
# Si number density = 17.144996 Si / 1000 Ang^3
#
#
#
# Elastic Constant Matrix: (Units=GPa)
#
#
# Indices 1 2 3 4 5 6 
#
# 1 112.3785 -0.9921 44.3150 0.0000 0.0000 0.0000
# 2 -0.9921 18.3405 -9.0251 0.0000 0.0000 0.0000
# 3 44.3150 -9.0251 83.5859 0.0000 0.0000 0.0000
# 4 0.0000 0.0000 0.0000 21.5043 0.0000 0.0000
# 5 0.0000 0.0000 0.0000 0.0000 6.7941 0.0000
# 6 0.0000 0.0000 0.0000 0.0000 0.0000 -104.4846
#
#
#
# Elastic Compliance Matrix: (Units=1/GPa)
#
#
# Indices 1 2 3 4 5 6 
#
# 1 0.011356 -0.002480 -0.006289 0.000000 0.000000 0.000000
# 2 -0.002480 0.058125 0.007591 0.000000 0.000000 0.000000
# 3 -0.006289 0.007591 0.016117 0.000000 0.000000 0.000000
# 4 0.000000 0.000000 0.000000 0.046502 0.000000 0.000000
# 5 0.000000 0.000000 0.000000 0.000000 0.147188 0.000000
# 6 0.000000 0.000000 0.000000 0.000000 0.000000 -0.009571
#
#
# Mechanical properties :
#
#
# Convention : Reuss Voigt Hill
#
# Bulk Modulus (GPa) = 12.01298 31.43339 21.72318
# Shear Modulus (GPa) = 16.67656 -3.23678 6.71989
#
# Velocity S-wave (km/s) = 3.12216 -1.37550 1.98191
# Velocity P-wave (km/s) = 4.47427 3.98133 4.23498
#
# Compressibility (1/GPa) = 0.08324330
#
# Stress axis : x y z
#
# Youngs Moduli (GPa) = 88.05549 17.20422 62.04442
#
# Poissons Ratio (x) = 0.04267 0.39018
# Poissons Ratio (y) = 0.21840 -0.47098
# Poissons Ratio (z) = 0.55376 -0.13060
#
# Static dielectric constant tensor:
#      x y z
#    x 1.600380 0.000000 0.000000 
#    y 0.000000 1.621780 0.000000 
#    z 0.000000 0.000000 1.577350 
# 
# From -- ./inp_files/26589.got.cif
#   From: 2010.05.17/outbox.cif.g08.bks.cpg/sg51_14_cif.got.tgz:26589.got - 2010.06.03 11:52:47.
