data_PCOD9399625
_publ_section_title
;
Structure prediction by ZEFSAII (Michael W. Deem and Ramdas Pophale) SiO2 
 PCOD9399625
Probable space group: P M M A
;
_chemical_formula_sum "Si O2"
_cell_formula_units_Z 44
_cell_length_a 8.897677
_cell_length_b 10.893444
_cell_length_c 25.708021
_cell_angle_alpha 90.000000
_cell_angle_beta 90.000000
_cell_angle_gamma 90.000000
_cell_volume 2491.784542
_symmetry_space_group_name_H-M "P M M A"
_symmetry_group_IT_number 51
_symmetry_cell_setting 'orthorhombic'
loop_
_space_group_symop_operation_xyz
x,y,z
1/2-x,-y,z
1/2+x,-y,-z
-x,y,-z
-x,-y,-z
1/2+x,y,-z
1/2-x,y,z
x,-y,z
loop_
_atom_site_type_symbol
_atom_site_label
_atom_site_fract_x
_atom_site_fract_y
_atom_site_fract_z
Si Si1 0.930251 0.000000 0.441914
Si Si2 0.568625 0.357816 0.134802
Si Si3 0.931405 0.860644 0.057325
Si Si4 0.078493 0.649004 0.245556
Si Si5 0.082014 0.355871 0.651057
Si Si6 0.571577 0.249414 0.556940
O O1 0.000000 0.000000 0.500000
O O2 0.998800 0.124407 0.420236
O O3 0.750000 0.000000 0.443088
O O4 0.750000 0.357370 0.136827
O O5 0.522845 0.500000 0.122299
O O6 0.520709 0.252394 0.094178
O O7 0.505149 0.325129 0.191636
O O8 0.750000 0.856230 0.053892
O O9 0.971396 0.000000 0.075607
O O10 0.000000 0.845661 0.000000
O O11 0.250000 0.692891 0.244634
O O12 0.083319 0.500000 0.248955
O O13 0.993305 0.696682 0.296804
O O14 0.250000 0.305732 0.641193
O O15 0.098091 0.500000 0.661112
O O16 0.978145 0.344582 0.600430
O O17 0.500000 0.273458 0.500000
O O18 0.750000 0.238503 0.551120
#
# Coordination Sequence:
#
# PCOD9399625 Si02
#       6
#     4   8   8   8   8   8
#     4  10  18  32  52  72  94 122 160 200 243 294
#     4   9  17  30  49  72  97 127 165 209 252 296
#     4   9  18  32  49  70  99 135 170 203 244 298
#     4   9  17  30  49  73  98 125 160 202 248 296
#     4  10  20  34  52  74 101 133 167 204 250 305
#     4  11  21  34  52  74 100 130 166 208 253 303
#
# _framework density 17.658026
#
# number of rings (size 3 to 8) (size 9 to 14) (size 15 to 20)
#    0.000    2.364    0.000    4.636    0.000    4.727 
#    0.000    0.000    2.000    0.000    0.000    0.000 
#    0.000    0.000    0.000    0.000    0.000    0.000 
#
# Total GULP energy -245001.192809 kJ/mol
# GULP energy per Si atom -5568.208927 kJ/mol
# Density = 1.761784 g / cm^3
# Si number density = 17.658026 Si / 1000 Ang^3
#
#
#
# Elastic Constant Matrix: (Units=GPa)
#
#
# Indices 1 2 3 4 5 6 
#
# 1 101.1081 31.6429 45.5984 0.0000 0.0000 0.0000
# 2 31.6429 64.4569 51.8923 0.0000 0.0000 0.0000
# 3 45.5984 51.8923 111.6862 0.0000 0.0000 0.0000
# 4 0.0000 0.0000 0.0000 -6.4431 0.0000 0.0000
# 5 0.0000 0.0000 0.0000 0.0000 29.0213 0.0000
# 6 0.0000 0.0000 0.0000 0.0000 0.0000 14.4696
#
#
#
# Elastic Compliance Matrix: (Units=1/GPa)
#
#
# Indices 1 2 3 4 5 6 
#
# 1 0.012534 -0.003249 -0.003608 0.000000 0.000000 0.000000
# 2 -0.003249 0.025627 -0.010581 0.000000 0.000000 0.000000
# 3 -0.003608 -0.010581 0.015343 0.000000 0.000000 0.000000
# 4 0.000000 0.000000 0.000000 -0.155204 0.000000 0.000000
# 5 0.000000 0.000000 0.000000 0.000000 0.034457 0.000000
# 6 0.000000 0.000000 0.000000 0.000000 0.000000 0.069111
#
#
# Mechanical properties :
#
#
# Convention : Reuss Voigt Hill
#
# Bulk Modulus (GPa) = 53.67798 59.50204 56.59001
# Shear Modulus (GPa) = 116.40557 17.28404 66.84481
#
# Velocity S-wave (km/s) = 8.12806 3.13201 6.15933
# Velocity P-wave (km/s) = 10.88814 6.84466 9.09398
#
# Compressibility (1/GPa) = 0.01862961
#
# Stress axis : x y z
#
# Youngs Moduli (GPa) = 79.78149 39.02082 65.17691
#
# Poissons Ratio (x) = 0.12676 0.23516
# Poissons Ratio (y) = 0.25917 0.68963
# Poissons Ratio (z) = 0.28785 0.41287
#
# Static dielectric constant tensor:
#      x y z
#    x 1.615430 0.000000 0.000000 
#    y 0.000000 1.701090 0.000000 
#    z 0.000000 0.000000 1.612150 
# 
# From -- ./inp_files/34548.got.cif
#   From: 2010.05.17/outbox.cif.g08.bks.cpg/sg51_18_cif.got.tgz:34548.got - 2010.06.03 11:52:47.
