data_PCOD9399701
_publ_section_title
;
Structure prediction by ZEFSAII (Michael W. Deem and Ramdas Pophale) SiO2 
 PCOD9399701
Probable space group: P M M A
;
_chemical_formula_sum "Si O2"
_cell_formula_units_Z 38
_cell_length_a 11.768995
_cell_length_b 7.364258
_cell_length_c 24.243737
_cell_angle_alpha 90.000000
_cell_angle_beta 90.000000
_cell_angle_gamma 90.000000
_cell_volume 2101.202639
_symmetry_space_group_name_H-M "P M M A"
_symmetry_group_IT_number 51
_symmetry_cell_setting 'orthorhombic'
loop_
_space_group_symop_operation_xyz
x,y,z
1/2-x,-y,z
1/2+x,-y,-z
-x,y,-z
-x,-y,-z
1/2+x,y,-z
1/2-x,y,z
x,-y,z
loop_
_atom_site_type_symbol
_atom_site_label
_atom_site_fract_x
_atom_site_fract_y
_atom_site_fract_z
Si Si1 0.384292 0.500000 0.536856
Si Si2 0.118208 0.783728 0.633678
Si Si3 0.250000 0.784517 0.800446
Si Si4 0.115165 0.216088 0.146848
Si Si5 0.001673 0.500000 0.934119
Si Si6 0.750000 0.500000 0.106410
Si Si7 0.013584 0.218850 0.743988
O O1 0.250000 0.500000 0.514779
O O2 0.500000 0.500000 0.500000
O O3 0.392935 0.326673 0.577505
O O4 0.250000 0.755779 0.652853
O O5 0.027687 0.722125 0.680402
O O6 0.105350 0.000000 0.625590
O O7 0.250000 0.678602 0.856581
O O8 0.364081 0.734551 0.769048
O O9 0.250000 0.000000 0.807692
O O10 0.250000 0.240912 0.142355
O O11 0.053560 0.329413 0.098801
O O12 0.074332 0.276603 0.208426
O O13 0.089338 0.000000 0.142048
O O14 0.134807 0.500000 0.925204
O O15 0.000000 0.500000 0.000000
O O16 0.002911 0.000000 0.740945
#
# Coordination Sequence:
#
# PCOD9399701 Si02
#       7
#     4   8   4   8   4   2   8
#     4  10  22  38  55  77 109 151 196 236 275 322
#     4   9  17  31  54  84 114 142 178 229 281 325
#     4  10  18  32  54  84 118 136 162 221 282 336
#     4  10  22  41  61  81 114 156 186 219 278 344
#     4  12  27  41  59  80 110 142 192 241 278 325
#     4  12  24  36  58  86 102 144 184 226 288 328
#     4   9  16  31  56  85 113 138 171 220 276 334
#
# _framework density 18.084883000000001
#
# number of rings (size 3 to 8) (size 9 to 14) (size 15 to 20)
#    0.000    2.105    3.158    0.316    1.474    2.526 
#    0.000    1.053    0.000    1.263    0.000    0.000 
#    0.000    0.000    0.000    0.000    0.000    0.000 
#
# Total GULP energy -211560.555382 kJ/mol
# GULP energy per Si atom -5567.383036 kJ/mol
# Density = 1.804372 g / cm^3
# Si number density = 18.084883 Si / 1000 Ang^3
#
#
#
# Elastic Constant Matrix: (Units=GPa)
#
#
# Indices 1 2 3 4 5 6 
#
# 1 108.9379 39.4915 66.3020 0.0000 0.0000 0.0000
# 2 39.4915 75.0220 39.7332 0.0000 0.0000 0.0000
# 3 66.3020 39.7332 114.9427 0.0000 0.0000 0.0000
# 4 0.0000 0.0000 0.0000 13.3458 0.0000 0.0000
# 5 0.0000 0.0000 0.0000 0.0000 129.1799 0.0000
# 6 0.0000 0.0000 0.0000 0.0000 0.0000 39.8738
#
#
#
# Elastic Compliance Matrix: (Units=1/GPa)
#
#
# Indices 1 2 3 4 5 6 
#
# 1 0.015103 -0.004084 -0.007300 0.000000 0.000000 0.000000
# 2 -0.004084 0.017421 -0.003666 0.000000 0.000000 0.000000
# 3 -0.007300 -0.003666 0.014178 0.000000 0.000000 0.000000
# 4 0.000000 0.000000 0.000000 0.074930 0.000000 0.000000
# 5 0.000000 0.000000 0.000000 0.000000 0.007741 0.000000
# 6 0.000000 0.000000 0.000000 0.000000 0.000000 0.025079
#
#
# Mechanical properties :
#
#
# Convention : Reuss Voigt Hill
#
# Bulk Modulus (GPa) = 60.23548 65.55067 62.89307
# Shear Modulus (GPa) = 26.30373 46.70496 36.50434
#
# Velocity S-wave (km/s) = 3.81787 5.08738 4.49765
# Velocity P-wave (km/s) = 7.26734 8.41626 7.86282
#
# Compressibility (1/GPa) = 0.01660151
#
# Stress axis : x y z
#
# Youngs Moduli (GPa) = 66.21195 57.40213 70.53069
#
# Poissons Ratio (x) = 0.23443 0.51488
# Poissons Ratio (y) = 0.27041 0.25859
# Poissons Ratio (z) = 0.48335 0.21045
#
# Static dielectric constant tensor:
#      x y z
#    x 1.609230 0.000000 0.000000 
#    y 0.000000 1.656540 0.000000 
#    z 0.000000 0.000000 1.651210 
# 
# From -- ./inp_files/28865.got.cif
#   From: 2010.05.17/outbox.cif.g08.bks.cpg/sg51_15_cif.got.tgz:28865.got - 2010.06.03 11:52:47.
