data_PCOD9399185
_publ_section_title
;
Structure prediction by ZEFSAII (Michael W. Deem and Ramdas Pophale) SiO2 
 PCOD9399185
Probable space group: P M M A
;
_chemical_formula_sum "Si O2"
_cell_formula_units_Z 48
_cell_length_a 27.120216
_cell_length_b 7.572224
_cell_length_c 12.214178
_cell_angle_alpha 90.000000
_cell_angle_beta 90.000000
_cell_angle_gamma 90.000000
_cell_volume 2508.307875
_symmetry_space_group_name_H-M "P M M A"
_symmetry_group_IT_number 51
_symmetry_cell_setting 'orthorhombic'
loop_
_space_group_symop_operation_xyz
x,y,z
1/2-x,-y,z
1/2+x,-y,-z
-x,y,-z
-x,-y,-z
1/2+x,y,-z
1/2-x,y,z
x,-y,z
loop_
_atom_site_type_symbol
_atom_site_label
_atom_site_fract_x
_atom_site_fract_y
_atom_site_fract_z
Si Si1 0.569991 0.716567 0.706617
Si Si2 0.447456 0.288590 0.047127
Si Si3 0.535405 0.703524 0.358164
Si Si4 0.304996 0.790985 0.688211
Si Si5 0.896242 0.789555 0.168703
Si Si6 0.625655 0.713636 0.503719
O O1 0.568996 0.500000 0.708059
O O2 0.566968 0.776838 0.832018
O O3 0.519312 0.777299 0.647970
O O4 0.615489 0.767960 0.628694
O O5 0.452615 0.500000 0.055969
O O6 0.500000 0.219941 0.000000
O O7 0.405551 0.250303 0.957558
O O8 0.530350 0.500000 0.392044
O O9 0.558132 0.709952 0.236558
O O10 0.578207 0.780393 0.434157
O O11 0.250000 0.716571 0.698546
O O12 0.346206 0.721734 0.773573
O O13 0.327086 0.768888 0.566200
O O14 0.301939 0.000000 0.708975
O O15 0.898260 0.000000 0.184259
O O16 0.625521 0.500000 0.500258
#
# Coordination Sequence:
#
# PCOD9399185 Si02
#       6
#     8   8   8   8   8   8
#     4   9  16  27  44  67  96 129 159 184 220 272
#     4  10  18  30  47  66  95 135 167 186 220 279
#     4   9  15  27  45  65  93 128 159 184 221 278
#     4   9  19  36  54  69  90 121 153 193 248 296
#     4  10  19  30  46  70  95 120 159 205 238 265
#     4   9  17  28  47  73  95 117 153 198 233 270
#
# _framework density 19.136406000000001
#
# number of rings (size 3 to 8) (size 9 to 14) (size 15 to 20)
#    0.000    2.667    1.667    1.000    0.000    3.333 
#    0.000    1.667    0.000    5.000    0.000    4.667 
#    0.000    0.000    0.000    0.000    0.000    0.000 
#
# Total GULP energy -267547.697053 kJ/mol
# GULP energy per Si atom -5573.910355 kJ/mol
# Density = 1.909285 g / cm^3
# Si number density = 19.136406 Si / 1000 Ang^3
#
#
#
# Elastic Constant Matrix: (Units=GPa)
#
#
# Indices 1 2 3 4 5 6 
#
# 1 96.7016 -2.5917 34.6673 0.0000 0.0000 0.0000
# 2 -2.5917 45.1723 -2.8742 0.0000 0.0000 0.0000
# 3 34.6673 -2.8742 89.5134 0.0000 0.0000 0.0000
# 4 0.0000 0.0000 0.0000 -124.6542 0.0000 0.0000
# 5 0.0000 0.0000 0.0000 0.0000 13.0947 0.0000
# 6 0.0000 0.0000 0.0000 0.0000 0.0000 11.9171
#
#
#
# Elastic Compliance Matrix: (Units=1/GPa)
#
#
# Indices 1 2 3 4 5 6 
#
# 1 0.012015 0.000394 -0.004641 0.000000 0.000000 0.000000
# 2 0.000394 0.022196 0.000560 0.000000 0.000000 0.000000
# 3 -0.004641 0.000560 0.012987 0.000000 0.000000 0.000000
# 4 0.000000 0.000000 0.000000 -0.008022 0.000000 0.000000
# 5 0.000000 0.000000 0.000000 0.000000 0.076367 0.000000
# 6 0.000000 0.000000 0.000000 0.000000 0.000000 0.083913
#
#
# Mechanical properties :
#
#
# Convention : Reuss Voigt Hill
#
# Bulk Modulus (GPa) = 25.11008 32.19891 28.65449
# Shear Modulus (GPa) = 22.71659 -6.44942 8.13359
#
# Velocity S-wave (km/s) = 3.44915 -1.83781 2.06387
# Velocity P-wave (km/s) = 5.38631 3.51555 4.54816
#
# Compressibility (1/GPa) = 0.03982464
#
# Stress axis : x y z
#
# Youngs Moduli (GPa) = 83.22699 45.05380 77.00136
#
# Poissons Ratio (x) = -0.01776 0.35734
# Poissons Ratio (y) = -0.03280 -0.04312
# Poissons Ratio (z) = 0.38623 -0.02523
#
# Static dielectric constant tensor:
#      x y z
#    x 1.665010 0.000000 0.000000 
#    y 0.000000 1.729910 0.000000 
#    z 0.000000 0.000000 1.700810 
# 
# From -- ./inp_files/18631.got.cif
#   From: 2010.05.17/outbox.cif.g08.bks.cpg/sg51_10_cif.got.tgz:18631.got - 2010.06.03 11:52:47.
