data_PCOD9399151
_publ_section_title
;
Structure prediction by ZEFSAII (Michael W. Deem and Ramdas Pophale) SiO2 
 PCOD9399151
Probable space group: P M M A
;
_chemical_formula_sum "Si O2"
_cell_formula_units_Z 64
_cell_length_a 8.916853
_cell_length_b 14.636587
_cell_length_c 31.755668
_cell_angle_alpha 90.000000
_cell_angle_beta 90.000000
_cell_angle_gamma 90.000000
_cell_volume 4144.505100
_symmetry_space_group_name_H-M "P M M A"
_symmetry_group_IT_number 51
_symmetry_cell_setting 'orthorhombic'
loop_
_space_group_symop_operation_xyz
x,y,z
1/2-x,-y,z
1/2+x,-y,-z
-x,y,-z
-x,-y,-z
1/2+x,y,-z
1/2-x,y,z
x,-y,z
loop_
_atom_site_type_symbol
_atom_site_label
_atom_site_fract_x
_atom_site_fract_y
_atom_site_fract_z
Si Si1 0.570730 0.606905 0.368747
Si Si2 0.077443 0.611086 0.456867
Si Si3 0.428848 0.105118 0.843056
Si Si4 0.569731 0.717970 0.877879
Si Si5 0.569292 0.289945 0.709701
Si Si6 0.429090 0.392687 0.954468
Si Si7 0.932268 0.395224 0.794832
Si Si8 0.570696 0.103639 0.750968
O O1 0.750000 0.611293 0.369228
O O2 0.527055 0.500000 0.362272
O O3 0.507563 0.636752 0.414145
O O4 0.505134 0.667031 0.331188
O O5 0.250000 0.640102 0.455257
O O6 0.075098 0.500000 0.458016
O O7 0.000000 0.642759 0.500000
O O8 0.250000 0.117482 0.844266
O O9 0.509242 0.179873 0.871683
O O10 0.487661 0.117881 0.795282
O O11 0.463211 0.000000 0.854733
O O12 0.750000 0.717508 0.879913
O O13 0.501559 0.668809 0.918406
O O14 0.522243 0.661472 0.835995
O O15 0.750000 0.297305 0.705808
O O16 0.522665 0.346023 0.751570
O O17 0.531162 0.184230 0.718893
O O18 0.250000 0.380398 0.955853
O O19 0.459896 0.500000 0.945376
O O20 0.500000 0.372318 0.000000
O O21 0.750000 0.396036 0.794892
O O22 0.984064 0.500000 0.796496
O O23 0.750000 0.111239 0.759086
O O24 0.539981 0.000000 0.736458
#
# Coordination Sequence:
#
# PCOD9399151 Si02
#       8
#     8   8   8   8   8   8   8   8
#     4  10  20  31  42  61  91 127 164 200 238 281
#     4   9  16  27  44  64  86 116 155 199 242 283
#     4  10  20  33  50  73 100 128 160 202 249 294
#     4  11  20  33  53  76 101 131 166 204 244 288
#     4  10  18  30  46  65  91 126 162 196 237 285
#     4  10  21  37  56  79 106 135 166 201 241 286
#     4   9  17  28  43  66  95 126 160 195 231 275
#     4   9  17  31  50  70  92 120 159 204 247 292
#
# _framework density 15.442133999999999
#
# number of rings (size 3 to 8) (size 9 to 14) (size 15 to 20)
#    0.000    2.250    1.250    2.625    0.000    5.250 
#    0.000    0.000    0.000    2.625    0.000    0.000 
#    0.000    0.500    0.000    1.375    0.000    2.000 
#
# Total GULP energy -356988.638937 kJ/mol
# GULP energy per Si atom -5577.947483 kJ/mol
# Density = 1.540699 g / cm^3
# Si number density = 15.442134 Si / 1000 Ang^3
#
#
#
# Elastic Constant Matrix: (Units=GPa)
#
#
# Indices 1 2 3 4 5 6 
#
# 1 56.3309 51.0638 57.4994 0.0000 0.0000 0.0000
# 2 51.0638 106.2779 79.2017 0.0000 0.0000 0.0000
# 3 57.4994 79.2017 139.9841 0.0000 0.0000 0.0000
# 4 0.0000 0.0000 0.0000 9.3412 0.0000 0.0000
# 5 0.0000 0.0000 0.0000 0.0000 29.1961 0.0000
# 6 0.0000 0.0000 0.0000 0.0000 0.0000 19.1706
#
#
#
# Elastic Compliance Matrix: (Units=1/GPa)
#
#
# Indices 1 2 3 4 5 6 
#
# 1 0.036865 -0.011114 -0.008854 0.000000 0.000000 0.000000
# 2 -0.011114 0.019620 -0.006535 0.000000 0.000000 0.000000
# 3 -0.008854 -0.006535 0.014478 0.000000 0.000000 0.000000
# 4 0.000000 0.000000 0.000000 0.107053 0.000000 0.000000
# 5 0.000000 0.000000 0.000000 0.000000 0.034251 0.000000
# 6 0.000000 0.000000 0.000000 0.000000 0.000000 0.052163
#
#
# Mechanical properties :
#
#
# Convention : Reuss Voigt Hill
#
# Bulk Modulus (GPa) = 55.69371 75.34696 65.52033
# Shear Modulus (GPa) = 15.45958 19.19678 17.32818
#
# Velocity S-wave (km/s) = 3.16750 3.52965 3.35346
# Velocity P-wave (km/s) = 7.03717 8.09384 7.58393
#
# Compressibility (1/GPa) = 0.01795535
#
# Stress axis : x y z
#
# Youngs Moduli (GPa) = 27.12581 50.96866 69.06888
#
# Poissons Ratio (x) = 0.56648 0.61155
# Poissons Ratio (y) = 0.30149 0.45140
# Poissons Ratio (z) = 0.24018 0.33310
#
# Static dielectric constant tensor:
#      x y z
#    x 1.518570 0.000000 0.000000 
#    y 0.000000 1.514790 0.000000 
#    z 0.000000 0.000000 1.485170 
# 
# From -- ./inp_files/37612.got.cif
#   From: 2010.05.17/outbox.cif.g08.bks.cpg/sg51_19_cif.got.tgz:37612.got - 2010.06.03 11:52:47.
