data_PCOD9399473
_publ_section_title
;
Structure prediction by ZEFSAII (Michael W. Deem and Ramdas Pophale) SiO2 
 PCOD9399473
Probable space group: P M M A
;
_chemical_formula_sum "Si O2"
_cell_formula_units_Z 48
_cell_length_a 14.247490
_cell_length_b 16.860463
_cell_length_c 7.631887
_cell_angle_alpha 90.000000
_cell_angle_beta 90.000000
_cell_angle_gamma 90.000000
_cell_volume 1833.326385
_symmetry_space_group_name_H-M "P M M A"
_symmetry_group_IT_number 51
_symmetry_cell_setting 'orthorhombic'
loop_
_space_group_symop_operation_xyz
x,y,z
1/2-x,-y,z
1/2+x,-y,-z
-x,y,-z
-x,-y,-z
1/2+x,y,-z
1/2-x,y,z
x,-y,z
loop_
_atom_site_type_symbol
_atom_site_label
_atom_site_fract_x
_atom_site_fract_y
_atom_site_fract_z
Si Si1 0.142697 0.910557 0.831843
Si Si2 0.998380 0.787990 0.764032
Si Si3 0.556025 0.500000 0.820474
Si Si4 0.644181 0.660728 0.918791
Si Si5 0.141045 0.500000 0.625981
Si Si6 0.356512 0.909773 0.407483
Si Si7 0.147133 0.327271 0.661044
O O1 0.250000 0.895074 0.887922
O O2 0.072866 0.840036 0.877919
O O3 0.141363 0.910675 0.619095
O O4 0.117089 0.000000 0.889260
O O5 0.067287 0.736771 0.638552
O O6 0.931891 0.723067 0.853376
O O7 0.931636 0.851473 0.672762
O O8 0.619521 0.577591 0.828980
O O9 0.467016 0.500000 0.693496
O O10 0.500000 0.500000 0.000000
O O11 0.750000 0.685836 0.877275
O O12 0.639204 0.650072 0.130871
O O13 0.250000 0.500000 0.711456
O O14 0.141864 0.409567 0.555863
O O15 0.250000 0.889860 0.354468
O O16 0.376932 0.000000 0.350680
O O17 0.250000 0.291284 0.632075
#
# Coordination Sequence:
#
# PCOD9399473 Si02
#       7
#     8   8   4   8   4   8   8
#     4   9  19  36  57  80 102 124 156 205 262 314
#     4  12  19  29  50  80 105 130 164 205 252 306
#     4  12  17  31  50  73  95 136 178 216 254 292
#     4  11  22  33  47  71 107 143 176 212 248 290
#     4  10  18  31  50  71  98 134 175 216 253 288
#     4   9  19  36  56  78 103 127 156 201 258 314
#     4  10  20  33  48  71 104 139 173 211 248 288
#
# _framework density 26.181918
#
# number of rings (size 3 to 8) (size 9 to 14) (size 15 to 20)
#    0.000    1.667    3.333    3.750    0.000    1.333 
#    0.000    0.000    0.000    8.000    0.000   28.000 
#    0.000   21.333    0.000    0.000    0.000    0.000 
#
# Total GULP energy -268647.597197 kJ/mol
# GULP energy per Si atom -5596.824942 kJ/mol
# Density = 2.612233 g / cm^3
# Si number density = 26.181918 Si / 1000 Ang^3
#
#
#
# Elastic Constant Matrix: (Units=GPa)
#
#
# Indices 1 2 3 4 5 6 
#
# 1 197.3295 117.5171 35.4968 0.0000 0.0000 0.0000
# 2 117.5171 210.6796 19.9629 0.0000 0.0000 0.0000
# 3 35.4968 19.9629 63.6017 0.0000 0.0000 0.0000
# 4 0.0000 0.0000 0.0000 37.3911 0.0000 0.0000
# 5 0.0000 0.0000 0.0000 0.0000 24.0911 0.0000
# 6 0.0000 0.0000 0.0000 0.0000 0.0000 80.1850
#
#
#
# Elastic Compliance Matrix: (Units=1/GPa)
#
#
# Indices 1 2 3 4 5 6 
#
# 1 0.008186 -0.004260 -0.003232 0.000000 0.000000 0.000000
# 2 -0.004260 0.007109 0.000146 0.000000 0.000000 0.000000
# 3 -0.003232 0.000146 0.017481 0.000000 0.000000 0.000000
# 4 0.000000 0.000000 0.000000 0.026744 0.000000 0.000000
# 5 0.000000 0.000000 0.000000 0.000000 0.041509 0.000000
# 6 0.000000 0.000000 0.000000 0.000000 0.000000 0.012471
#
#
# Mechanical properties :
#
#
# Convention : Reuss Voigt Hill
#
# Bulk Modulus (GPa) = 55.29513 90.84048 73.06781
# Shear Modulus (GPa) = 37.25262 48.24236 42.74749
#
# Velocity S-wave (km/s) = 3.77614 4.29719 4.04506
# Velocity P-wave (km/s) = 6.33860 7.70664 7.05585
#
# Compressibility (1/GPa) = 0.01808478
#
# Stress axis : x y z
#
# Youngs Moduli (GPa) = 122.16118 140.66954 57.20652
#
# Poissons Ratio (x) = 0.59924 0.18487
# Poissons Ratio (y) = 0.52039 -0.00836
# Poissons Ratio (z) = 0.39477 -0.02057
#
# Static dielectric constant tensor:
#      x y z
#    x 1.983560 0.000000 0.000000 
#    y 0.000000 1.952400 0.000000 
#    z 0.000000 0.000000 2.156770 
# 
# From -- ./inp_files/16502.got.cif
#   From: 2010.05.17/outbox.cif.g08.bks.cpg/sg51_9_cif.got.tgz:16502.got - 2010.06.03 11:52:47.
