data_PCOD9399835
_publ_section_title
;
Structure prediction by ZEFSAII (Michael W. Deem and Ramdas Pophale) SiO2 
 PCOD9399835
Probable space group: P M M A
;
_chemical_formula_sum "Si O2"
_cell_formula_units_Z 64
_cell_length_a 16.030294
_cell_length_b 8.270134
_cell_length_c 24.553557
_cell_angle_alpha 90.000000
_cell_angle_beta 90.000000
_cell_angle_gamma 90.000000
_cell_volume 3255.130841
_symmetry_space_group_name_H-M "P M M A"
_symmetry_group_IT_number 51
_symmetry_cell_setting 'orthorhombic'
loop_
_space_group_symop_operation_xyz
x,y,z
1/2-x,-y,z
1/2+x,-y,-z
-x,y,-z
-x,-y,-z
1/2+x,y,-z
1/2-x,y,z
x,-y,z
loop_
_atom_site_type_symbol
_atom_site_label
_atom_site_fract_x
_atom_site_fract_y
_atom_site_fract_z
Si Si1 0.000374 0.197947 0.062720
Si Si2 0.342361 0.192307 0.370139
Si Si3 0.501371 0.307314 0.438218
Si Si4 0.411527 0.196142 0.748742
Si Si5 0.342338 0.805042 0.632265
Si Si6 0.397549 0.691202 0.252945
Si Si7 0.842975 0.802728 0.133900
Si Si8 0.842501 0.195294 0.865495
O O1 0.917003 0.250732 0.094225
O O2 0.082243 0.252050 0.095884
O O3 0.000909 0.000000 0.063328
O O4 0.000000 0.249011 0.000000
O O5 0.250000 0.253668 0.385601
O O6 0.418102 0.261451 0.405367
O O7 0.358216 0.230294 0.306669
O O8 0.343503 0.000000 0.377154
O O9 0.500000 0.243060 0.500000
O O10 0.505672 0.500000 0.440291
O O11 0.582879 0.247775 0.406395
O O12 0.363656 0.245708 0.694097
O O13 0.504550 0.265369 0.747798
O O14 0.365571 0.243931 0.804282
O O15 0.417926 0.000000 0.748774
O O16 0.250000 0.746939 0.616324
O O17 0.340955 0.000000 0.632217
O O18 0.386353 0.500000 0.256748
O O19 0.359158 0.752993 0.196500
O O20 0.750000 0.748248 0.119061
O O21 0.842762 0.000000 0.132649
O O22 0.750000 0.249593 0.882573
O O23 0.843775 0.000000 0.866969
#
# Coordination Sequence:
#
# PCOD9399835 Si02
#       8
#     8   8   8   8   8   8   8   8
#     4   9  17  29  47  76 112 144 181 232 283 329
#     4  11  24  42  65  91 118 152 195 243 294 348
#     4  11  25  43  62  87 121 160 199 240 287 339
#     4  10  18  33  57  83 114 148 184 229 284 342
#     4  10  21  37  61  91 119 151 194 242 290 343
#     4  12  23  35  57  87 118 150 186 231 289 350
#     4   9  16  27  48  77 107 140 179 223 275 331
#     4  10  20  35  55  79 110 149 188 229 281 340
#
# _framework density 19.661268
#
# number of rings (size 3 to 8) (size 9 to 14) (size 15 to 20)
#    0.000    1.750    2.500    2.625    0.000    6.500 
#    0.000    5.000    0.000    1.500    0.000    0.000 
#    0.000    0.000    0.000    0.000    0.000    0.000 
#
# Total GULP energy -357536.531643 kJ/mol
# GULP energy per Si atom -5586.508307 kJ/mol
# Density = 1.961652 g / cm^3
# Si number density = 19.661268 Si / 1000 Ang^3
#
#
#
# Elastic Constant Matrix: (Units=GPa)
#
#
# Indices 1 2 3 4 5 6 
#
# 1 206.0407 15.4747 92.5038 0.0000 0.0000 0.0000
# 2 15.4747 9.1693 8.5752 0.0000 0.0000 0.0000
# 3 92.5038 8.5752 158.5976 0.0000 0.0000 0.0000
# 4 0.0000 0.0000 0.0000 42.7849 0.0000 0.0000
# 5 0.0000 0.0000 0.0000 0.0000 -5.1108 0.0000
# 6 0.0000 0.0000 0.0000 0.0000 0.0000 -46.0020
#
#
#
# Elastic Compliance Matrix: (Units=1/GPa)
#
#
# Indices 1 2 3 4 5 6 
#
# 1 0.007169 -0.008625 -0.003715 0.000000 0.000000 0.000000
# 2 -0.008625 0.125244 -0.001741 0.000000 0.000000 0.000000
# 3 -0.003715 -0.001741 0.008566 0.000000 0.000000 0.000000
# 4 0.000000 0.000000 0.000000 0.023373 0.000000 0.000000
# 5 0.000000 0.000000 0.000000 0.000000 -0.195664 0.000000
# 6 0.000000 0.000000 0.000000 0.000000 0.000000 -0.021738
#
#
# Mechanical properties :
#
#
# Convention : Reuss Voigt Hill
#
# Bulk Modulus (GPa) = 8.86388 67.43502 38.14945
# Shear Modulus (GPa) = 393.13142 15.48469 204.30805
#
# Velocity S-wave (km/s) = 14.15579 2.80942 10.20488
# Velocity P-wave (km/s) = 16.48332 6.70050 12.58166
#
# Compressibility (1/GPa) = 0.11281740
#
# Stress axis : x y z
#
# Youngs Moduli (GPa) = 139.48728 7.98439 116.73631
#
# Poissons Ratio (x) = 0.06886 0.43369
# Poissons Ratio (y) = 1.20303 0.20329
# Poissons Ratio (z) = 0.51821 0.01390
#
# Static dielectric constant tensor:
#      x y z
#    x 1.704520 0.000000 0.000000 
#    y 0.000000 1.672850 0.000000 
#    z 0.000000 0.000000 1.667190 
# 
# From -- ./inp_files/35845.got.cif
#   From: 2010.05.17/outbox.cif.g08.bks.cpg/sg51_18_cif.got.tgz:35845.got - 2010.06.03 11:52:47.
