data_PCOD9399754
_publ_section_title
;
Structure prediction by ZEFSAII (Michael W. Deem and Ramdas Pophale) SiO2 
 PCOD9399754
Probable space group: P M M A
;
_chemical_formula_sum "Si O2"
_cell_formula_units_Z 52
_cell_length_a 14.392850
_cell_length_b 7.527279
_cell_length_c 22.572713
_cell_angle_alpha 90.000000
_cell_angle_beta 90.000000
_cell_angle_gamma 90.000000
_cell_volume 2445.505099
_symmetry_space_group_name_H-M "P M M A"
_symmetry_group_IT_number 51
_symmetry_cell_setting 'orthorhombic'
loop_
_space_group_symop_operation_xyz
x,y,z
1/2-x,-y,z
1/2+x,-y,-z
-x,y,-z
-x,-y,-z
1/2+x,y,-z
1/2-x,y,z
x,-y,z
loop_
_atom_site_type_symbol
_atom_site_label
_atom_site_fract_x
_atom_site_fract_y
_atom_site_fract_z
Si Si1 0.250000 0.217360 0.130700
Si Si2 0.449381 0.212815 0.172958
Si Si3 0.495780 0.290289 0.694379
Si Si4 0.357931 0.792946 0.595568
Si Si5 0.500000 0.747640 0.500000
Si Si6 0.641529 0.283176 0.597482
Si Si7 0.250000 0.782981 0.992354
Si Si8 0.557247 0.783109 0.057868
O O1 0.343954 0.277399 0.163006
O O2 0.250000 0.000000 0.130670
O O3 0.250000 0.271665 0.061397
O O4 0.491571 0.250298 0.236940
O O5 0.511770 0.279868 0.118566
O O6 0.445325 0.000000 0.167250
O O7 0.487387 0.500000 0.687748
O O8 0.406560 0.214348 0.659903
O O9 0.589069 0.236931 0.658461
O O10 0.250000 0.737196 0.595332
O O11 0.425893 0.687387 0.551062
O O12 0.362141 0.000000 0.576283
O O13 0.420140 0.806725 0.453556
O O14 0.750000 0.236776 0.596445
O O15 0.635076 0.500000 0.588525
O O16 0.339438 0.725178 0.956279
O O17 0.250000 0.000000 0.994460
O O18 0.556312 0.000000 0.059596
O O19 0.500000 0.730635 0.000000
#
# Coordination Sequence:
#
# PCOD9399754 Si02
#       8
#     4   8   8   8   4   8   4   8
#     4   9  16  26  47  77 107 135 168 217 276 329
#     4  10  19  32  51  77 106 136 175 224 274 322
#     4  10  22  38  55  75 104 145 187 224 265 312
#     4  10  21  38  60  84 112 144 176 216 266 317
#     4  10  18  32  56  86 113 136 169 212 267 320
#     4   9  18  32  50  75 107 141 178 217 256 306
#     4   9  14  24  42  71 103 131 168 213 270 329
#     4   9  15  25  44  71 103 134 167 216 270 321
#
# _framework density 21.263500000000001
#
# number of rings (size 3 to 8) (size 9 to 14) (size 15 to 20)
#    0.000    2.462    1.538    1.385    1.077    0.923 
#    1.385    0.000    0.000    3.231    0.000    0.000 
#    0.000    0.000    0.000    0.000    0.000    0.000 
#
# Total GULP energy -289709.555756 kJ/mol
# GULP energy per Si atom -5571.337611 kJ/mol
# Density = 2.121510 g / cm^3
# Si number density = 21.263500 Si / 1000 Ang^3
#
#
#
# Elastic Constant Matrix: (Units=GPa)
#
#
# Indices 1 2 3 4 5 6 
#
# 1 223.6983 19.7539 98.9728 0.0000 0.0000 0.0000
# 2 19.7539 65.2745 8.5492 0.0000 0.0000 0.0000
# 3 98.9728 8.5492 193.6630 0.0000 0.0000 0.0000
# 4 0.0000 0.0000 0.0000 19.6929 0.0000 0.0000
# 5 0.0000 0.0000 0.0000 0.0000 19.6807 0.0000
# 6 0.0000 0.0000 0.0000 0.0000 0.0000 -4.2153
#
#
#
# Elastic Compliance Matrix: (Units=1/GPa)
#
#
# Indices 1 2 3 4 5 6 
#
# 1 0.005901 -0.001399 -0.002954 0.000000 0.000000 0.000000
# 2 -0.001399 0.015741 0.000020 0.000000 0.000000 0.000000
# 3 -0.002954 0.000020 0.006672 0.000000 0.000000 0.000000
# 4 0.000000 0.000000 0.000000 0.050780 0.000000 0.000000
# 5 0.000000 0.000000 0.000000 0.000000 0.050811 0.000000
# 6 0.000000 0.000000 0.000000 0.000000 0.000000 -0.237229
#
#
# Mechanical properties :
#
#
# Convention : Reuss Voigt Hill
#
# Bulk Modulus (GPa) = 50.89497 81.90974 66.40235
# Shear Modulus (GPa) = -54.28312 30.72231 -11.78041
#
# Velocity S-wave (km/s) = -5.05808 3.80523 -2.35632
# Velocity P-wave (km/s) = 3.18197 7.60994 4.88806
#
# Compressibility (1/GPa) = 0.01964831
#
# Stress axis : x y z
#
# Youngs Moduli (GPa) = 169.47029 63.52987 149.87294
#
# Poissons Ratio (x) = 0.08887 0.44270
# Poissons Ratio (y) = 0.23706 -0.00300
# Poissons Ratio (z) = 0.50059 -0.00127
#
# Static dielectric constant tensor:
#      x y z
#    x 1.700370 0.000000 0.000000 
#    y 0.000000 1.885040 0.000000 
#    z 0.000000 0.000000 1.739570 
# 
# From -- ./inp_files/33274.got.cif
#   From: 2010.05.17/outbox.cif.g08.bks.cpg/sg51_17_cif.got.tgz:33274.got - 2010.06.03 11:52:47.
