data_PCOD9399083
_publ_section_title
;
Structure prediction by ZEFSAII (Michael W. Deem and Ramdas Pophale) SiO2 
 PCOD9399083
Probable space group: P M M A
;
_chemical_formula_sum "Si O2"
_cell_formula_units_Z 64
_cell_length_a 7.873531
_cell_length_b 16.092870
_cell_length_c 25.302835
_cell_angle_alpha 90.000000
_cell_angle_beta 90.000000
_cell_angle_gamma 90.000000
_cell_volume 3206.064300
_symmetry_space_group_name_H-M "P M M A"
_symmetry_group_IT_number 51
_symmetry_cell_setting 'orthorhombic'
loop_
_space_group_symop_operation_xyz
x,y,z
1/2-x,-y,z
1/2+x,-y,-z
-x,y,-z
-x,-y,-z
1/2+x,y,-z
1/2-x,y,z
x,-y,z
loop_
_atom_site_type_symbol
_atom_site_label
_atom_site_fract_x
_atom_site_fract_y
_atom_site_fract_z
Si Si1 0.953581 0.089829 0.672518
Si Si2 0.046565 0.317009 0.758288
Si Si3 0.451841 0.267329 0.058929
Si Si4 0.549742 0.270298 0.642557
Si Si5 0.954235 0.409071 0.141673
Si Si6 0.949389 0.089087 0.907457
Si Si7 0.451702 0.869831 0.791278
Si Si8 0.955085 0.593552 0.561064
O O1 0.750000 0.090473 0.665437
O O2 0.022004 0.176126 0.647685
O O3 0.987962 0.094683 0.735316
O O4 0.018559 0.000000 0.653074
O O5 0.250000 0.324352 0.751430
O O6 0.984380 0.385600 0.799447
O O7 0.014165 0.228558 0.786585
O O8 0.969084 0.311698 0.700272
O O9 0.250000 0.260967 0.062969
O O10 0.505872 0.335851 0.101167
O O11 0.525121 0.174930 0.070382
O O12 0.500000 0.293021 0.000000
O O13 0.750000 0.260904 0.631483
O O14 0.478482 0.333327 0.598909
O O15 0.750000 0.411985 0.144982
O O16 0.016865 0.500000 0.125098
O O17 0.750000 0.087771 0.921302
O O18 0.964369 0.095577 0.843910
O O19 0.024421 0.000000 0.924373
O O20 0.250000 0.883099 0.795609
O O21 0.750000 0.592403 0.565596
O O22 0.015811 0.500000 0.575040
O O23 0.000000 0.608490 0.500000
#
# Coordination Sequence:
#
# PCOD9399083 Si02
#       8
#     8   8   8   8   8   8   8   8
#     4   9  17  29  45  67  99 138 174 207 247 298
#     4   9  18  32  50  76 109 139 168 205 252 305
#     4  11  24  41  61  80 103 134 171 217 263 311
#     4   9  18  31  49  74 103 136 173 212 253 300
#     4  10  21  39  61  82 107 138 171 211 259 313
#     4  10  21  36  54  77 104 135 170 208 255 311
#     4  10  18  29  48  74 104 136 170 209 251 298
#     4   9  18  33  52  74 100 131 170 216 261 304
#
# _framework density 19.962168999999999
#
# number of rings (size 3 to 8) (size 9 to 14) (size 15 to 20)
#    0.000    2.375    1.250    1.125    0.000    5.250 
#    0.000    0.000    0.000    0.375    0.000    0.000 
#    0.000    0.000    0.000    0.000    0.000    0.000 
#
# Total GULP energy -356983.093983 kJ/mol
# GULP energy per Si atom -5577.860843 kJ/mol
# Density = 1.991673 g / cm^3
# Si number density = 19.962169 Si / 1000 Ang^3
#
#
#
# Elastic Constant Matrix: (Units=GPa)
#
#
# Indices 1 2 3 4 5 6 
#
# 1 18.6551 16.4548 -4.7245 0.0000 0.0000 0.0000
# 2 16.4548 154.9554 68.1221 0.0000 0.0000 0.0000
# 3 -4.7245 68.1221 74.5797 0.0000 0.0000 0.0000
# 4 0.0000 0.0000 0.0000 89.6049 0.0000 0.0000
# 5 0.0000 0.0000 0.0000 0.0000 17.1717 0.0000
# 6 0.0000 0.0000 0.0000 0.0000 0.0000 9.3451
#
#
#
# Elastic Compliance Matrix: (Units=1/GPa)
#
#
# Indices 1 2 3 4 5 6 
#
# 1 0.072973 -0.016345 0.019552 0.000000 0.000000 0.000000
# 2 -0.016345 0.014445 -0.014229 0.000000 0.000000 0.000000
# 3 0.019552 -0.014229 0.027644 0.000000 0.000000 0.000000
# 4 0.000000 0.000000 0.000000 0.011160 0.000000 0.000000
# 5 0.000000 0.000000 0.000000 0.000000 0.058235 0.000000
# 6 0.000000 0.000000 0.000000 0.000000 0.000000 0.107008
#
#
# Mechanical properties :
#
#
# Convention : Reuss Voigt Hill
#
# Bulk Modulus (GPa) = 10.75056 45.32169 28.03612
# Shear Modulus (GPa) = 14.51312 34.44686 24.47999
#
# Velocity S-wave (km/s) = 2.69928 4.15855 3.50568
# Velocity P-wave (km/s) = 3.88741 6.76839 5.51920
#
# Compressibility (1/GPa) = 0.09301842
#
# Stress axis : x y z
#
# Youngs Moduli (GPa) = 13.70367 69.22960 36.17374
#
# Poissons Ratio (x) = 1.13153 -0.70727
# Poissons Ratio (y) = 0.22398 0.51473
# Poissons Ratio (z) = -0.26794 0.98509
#
# Static dielectric constant tensor:
#      x y z
#    x 1.715580 0.000000 0.000000 
#    y 0.000000 1.778020 0.000000 
#    z 0.000000 0.000000 1.647370 
# 
# From -- ./inp_files/35005.got.cif
#   From: 2010.05.17/outbox.cif.g08.bks.cpg/sg51_18_cif.got.tgz:35005.got - 2010.06.03 11:52:47.
