data_PCOD9399107
_publ_section_title
;
Structure prediction by ZEFSAII (Michael W. Deem and Ramdas Pophale) SiO2 
 PCOD9399107
Probable space group: P M M A
;
_chemical_formula_sum "Si O2"
_cell_formula_units_Z 48
_cell_length_a 21.384858
_cell_length_b 7.447149
_cell_length_c 14.832549
_cell_angle_alpha 90.000000
_cell_angle_beta 90.000000
_cell_angle_gamma 90.000000
_cell_volume 2362.175744
_symmetry_space_group_name_H-M "P M M A"
_symmetry_group_IT_number 51
_symmetry_cell_setting 'orthorhombic'
loop_
_space_group_symop_operation_xyz
x,y,z
1/2-x,-y,z
1/2+x,-y,-z
-x,y,-z
-x,-y,-z
1/2+x,y,-z
1/2-x,y,z
x,-y,z
loop_
_atom_site_type_symbol
_atom_site_label
_atom_site_fract_x
_atom_site_fract_y
_atom_site_fract_z
Si Si1 0.874696 0.216829 0.747823
Si Si2 0.481275 0.216124 0.748070
Si Si3 0.561544 0.712845 0.450083
Si Si4 0.438831 0.219185 0.942739
Si Si5 0.179213 0.219339 0.059627
Si Si6 0.181017 0.288066 0.446512
O O1 0.841333 0.275497 0.839798
O O2 0.838967 0.270438 0.657603
O O3 0.946695 0.279863 0.744560
O O4 0.875954 0.000000 0.749811
O O5 0.446418 0.263988 0.656251
O O6 0.448431 0.278037 0.839884
O O7 0.483913 0.000000 0.752505
O O8 0.500000 0.787500 0.500000
O O9 0.562184 0.500000 0.469282
O O10 0.625061 0.787860 0.492590
O O11 0.438338 0.000000 0.943669
O O12 0.500000 0.273093 0.000000
O O13 0.374849 0.277475 0.990534
O O14 0.250000 0.276862 0.039250
O O15 0.179116 0.000000 0.059043
O O16 0.250000 0.210760 0.460690
O O17 0.184896 0.500000 0.466487
#
# Coordination Sequence:
#
# PCOD9399107 Si02
#       6
#     8   8   8   8   8   8
#     4  10  18  29  49  77 104 126 156 203 250 289
#     4  10  19  30  50  78 101 126 163 204 243 282
#     4  10  20  35  53  71  95 129 166 202 239 288
#     4   9  15  27  45  66  95 129 161 192 231 283
#     4   9  16  26  43  69  99 129 160 195 237 285
#     4  10  21  36  52  71  97 130 164 198 244 298
#
# _framework density 20.320250000000001
#
# number of rings (size 3 to 8) (size 9 to 14) (size 15 to 20)
#    0.000    2.333    3.333    0.500    0.000    2.000 
#    0.000    0.833    0.000    2.500    0.000    0.000 
#    0.000    0.000    0.000    0.000    0.000    0.000 
#
# Total GULP energy -268077.711815 kJ/mol
# GULP energy per Si atom -5584.952329 kJ/mol
# Density = 2.027400 g / cm^3
# Si number density = 20.320250 Si / 1000 Ang^3
#
#
#
# Elastic Constant Matrix: (Units=GPa)
#
#
# Indices 1 2 3 4 5 6 
#
# 1 231.8405 10.7486 119.9791 0.0000 0.0000 0.0000
# 2 10.7486 60.6405 -8.2180 0.0000 0.0000 0.0000
# 3 119.9791 -8.2180 159.3789 0.0000 0.0000 0.0000
# 4 0.0000 0.0000 0.0000 25.8283 0.0000 0.0000
# 5 0.0000 0.0000 0.0000 0.0000 22.3927 0.0000
# 6 0.0000 0.0000 0.0000 0.0000 0.0000 -4.7091
#
#
#
# Elastic Compliance Matrix: (Units=1/GPa)
#
#
# Indices 1 2 3 4 5 6 
#
# 1 0.007312 -0.002056 -0.005611 0.000000 0.000000 0.000000
# 2 -0.002056 0.017185 0.002434 0.000000 0.000000 0.000000
# 3 -0.005611 0.002434 0.010623 0.000000 0.000000 0.000000
# 4 0.000000 0.000000 0.000000 0.038717 0.000000 0.000000
# 5 0.000000 0.000000 0.000000 0.000000 0.044658 0.000000
# 6 0.000000 0.000000 0.000000 0.000000 0.000000 -0.212356
#
#
# Mechanical properties :
#
#
# Convention : Reuss Voigt Hill
#
# Bulk Modulus (GPa) = 40.55979 77.43103 58.99541
# Shear Modulus (GPa) = -66.51016 30.65905 -17.92555
#
# Velocity S-wave (km/s) = -5.72731 3.88853 -2.97333
# Velocity P-wave (km/s) = 4.87159 7.63865 4.16032
#
# Compressibility (1/GPa) = 0.02465496
#
# Stress axis : x y z
#
# Youngs Moduli (GPa) = 136.75855 58.19027 94.13132
#
# Poissons Ratio (x) = 0.11966 0.52813
# Poissons Ratio (y) = 0.28123 -0.22913
# Poissons Ratio (z) = 0.76729 -0.14164
#
# Static dielectric constant tensor:
#      x y z
#    x 1.721420 0.000000 0.000000 
#    y 0.000000 1.779880 0.000000 
#    z 0.000000 0.000000 1.673590 
# 
# From -- ./inp_files/18092.got.cif
#   From: 2010.05.17/outbox.cif.g08.bks.cpg/sg51_10_cif.got.tgz:18092.got - 2010.06.03 11:52:47.
