data_PCOD9399182
_publ_section_title
;
Structure prediction by ZEFSAII (Michael W. Deem and Ramdas Pophale) SiO2 
 PCOD9399182
Probable space group: P M M A
;
_chemical_formula_sum "Si O2"
_cell_formula_units_Z 56
_cell_length_a 8.671936
_cell_length_b 22.134712
_cell_length_c 18.950173
_cell_angle_alpha 90.000000
_cell_angle_beta 90.000000
_cell_angle_gamma 90.000000
_cell_volume 3637.500978
_symmetry_space_group_name_H-M "P M M A"
_symmetry_group_IT_number 51
_symmetry_cell_setting 'orthorhombic'
loop_
_space_group_symop_operation_xyz
x,y,z
1/2-x,-y,z
1/2+x,-y,-z
-x,y,-z
-x,-y,-z
1/2+x,y,-z
1/2-x,y,z
x,-y,z
loop_
_atom_site_type_symbol
_atom_site_label
_atom_site_fract_x
_atom_site_fract_y
_atom_site_fract_z
Si Si1 0.934358 0.931097 0.666936
Si Si2 0.934045 0.796149 0.921864
Si Si3 0.563648 0.319303 0.161437
Si Si4 0.072842 0.744192 0.704400
Si Si5 0.063866 0.179838 0.578371
Si Si6 0.572653 0.867624 0.202856
Si Si7 0.065510 0.429897 0.078064
O O1 0.750000 0.924698 0.663027
O O2 0.010342 0.882781 0.614305
O O3 0.989290 0.914923 0.746145
O O4 0.976370 0.000000 0.649615
O O5 0.750000 0.793099 0.923331
O O6 0.999670 0.733653 0.889167
O O7 0.989137 0.849273 0.869217
O O8 0.000000 0.804307 0.000000
O O9 0.750000 0.315537 0.161012
O O10 0.506242 0.304575 0.241147
O O11 0.508172 0.383038 0.132169
O O12 0.250000 0.726317 0.690685
O O13 0.005343 0.766141 0.630074
O O14 0.074557 0.805627 0.751070
O O15 0.250000 0.180948 0.578424
O O16 0.000000 0.185010 0.500000
O O17 0.750000 0.884830 0.190114
O O18 0.250000 0.422821 0.077020
O O19 0.029334 0.500000 0.094222
O O20 0.000000 0.416930 0.000000
#
# Coordination Sequence:
#
# PCOD9399182 Si02
#       7
#     8   8   8   8   8   8   8
#     4  10  20  33  49  69  91 118 153 186 218 264
#     4  11  20  30  45  66  91 117 148 187 232 276
#     4  10  18  30  47  66  89 118 155 193 229 270
#     4   7  14  28  45  64  86 113 143 179 220 265
#     4  10  19  32  49  69  95 123 150 182 224 270
#     4   9  17  31  48  66  88 114 146 184 228 272
#     4  10  20  32  44  61  89 125 162 197 233 272
#
# _framework density 15.395184
#
# number of rings (size 3 to 8) (size 9 to 14) (size 15 to 20)
#    0.000    2.429    0.000    5.571    0.000    2.286 
#    0.000    2.143    0.000    0.429    0.000    0.000 
#    0.000    0.571    0.000    1.286    0.000    2.286 
#
# Total GULP energy -312041.917054 kJ/mol
# GULP energy per Si atom -5572.177090 kJ/mol
# Density = 1.536014 g / cm^3
# Si number density = 15.395184 Si / 1000 Ang^3
#
#
#
# Elastic Constant Matrix: (Units=GPa)
#
#
# Indices 1 2 3 4 5 6 
#
# 1 68.3440 25.1910 43.5444 0.0000 0.0000 0.0000
# 2 25.1910 64.3141 60.4679 0.0000 0.0000 0.0000
# 3 43.5444 60.4679 143.5521 0.0000 0.0000 0.0000
# 4 0.0000 0.0000 0.0000 19.9229 0.0000 0.0000
# 5 0.0000 0.0000 0.0000 0.0000 22.0401 0.0000
# 6 0.0000 0.0000 0.0000 0.0000 0.0000 19.9834
#
#
#
# Elastic Compliance Matrix: (Units=1/GPa)
#
#
# Indices 1 2 3 4 5 6 
#
# 1 0.018543 -0.003270 -0.004248 0.000000 0.000000 0.000000
# 2 -0.003270 0.026321 -0.010095 0.000000 0.000000 0.000000
# 3 -0.004248 -0.010095 0.012507 0.000000 0.000000 0.000000
# 4 0.000000 0.000000 0.000000 0.050193 0.000000 0.000000
# 5 0.000000 0.000000 0.000000 0.000000 0.045372 0.000000
# 6 0.000000 0.000000 0.000000 0.000000 0.000000 0.050042
#
#
# Mechanical properties :
#
#
# Convention : Reuss Voigt Hill
#
# Bulk Modulus (GPa) = 45.15446 59.40187 52.27816
# Shear Modulus (GPa) = 20.35956 22.18974 21.27465
#
# Velocity S-wave (km/s) = 3.64051 3.80062 3.72143
# Velocity P-wave (km/s) = 6.86040 7.61105 7.24545
#
# Compressibility (1/GPa) = 0.02214621
#
# Stress axis : x y z
#
# Youngs Moduli (GPa) = 53.92784 37.99266 79.95561
#
# Poissons Ratio (x) = 0.12422 0.33962
# Poissons Ratio (y) = 0.17632 0.80717
# Poissons Ratio (z) = 0.22906 0.38355
#
# Static dielectric constant tensor:
#      x y z
#    x 1.522590 0.000000 0.000000 
#    y 0.000000 1.505040 0.000000 
#    z 0.000000 0.000000 1.521590 
# 
# From -- ./inp_files/28253.got.cif
#   From: 2010.05.17/outbox.cif.g08.bks.cpg/sg51_15_cif.got.tgz:28253.got - 2010.06.03 11:52:47.
