data_PCOD9399557
_publ_section_title
;
Structure prediction by ZEFSAII (Michael W. Deem and Ramdas Pophale) SiO2 
 PCOD9399557
Probable space group: P M M A
;
_chemical_formula_sum "Si O2"
_cell_formula_units_Z 48
_cell_length_a 17.027876
_cell_length_b 7.552842
_cell_length_c 14.145508
_cell_angle_alpha 90.000000
_cell_angle_beta 90.000000
_cell_angle_gamma 90.000000
_cell_volume 1819.237616
_symmetry_space_group_name_H-M "P M M A"
_symmetry_group_IT_number 51
_symmetry_cell_setting 'orthorhombic'
loop_
_space_group_symop_operation_xyz
x,y,z
1/2-x,-y,z
1/2+x,-y,-z
-x,y,-z
-x,-y,-z
1/2+x,y,-z
1/2-x,y,z
x,-y,z
loop_
_atom_site_type_symbol
_atom_site_label
_atom_site_fract_x
_atom_site_fract_y
_atom_site_fract_z
Si Si1 0.250000 0.283935 0.227071
Si Si2 0.250000 0.282955 0.446357
Si Si3 0.096201 0.287387 0.112458
Si Si4 0.840251 0.291269 0.078110
Si Si5 0.081756 0.295619 0.467044
Si Si6 0.334534 0.204016 0.705282
Si Si7 0.496289 0.210321 0.287250
O O1 0.250000 0.500000 0.226483
O O2 0.250000 0.228576 0.336358
O O3 0.172238 0.224685 0.171473
O O4 0.250000 0.500000 0.448875
O O5 0.167460 0.221276 0.490336
O O6 0.100909 0.500000 0.105447
O O7 0.022052 0.246537 0.177976
O O8 0.103832 0.222733 0.005041
O O9 0.750000 0.278788 0.041648
O O10 0.856018 0.500000 0.094978
O O11 0.840473 0.203512 0.180204
O O12 0.081732 0.500000 0.496005
O O13 0.070806 0.291424 0.353284
O O14 0.000000 0.209129 0.500000
O O15 0.250000 0.288415 0.681633
O O16 0.418986 0.282251 0.678709
O O17 0.332957 0.000000 0.675659
O O18 0.495760 0.000000 0.299874
#
# Coordination Sequence:
#
# PCOD9399557 Si02
#       7
#     4   4   8   8   8   8   8
#     4   9  14  26  52  78 105 144 179 211 262 326
#     4   9  16  32  60  86 111 146 177 209 266 332
#     4  10  18  31  53  80 110 144 181 223 276 327
#     4   9  17  30  52  80 107 140 187 238 277 316
#     4  10  21  39  63  88 115 146 179 219 273 334
#     4   9  20  39  56  69  99 151 195 226 273 331
#     4  11  23  37  55  80 110 142 181 230 275 324
#
# _framework density 26.384678000000001
#
# number of rings (size 3 to 8) (size 9 to 14) (size 15 to 20)
#    0.000    2.333    2.500    0.500    0.000    3.000 
#    1.500    5.000    0.000    0.000    0.000    0.000 
#    0.000    0.000    0.000    0.000    0.000    0.000 
#
# Total GULP energy -268516.329552 kJ/mol
# GULP energy per Si atom -5594.090199 kJ/mol
# Density = 2.632463 g / cm^3
# Si number density = 26.384678 Si / 1000 Ang^3
#
#
#
# Elastic Constant Matrix: (Units=GPa)
#
#
# Indices 1 2 3 4 5 6 
#
# 1 203.6611 7.6574 32.9561 0.0000 0.0000 0.0000
# 2 7.6574 90.6684 24.1818 0.0000 0.0000 0.0000
# 3 32.9561 24.1818 107.3440 0.0000 0.0000 0.0000
# 4 0.0000 0.0000 0.0000 50.2658 0.0000 0.0000
# 5 0.0000 0.0000 0.0000 0.0000 52.2848 0.0000
# 6 0.0000 0.0000 0.0000 0.0000 0.0000 1.1984
#
#
#
# Elastic Compliance Matrix: (Units=1/GPa)
#
#
# Indices 1 2 3 4 5 6 
#
# 1 0.005167 -0.000014 -0.001583 0.000000 0.000000 0.000000
# 2 -0.000014 0.011734 -0.002639 0.000000 0.000000 0.000000
# 3 -0.001583 -0.002639 0.010396 0.000000 0.000000 0.000000
# 4 0.000000 0.000000 0.000000 0.019894 0.000000 0.000000
# 5 0.000000 0.000000 0.000000 0.000000 0.019126 0.000000
# 6 0.000000 0.000000 0.000000 0.000000 0.000000 0.834429
#
#
# Mechanical properties :
#
#
# Convention : Reuss Voigt Hill
#
# Bulk Modulus (GPa) = 53.12134 59.02935 56.07535
# Shear Modulus (GPa) = 5.46153 43.20835 24.33494
#
# Velocity S-wave (km/s) = 1.44030 4.05115 3.04026
# Velocity P-wave (km/s) = 4.78989 6.65610 5.79856
#
# Compressibility (1/GPa) = 0.01882483
#
# Stress axis : x y z
#
# Youngs Moduli (GPa) = 193.54245 85.22063 96.18725
#
# Poissons Ratio (x) = 0.00121 0.15227
# Poissons Ratio (y) = 0.00274 0.25385
# Poissons Ratio (z) = 0.30640 0.22490
#
# Static dielectric constant tensor:
#      x y z
#    x 2.116480 0.000000 0.000000 
#    y 0.000000 1.958190 0.000000 
#    z 0.000000 0.000000 2.101730 
# 
# From -- ./inp_files/24850.got.cif
#   From: 2010.05.17/outbox.cif.g08.bks.cpg/sg51_13_cif.got.tgz:24850.got - 2010.06.03 11:52:47.
