data_PCOD9399694
_publ_section_title
;
Structure prediction by ZEFSAII (Michael W. Deem and Ramdas Pophale) SiO2 
 PCOD9399694
Probable space group: P M M A
;
_chemical_formula_sum "Si O2"
_cell_formula_units_Z 64
_cell_length_a 14.507403
_cell_length_b 21.982605
_cell_length_c 9.685965
_cell_angle_alpha 90.000000
_cell_angle_beta 90.000000
_cell_angle_gamma 90.000000
_cell_volume 3088.956035
_symmetry_space_group_name_H-M "P M M A"
_symmetry_group_IT_number 51
_symmetry_cell_setting 'orthorhombic'
loop_
_space_group_symop_operation_xyz
x,y,z
1/2-x,-y,z
1/2+x,-y,-z
-x,y,-z
-x,-y,-z
1/2+x,y,-z
1/2-x,y,z
x,-y,z
loop_
_atom_site_type_symbol
_atom_site_label
_atom_site_fract_x
_atom_site_fract_y
_atom_site_fract_z
Si Si1 0.643140 0.234675 0.317664
Si Si2 0.137639 0.570382 0.700433
Si Si3 0.358010 0.656701 0.463004
Si Si4 0.858878 0.067542 0.110702
Si Si5 0.139127 0.847227 0.143682
Si Si6 0.983350 0.116047 0.343432
Si Si7 0.147683 0.710114 0.191235
Si Si8 0.404741 0.329348 0.919953
O O1 0.750000 0.213440 0.308529
O O2 0.637543 0.283070 0.442381
O O3 0.572050 0.180432 0.342423
O O4 0.620708 0.273225 0.179820
O O5 0.250000 0.575129 0.704967
O O6 0.112186 0.500000 0.708305
O O7 0.105615 0.602357 0.558241
O O8 0.101570 0.610980 0.826749
O O9 0.250000 0.640551 0.439907
O O10 0.401800 0.674871 0.316071
O O11 0.750000 0.073990 0.141535
O O12 0.919268 0.074550 0.247212
O O13 0.872737 0.000000 0.049959
O O14 0.884188 0.119312 0.999808
O O15 0.250000 0.853098 0.159716
O O16 0.111560 0.776156 0.146979
O O17 0.080912 0.876645 0.266485
O O18 0.000000 0.096422 0.500000
O O19 0.250000 0.724752 0.246523
O O20 0.157496 0.670138 0.055493
O O21 0.500000 0.321478 0.000000
#
# Coordination Sequence:
#
# PCOD9399694 Si02
#       8
#     8   8   8   8   8   8   8   8
#     4  10  20  37  57  80 115 157 197 235 292 370
#     4   9  18  35  55  73 100 144 193 233 281 353
#     4   8  16  31  54  79 104 140 182 230 287 347
#     4  10  23  45  68  87 114 159 209 249 291 354
#     4  10  22  39  60  87 121 161 202 248 302 366
#     4  12  24  36  59  93 126 156 194 247 308 365
#     4  10  18  32  54  81 110 136 177 236 292 340
#     4  11  21  32  51  79 112 147 188 240 295 350
#
# _framework density 20.718972999999998
#
# number of rings (size 3 to 8) (size 9 to 14) (size 15 to 20)
#    0.000    2.000    0.000    4.875    0.000    4.500 
#    0.000    2.500    0.000    4.500    0.000    0.000 
#    0.000    0.000    0.000    0.000    0.000    0.000 
#
# Total GULP energy -357212.243564 kJ/mol
# GULP energy per Si atom -5581.441306 kJ/mol
# Density = 2.067182 g / cm^3
# Si number density = 20.718973 Si / 1000 Ang^3
#
#
#
# Elastic Constant Matrix: (Units=GPa)
#
#
# Indices 1 2 3 4 5 6 
#
# 1 85.1139 12.5867 30.8433 0.0000 0.0000 0.0000
# 2 12.5867 69.7582 47.8223 0.0000 0.0000 0.0000
# 3 30.8433 47.8223 172.8592 0.0000 0.0000 0.0000
# 4 0.0000 0.0000 0.0000 7.5186 0.0000 0.0000
# 5 0.0000 0.0000 0.0000 0.0000 22.7046 0.0000
# 6 0.0000 0.0000 0.0000 0.0000 0.0000 7.3103
#
#
#
# Elastic Compliance Matrix: (Units=1/GPa)
#
#
# Indices 1 2 3 4 5 6 
#
# 1 0.012607 -0.000904 -0.001999 0.000000 0.000000 0.000000
# 2 -0.000904 0.017755 -0.004751 0.000000 0.000000 0.000000
# 3 -0.001999 -0.004751 0.007456 0.000000 0.000000 0.000000
# 4 0.000000 0.000000 0.000000 0.133004 0.000000 0.000000
# 5 0.000000 0.000000 0.000000 0.000000 0.044044 0.000000
# 6 0.000000 0.000000 0.000000 0.000000 0.000000 0.136793
#
#
# Mechanical properties :
#
#
# Convention : Reuss Voigt Hill
#
# Bulk Modulus (GPa) = 44.42452 56.69285 50.55869
# Shear Modulus (GPa) = 13.35216 23.27196 18.31206
#
# Velocity S-wave (km/s) = 2.54134 3.35508 2.97615
# Velocity P-wave (km/s) = 5.48628 6.51390 6.02205
#
# Compressibility (1/GPa) = 0.02251009
#
# Stress axis : x y z
#
# Youngs Moduli (GPa) = 79.31980 56.32151 134.11801
#
# Poissons Ratio (x) = 0.05092 0.26815
# Poissons Ratio (y) = 0.07171 0.63716
# Poissons Ratio (z) = 0.15859 0.26757
#
# Static dielectric constant tensor:
#      x y z
#    x 1.653450 0.000000 0.000000 
#    y 0.000000 1.724840 0.000000 
#    z 0.000000 0.000000 1.744910 
# 
# From -- ./inp_files/8754.got.cif
#   From: 2010.05.17/outbox.cif.g08.bks.cpg/sg51_5_cif.got.tgz:8754.got - 2010.06.03 11:52:47.
