data_PCOD9399641
_publ_section_title
;
Structure prediction by ZEFSAII (Michael W. Deem and Ramdas Pophale) SiO2 
 PCOD9399641
Probable space group: P M M A
;
_chemical_formula_sum "Si O2"
_cell_formula_units_Z 64
_cell_length_a 15.788370
_cell_length_b 22.467014
_cell_length_c 9.353698
_cell_angle_alpha 90.000000
_cell_angle_beta 90.000000
_cell_angle_gamma 90.000000
_cell_volume 3317.920649
_symmetry_space_group_name_H-M "P M M A"
_symmetry_group_IT_number 51
_symmetry_cell_setting 'orthorhombic'
loop_
_space_group_symop_operation_xyz
x,y,z
1/2-x,-y,z
1/2+x,-y,-z
-x,y,-z
-x,-y,-z
1/2+x,y,-z
1/2-x,y,z
x,-y,z
loop_
_atom_site_type_symbol
_atom_site_label
_atom_site_fract_x
_atom_site_fract_y
_atom_site_fract_z
Si Si1 0.151338 0.275569 0.803415
Si Si2 0.346540 0.643348 0.550683
Si Si3 0.852984 0.568160 0.701644
Si Si4 0.649103 0.069838 0.334858
Si Si5 0.841094 0.741843 0.695680
Si Si6 0.543719 0.846010 0.154627
Si Si7 0.924254 0.850196 0.584986
Si Si8 0.087834 0.330980 0.079462
O O1 0.250000 0.260496 0.765737
O O2 0.115680 0.323058 0.687015
O O3 0.093364 0.216442 0.815049
O O4 0.149484 0.310318 0.953195
O O5 0.250000 0.626564 0.592667
O O6 0.383515 0.589438 0.456558
O O7 0.343092 0.694273 0.430231
O O8 0.750000 0.572756 0.699003
O O9 0.876113 0.500000 0.729305
O O10 0.884788 0.612906 0.824677
O O11 0.750000 0.077507 0.344505
O O12 0.613384 0.104086 0.195873
O O13 0.606638 0.099100 0.476935
O O14 0.629372 0.000000 0.328989
O O15 0.750000 0.736847 0.769063
O O16 0.851194 0.804959 0.623130
O O17 0.912191 0.724438 0.809542
O O18 0.468892 0.863779 0.265498
O O19 0.500000 0.845084 0.000000
O O20 0.000000 0.816814 0.500000
O O21 0.000000 0.340891 0.000000
#
# Coordination Sequence:
#
# PCOD9399641 Si02
#       8
#     8   8   8   8   8   8   8   8
#     4  11  20  34  56  83 116 148 186 233 284 341
#     4   8  16  29  50  77 100 131 177 229 276 321
#     4   9  18  36  58  77 103 144 192 236 284 346
#     4  10  22  42  64  84 111 153 203 247 287 336
#     4  10  18  32  52  75 106 143 184 225 276 341
#     4  11  23  37  56  87 124 156 187 232 294 357
#     4  10  20  33  56  86 115 146 188 238 288 339
#     4  11  22  34  51  78 113 149 186 232 287 343
#
# _framework density 19.289189
#
# number of rings (size 3 to 8) (size 9 to 14) (size 15 to 20)
#    0.000    2.000    0.000    6.000    0.000    3.750 
#    0.000    4.375    0.000    4.500    0.000    0.000 
#    0.000    0.000    0.000    0.000    0.000    0.000 
#
# Total GULP energy -356481.159419 kJ/mol
# GULP energy per Si atom -5570.018116 kJ/mol
# Density = 1.924529 g / cm^3
# Si number density = 19.289189 Si / 1000 Ang^3
#
#
#
# Elastic Constant Matrix: (Units=GPa)
#
#
# Indices 1 2 3 4 5 6 
#
# 1 63.4162 38.0975 32.1533 0.0000 0.0000 0.0000
# 2 38.0975 122.1488 51.9146 0.0000 0.0000 0.0000
# 3 32.1533 51.9146 121.0661 0.0000 0.0000 0.0000
# 4 0.0000 0.0000 0.0000 26.8133 0.0000 0.0000
# 5 0.0000 0.0000 0.0000 0.0000 29.3002 0.0000
# 6 0.0000 0.0000 0.0000 0.0000 0.0000 20.5469
#
#
#
# Elastic Compliance Matrix: (Units=1/GPa)
#
#
# Indices 1 2 3 4 5 6 
#
# 1 0.020425 -0.004971 -0.003293 0.000000 0.000000 0.000000
# 2 -0.004971 0.011221 -0.003492 0.000000 0.000000 0.000000
# 3 -0.003293 -0.003492 0.010632 0.000000 0.000000 0.000000
# 4 0.000000 0.000000 0.000000 0.037295 0.000000 0.000000
# 5 0.000000 0.000000 0.000000 0.000000 0.034129 0.000000
# 6 0.000000 0.000000 0.000000 0.000000 0.000000 0.048669
#
#
# Mechanical properties :
#
#
# Convention : Reuss Voigt Hill
#
# Bulk Modulus (GPa) = 53.28548 61.21801 57.25174
# Shear Modulus (GPa) = 26.02308 27.62980 26.82644
#
# Velocity S-wave (km/s) = 3.67700 3.78881 3.73332
# Velocity P-wave (km/s) = 6.76103 7.13764 6.95189
#
# Compressibility (1/GPa) = 0.01876684
#
# Stress axis : x y z
#
# Youngs Moduli (GPa) = 48.96047 89.11827 94.05809
#
# Poissons Ratio (x) = 0.44299 0.30973
# Poissons Ratio (y) = 0.24337 0.32841
# Poissons Ratio (z) = 0.16122 0.31116
#
# Static dielectric constant tensor:
#      x y z
#    x 1.730200 0.000000 0.000000 
#    y 0.000000 1.687570 0.000000 
#    z 0.000000 0.000000 1.697260 
# 
# From -- ./inp_files/8704.got.cif
#   From: 2010.05.17/outbox.cif.g08.bks.cpg/sg51_5_cif.got.tgz:8704.got - 2010.06.03 11:52:47.
