data_PCOD9399763
_publ_section_title
;
Structure prediction by ZEFSAII (Michael W. Deem and Ramdas Pophale) SiO2 
 PCOD9399763
Probable space group: P M M A
;
_chemical_formula_sum "Si O2"
_cell_formula_units_Z 32
_cell_length_a 16.852998
_cell_length_b 7.376560
_cell_length_c 9.461794
_cell_angle_alpha 90.000000
_cell_angle_beta 90.000000
_cell_angle_gamma 90.000000
_cell_volume 1176.263273
_symmetry_space_group_name_H-M "P M M A"
_symmetry_group_IT_number 51
_symmetry_cell_setting 'orthorhombic'
loop_
_space_group_symop_operation_xyz
x,y,z
1/2-x,-y,z
1/2+x,-y,-z
-x,y,-z
-x,-y,-z
1/2+x,y,-z
1/2-x,y,z
x,-y,z
loop_
_atom_site_type_symbol
_atom_site_label
_atom_site_fract_x
_atom_site_fract_y
_atom_site_fract_z
Si Si1 0.164461 0.282752 0.660009
Si Si2 0.008926 0.791431 0.347532
Si Si3 0.250000 0.282983 0.385011
Si Si4 0.418812 0.222573 0.072364
Si Si5 0.250000 0.207623 0.054558
O O1 0.250000 0.225651 0.724036
O O2 0.160532 0.500000 0.668984
O O3 0.000000 0.297639 0.500000
O O4 0.081463 0.207896 0.713202
O O5 0.177635 0.765942 0.492819
O O6 0.068702 0.714312 0.233525
O O7 0.032042 0.000000 0.367432
O O8 0.250000 0.500000 0.370693
O O9 0.250000 0.205281 0.228333
O O10 0.334897 0.289150 0.014253
O O11 0.417079 0.000000 0.070945
O O12 0.500000 0.279407 0.000000
O O13 0.250000 0.000000 0.008327
#
# Coordination Sequence:
#
# PCOD9399763 Si02
#       5
#     8   8   4   8   4
#     4   8  17  32  48  72 106 141 173 208 259 319
#     4  10  19  31  50  80 110 133 171 225 266 306
#     4   8  16  30  49  76 110 140 174 216 260 318
#     4   9  19  35  52  77 111 141 176 217 264 325
#     4  10  18  32  57  76  96 140 182 220 262 302
#
# _framework density 27.204795000000001
#
# number of rings (size 3 to 8) (size 9 to 14) (size 15 to 20)
#    0.750    2.250    0.000    1.500    0.000    4.000 
#    2.250    1.250    0.000    3.000    0.000    0.000 
#    0.000    0.000    0.000    0.000    0.000    0.000 
#
# Total GULP energy -178819.501266 kJ/mol
# GULP energy per Si atom -5588.109415 kJ/mol
# Density = 2.714288 g / cm^3
# Si number density = 27.204795 Si / 1000 Ang^3
#
#
#
# Elastic Constant Matrix: (Units=GPa)
#
#
# Indices 1 2 3 4 5 6 
#
# 1 226.0788 3.9670 43.4518 0.0000 0.0000 0.0000
# 2 3.9670 124.9797 3.0027 0.0000 0.0000 0.0000
# 3 43.4518 3.0027 84.8748 0.0000 0.0000 0.0000
# 4 0.0000 0.0000 0.0000 -21.3928 0.0000 0.0000
# 5 0.0000 0.0000 0.0000 0.0000 52.6578 0.0000
# 6 0.0000 0.0000 0.0000 0.0000 0.0000 61.1182
#
#
#
# Elastic Compliance Matrix: (Units=1/GPa)
#
#
# Indices 1 2 3 4 5 6 
#
# 1 0.004907 -0.000095 -0.002509 0.000000 0.000000 0.000000
# 2 -0.000095 0.008010 -0.000234 0.000000 0.000000 0.000000
# 3 -0.002509 -0.000234 0.013075 0.000000 0.000000 0.000000
# 4 0.000000 0.000000 0.000000 -0.046745 0.000000 0.000000
# 5 0.000000 0.000000 0.000000 0.000000 0.018991 0.000000
# 6 0.000000 0.000000 0.000000 0.000000 0.000000 0.016362
#
#
# Mechanical properties :
#
#
# Convention : Reuss Voigt Hill
#
# Bulk Modulus (GPa) = 49.22661 59.64182 54.43422
# Shear Modulus (GPa) = 184.85454 44.17743 114.51599
#
# Velocity S-wave (km/s) = 8.25208 4.03412 6.49503
# Velocity P-wave (km/s) = 10.43694 6.60830 8.73497
#
# Compressibility (1/GPa) = 0.02031422
#
# Stress axis : x y z
#
# Youngs Moduli (GPa) = 203.78638 124.84453 76.48327
#
# Poissons Ratio (x) = 0.01192 0.19188
# Poissons Ratio (y) = 0.01946 0.01794
# Poissons Ratio (z) = 0.51126 0.02928
#
# Static dielectric constant tensor:
#      x y z
#    x 2.169000 0.000000 0.000000 
#    y 0.000000 1.958760 0.000000 
#    z 0.000000 0.000000 2.221690 
# 
# From -- ./inp_files/22864.got.cif
#   From: 2010.05.17/outbox.cif.g08.bks.cpg/sg51_12_cif.got.tgz:22864.got - 2010.06.03 11:52:47.
