data_PCOD9399863
_publ_section_title
;
Structure prediction by ZEFSAII (Michael W. Deem and Ramdas Pophale) SiO2 
 PCOD9399863
Probable space group: P M M A
;
_chemical_formula_sum "Si O2"
_cell_formula_units_Z 48
_cell_length_a 15.630471
_cell_length_b 17.298055
_cell_length_c 9.761802
_cell_angle_alpha 90.000000
_cell_angle_beta 90.000000
_cell_angle_gamma 90.000000
_cell_volume 2639.364270
_symmetry_space_group_name_H-M "P M M A"
_symmetry_group_IT_number 51
_symmetry_cell_setting 'orthorhombic'
loop_
_space_group_symop_operation_xyz
x,y,z
1/2-x,-y,z
1/2+x,-y,-z
-x,y,-z
-x,-y,-z
1/2+x,y,-z
1/2-x,y,z
x,-y,z
loop_
_atom_site_type_symbol
_atom_site_label
_atom_site_fract_x
_atom_site_fract_y
_atom_site_fract_z
Si Si1 0.146629 0.778454 0.019263
Si Si2 0.079675 0.249460 0.315164
Si Si3 0.512081 0.414117 0.664917
Si Si4 0.648467 0.913724 0.181834
Si Si5 0.115488 0.791718 0.608309
Si Si6 0.153918 0.653720 0.802420
O O1 0.250000 0.780554 0.023145
O O2 0.110541 0.782397 0.171185
O O3 0.115160 0.850236 0.926542
O O4 0.125241 0.698008 0.941329
O O5 0.131634 0.222306 0.448566
O O6 0.073757 0.342472 0.302333
O O7 0.983814 0.222823 0.353109
O O8 0.500000 0.410018 0.500000
O O9 0.543551 0.500000 0.699042
O O10 0.421337 0.399264 0.741484
O O11 0.750000 0.918765 0.156727
O O12 0.637922 0.874850 0.330741
O O13 0.612040 0.000000 0.171560
O O14 0.160684 0.724936 0.695511
O O15 0.250000 0.620173 0.817862
#
# Coordination Sequence:
#
# PCOD9399863 Si02
#       6
#     8   8   8   8   8   8
#     4   9  19  33  53  76 102 138 177 214 257 311
#     4  10  18  34  50  77 105 135 172 216 254 307
#     4  10  19  34  53  76 104 133 171 217 266 307
#     4   9  18  34  53  75 103 134 171 214 258 307
#     4   9  17  31  51  75 100 136 173 209 253 305
#     4   9  17  32  51  74  99 133 178 216 252 307
#
# _framework density 18.186197
#
# number of rings (size 3 to 8) (size 9 to 14) (size 15 to 20)
#    0.000    2.667    3.333    1.500    0.000    7.667 
#    0.000    5.833    0.000    3.500    0.000    0.000 
#    0.000    0.000    0.000    0.000    0.000    0.000 
#
# Total GULP energy -267252.860315 kJ/mol
# GULP energy per Si atom -5567.767923 kJ/mol
# Density = 1.814480 g / cm^3
# Si number density = 18.186197 Si / 1000 Ang^3
#
#
#
# Elastic Constant Matrix: (Units=GPa)
#
#
# Indices 1 2 3 4 5 6 
#
# 1 16.2496 4.8122 20.9473 0.0000 0.0000 0.0000
# 2 4.8122 103.5948 38.6008 0.0000 0.0000 0.0000
# 3 20.9473 38.6008 133.7711 0.0000 0.0000 0.0000
# 4 0.0000 0.0000 0.0000 13.5291 0.0000 0.0000
# 5 0.0000 0.0000 0.0000 0.0000 82.4383 0.0000
# 6 0.0000 0.0000 0.0000 0.0000 0.0000 0.6558
#
#
#
# Elastic Compliance Matrix: (Units=1/GPa)
#
#
# Indices 1 2 3 4 5 6 
#
# 1 0.077202 0.001029 -0.012386 0.000000 0.000000 0.000000
# 2 0.001029 0.010830 -0.003286 0.000000 0.000000 0.000000
# 3 -0.012386 -0.003286 0.010363 0.000000 0.000000 0.000000
# 4 0.000000 0.000000 0.000000 0.073915 0.000000 0.000000
# 5 0.000000 0.000000 0.000000 0.000000 0.012130 0.000000
# 6 0.000000 0.000000 0.000000 0.000000 0.000000 1.524751
#
#
# Mechanical properties :
#
#
# Convention : Reuss Voigt Hill
#
# Bulk Modulus (GPa) = 14.46994 42.48179 28.47586
# Shear Modulus (GPa) = 2.83847 31.94166 17.39006
#
# Velocity S-wave (km/s) = 1.25067 4.19545 3.09564
# Velocity P-wave (km/s) = 3.17165 6.84683 5.33566
#
# Compressibility (1/GPa) = 0.06910877
#
# Stress axis : x y z
#
# Youngs Moduli (GPa) = 12.95299 92.33908 96.49488
#
# Poissons Ratio (x) = -0.09502 1.19519
# Poissons Ratio (y) = -0.01333 0.31709
# Poissons Ratio (z) = 0.16044 0.30344
#
# Static dielectric constant tensor:
#      x y z
#    x 1.972240 0.000000 0.000000 
#    y 0.000000 1.640700 0.000000 
#    z 0.000000 0.000000 1.632970 
# 
# From -- ./inp_files/9812.got.cif
#   From: 2010.05.17/outbox.cif.g08.bks.cpg/sg51_5_cif.got.tgz:9812.got - 2010.06.03 11:52:47.
