data_PCOD9399948
_publ_section_title
;
Structure prediction by ZEFSAII (Michael W. Deem and Ramdas Pophale) SiO2 
 PCOD9399948
Probable space group: P M M A
;
_chemical_formula_sum "Si O2"
_cell_formula_units_Z 56
_cell_length_a 15.531950
_cell_length_b 7.701670
_cell_length_c 22.548281
_cell_angle_alpha 90.000000
_cell_angle_beta 90.000000
_cell_angle_gamma 90.000000
_cell_volume 2697.269418
_symmetry_space_group_name_H-M "P M M A"
_symmetry_group_IT_number 51
_symmetry_cell_setting 'orthorhombic'
loop_
_space_group_symop_operation_xyz
x,y,z
1/2-x,-y,z
1/2+x,-y,-z
-x,y,-z
-x,-y,-z
1/2+x,y,-z
1/2-x,y,z
x,-y,z
loop_
_atom_site_type_symbol
_atom_site_label
_atom_site_fract_x
_atom_site_fract_y
_atom_site_fract_z
Si Si1 0.560302 0.709677 0.445015
Si Si2 0.844198 0.293090 0.140165
Si Si3 0.156725 0.210169 0.119940
Si Si4 0.493142 0.295197 0.209814
Si Si5 0.098835 0.790400 0.991907
Si Si6 0.750000 0.200566 0.486039
Si Si7 0.936797 0.286518 0.661326
Si Si8 0.250000 0.300323 0.379926
O O1 0.500000 0.767949 0.500000
O O2 0.560649 0.500000 0.446092
O O3 0.660035 0.763181 0.452254
O O4 0.509884 0.765906 0.385891
O O5 0.750000 0.220067 0.152915
O O6 0.841633 0.500000 0.150160
O O7 0.865149 0.269639 0.070738
O O8 0.920213 0.219852 0.180944
O O9 0.250000 0.264370 0.142940
O O10 0.080626 0.275490 0.160775
O O11 0.152536 0.000000 0.120088
O O12 0.146649 0.266362 0.051608
O O13 0.507520 0.500000 0.219320
O O14 0.462100 0.225915 0.273009
O O15 0.101368 0.000000 0.990418
O O16 0.000000 0.735816 0.000000
O O17 0.750000 0.299850 0.548660
O O18 0.750000 0.000000 0.502540
O O19 0.934747 0.500000 0.660023
O O20 0.841128 0.225584 0.642435
O O21 0.250000 0.500000 0.359177
#
# Coordination Sequence:
#
# PCOD9399948 Si02
#       8
#     8   8   8   8   8   4   8   4
#     4  10  19  37  63  86 110 147 196 238 273 320
#     4  10  21  36  54  78 110 144 180 227 283 336
#     4  10  21  36  53  77 109 142 178 223 274 330
#     4  10  21  37  56  81 111 143 181 226 278 329
#     4  10  19  34  57  79 102 137 184 231 274 322
#     4  12  24  36  56  90 126 152 179 226 293 344
#     4   9  19  35  59  87 112 144 189 236 272 317
#     4  10  18  36  62  86 114 148 191 230 265 326
#
# _framework density 20.761738000000001
#
# number of rings (size 3 to 8) (size 9 to 14) (size 15 to 20)
#    0.000    2.000    2.857    1.071    1.000    2.286 
#    1.286    1.429    0.000    0.000    0.000    0.000 
#    0.000    0.000    0.000    0.000    0.000    0.000 
#
# Total GULP energy -312663.140307 kJ/mol
# GULP energy per Si atom -5583.270363 kJ/mol
# Density = 2.071448 g / cm^3
# Si number density = 20.761738 Si / 1000 Ang^3
#
#
#
# Elastic Constant Matrix: (Units=GPa)
#
#
# Indices 1 2 3 4 5 6 
#
# 1 218.9995 3.7288 95.0716 0.0000 0.0000 0.0000
# 2 3.7288 33.9808 -0.5899 0.0000 0.0000 0.0000
# 3 95.0716 -0.5899 139.3594 0.0000 0.0000 0.0000
# 4 0.0000 0.0000 0.0000 436.8371 0.0000 0.0000
# 5 0.0000 0.0000 0.0000 0.0000 -13.1343 0.0000
# 6 0.0000 0.0000 0.0000 0.0000 0.0000 17.7047
#
#
#
# Elastic Compliance Matrix: (Units=1/GPa)
#
#
# Indices 1 2 3 4 5 6 
#
# 1 0.006509 -0.000791 -0.004444 0.000000 0.000000 0.000000
# 2 -0.000791 0.029527 0.000665 0.000000 0.000000 0.000000
# 3 -0.004444 0.000665 0.010210 0.000000 0.000000 0.000000
# 4 0.000000 0.000000 0.000000 0.002289 0.000000 0.000000
# 5 0.000000 0.000000 0.000000 0.000000 -0.076137 0.000000
# 6 0.000000 0.000000 0.000000 0.000000 0.000000 0.056482
#
#
# Mechanical properties :
#
#
# Convention : Reuss Voigt Hill
#
# Bulk Modulus (GPa) = 26.95041 65.41785 46.18413
# Shear Modulus (GPa) = 99.22771 107.89012 103.55891
#
# Velocity S-wave (km/s) = 6.92079 7.21655 7.07022
# Velocity P-wave (km/s) = 8.76767 10.05064 9.43100
#
# Compressibility (1/GPa) = 0.03710519
#
# Stress axis : x y z
#
# Youngs Moduli (GPa) = 153.63889 33.86760 97.94323
#
# Poissons Ratio (x) = 0.02680 0.43523
# Poissons Ratio (y) = 0.12158 -0.06512
# Poissons Ratio (z) = 0.68272 -0.02252
#
# Static dielectric constant tensor:
#      x y z
#    x 1.747610 0.000000 0.000000 
#    y 0.000000 1.773040 0.000000 
#    z 0.000000 0.000000 1.707490 
# 
# From -- ./inp_files/33527.got.cif
#   From: 2010.05.17/outbox.cif.g08.bks.cpg/sg51_17_cif.got.tgz:33527.got - 2010.06.03 11:52:47.
