data_PCOD9399358
_publ_section_title
;
Structure prediction by ZEFSAII (Michael W. Deem and Ramdas Pophale) SiO2 
 PCOD9399358
Probable space group: P M M A
;
_chemical_formula_sum "Si O2"
_cell_formula_units_Z 64
_cell_length_a 8.245713
_cell_length_b 15.933543
_cell_length_c 25.401026
_cell_angle_alpha 90.000000
_cell_angle_beta 90.000000
_cell_angle_gamma 90.000000
_cell_volume 3337.273735
_symmetry_space_group_name_H-M "P M M A"
_symmetry_group_IT_number 51
_symmetry_cell_setting 'orthorhombic'
loop_
_space_group_symop_operation_xyz
x,y,z
1/2-x,-y,z
1/2+x,-y,-z
-x,y,-z
-x,-y,-z
1/2+x,y,-z
1/2-x,y,z
x,-y,z
loop_
_atom_site_type_symbol
_atom_site_label
_atom_site_fract_x
_atom_site_fract_y
_atom_site_fract_z
Si Si1 0.944990 0.773313 0.646577
Si Si2 0.439897 0.370984 0.793714
Si Si3 0.053858 0.904535 0.440360
Si Si4 0.556327 0.093081 0.142053
Si Si5 0.055777 0.229425 0.057652
Si Si6 0.442762 0.807437 0.234945
Si Si7 0.942355 0.410224 0.907452
Si Si8 0.054276 0.408261 0.674874
O O1 0.750000 0.774313 0.644584
O O2 0.005785 0.833821 0.600259
O O3 0.992624 0.809526 0.703979
O O4 0.997037 0.675821 0.645769
O O5 0.250000 0.391725 0.798863
O O6 0.465386 0.271137 0.791022
O O7 0.530908 0.404461 0.844601
O O8 0.498010 0.401603 0.736308
O O9 0.250000 0.904193 0.438902
O O10 0.000000 0.887335 0.500000
O O11 0.000882 0.000000 0.426794
O O12 0.750000 0.095680 0.145904
O O13 0.501071 0.164148 0.101498
O O14 0.483517 0.113451 0.199316
O O15 0.506229 0.000000 0.124558
O O16 0.250000 0.232693 0.059977
O O17 0.990184 0.323802 0.068787
O O18 0.000000 0.202628 0.000000
O O19 0.250000 0.790708 0.232741
O O20 0.750000 0.410760 0.917727
O O21 0.010951 0.500000 0.926038
O O22 0.250000 0.406092 0.675178
O O23 0.002487 0.500000 0.654347
#
# Coordination Sequence:
#
# PCOD9399358 Si02
#       8
#     8   8   8   8   8   8   8   8
#     4   9  19  33  52  80 112 146 185 225 270 322
#     4  10  18  30  51  77 108 144 182 220 262 316
#     4   9  18  34  55  79 108 142 182 229 277 326
#     4  11  24  41  61  85 112 142 178 223 273 326
#     4  11  24  42  63  83 108 142 180 226 275 325
#     4  10  19  33  54  81 113 147 180 216 267 324
#     4  10  21  36  55  81 111 142 178 220 266 320
#     4   9  18  31  47  73 110 148 185 224 267 315
#
# _framework density 19.177329
#
# number of rings (size 3 to 8) (size 9 to 14) (size 15 to 20)
#    0.000    2.125    1.250    1.875    0.000    5.000 
#    0.000    1.250    0.000    1.875    0.000    0.000 
#    0.000    0.000    0.000    0.000    0.000    0.000 
#
# Total GULP energy -357113.857344 kJ/mol
# GULP energy per Si atom -5579.904021 kJ/mol
# Density = 1.913368 g / cm^3
# Si number density = 19.177329 Si / 1000 Ang^3
#
#
#
# Elastic Constant Matrix: (Units=GPa)
#
#
# Indices 1 2 3 4 5 6 
#
# 1 17.0639 15.6486 7.7979 0.0000 0.0000 0.0000
# 2 15.6486 140.3103 69.4576 0.0000 0.0000 0.0000
# 3 7.7979 69.4576 89.0187 0.0000 0.0000 0.0000
# 4 0.0000 0.0000 0.0000 5.7073 0.0000 0.0000
# 5 0.0000 0.0000 0.0000 0.0000 23.3967 0.0000
# 6 0.0000 0.0000 0.0000 0.0000 0.0000 14.5270
#
#
#
# Elastic Compliance Matrix: (Units=1/GPa)
#
#
# Indices 1 2 3 4 5 6 
#
# 1 0.065280 -0.007250 -0.000061 0.000000 0.000000 0.000000
# 2 -0.007250 0.012418 -0.009054 0.000000 0.000000 0.000000
# 3 -0.000061 -0.009054 0.018303 0.000000 0.000000 0.000000
# 4 0.000000 0.000000 0.000000 0.175215 0.000000 0.000000
# 5 0.000000 0.000000 0.000000 0.000000 0.042741 0.000000
# 6 0.000000 0.000000 0.000000 0.000000 0.000000 0.068837
#
#
# Mechanical properties :
#
#
# Convention : Reuss Voigt Hill
#
# Bulk Modulus (GPa) = 15.80518 48.02235 31.91376
# Shear Modulus (GPa) = 11.45172 18.95878 15.20525
#
# Velocity S-wave (km/s) = 2.44631 3.14762 2.81886
# Velocity P-wave (km/s) = 4.02973 6.18915 5.22228
#
# Compressibility (1/GPa) = 0.06327039
#
# Stress axis : x y z
#
# Youngs Moduli (GPa) = 15.31853 80.53107 54.63506
#
# Poissons Ratio (x) = 0.58387 0.00335
# Poissons Ratio (y) = 0.11106 0.49465
# Poissons Ratio (z) = 0.00094 0.72911
#
# Static dielectric constant tensor:
#      x y z
#    x 1.672560 0.000000 0.000000 
#    y 0.000000 1.715050 0.000000 
#    z 0.000000 0.000000 1.640120 
# 
# From -- ./inp_files/34934.got.cif
#   From: 2010.05.17/outbox.cif.g08.bks.cpg/sg51_18_cif.got.tgz:34934.got - 2010.06.03 11:52:47.
