data_PCOD9399980
_publ_section_title
;
Structure prediction by ZEFSAII (Michael W. Deem and Ramdas Pophale) SiO2 
 PCOD9399980
Probable space group: P M M A
;
_chemical_formula_sum "Si O2"
_cell_formula_units_Z 64
_cell_length_a 26.494699
_cell_length_b 9.136906
_cell_length_c 18.713391
_cell_angle_alpha 90.000000
_cell_angle_beta 90.000000
_cell_angle_gamma 90.000000
_cell_volume 4530.129726
_symmetry_space_group_name_H-M "P M M A"
_symmetry_group_IT_number 51
_symmetry_cell_setting 'orthorhombic'
loop_
_space_group_symop_operation_xyz
x,y,z
1/2-x,-y,z
1/2+x,-y,-z
-x,y,-z
-x,-y,-z
1/2+x,y,-z
1/2-x,y,z
x,-y,z
loop_
_atom_site_type_symbol
_atom_site_label
_atom_site_fract_x
_atom_site_fract_y
_atom_site_fract_z
Si Si1 0.391517 0.826232 0.572571
Si Si2 0.690025 0.326934 0.332813
Si Si3 0.888586 0.325618 0.084008
Si Si4 0.509798 0.674444 0.178642
Si Si5 0.508725 0.173517 0.331171
Si Si6 0.949342 0.331403 0.548887
Si Si7 0.809772 0.172685 0.182499
Si Si8 0.950830 0.322306 0.954337
O O1 0.342902 0.750622 0.606803
O O2 0.438111 0.801596 0.627763
O O3 0.408225 0.754216 0.497900
O O4 0.384816 0.000000 0.564995
O O5 0.750000 0.306583 0.344069
O O6 0.679340 0.500000 0.330798
O O7 0.677232 0.255316 0.256241
O O8 0.878093 0.500000 0.083603
O O9 0.938313 0.304893 0.133884
O O10 0.843111 0.238725 0.119348
O O11 0.903730 0.277785 0.003426
O O12 0.505400 0.500000 0.192040
O O13 0.511096 0.759785 0.252448
O O14 0.463672 0.722079 0.126409
O O15 0.465805 0.251383 0.378678
O O16 0.500240 0.000000 0.329181
O O17 0.935063 0.500000 0.560975
O O18 0.000000 0.330808 0.500000
O O19 0.750000 0.193601 0.169818
O O20 0.819354 0.000000 0.191117
O O21 0.950272 0.500000 0.953877
O O22 0.000000 0.278466 0.000000
#
# Coordination Sequence:
#
# PCOD9399980 Si02
#       8
#     8   8   8   8   8   8   8   8
#     4  10  19  30  44  61  84 112 138 168 208 248
#     4  10  20  32  45  61  81 107 142 179 207 236
#     4   9  16  27  44  61  78 105 140 173 203 239
#     4   9  16  26  41  60  82 108 137 167 201 243
#     4  10  19  28  39  59  86 112 139 170 204 243
#     4   9  17  29  44  60  79 106 140 173 203 239
#     4  10  20  31  41  56  81 110 138 171 210 245
#     4   7  12  24  40  58  79 103 132 166 202 239
#
# _framework density 14.127630999999999
#
# number of rings (size 3 to 8) (size 9 to 14) (size 15 to 20)
#    0.000    2.750    0.000    4.125    0.000    7.000 
#    0.000    0.625    0.000    2.250    0.000    0.000 
#    0.000    1.000    0.000    5.250    0.000    4.875 
#
# Total GULP energy -356497.479056 kJ/mol
# GULP energy per Si atom -5570.273110 kJ/mol
# Density = 1.409548 g / cm^3
# Si number density = 14.127631 Si / 1000 Ang^3
#
#
#
# Elastic Constant Matrix: (Units=GPa)
#
#
# Indices 1 2 3 4 5 6 
#
# 1 36.9248 35.7718 16.6781 0.0000 0.0000 0.0000
# 2 35.7718 69.5231 44.1421 0.0000 0.0000 0.0000
# 3 16.6781 44.1421 63.5964 0.0000 0.0000 0.0000
# 4 0.0000 0.0000 0.0000 0.7847 0.0000 0.0000
# 5 0.0000 0.0000 0.0000 0.0000 28.9396 0.0000
# 6 0.0000 0.0000 0.0000 0.0000 0.0000 19.0636
#
#
#
# Elastic Compliance Matrix: (Units=1/GPa)
#
#
# Indices 1 2 3 4 5 6 
#
# 1 0.057158 -0.035566 0.009697 0.000000 0.000000 0.000000
# 2 -0.035566 0.047848 -0.023884 0.000000 0.000000 0.000000
# 3 0.009697 -0.023884 0.029759 0.000000 0.000000 0.000000
# 4 0.000000 0.000000 0.000000 1.274366 0.000000 0.000000
# 5 0.000000 0.000000 0.000000 0.000000 0.034555 0.000000
# 6 0.000000 0.000000 0.000000 0.000000 0.000000 0.052456
#
#
# Mechanical properties :
#
#
# Convention : Reuss Voigt Hill
#
# Bulk Modulus (GPa) = 28.36221 40.35867 34.36044
# Shear Modulus (GPa) = 3.11061 14.65439 8.88250
#
# Velocity S-wave (km/s) = 1.48545 3.22419 2.51017
# Velocity P-wave (km/s) = 4.80223 6.51841 5.72499
#
# Compressibility (1/GPa) = 0.03525819
#
# Stress axis : x y z
#
# Youngs Moduli (GPa) = 17.49537 20.89930 33.60309
#
# Poissons Ratio (x) = 0.74331 -0.32585
# Poissons Ratio (y) = 0.62225 0.80259
# Poissons Ratio (z) = -0.16965 0.49916
#
# Static dielectric constant tensor:
#      x y z
#    x 1.456830 0.000000 0.000000 
#    y 0.000000 1.467940 0.000000 
#    z 0.000000 0.000000 1.462010 
# 
# From -- ./inp_files/30819.got.cif
#   From: 2010.05.17/outbox.cif.g08.bks.cpg/sg51_16_cif.got.tgz:30819.got - 2010.06.03 11:52:47.
