data_PCOD9399820
_publ_section_title
;
Structure prediction by ZEFSAII (Michael W. Deem and Ramdas Pophale) SiO2 
 PCOD9399820
Probable space group: P M M A
;
_chemical_formula_sum "Si O2"
_cell_formula_units_Z 56
_cell_length_a 14.855287
_cell_length_b 7.577483
_cell_length_c 23.182197
_cell_angle_alpha 90.000000
_cell_angle_beta 90.000000
_cell_angle_gamma 90.000000
_cell_volume 2609.519878
_symmetry_space_group_name_H-M "P M M A"
_symmetry_group_IT_number 51
_symmetry_cell_setting 'orthorhombic'
loop_
_space_group_symop_operation_xyz
x,y,z
1/2-x,-y,z
1/2+x,-y,-z
-x,y,-z
-x,-y,-z
1/2+x,y,-z
1/2-x,y,z
x,-y,z
loop_
_atom_site_type_symbol
_atom_site_label
_atom_site_fract_x
_atom_site_fract_y
_atom_site_fract_z
Si Si1 0.149553 0.783558 0.645101
Si Si2 0.037139 0.284667 0.085981
Si Si3 0.899439 0.212885 0.483908
Si Si4 0.524822 0.198605 0.700787
Si Si5 0.345733 0.294043 0.391970
Si Si6 0.851801 0.292936 0.804927
Si Si7 0.854088 0.285168 0.029580
O O1 0.250000 0.732700 0.661615
O O2 0.130690 0.726120 0.579104
O O3 0.072232 0.719142 0.688232
O O4 0.144746 0.000000 0.644660
O O5 0.033680 0.500000 0.086669
O O6 0.084449 0.220428 0.144327
O O7 0.933707 0.228234 0.073814
O O8 0.102577 0.237024 0.032506
O O9 0.845378 0.273934 0.539538
O O10 0.000000 0.269357 0.500000
O O11 0.895619 0.000000 0.482994
O O12 0.572303 0.197313 0.638156
O O13 0.594708 0.280981 0.745009
O O14 0.511293 0.000000 0.721513
O O15 0.250000 0.228261 0.368862
O O16 0.354531 0.500000 0.377793
O O17 0.750000 0.219175 0.802264
O O18 0.842269 0.500000 0.817987
O O19 0.750000 0.225033 0.036973
O O20 0.850940 0.500000 0.031412
#
# Coordination Sequence:
#
# PCOD9399820 Si02
#       7
#     8   8   8   8   8   8   8
#     4   9  18  34  55  75  96 125 161 202 248 297
#     4   8  14  24  40  65  98 133 166 201 246 299
#     4  10  18  33  56  80 101 125 161 202 246 298
#     4  11  22  37  55  74  96 126 171 216 249 290
#     4  11  23  36  51  75 106 135 161 197 251 306
#     4  10  20  34  51  72 101 135 167 204 256 308
#     4   8  12  20  38  66  98 131 167 205 243 288
#
# _framework density 21.459887999999999
#
# number of rings (size 3 to 8) (size 9 to 14) (size 15 to 20)
#    0.000    2.429    1.429    3.000    0.000    5.714 
#    0.000    0.714    0.000    3.429    0.000    2.000 
#    0.000    1.143    0.000    0.000    0.000    0.000 
#
# Total GULP energy -312372.603611 kJ/mol
# GULP energy per Si atom -5578.082207 kJ/mol
# Density = 2.141104 g / cm^3
# Si number density = 21.459888 Si / 1000 Ang^3
#
#
#
# Elastic Constant Matrix: (Units=GPa)
#
#
# Indices 1 2 3 4 5 6 
#
# 1 222.7748 10.9361 70.8180 0.0000 0.0000 0.0000
# 2 10.9361 41.7119 -2.8819 0.0000 0.0000 0.0000
# 3 70.8180 -2.8819 93.6862 0.0000 0.0000 0.0000
# 4 0.0000 0.0000 0.0000 28.3268 0.0000 0.0000
# 5 0.0000 0.0000 0.0000 0.0000 24.4047 0.0000
# 6 0.0000 0.0000 0.0000 0.0000 0.0000 2.3223
#
#
#
# Elastic Compliance Matrix: (Units=1/GPa)
#
#
# Indices 1 2 3 4 5 6 
#
# 1 0.006057 -0.001908 -0.004637 0.000000 0.000000 0.000000
# 2 -0.001908 0.024626 0.002200 0.000000 0.000000 0.000000
# 3 -0.004637 0.002200 0.014247 0.000000 0.000000 0.000000
# 4 0.000000 0.000000 0.000000 0.035302 0.000000 0.000000
# 5 0.000000 0.000000 0.000000 0.000000 0.040976 0.000000
# 6 0.000000 0.000000 0.000000 0.000000 0.000000 0.430599
#
#
# Mechanical properties :
#
#
# Convention : Reuss Voigt Hill
#
# Bulk Modulus (GPa) = 27.59441 57.32416 42.45929
# Shear Modulus (GPa) = 8.73245 29.63082 19.18164
#
# Velocity S-wave (km/s) = 2.01941 3.71988 2.99295
# Velocity P-wave (km/s) = 4.28064 6.72460 5.63667
#
# Compressibility (1/GPa) = 0.03623922
#
# Stress axis : x y z
#
# Youngs Moduli (GPa) = 165.11087 40.60697 70.19192
#
# Poissons Ratio (x) = 0.07749 0.32547
# Poissons Ratio (y) = 0.31508 -0.15442
# Poissons Ratio (z) = 0.76560 -0.08934
#
# Static dielectric constant tensor:
#      x y z
#    x 1.849800 0.000000 0.000000 
#    y 0.000000 1.833000 0.000000 
#    z 0.000000 0.000000 1.760420 
# 
# From -- ./inp_files/33449.got.cif
#   From: 2010.05.17/outbox.cif.g08.bks.cpg/sg51_17_cif.got.tgz:33449.got - 2010.06.03 11:52:47.
