data_PCOD9399828
_publ_section_title
;
Structure prediction by ZEFSAII (Michael W. Deem and Ramdas Pophale) SiO2 
 PCOD9399828
Probable space group: P M M A
;
_chemical_formula_sum "Si O2"
_cell_formula_units_Z 64
_cell_length_a 15.117825
_cell_length_b 8.211358
_cell_length_c 25.167172
_cell_angle_alpha 90.000000
_cell_angle_beta 90.000000
_cell_angle_gamma 90.000000
_cell_volume 3124.199208
_symmetry_space_group_name_H-M "P M M A"
_symmetry_group_IT_number 51
_symmetry_cell_setting 'orthorhombic'
loop_
_space_group_symop_operation_xyz
x,y,z
1/2-x,-y,z
1/2+x,-y,-z
-x,y,-z
-x,-y,-z
1/2+x,y,-z
1/2-x,y,z
x,-y,z
loop_
_atom_site_type_symbol
_atom_site_label
_atom_site_fract_x
_atom_site_fract_y
_atom_site_fract_z
Si Si1 0.655144 0.698321 0.408351
Si Si2 0.850852 0.803937 0.221570
Si Si3 0.849368 0.192591 0.637143
Si Si4 0.960745 0.802904 0.120215
Si Si5 0.850340 0.306183 0.020727
Si Si6 0.100806 0.308222 0.479581
Si Si7 0.973299 0.694053 0.318049
Si Si8 0.152297 0.806108 0.099700
O O1 0.750000 0.739198 0.383773
O O2 0.648719 0.500000 0.411472
O O3 0.651827 0.756509 0.468869
O O4 0.576016 0.756136 0.371490
O O5 0.750000 0.742800 0.228831
O O6 0.895704 0.745137 0.166840
O O7 0.917542 0.759602 0.268809
O O8 0.846172 0.000000 0.219026
O O9 0.750000 0.258501 0.645093
O O10 0.877936 0.226627 0.576147
O O11 0.924374 0.261594 0.675966
O O12 0.847181 0.000000 0.644956
O O13 0.920652 0.750924 0.063836
O O14 0.062085 0.743502 0.126449
O O15 0.962414 0.000000 0.121555
O O16 0.750000 0.269326 0.039865
O O17 0.857775 0.500000 0.013303
O O18 0.859814 0.223920 0.963312
O O19 0.120648 0.500000 0.471799
O O20 0.000000 0.296928 0.500000
O O21 0.965759 0.500000 0.317464
O O22 0.250000 0.738871 0.114221
O O23 0.155370 0.000000 0.108936
#
# Coordination Sequence:
#
# PCOD9399828 Si02
#       8
#     8   8   8   8   8   8   8   8
#     4   9  17  30  51  79 109 141 178 220 268 324
#     4  10  22  40  60  84 115 147 180 227 288 343
#     4  11  24  40  58  83 116 152 190 233 283 338
#     4  10  20  35  56  80 109 149 193 233 275 329
#     4  10  20  32  49  78 115 150 185 230 284 337
#     4  10  18  33  56  83 114 149 187 226 272 329
#     4  11  22  39  61  83 109 143 189 238 282 334
#     4   9  18  33  53  78 109 147 190 230 271 326
#
# _framework density 20.485247999999999
#
# number of rings (size 3 to 8) (size 9 to 14) (size 15 to 20)
#    0.000    2.000    1.250    2.625    0.000    6.250 
#    0.000    0.625    0.000    4.500    0.000    0.000 
#    0.000    0.000    0.000    0.000    0.000    0.000 
#
# Total GULP energy -357176.912591 kJ/mol
# GULP energy per Si atom -5580.889259 kJ/mol
# Density = 2.043862 g / cm^3
# Si number density = 20.485248 Si / 1000 Ang^3
#
#
#
# Elastic Constant Matrix: (Units=GPa)
#
#
# Indices 1 2 3 4 5 6 
#
# 1 147.4715 12.5934 38.3834 0.0000 0.0000 0.0000
# 2 12.5934 10.9502 1.0258 0.0000 0.0000 0.0000
# 3 38.3834 1.0258 42.5132 0.0000 0.0000 0.0000
# 4 0.0000 0.0000 0.0000 42.6091 0.0000 0.0000
# 5 0.0000 0.0000 0.0000 0.0000 27.1840 0.0000
# 6 0.0000 0.0000 0.0000 0.0000 0.0000 16.5624
#
#
#
# Elastic Compliance Matrix: (Units=1/GPa)
#
#
# Indices 1 2 3 4 5 6 
#
# 1 0.009964 -0.010641 -0.008740 0.000000 0.000000 0.000000
# 2 -0.010641 0.102893 0.007125 0.000000 0.000000 0.000000
# 3 -0.008740 0.007125 0.031241 0.000000 0.000000 0.000000
# 4 0.000000 0.000000 0.000000 0.023469 0.000000 0.000000
# 5 0.000000 0.000000 0.000000 0.000000 0.036786 0.000000
# 6 0.000000 0.000000 0.000000 0.000000 0.000000 0.060378
#
#
# Mechanical properties :
#
#
# Convention : Reuss Voigt Hill
#
# Bulk Modulus (GPa) = 8.36216 33.88223 21.12219
# Shear Modulus (GPa) = 15.19268 27.19991 21.19630
#
# Velocity S-wave (km/s) = 2.72626 3.64783 3.22018
# Velocity P-wave (km/s) = 3.74178 5.85815 4.91522
#
# Compressibility (1/GPa) = 0.11958636
#
# Stress axis : x y z
#
# Youngs Moduli (GPa) = 100.35713 9.71883 32.00928
#
# Poissons Ratio (x) = 0.10342 0.27975
# Poissons Ratio (y) = 1.06790 -0.22806
# Poissons Ratio (z) = 0.87709 -0.06924
#
# Static dielectric constant tensor:
#      x y z
#    x 1.807530 0.000000 0.000000 
#    y 0.000000 1.719880 0.000000 
#    z 0.000000 0.000000 1.701110 
# 
# From -- ./inp_files/35705.got.cif
#   From: 2010.05.17/outbox.cif.g08.bks.cpg/sg51_18_cif.got.tgz:35705.got - 2010.06.03 11:52:47.
