data_PCOD9399874
_publ_section_title
;
Structure prediction by ZEFSAII (Michael W. Deem and Ramdas Pophale) SiO2 
 PCOD9399874
Probable space group: P M M A
;
_chemical_formula_sum "Si O2"
_cell_formula_units_Z 52
_cell_length_a 22.074647
_cell_length_b 7.543693
_cell_length_c 14.250262
_cell_angle_alpha 90.000000
_cell_angle_beta 90.000000
_cell_angle_gamma 90.000000
_cell_volume 2373.015760
_symmetry_space_group_name_H-M "P M M A"
_symmetry_group_IT_number 51
_symmetry_cell_setting 'orthorhombic'
loop_
_space_group_symop_operation_xyz
x,y,z
1/2-x,-y,z
1/2+x,-y,-z
-x,y,-z
-x,-y,-z
1/2+x,y,-z
1/2-x,y,z
x,-y,z
loop_
_atom_site_type_symbol
_atom_site_label
_atom_site_fract_x
_atom_site_fract_y
_atom_site_fract_z
Si Si1 0.250000 0.785782 0.246666
Si Si2 0.874850 0.297584 0.850717
Si Si3 0.371233 0.784304 0.565948
Si Si4 0.680910 0.209249 0.045874
Si Si5 0.393392 0.786776 0.776702
Si Si6 0.250000 0.215276 0.462322
Si Si7 0.500000 0.750737 0.500000
Si Si8 0.975483 0.291577 0.708367
O O1 0.309989 0.715208 0.198543
O O2 0.250000 0.734165 0.354612
O O3 0.250000 0.000000 0.237860
O O4 0.894382 0.500000 0.863079
O O5 0.923381 0.219798 0.777379
O O6 0.861304 0.226488 0.954337
O O7 0.363062 0.750565 0.676104
O O8 0.311651 0.727846 0.511534
O O9 0.432083 0.692182 0.528808
O O10 0.381013 0.000000 0.553885
O O11 0.750000 0.279318 0.031727
O O12 0.645872 0.282430 0.136568
O O13 0.687761 0.000000 0.062177
O O14 0.461556 0.717578 0.764922
O O15 0.398423 0.000000 0.785765
O O16 0.250000 0.000000 0.467345
O O17 0.517212 0.807848 0.608412
O O18 0.963698 0.500000 0.684152
#
# Coordination Sequence:
#
# PCOD9399874 Si02
#       8
#     4   8   8   8   8   4   4   8
#     4  11  21  35  54  81 112 144 183 227 280 335
#     4  11  23  38  57  82 111 146 189 233 280 332
#     4   9  17  30  50  80 114 145 182 229 280 335
#     4  10  21  38  60  85 112 147 189 233 285 339
#     4   9  20  36  57  85 112 144 186 233 280 333
#     4   9  18  29  48  79 112 144 177 223 282 335
#     4  10  18  34  56  78 107 152 195 228 277 334
#     4  10  22  38  57  82 113 151 190 233 280 335
#
# _framework density 21.913046000000001
#
# number of rings (size 3 to 8) (size 9 to 14) (size 15 to 20)
#    0.000    2.154    0.769    2.077    1.077    3.077 
#    0.000    3.077    0.000    0.923    0.000    0.000 
#    0.000    0.000    0.000    0.000    0.000    0.000 
#
# Total GULP energy -289729.545249 kJ/mol
# GULP energy per Si atom -5571.722024 kJ/mol
# Density = 2.186317 g / cm^3
# Si number density = 21.913046 Si / 1000 Ang^3
#
#
#
# Elastic Constant Matrix: (Units=GPa)
#
#
# Indices 1 2 3 4 5 6 
#
# 1 93.5331 5.6245 91.8383 0.0000 0.0000 0.0000
# 2 5.6245 67.3788 17.0148 0.0000 0.0000 0.0000
# 3 91.8383 17.0148 179.7636 0.0000 0.0000 0.0000
# 4 0.0000 0.0000 0.0000 -25.4030 0.0000 0.0000
# 5 0.0000 0.0000 0.0000 0.0000 37.2553 0.0000
# 6 0.0000 0.0000 0.0000 0.0000 0.0000 6.7152
#
#
#
# Elastic Compliance Matrix: (Units=1/GPa)
#
#
# Indices 1 2 3 4 5 6 
#
# 1 0.021519 0.001004 -0.011089 0.000000 0.000000 0.000000
# 2 0.001004 0.015252 -0.001956 0.000000 0.000000 0.000000
# 3 -0.011089 -0.001956 0.011413 0.000000 0.000000 0.000000
# 4 0.000000 0.000000 0.000000 -0.039365 0.000000 0.000000
# 5 0.000000 0.000000 0.000000 0.000000 0.026842 0.000000
# 6 0.000000 0.000000 0.000000 0.000000 0.000000 0.148915
#
#
# Mechanical properties :
#
#
# Convention : Reuss Voigt Hill
#
# Bulk Modulus (GPa) = 41.49191 63.29229 52.39210
# Shear Modulus (GPa) = 23.07431 18.79336 20.93383
#
# Velocity S-wave (km/s) = 3.24851 2.93171 3.09417
# Velocity P-wave (km/s) = 5.74859 6.35657 6.06021
#
# Compressibility (1/GPa) = 0.02410109
#
# Stress axis : x y z
#
# Youngs Moduli (GPa) = 46.47135 65.56636 87.61953
#
# Poissons Ratio (x) = -0.06582 0.97157
# Poissons Ratio (y) = -0.04665 0.17142
# Poissons Ratio (z) = 0.51530 0.12828
#
# Static dielectric constant tensor:
#      x y z
#    x 1.761830 0.000000 0.000000 
#    y 0.000000 1.916810 0.000000 
#    z 0.000000 0.000000 1.778380 
# 
# From -- ./inp_files/25587.got.cif
#   From: 2010.05.17/outbox.cif.g08.bks.cpg/sg51_13_cif.got.tgz:25587.got - 2010.06.03 11:52:47.
