data_PCOD9399014
_publ_section_title
;
Structure prediction by ZEFSAII (Michael W. Deem and Ramdas Pophale) SiO2 
 PCOD9399014
Probable space group: P M M A
;
_chemical_formula_sum "Si O2"
_cell_formula_units_Z 64
_cell_length_a 7.673272
_cell_length_b 21.013299
_cell_length_c 20.545560
_cell_angle_alpha 90.000000
_cell_angle_beta 90.000000
_cell_angle_gamma 90.000000
_cell_volume 3312.781685
_symmetry_space_group_name_H-M "P M M A"
_symmetry_group_IT_number 51
_symmetry_cell_setting 'orthorhombic'
loop_
_space_group_symop_operation_xyz
x,y,z
1/2-x,-y,z
1/2+x,-y,-z
-x,y,-z
-x,-y,-z
1/2+x,y,-z
1/2-x,y,z
x,-y,z
loop_
_atom_site_type_symbol
_atom_site_label
_atom_site_fract_x
_atom_site_fract_y
_atom_site_fract_z
Si Si1 0.039498 0.431648 0.108498
Si Si2 0.040441 0.927553 0.573552
Si Si3 0.461319 0.744567 0.788421
Si Si4 0.963486 0.183178 0.332564
Si Si5 0.958921 0.294064 0.428328
Si Si6 0.547969 0.431575 0.395830
Si Si7 0.952593 0.290241 0.071607
Si Si8 0.044036 0.397533 0.253014
O O1 0.250000 0.431052 0.107276
O O2 0.978991 0.500000 0.081991
O O3 0.984380 0.426324 0.184200
O O4 0.982446 0.366428 0.075280
O O5 0.250000 0.929681 0.578543
O O6 0.976883 0.879595 0.629299
O O7 0.000000 0.905251 0.500000
O O8 0.973936 0.000000 0.580033
O O9 0.250000 0.745819 0.789923
O O10 0.518113 0.801883 0.741398
O O11 0.531486 0.740016 0.862432
O O12 0.511502 0.677776 0.754607
O O13 0.750000 0.181915 0.333197
O O14 0.021118 0.243896 0.375269
O O15 0.750000 0.298292 0.419932
O O16 0.032043 0.365645 0.421189
O O17 0.000000 0.269901 0.500000
O O18 0.750000 0.432797 0.416553
O O19 0.468870 0.500000 0.413970
O O20 0.542736 0.424319 0.317547
O O21 0.750000 0.279285 0.077660
O O22 0.000000 0.266900 0.000000
O O23 0.250000 0.409692 0.259032
#
# Coordination Sequence:
#
# PCOD9399014 Si02
#       8
#     8   8   8   8   8   8   8   8
#     4   9  18  31  45  62  86 113 142 180 227 280
#     4   9  17  29  47  73 104 137 165 190 225 268
#     4   9  17  32  51  68  88 119 155 186 225 275
#     4   9  16  30  51  70  93 123 156 193 225 263
#     4  10  20  33  47  63  85 114 148 189 233 273
#     4  10  20  33  47  60  79 112 150 188 234 289
#     4  10  20  32  48  66  87 115 146 183 229 281
#     4  10  18  29  46  68  90 110 139 188 242 281
#
# _framework density 19.319109999999998
#
# number of rings (size 3 to 8) (size 9 to 14) (size 15 to 20)
#    0.000    2.500    1.250    1.500    0.000    3.000 
#    0.000    0.625    0.000    0.000    0.000    0.000 
#    0.000    0.500    0.000    0.375    0.000    0.750 
#
# Total GULP energy -357014.020581 kJ/mol
# GULP energy per Si atom -5578.344072 kJ/mol
# Density = 1.927514 g / cm^3
# Si number density = 19.319110 Si / 1000 Ang^3
#
#
#
# Elastic Constant Matrix: (Units=GPa)
#
#
# Indices 1 2 3 4 5 6 
#
# 1 34.2501 4.3438 -1.6186 0.0000 0.0000 0.0000
# 2 4.3438 89.6274 54.9115 0.0000 0.0000 0.0000
# 3 -1.6186 54.9115 125.3424 0.0000 0.0000 0.0000
# 4 0.0000 0.0000 0.0000 52.3969 0.0000 0.0000
# 5 0.0000 0.0000 0.0000 0.0000 18.3383 0.0000
# 6 0.0000 0.0000 0.0000 0.0000 0.0000 1.8495
#
#
#
# Elastic Compliance Matrix: (Units=1/GPa)
#
#
# Indices 1 2 3 4 5 6 
#
# 1 0.029551 -0.002277 0.001379 0.000000 0.000000 0.000000
# 2 -0.002277 0.015426 -0.006787 0.000000 0.000000 0.000000
# 3 0.001379 -0.006787 0.010969 0.000000 0.000000 0.000000
# 4 0.000000 0.000000 0.000000 0.019085 0.000000 0.000000
# 5 0.000000 0.000000 0.000000 0.000000 0.054531 0.000000
# 6 0.000000 0.000000 0.000000 0.000000 0.000000 0.540674
#
#
# Mechanical properties :
#
#
# Convention : Reuss Voigt Hill
#
# Bulk Modulus (GPa) = 24.64530 40.49926 32.57228
# Shear Modulus (GPa) = 7.15172 27.28917 17.22044
#
# Velocity S-wave (km/s) = 1.92612 3.76247 2.98882
# Velocity P-wave (km/s) = 4.21084 6.31535 5.36726
#
# Compressibility (1/GPa) = 0.04057569
#
# Stress axis : x y z
#
# Youngs Moduli (GPa) = 33.83985 64.82517 91.16199
#
# Poissons Ratio (x) = 0.14762 -0.12573
# Poissons Ratio (y) = 0.07706 0.61876
# Poissons Ratio (z) = -0.04667 0.44000
#
# Static dielectric constant tensor:
#      x y z
#    x 1.710920 0.000000 0.000000 
#    y 0.000000 1.689610 0.000000 
#    z 0.000000 0.000000 1.722260 
# 
# From -- ./inp_files/32611.got.cif
#   From: 2010.05.17/outbox.cif.g08.bks.cpg/sg51_17_cif.got.tgz:32611.got - 2010.06.03 11:52:47.
