data_PCOD9399812
_publ_section_title
;
Structure prediction by ZEFSAII (Michael W. Deem and Ramdas Pophale) SiO2 
 PCOD9399812
Probable space group: P M M A
;
_chemical_formula_sum "Si O2"
_cell_formula_units_Z 56
_cell_length_a 13.767176
_cell_length_b 16.240575
_cell_length_c 11.941844
_cell_angle_alpha 90.000000
_cell_angle_beta 90.000000
_cell_angle_gamma 90.000000
_cell_volume 2670.039335
_symmetry_space_group_name_H-M "P M M A"
_symmetry_group_IT_number 51
_symmetry_cell_setting 'orthorhombic'
loop_
_space_group_symop_operation_xyz
x,y,z
1/2-x,-y,z
1/2+x,-y,-z
-x,y,-z
-x,-y,-z
1/2+x,y,-z
1/2-x,y,z
x,-y,z
loop_
_atom_site_type_symbol
_atom_site_label
_atom_site_fract_x
_atom_site_fract_y
_atom_site_fract_z
Si Si1 0.479949 0.841301 0.623172
Si Si2 0.866382 0.909626 0.176775
Si Si3 0.631914 0.408382 0.163870
Si Si4 0.367821 0.752517 0.970424
Si Si5 0.866162 0.669346 0.402185
Si Si6 0.633424 0.753402 0.770449
Si Si7 0.867502 0.408693 0.641316
O O1 0.500000 0.875237 0.500000
O O2 0.417239 0.898111 0.704091
O O3 0.420563 0.755931 0.606285
O O4 0.577280 0.815995 0.689885
O O5 0.750000 0.904605 0.190015
O O6 0.889616 0.000000 0.129306
O O7 0.896646 0.832593 0.100426
O O8 0.750000 0.410614 0.154308
O O9 0.595828 0.500000 0.135678
O O10 0.611997 0.384942 0.292940
O O11 0.598583 0.332653 0.086382
O O12 0.250000 0.749891 0.966871
O O13 0.393822 0.761767 0.099968
O O14 0.750000 0.684540 0.402643
O O15 0.891283 0.623208 0.517030
O O16 0.750000 0.762784 0.759230
O O17 0.606151 0.661747 0.729046
O O18 0.750000 0.413386 0.644871
O O19 0.905944 0.500000 0.662574
#
# Coordination Sequence:
#
# PCOD9399812 Si02
#       7
#     8   8   8   8   8   8   8
#     4  12  23  37  62  90 119 158 201 241 302 364
#     4  10  22  43  71  98 121 149 192 247 301 357
#     4   9  16  28  53  86 117 153 198 248 301 357
#     4   9  18  36  60  85 117 159 202 245 299 357
#     4  10  18  33  55  83 118 156 204 257 303 350
#     4  10  22  38  56  83 121 164 204 249 301 355
#     4   9  17  31  53  80 115 163 213 256 300 352
#
# _framework density 20.973474
#
# number of rings (size 3 to 8) (size 9 to 14) (size 15 to 20)
#    0.000    2.143    2.857    0.857    0.000    3.714 
#    0.000    6.429    0.000    2.143    0.000    0.000 
#    0.000    0.000    0.000    0.000    0.000    0.000 
#
# Total GULP energy -313093.701488 kJ/mol
# GULP energy per Si atom -5590.958955 kJ/mol
# Density = 2.092574 g / cm^3
# Si number density = 20.973474 Si / 1000 Ang^3
#
#
#
# Elastic Constant Matrix: (Units=GPa)
#
#
# Indices 1 2 3 4 5 6 
#
# 1 80.0144 32.8561 24.1504 0.0000 0.0000 0.0000
# 2 32.8561 101.9049 54.0273 0.0000 0.0000 0.0000
# 3 24.1504 54.0273 158.6042 0.0000 0.0000 0.0000
# 4 0.0000 0.0000 0.0000 0.4589 0.0000 0.0000
# 5 0.0000 0.0000 0.0000 0.0000 18.0932 0.0000
# 6 0.0000 0.0000 0.0000 0.0000 0.0000 11.1256
#
#
#
# Elastic Compliance Matrix: (Units=1/GPa)
#
#
# Indices 1 2 3 4 5 6 
#
# 1 0.014478 -0.004270 -0.000750 0.000000 0.000000 0.000000
# 2 -0.004270 0.013235 -0.003858 0.000000 0.000000 0.000000
# 3 -0.000750 -0.003858 0.007733 0.000000 0.000000 0.000000
# 4 0.000000 0.000000 0.000000 2.179144 0.000000 0.000000
# 5 0.000000 0.000000 0.000000 0.000000 0.055269 0.000000
# 6 0.000000 0.000000 0.000000 0.000000 0.000000 0.089883
#
#
# Mechanical properties :
#
#
# Convention : Reuss Voigt Hill
#
# Bulk Modulus (GPa) = 56.53036 62.51013 59.52024
# Shear Modulus (GPa) = 2.09785 21.23486 11.66635
#
# Velocity S-wave (km/s) = 1.00120 3.18537 2.36104
# Velocity P-wave (km/s) = 5.32431 6.58771 5.98942
#
# Compressibility (1/GPa) = 0.01768961
#
# Stress axis : x y z
#
# Youngs Moduli (GPa) = 69.07235 75.55447 129.30768
#
# Poissons Ratio (x) = 0.32264 0.09696
# Poissons Ratio (y) = 0.29496 0.49891
# Poissons Ratio (z) = 0.05179 0.29151
#
# Static dielectric constant tensor:
#      x y z
#    x 1.796030 0.000000 0.000000 
#    y 0.000000 1.725550 0.000000 
#    z 0.000000 0.000000 1.722530 
# 
# From -- ./inp_files/16646.got.cif
#   From: 2010.05.17/outbox.cif.g08.bks.cpg/sg51_9_cif.got.tgz:16646.got - 2010.06.03 11:52:47.
