data_PCOD9399756
_publ_section_title
;
Structure prediction by ZEFSAII (Michael W. Deem and Ramdas Pophale) SiO2 
 PCOD9399756
Probable space group: P M M A
;
_chemical_formula_sum "Si O2"
_cell_formula_units_Z 48
_cell_length_a 9.625080
_cell_length_b 14.920707
_cell_length_c 17.850746
_cell_angle_alpha 90.000000
_cell_angle_beta 90.000000
_cell_angle_gamma 90.000000
_cell_volume 2563.599159
_symmetry_space_group_name_H-M "P M M A"
_symmetry_group_IT_number 51
_symmetry_cell_setting 'orthorhombic'
loop_
_space_group_symop_operation_xyz
x,y,z
1/2-x,-y,z
1/2+x,-y,-z
-x,y,-z
-x,-y,-z
1/2+x,y,-z
1/2-x,y,z
x,-y,z
loop_
_atom_site_type_symbol
_atom_site_label
_atom_site_fract_x
_atom_site_fract_y
_atom_site_fract_z
Si Si1 0.580497 0.000000 0.082225
Si Si2 0.919137 0.500000 0.920990
Si Si3 0.750000 0.602861 0.587876
Si Si4 0.917303 0.895233 0.578524
Si Si5 0.750000 0.395076 0.408619
Si Si6 0.908743 0.332304 0.818609
Si Si7 0.912286 0.162375 0.924853
Si Si8 0.997496 0.714836 0.657043
O O1 0.508017 0.087763 0.115690
O O2 0.750000 0.000000 0.080766
O O3 0.500000 0.000000 0.000000
O O4 0.750000 0.500000 0.933302
O O5 0.956441 0.414817 0.869571
O O6 0.000000 0.500000 0.000000
O O7 0.750000 0.500000 0.614291
O O8 0.750000 0.601796 0.498296
O O9 0.876238 0.658760 0.618771
O O10 0.750000 0.882293 0.568993
O O11 0.974696 0.819075 0.635003
O O12 0.000000 0.883375 0.500000
O O13 0.937764 0.000000 0.601699
O O14 0.750000 0.500000 0.383104
O O15 0.625561 0.335125 0.379314
O O16 0.750000 0.352680 0.793740
O O17 0.904217 0.248070 0.873358
O O18 0.993448 0.305041 0.745429
O O19 0.750000 0.133923 0.940620
O O20 0.000000 0.184284 0.000000
#
# Coordination Sequence:
#
# PCOD9399756 Si02
#       8
#     4   4   4   8   4   8   8   8
#     4  10  18  32  56  86 116 150 193 242 299 361
#     4  10  22  42  66  92 121 161 210 250 297 369
#     4  11  22  38  69  89 119 169 211 250 305 383
#     4  10  21  38  64  93 123 164 216 268 318 379
#     4  11  26  42  59  97 131 163 209 260 313 373
#     4  10  22  39  62  88 121 162 202 250 306 363
#     4  10  19  35  58  86 116 152 200 245 297 365
#     4  12  23  41  62  91 129 166 209 264 320 372
#
# _framework density 18.723676999999999
#
# number of rings (size 3 to 8) (size 9 to 14) (size 15 to 20)
#    0.000    1.500    1.667    4.750    3.500    1.333 
#    6.000    0.000    0.000    0.000    0.000    0.000 
#    0.000    0.000    0.000    0.000    0.000    0.000 
#
# Total GULP energy -267400.167684 kJ/mol
# GULP energy per Si atom -5570.836827 kJ/mol
# Density = 1.868106 g / cm^3
# Si number density = 18.723677 Si / 1000 Ang^3
#
#
#
# Elastic Constant Matrix: (Units=GPa)
#
#
# Indices 1 2 3 4 5 6 
#
# 1 135.6535 52.5911 30.1433 0.0000 0.0000 0.0000
# 2 52.5911 161.6335 60.9474 0.0000 0.0000 0.0000
# 3 30.1433 60.9474 92.9654 0.0000 0.0000 0.0000
# 4 0.0000 0.0000 0.0000 86.5174 0.0000 0.0000
# 5 0.0000 0.0000 0.0000 0.0000 36.4102 0.0000
# 6 0.0000 0.0000 0.0000 0.0000 0.0000 51.7180
#
#
#
# Elastic Compliance Matrix: (Units=1/GPa)
#
#
# Indices 1 2 3 4 5 6 
#
# 1 0.008545 -0.002306 -0.001259 0.000000 0.000000 0.000000
# 2 -0.002306 0.008841 -0.005048 0.000000 0.000000 0.000000
# 3 -0.001259 -0.005048 0.014475 0.000000 0.000000 0.000000
# 4 0.000000 0.000000 0.000000 0.011558 0.000000 0.000000
# 5 0.000000 0.000000 0.000000 0.000000 0.027465 0.000000
# 6 0.000000 0.000000 0.000000 0.000000 0.000000 0.019336
#
#
# Mechanical properties :
#
#
# Convention : Reuss Voigt Hill
#
# Bulk Modulus (GPa) = 68.33230 75.29067 71.81149
# Shear Modulus (GPa) = 44.51426 51.36718 47.94072
#
# Velocity S-wave (km/s) = 4.88118 5.24346 5.06556
# Velocity P-wave (km/s) = 8.26694 8.77253 8.52348
#
# Compressibility (1/GPa) = 0.01463437
#
# Stress axis : x y z
#
# Youngs Moduli (GPa) = 117.02215 113.11496 69.08676
#
# Poissons Ratio (x) = 0.26080 0.08700
# Poissons Ratio (y) = 0.26981 0.34877
# Poissons Ratio (z) = 0.14736 0.57103
#
# Static dielectric constant tensor:
#      x y z
#    x 1.632340 0.000000 0.000000 
#    y 0.000000 1.718780 0.000000 
#    z 0.000000 0.000000 1.568410 
# 
# From -- ./inp_files/27723.got.cif
#   From: 2010.05.17/outbox.cif.g08.bks.cpg/sg51_14_cif.got.tgz:27723.got - 2010.06.03 11:52:47.
