data_PCOD9399149
_publ_section_title
;
Structure prediction by ZEFSAII (Michael W. Deem and Ramdas Pophale) SiO2 
 PCOD9399149
Probable space group: P M M A
;
_chemical_formula_sum "Si O2"
_cell_formula_units_Z 52
_cell_length_a 8.721127
_cell_length_b 27.218973
_cell_length_c 14.003592
_cell_angle_alpha 90.000000
_cell_angle_beta 90.000000
_cell_angle_gamma 90.000000
_cell_volume 3324.174354
_symmetry_space_group_name_H-M "P M M A"
_symmetry_group_IT_number 51
_symmetry_cell_setting 'orthorhombic'
loop_
_space_group_symop_operation_xyz
x,y,z
1/2-x,-y,z
1/2+x,-y,-z
-x,y,-z
-x,-y,-z
1/2+x,y,-z
1/2-x,y,z
x,-y,z
loop_
_atom_site_type_symbol
_atom_site_label
_atom_site_fract_x
_atom_site_fract_y
_atom_site_fract_z
Si Si1 0.433371 0.000000 0.392223
Si Si2 0.434252 0.346957 0.788453
Si Si3 0.566453 0.195770 0.706955
Si Si4 0.933313 0.297950 0.604333
Si Si5 0.067581 0.898350 0.607067
Si Si6 0.933811 0.253435 0.896498
Si Si7 0.434962 0.555183 0.894146
O O1 0.500000 0.000000 0.500000
O O2 0.496450 0.948842 0.351514
O O3 0.250000 0.000000 0.393950
O O4 0.250000 0.344277 0.788057
O O5 0.497424 0.333696 0.684245
O O6 0.498341 0.305127 0.859484
O O7 0.482642 0.400578 0.825380
O O8 0.750000 0.187390 0.701376
O O9 0.529615 0.242497 0.639582
O O10 0.479554 0.148050 0.670466
O O11 0.528748 0.213624 0.814216
O O12 0.750000 0.302469 0.604170
O O13 0.000000 0.306600 0.500000
O O14 0.250000 0.903231 0.599589
O O15 0.000000 0.891147 0.500000
O O16 0.750000 0.257667 0.900510
O O17 0.000000 0.241371 0.000000
O O18 0.250000 0.556066 0.899477
O O19 0.481681 0.500000 0.863959
O O20 0.500000 0.563657 0.000000
#
# Coordination Sequence:
#
# PCOD9399149 Si02
#       7
#     4   8   8   8   8   8   8
#     4  10  18  30  46  64  91 124 157 192 230 274
#     4  10  19  31  49  70  94 124 156 190 231 278
#     4   9  19  33  47  67  93 123 155 188 228 273
#     4  10  20  33  49  69  95 124 157 194 231 275
#     4  11  20  30  46  68  95 125 157 193 230 272
#     4  10  20  33  49  69  96 125 156 193 232 278
#     4   9  18  31  47  69  95 122 152 188 231 278
#
# _framework density 15.642982999999999
#
# number of rings (size 3 to 8) (size 9 to 14) (size 15 to 20)
#    0.000    2.154    0.000    6.231    0.000    7.385 
#    0.000    0.000    0.000    0.462    0.000    0.538 
#    0.000    0.000    0.000    0.000    0.000    0.000 
#
# Total GULP energy -290109.185427 kJ/mol
# GULP energy per Si atom -5579.022797 kJ/mol
# Density = 1.560738 g / cm^3
# Si number density = 15.642983 Si / 1000 Ang^3
#
#
#
# Elastic Constant Matrix: (Units=GPa)
#
#
# Indices 1 2 3 4 5 6 
#
# 1 78.8647 62.9753 44.3670 0.0000 0.0000 0.0000
# 2 62.9753 144.1641 71.7406 0.0000 0.0000 0.0000
# 3 44.3670 71.7406 104.5147 0.0000 0.0000 0.0000
# 4 0.0000 0.0000 0.0000 19.3579 0.0000 0.0000
# 5 0.0000 0.0000 0.0000 0.0000 27.1140 0.0000
# 6 0.0000 0.0000 0.0000 0.0000 0.0000 24.1818
#
#
#
# Elastic Compliance Matrix: (Units=1/GPa)
#
#
# Indices 1 2 3 4 5 6 
#
# 1 0.020455 -0.007008 -0.003873 0.000000 0.000000 0.000000
# 2 -0.007008 0.012936 -0.005905 0.000000 0.000000 0.000000
# 3 -0.003873 -0.005905 0.015265 0.000000 0.000000 0.000000
# 4 0.000000 0.000000 0.000000 0.051658 0.000000 0.000000
# 5 0.000000 0.000000 0.000000 0.000000 0.036881 0.000000
# 6 0.000000 0.000000 0.000000 0.000000 0.000000 0.041353
#
#
# Mechanical properties :
#
#
# Convention : Reuss Voigt Hill
#
# Bulk Modulus (GPa) = 66.29032 76.18994 71.24013
# Shear Modulus (GPa) = 23.02573 24.02812 23.52693
#
# Velocity S-wave (km/s) = 3.84077 3.92348 3.88234
# Velocity P-wave (km/s) = 7.88274 8.32683 8.10783
#
# Compressibility (1/GPa) = 0.01508516
#
# Stress axis : x y z
#
# Youngs Moduli (GPa) = 48.88847 77.30216 65.50898
#
# Poissons Ratio (x) = 0.54174 0.25369
# Poissons Ratio (y) = 0.34261 0.38681
# Poissons Ratio (z) = 0.18933 0.45645
#
# Static dielectric constant tensor:
#      x y z
#    x 1.522650 0.000000 0.000000 
#    y 0.000000 1.532730 0.000000 
#    z 0.000000 0.000000 1.499780 
# 
# From -- ./inp_files/22091.got.cif
#   From: 2010.05.17/outbox.cif.g08.bks.cpg/sg51_12_cif.got.tgz:22091.got - 2010.06.03 11:52:47.
