data_PCOD9399122
_publ_section_title
;
Structure prediction by ZEFSAII (Michael W. Deem and Ramdas Pophale) SiO2 
 PCOD9399122
Probable space group: P M M A
;
_chemical_formula_sum "Si O2"
_cell_formula_units_Z 56
_cell_length_a 15.102137
_cell_length_b 7.771716
_cell_length_c 22.950077
_cell_angle_alpha 90.000000
_cell_angle_beta 90.000000
_cell_angle_gamma 90.000000
_cell_volume 2693.639516
_symmetry_space_group_name_H-M "P M M A"
_symmetry_group_IT_number 51
_symmetry_cell_setting 'orthorhombic'
loop_
_space_group_symop_operation_xyz
x,y,z
1/2-x,-y,z
1/2+x,-y,-z
-x,y,-z
-x,-y,-z
1/2+x,y,-z
1/2-x,y,z
x,-y,z
loop_
_atom_site_type_symbol
_atom_site_label
_atom_site_fract_x
_atom_site_fract_y
_atom_site_fract_z
Si Si1 0.649463 0.706296 0.251045
Si Si2 0.848061 0.794497 0.597054
Si Si3 0.350108 0.790637 0.970427
Si Si4 0.469111 0.298683 0.644088
Si Si5 0.463805 0.208169 0.861943
Si Si6 0.348706 0.210169 0.104926
Si Si7 0.148967 0.207847 0.535064
O O1 0.750000 0.774445 0.249921
O O2 0.656093 0.500000 0.258231
O O3 0.591345 0.778193 0.304626
O O4 0.597235 0.739307 0.191555
O O5 0.750000 0.730184 0.614104
O O6 0.868083 0.731222 0.531091
O O7 0.929993 0.760638 0.638811
O O8 0.841749 0.000000 0.592168
O O9 0.250000 0.741094 0.953321
O O10 0.419844 0.731299 0.922584
O O11 0.353437 0.000000 0.970877
O O12 0.363935 0.738259 0.037343
O O13 0.473560 0.500000 0.654739
O O14 0.419946 0.268506 0.582834
O O15 0.565839 0.266767 0.858855
O O16 0.464630 0.000000 0.863538
O O17 0.250000 0.267629 0.122473
O O18 0.347158 0.000000 0.105750
O O19 0.250000 0.258475 0.550448
O O20 0.145236 0.000000 0.534819
#
# Coordination Sequence:
#
# PCOD9399122 Si02
#       7
#     8   8   8   8   8   8   8
#     4  10  23  41  54  67  96 135 167 200 250 304
#     4   9  19  36  56  79 108 138 166 201 250 306
#     4   8  13  22  40  70 104 130 154 194 249 299
#     4  11  22  35  53  76 102 135 175 215 253 296
#     4  10  18  29  50  77  99 124 167 214 244 279
#     4   8  14  25  43  71 106 135 156 190 247 304
#     4   9  18  33  54  80 109 139 168 202 251 308
#
# _framework density 20.789715000000001
#
# number of rings (size 3 to 8) (size 9 to 14) (size 15 to 20)
#    0.000    2.714    0.000    3.857    0.000    7.143 
#    0.000    2.143    0.000    4.714    0.000    2.000 
#    0.000    0.000    0.000    0.000    0.000    0.000 
#
# Total GULP energy -312436.519109 kJ/mol
# GULP energy per Si atom -5579.223556 kJ/mol
# Density = 2.074240 g / cm^3
# Si number density = 20.789715 Si / 1000 Ang^3
#
#
#
# Elastic Constant Matrix: (Units=GPa)
#
#
# Indices 1 2 3 4 5 6 
#
# 1 181.3389 -5.4474 83.5522 0.0000 0.0000 0.0000
# 2 -5.4474 14.4513 2.1126 0.0000 0.0000 0.0000
# 3 83.5522 2.1126 57.5008 0.0000 0.0000 0.0000
# 4 0.0000 0.0000 0.0000 20.1989 0.0000 0.0000
# 5 0.0000 0.0000 0.0000 0.0000 32.2741 0.0000
# 6 0.0000 0.0000 0.0000 0.0000 0.0000 40.3931
#
#
#
# Elastic Compliance Matrix: (Units=1/GPa)
#
#
# Indices 1 2 3 4 5 6 
#
# 1 0.018220 0.010796 -0.026871 0.000000 0.000000 0.000000
# 2 0.010796 0.075969 -0.018478 0.000000 0.000000 0.000000
# 3 -0.026871 -0.018478 0.057115 0.000000 0.000000 0.000000
# 4 0.000000 0.000000 0.000000 0.049508 0.000000 0.000000
# 5 0.000000 0.000000 0.000000 0.000000 0.030985 0.000000
# 6 0.000000 0.000000 0.000000 0.000000 0.000000 0.024757
#
#
# Mechanical properties :
#
#
# Convention : Reuss Voigt Hill
#
# Bulk Modulus (GPa) = 12.16589 45.96951 29.06770
# Shear Modulus (GPa) = 14.16196 30.11145 22.13671
#
# Velocity S-wave (km/s) = 2.61281 3.80989 3.26665
# Velocity P-wave (km/s) = 3.86872 6.44309 5.31415
#
# Compressibility (1/GPa) = 0.08219705
#
# Stress axis : x y z
#
# Youngs Moduli (GPa) = 54.88559 13.16328 17.50848
#
# Poissons Ratio (x) = -0.14211 0.47047
# Poissons Ratio (y) = -0.59255 0.32353
# Poissons Ratio (z) = 1.47483 0.24324
#
# Static dielectric constant tensor:
#      x y z
#    x 1.771880 0.000000 0.000000 
#    y 0.000000 1.774480 0.000000 
#    z 0.000000 0.000000 1.719880 
# 
# From -- ./inp_files/33291.got.cif
#   From: 2010.05.17/outbox.cif.g08.bks.cpg/sg51_17_cif.got.tgz:33291.got - 2010.06.03 11:52:47.
