data_PCOD9399963
_publ_section_title
;
Structure prediction by ZEFSAII (Michael W. Deem and Ramdas Pophale) SiO2 
 PCOD9399963
Probable space group: P M M A
;
_chemical_formula_sum "Si O2"
_cell_formula_units_Z 64
_cell_length_a 9.226794
_cell_length_b 18.920171
_cell_length_c 26.576631
_cell_angle_alpha 90.000000
_cell_angle_beta 90.000000
_cell_angle_gamma 90.000000
_cell_volume 4639.549454
_symmetry_space_group_name_H-M "P M M A"
_symmetry_group_IT_number 51
_symmetry_cell_setting 'orthorhombic'
loop_
_space_group_symop_operation_xyz
x,y,z
1/2-x,-y,z
1/2+x,-y,-z
-x,y,-z
-x,-y,-z
1/2+x,y,-z
1/2-x,y,z
x,-y,z
loop_
_atom_site_type_symbol
_atom_site_label
_atom_site_fract_x
_atom_site_fract_y
_atom_site_fract_z
Si Si1 0.422703 0.848877 0.549936
Si Si2 0.574380 0.349658 0.750588
Si Si3 0.923814 0.919795 0.343440
Si Si4 0.916972 0.718655 0.592657
Si Si5 0.084424 0.793493 0.297449
Si Si6 0.926363 0.419953 0.644219
Si Si7 0.920424 0.414842 0.152838
Si Si8 0.917422 0.413969 0.949541
O O1 0.500000 0.876736 0.500000
O O2 0.250000 0.848333 0.543996
O O3 0.459782 0.894174 0.599739
O O4 0.483199 0.769910 0.560201
O O5 0.750000 0.353593 0.754804
O O6 0.534795 0.267716 0.740533
O O7 0.532761 0.393681 0.700287
O O8 0.498527 0.380592 0.799404
O O9 0.750000 0.917837 0.339596
O O10 0.990524 0.863046 0.305322
O O11 0.973562 0.000000 0.335420
O O12 0.750000 0.718384 0.574093
O O13 0.913827 0.753800 0.648353
O O14 0.970502 0.639070 0.603381
O O15 0.250000 0.812613 0.285527
O O16 0.750000 0.419005 0.643406
O O17 0.975163 0.500000 0.635146
O O18 0.750000 0.397807 0.151482
O O19 0.933741 0.500000 0.156874
O O20 0.998482 0.392939 0.101008
O O21 0.750000 0.391224 0.948985
O O22 0.917378 0.500000 0.950281
O O23 0.000000 0.390708 0.000000
#
# Coordination Sequence:
#
# PCOD9399963 Si02
#       8
#     8   8   8   8   8   8   8   8
#     4  10  19  30  44  60  78  99 122 149 181 218
#     4   9  16  26  40  57  78 103 131 161 194 234
#     4   9  18  31  45  62  83 104 125 149 179 218
#     4   8  14  26  42  58  76  97 122 150 180 220
#     4   8  15  27  42  60  79 101 129 156 183 221
#     4   8  13  22  39  60  77  95 121 153 189 228
#     4  10  19  27  35  52  78 105 136 174 211 244
#     4   9  16  26  39  52  68  95 132 173 215 254
#
# _framework density 13.794442
#
# number of rings (size 3 to 8) (size 9 to 14) (size 15 to 20)
#    0.000    3.125    0.000    3.000    0.000    4.250 
#    0.000    1.875    0.000    1.500    0.000    0.000 
#    0.000    0.000    0.000    0.000    0.000    0.625 
#
# Total GULP energy -356282.558127 kJ/mol
# GULP energy per Si atom -5566.914971 kJ/mol
# Density = 1.376305 g / cm^3
# Si number density = 13.794442 Si / 1000 Ang^3
#
#
#
# Elastic Constant Matrix: (Units=GPa)
#
#
# Indices 1 2 3 4 5 6 
#
# 1 43.9629 22.4901 19.2949 0.0000 0.0000 0.0000
# 2 22.4901 76.7963 5.7660 0.0000 0.0000 0.0000
# 3 19.2949 5.7660 26.9601 0.0000 0.0000 0.0000
# 4 0.0000 0.0000 0.0000 9.3978 0.0000 0.0000
# 5 0.0000 0.0000 0.0000 0.0000 21.4040 0.0000
# 6 0.0000 0.0000 0.0000 0.0000 0.0000 16.6684
#
#
#
# Elastic Compliance Matrix: (Units=1/GPa)
#
#
# Indices 1 2 3 4 5 6 
#
# 1 0.038924 -0.009459 -0.025834 0.000000 0.000000 0.000000
# 2 -0.009459 0.015533 0.003448 0.000000 0.000000 0.000000
# 3 -0.025834 0.003448 0.054844 0.000000 0.000000 0.000000
# 4 0.000000 0.000000 0.000000 0.106408 0.000000 0.000000
# 5 0.000000 0.000000 0.000000 0.000000 0.046720 0.000000
# 6 0.000000 0.000000 0.000000 0.000000 0.000000 0.059994
#
#
# Mechanical properties :
#
#
# Convention : Reuss Voigt Hill
#
# Bulk Modulus (GPa) = 21.92546 26.98015 24.45281
# Shear Modulus (GPa) = 12.45897 16.17191 14.31544
#
# Velocity S-wave (km/s) = 3.00857 3.42767 3.22494
# Velocity P-wave (km/s) = 5.29127 5.93856 5.62423
#
# Compressibility (1/GPa) = 0.04560908
#
# Stress axis : x y z
#
# Youngs Moduli (GPa) = 25.69105 64.37980 18.23362
#
# Poissons Ratio (x) = 0.60900 0.47105
# Poissons Ratio (y) = 0.24302 -0.06287
# Poissons Ratio (z) = 0.66371 -0.22198
#
# Static dielectric constant tensor:
#      x y z
#    x 1.460100 0.000000 0.000000 
#    y 0.000000 1.458570 0.000000 
#    z 0.000000 0.000000 1.438930 
# 
# From -- ./inp_files/36432.got.cif
#   From: 2010.05.17/outbox.cif.g08.bks.cpg/sg51_19_cif.got.tgz:36432.got - 2010.06.03 11:52:47.
