data_PCOD9399064
_publ_section_title
;
Structure prediction by ZEFSAII (Michael W. Deem and Ramdas Pophale) SiO2 
 PCOD9399064
Probable space group: P M M A
;
_chemical_formula_sum "Si O2"
_cell_formula_units_Z 48
_cell_length_a 14.628998
_cell_length_b 18.686626
_cell_length_c 9.066161
_cell_angle_alpha 90.000000
_cell_angle_beta 90.000000
_cell_angle_gamma 90.000000
_cell_volume 2478.385738
_symmetry_space_group_name_H-M "P M M A"
_symmetry_group_IT_number 51
_symmetry_cell_setting 'orthorhombic'
loop_
_space_group_symop_operation_xyz
x,y,z
1/2-x,-y,z
1/2+x,-y,-z
-x,y,-z
-x,-y,-z
1/2+x,y,-z
1/2-x,y,z
x,-y,z
loop_
_atom_site_type_symbol
_atom_site_label
_atom_site_fract_x
_atom_site_fract_y
_atom_site_fract_z
Si Si1 0.850541 0.808551 0.663809
Si Si2 0.852848 0.344395 0.750890
Si Si3 0.028512 0.579307 0.826610
Si Si4 0.644193 0.710367 0.091069
Si Si5 0.528752 0.146554 0.153726
Si Si6 0.898113 0.921290 0.430956
O O1 0.750000 0.817582 0.734996
O O2 0.862485 0.723561 0.642873
O O3 0.852258 0.855914 0.516865
O O4 0.934749 0.834529 0.762141
O O5 0.750000 0.374447 0.737329
O O6 0.936536 0.398657 0.740183
O O7 0.860047 0.310571 0.916908
O O8 0.061285 0.500000 0.785587
O O9 0.101562 0.643231 0.820579
O O10 0.000000 0.576549 0.000000
O O11 0.750000 0.722449 0.128290
O O12 0.583121 0.780083 0.120006
O O13 0.589051 0.097911 0.260532
O O14 0.500000 0.111966 0.000000
O O15 0.000000 0.924057 0.500000
O O16 0.857229 0.000000 0.453504
#
# Coordination Sequence:
#
# PCOD9399064 Si02
#       6
#     8   8   8   8   8   8
#     4  10  19  34  56  78 107 150 193 232 278 335
#     4   9  16  28  48  74 103 141 190 236 280 333
#     4   9  16  27  43  69 107 145 182 231 293 345
#     4  10  18  29  47  74 107 144 189 237 283 331
#     4  11  19  34  58  83 113 145 187 236 286 335
#     4   9  21  38  55  79 109 141 177 223 278 339
#
# _framework density 19.367443999999999
#
# number of rings (size 3 to 8) (size 9 to 14) (size 15 to 20)
#    0.000    2.333    3.333    0.500    0.000    2.000 
#    0.000    3.333    0.000    0.000    0.000    2.333 
#    0.000    2.667    0.000    0.000    0.000    0.000 
#
# Total GULP energy -267530.254683 kJ/mol
# GULP energy per Si atom -5573.546973 kJ/mol
# Density = 1.932336 g / cm^3
# Si number density = 19.367444 Si / 1000 Ang^3
#
#
#
# Elastic Constant Matrix: (Units=GPa)
#
#
# Indices 1 2 3 4 5 6 
#
# 1 86.2330 21.3274 13.4444 0.0000 0.0000 0.0000
# 2 21.3274 83.2801 26.4118 0.0000 0.0000 0.0000
# 3 13.4444 26.4118 47.5323 0.0000 0.0000 0.0000
# 4 0.0000 0.0000 0.0000 14.7610 0.0000 0.0000
# 5 0.0000 0.0000 0.0000 0.0000 14.4804 0.0000
# 6 0.0000 0.0000 0.0000 0.0000 0.0000 -7.1637
#
#
#
# Elastic Compliance Matrix: (Units=1/GPa)
#
#
# Indices 1 2 3 4 5 6 
#
# 1 0.012558 -0.002536 -0.002143 0.000000 0.000000 0.000000
# 2 -0.002536 0.015089 -0.007667 0.000000 0.000000 0.000000
# 3 -0.002143 -0.007667 0.025904 0.000000 0.000000 0.000000
# 4 0.000000 0.000000 0.000000 0.067746 0.000000 0.000000
# 5 0.000000 0.000000 0.000000 0.000000 0.069059 0.000000
# 6 0.000000 0.000000 0.000000 0.000000 0.000000 -0.139592
#
#
# Mechanical properties :
#
#
# Convention : Reuss Voigt Hill
#
# Bulk Modulus (GPa) = 34.65069 37.71253 36.18161
# Shear Modulus (GPa) = 58.77169 14.80633 36.78901
#
# Velocity S-wave (km/s) = 5.51466 2.76795 4.36309
# Velocity P-wave (km/s) = 7.64714 5.45250 6.64110
#
# Compressibility (1/GPa) = 0.02885945
#
# Stress axis : x y z
#
# Youngs Moduli (GPa) = 79.63140 66.27466 38.60338
#
# Poissons Ratio (x) = 0.16810 0.08271
# Poissons Ratio (y) = 0.20198 0.29596
# Poissons Ratio (z) = 0.17061 0.50811
#
# Static dielectric constant tensor:
#      x y z
#    x 1.695190 0.000000 0.000000 
#    y 0.000000 1.681720 0.000000 
#    z 0.000000 0.000000 1.698420 
# 
# From -- ./inp_files/8261.got.cif
#   From: 2010.05.17/outbox.cif.g08.bks.cpg/sg51_5_cif.got.tgz:8261.got - 2010.06.03 11:52:47.
