data_PCOD9399030
_publ_section_title
;
Structure prediction by ZEFSAII (Michael W. Deem and Ramdas Pophale) SiO2 
 PCOD9399030
Probable space group: P M M A
;
_chemical_formula_sum "Si O2"
_cell_formula_units_Z 48
_cell_length_a 8.659817
_cell_length_b 16.842626
_cell_length_c 18.939959
_cell_angle_alpha 90.000000
_cell_angle_beta 90.000000
_cell_angle_gamma 90.000000
_cell_volume 2762.469897
_symmetry_space_group_name_H-M "P M M A"
_symmetry_group_IT_number 51
_symmetry_cell_setting 'orthorhombic'
loop_
_space_group_symop_operation_xyz
x,y,z
1/2-x,-y,z
1/2+x,-y,-z
-x,y,-z
-x,-y,-z
1/2+x,y,-z
1/2-x,y,z
x,-y,z
loop_
_atom_site_type_symbol
_atom_site_label
_atom_site_fract_x
_atom_site_fract_y
_atom_site_fract_z
Si Si1 0.934415 0.000000 0.579818
Si Si2 0.064370 0.742442 0.714139
Si Si3 0.435657 0.161364 0.852751
Si Si4 0.434910 0.683327 0.074831
Si Si5 0.564277 0.589377 0.785506
Si Si6 0.065080 0.000000 0.080384
Si Si7 0.935114 0.164700 0.421135
O O1 0.000000 0.000000 0.500000
O O2 0.000486 0.918428 0.609430
O O3 0.750000 0.000000 0.579302
O O4 0.250000 0.739598 0.716986
O O5 0.017048 0.806327 0.774720
O O6 0.019256 0.769754 0.635994
O O7 0.999716 0.656770 0.734116
O O8 0.250000 0.154601 0.854607
O O9 0.490589 0.232258 0.904119
O O10 0.507546 0.078684 0.878412
O O11 0.250000 0.691994 0.072611
O O12 0.475198 0.620874 0.136190
O O13 0.500000 0.657527 0.000000
O O14 0.750000 0.589089 0.780375
O O15 0.507908 0.500000 0.773146
O O16 0.250000 0.000000 0.076950
O O17 0.000000 0.000000 0.000000
O O18 0.750000 0.159510 0.425898
O O19 0.000000 0.177161 0.500000
#
# Coordination Sequence:
#
# PCOD9399030 Si02
#       7
#     4   8   8   8   8   4   8
#     4  10  18  29  46  71 101 134 168 200 239 283
#     4   9  20  36  55  77 102 133 168 207 252 303
#     4  10  20  36  53  71  97 132 172 211 254 299
#     4  10  19  32  50  73 101 131 164 204 250 299
#     4   9  19  35  54  76 102 131 164 204 251 302
#     4  12  24  37  52  73 100 134 176 218 257 295
#     4  10  19  33  52  77 107 138 172 209 251 297
#
# _framework density 17.375754000000001
#
# number of rings (size 3 to 8) (size 9 to 14) (size 15 to 20)
#    0.000    2.167    0.000    4.500    0.000    4.000 
#    0.000    3.333    0.000    0.500    0.000    0.000 
#    0.000    0.000    0.000    0.000    0.000    0.000 
#
# Total GULP energy -267772.315237 kJ/mol
# GULP energy per Si atom -5578.589901 kJ/mol
# Density = 1.733621 g / cm^3
# Si number density = 17.375754 Si / 1000 Ang^3
#
#
#
# Elastic Constant Matrix: (Units=GPa)
#
#
# Indices 1 2 3 4 5 6 
#
# 1 63.1009 43.3014 37.2196 0.0000 0.0000 0.0000
# 2 43.3014 160.0381 79.8512 0.0000 0.0000 0.0000
# 3 37.2196 79.8512 110.2163 0.0000 0.0000 0.0000
# 4 0.0000 0.0000 0.0000 10.0853 0.0000 0.0000
# 5 0.0000 0.0000 0.0000 0.0000 22.7384 0.0000
# 6 0.0000 0.0000 0.0000 0.0000 0.0000 27.3819
#
#
#
# Elastic Compliance Matrix: (Units=1/GPa)
#
#
# Indices 1 2 3 4 5 6 
#
# 1 0.020868 -0.003336 -0.004630 0.000000 0.000000 0.000000
# 2 -0.003336 0.010319 -0.006350 0.000000 0.000000 0.000000
# 3 -0.004630 -0.006350 0.015237 0.000000 0.000000 0.000000
# 4 0.000000 0.000000 0.000000 0.099155 0.000000 0.000000
# 5 0.000000 0.000000 0.000000 0.000000 0.043978 0.000000
# 6 0.000000 0.000000 0.000000 0.000000 0.000000 0.036520
#
#
# Mechanical properties :
#
#
# Convention : Reuss Voigt Hill
#
# Bulk Modulus (GPa) = 56.20333 72.67774 64.44053
# Shear Modulus (GPa) = 19.18352 23.57332 21.37842
#
# Velocity S-wave (km/s) = 3.32631 3.68731 3.51145
# Velocity P-wave (km/s) = 6.86794 7.74895 7.32171
#
# Compressibility (1/GPa) = 0.01779254
#
# Stress axis : x y z
#
# Youngs Moduli (GPa) = 47.92046 96.90515 65.62968
#
# Poissons Ratio (x) = 0.32328 0.30387
# Poissons Ratio (y) = 0.15986 0.41673
# Poissons Ratio (z) = 0.22187 0.61533
#
# Static dielectric constant tensor:
#      x y z
#    x 1.585710 0.000000 0.000000 
#    y 0.000000 1.587210 0.000000 
#    z 0.000000 0.000000 1.581850 
# 
# From -- ./inp_files/27674.got.cif
#   From: 2010.05.17/outbox.cif.g08.bks.cpg/sg51_14_cif.got.tgz:27674.got - 2010.06.03 11:52:47.
