data_PCOD9399805
_publ_section_title
;
Structure prediction by ZEFSAII (Michael W. Deem and Ramdas Pophale) SiO2 
 PCOD9399805
Probable space group: P M M A
;
_chemical_formula_sum "Si O2"
_cell_formula_units_Z 64
_cell_length_a 8.921501
_cell_length_b 25.085331
_cell_length_c 15.639163
_cell_angle_alpha 90.000000
_cell_angle_beta 90.000000
_cell_angle_gamma 90.000000
_cell_volume 3500.026000
_symmetry_space_group_name_H-M "P M M A"
_symmetry_group_IT_number 51
_symmetry_cell_setting 'orthorhombic'
loop_
_space_group_symop_operation_xyz
x,y,z
1/2-x,-y,z
1/2+x,-y,-z
-x,y,-z
-x,-y,-z
1/2+x,y,-z
1/2-x,y,z
x,-y,z
loop_
_atom_site_type_symbol
_atom_site_label
_atom_site_fract_x
_atom_site_fract_y
_atom_site_fract_z
Si Si1 0.072017 0.398425 0.913462
Si Si2 0.423920 0.285630 0.125314
Si Si3 0.071221 0.937327 0.409049
Si Si4 0.571407 0.143531 0.277578
Si Si5 0.076310 0.745869 0.321870
Si Si6 0.429601 0.827793 0.913799
Si Si7 0.430960 0.639977 0.410227
Si Si8 0.073404 0.561467 0.257603
O O1 0.250000 0.398469 0.919740
O O2 0.010088 0.338120 0.903330
O O3 0.016781 0.428407 0.828901
O O4 0.000000 0.421088 0.000000
O O5 0.250000 0.287227 0.097316
O O6 0.425415 0.281784 0.228391
O O7 0.503311 0.231768 0.094484
O O8 0.250000 0.931391 0.413573
O O9 0.000000 0.920943 0.500000
O O10 0.006409 0.902217 0.332447
O O11 0.036003 0.000000 0.396495
O O12 0.750000 0.138839 0.284053
O O13 0.519233 0.200664 0.314843
O O14 0.531306 0.143999 0.176373
O O15 0.250000 0.759975 0.340124
O O16 0.023352 0.700543 0.386942
O O17 0.250000 0.825507 0.920678
O O18 0.500000 0.851860 0.000000
O O19 0.500000 0.623601 0.500000
O O20 0.250000 0.639108 0.414387
O O21 0.475855 0.600809 0.333222
O O22 0.250000 0.572599 0.240050
O O23 0.060000 0.500000 0.284228
#
# Coordination Sequence:
#
# PCOD9399805 Si02
#       8
#     8   8   8   8   8   8   8   8
#     4  12  24  37  57  83 112 143 181 226 276 337
#     4  10  18  33  55  78 109 148 188 228 275 329
#     4  10  21  38  61  87 115 150 193 239 289 341
#     4  10  21  35  55  85 119 153 193 237 284 336
#     4   9  18  34  55  78 113 152 187 226 275 333
#     4  10  20  33  50  79 116 155 196 236 281 330
#     4  10  21  38  59  86 113 145 183 224 279 336
#     4  10  22  43  65  82 107 142 182 231 282 335
#
# _framework density 18.285578000000001
#
# number of rings (size 3 to 8) (size 9 to 14) (size 15 to 20)
#    0.000    1.875    1.250    3.000    0.000    5.000 
#    0.000    1.250    0.000    0.375    0.000    0.000 
#    0.000    0.000    0.000    0.000    0.000    0.000 
#
# Total GULP energy -357464.670499 kJ/mol
# GULP energy per Si atom -5585.385477 kJ/mol
# Density = 1.824396 g / cm^3
# Si number density = 18.285578 Si / 1000 Ang^3
#
#
#
# Elastic Constant Matrix: (Units=GPa)
#
#
# Indices 1 2 3 4 5 6 
#
# 1 75.9413 36.4257 51.1531 0.0000 0.0000 0.0000
# 2 36.4257 63.9533 54.9746 0.0000 0.0000 0.0000
# 3 51.1531 54.9746 128.1666 0.0000 0.0000 0.0000
# 4 0.0000 0.0000 0.0000 0.8725 0.0000 0.0000
# 5 0.0000 0.0000 0.0000 0.0000 33.8877 0.0000
# 6 0.0000 0.0000 0.0000 0.0000 0.0000 20.7542
#
#
#
# Elastic Compliance Matrix: (Units=1/GPa)
#
#
# Indices 1 2 3 4 5 6 
#
# 1 0.019869 -0.007128 -0.004873 0.000000 0.000000 0.000000
# 2 -0.007128 0.027327 -0.008876 0.000000 0.000000 0.000000
# 3 -0.004873 -0.008876 0.013554 0.000000 0.000000 0.000000
# 4 0.000000 0.000000 0.000000 1.146092 0.000000 0.000000
# 5 0.000000 0.000000 0.000000 0.000000 0.029509 0.000000
# 6 0.000000 0.000000 0.000000 0.000000 0.000000 0.048183
#
#
# Mechanical properties :
#
#
# Convention : Reuss Voigt Hill
#
# Bulk Modulus (GPa) = 52.64286 61.46312 57.05299
# Shear Modulus (GPa) = 3.75200 19.47007 11.61103
#
# Velocity S-wave (km/s) = 1.43400 3.26663 2.52262
# Velocity P-wave (km/s) = 5.62082 6.92197 6.30505
#
# Compressibility (1/GPa) = 0.01899593
#
# Stress axis : x y z
#
# Youngs Moduli (GPa) = 50.32876 36.59446 73.77746
#
# Poissons Ratio (x) = 0.26086 0.35948
# Poissons Ratio (y) = 0.35877 0.65486
# Poissons Ratio (z) = 0.24523 0.32482
#
# Static dielectric constant tensor:
#      x y z
#    x 1.611700 0.000000 0.000000 
#    y 0.000000 1.607710 0.000000 
#    z 0.000000 0.000000 1.646840 
# 
# From -- ./inp_files/22391.got.cif
#   From: 2010.05.17/outbox.cif.g08.bks.cpg/sg51_12_cif.got.tgz:22391.got - 2010.06.03 11:52:47.
