data_PCOD9399131
_publ_section_title
;
Structure prediction by ZEFSAII (Michael W. Deem and Ramdas Pophale) SiO2 
 PCOD9399131
Probable space group: P M M A
;
_chemical_formula_sum "Si O2"
_cell_formula_units_Z 64
_cell_length_a 24.686075
_cell_length_b 13.701024
_cell_length_c 9.586668
_cell_angle_alpha 90.000000
_cell_angle_beta 90.000000
_cell_angle_gamma 90.000000
_cell_volume 3242.446049
_symmetry_space_group_name_H-M "P M M A"
_symmetry_group_IT_number 51
_symmetry_cell_setting 'orthorhombic'
loop_
_space_group_symop_operation_xyz
x,y,z
1/2-x,-y,z
1/2+x,-y,-z
-x,y,-z
-x,-y,-z
1/2+x,y,-z
1/2-x,y,z
x,-y,z
loop_
_atom_site_type_symbol
_atom_site_label
_atom_site_fract_x
_atom_site_fract_y
_atom_site_fract_z
Si Si1 0.089350 0.110512 0.476844
Si Si2 0.637832 0.387241 0.373295
Si Si3 0.314846 0.756002 0.402452
Si Si4 0.960315 0.112435 0.834153
Si Si5 0.971096 0.387741 0.849815
Si Si6 0.458274 0.754643 0.710074
Si Si7 0.311376 0.392647 0.906945
Si Si8 0.871062 0.734013 0.890840
O O1 0.150126 0.152652 0.461212
O O2 0.061045 0.112299 0.326118
O O3 0.055509 0.179181 0.578672
O O4 0.089374 0.000000 0.529146
O O5 0.620327 0.500000 0.395794
O O6 0.659267 0.335104 0.512567
O O7 0.592344 0.320928 0.294803
O O8 0.685375 0.387803 0.259418
O O9 0.250000 0.761893 0.419535
O O10 0.331654 0.750045 0.239953
O O11 0.913486 0.177103 0.906831
O O12 0.018529 0.167848 0.826339
O O13 0.963192 0.000000 0.878697
O O14 0.981239 0.500000 0.823440
O O15 0.909046 0.359168 0.861349
O O16 0.993076 0.322314 0.723194
O O17 0.000000 0.364277 0.000000
O O18 0.250000 0.393683 0.956269
O O19 0.336088 0.500000 0.942754
O O20 0.339189 0.298724 0.973464
#
# Coordination Sequence:
#
# PCOD9399131 Si02
#       8
#     8   8   8   8   8   8   8   8
#     4   9  18  33  53  76 102 134 174 217 261 316
#     4  10  21  36  53  76 108 146 183 215 258 322
#     4  10  21  36  54  79 109 139 174 222 277 320
#     4   9  18  33  53  78 107 137 170 211 265 326
#     4  10  20  34  52  75 107 147 185 221 267 327
#     4  10  18  29  51  76 100 133 173 217 259 305
#     4  10  20  35  56  78 101 138 185 223 259 314
#     4  10  20  34  55  82 109 136 175 228 275 315
#
# _framework density 19.738185000000001
#
# number of rings (size 3 to 8) (size 9 to 14) (size 15 to 20)
#    0.000    2.250    0.000    3.000    0.000    6.000 
#    0.000    0.000    0.000   34.500    0.000    0.000 
#    0.000    0.000    0.000    0.000    0.000    0.000 
#
# Total GULP energy -356347.534534 kJ/mol
# GULP energy per Si atom -5567.930227 kJ/mol
# Density = 1.969326 g / cm^3
# Si number density = 19.738185 Si / 1000 Ang^3
#
#
#
# Elastic Constant Matrix: (Units=GPa)
#
#
# Indices 1 2 3 4 5 6 
#
# 1 84.6802 29.1475 13.1559 0.0000 0.0000 0.0000
# 2 29.1475 148.9215 40.9837 0.0000 0.0000 0.0000
# 3 13.1559 40.9837 39.1010 0.0000 0.0000 0.0000
# 4 0.0000 0.0000 0.0000 144.8324 0.0000 0.0000
# 5 0.0000 0.0000 0.0000 0.0000 23.6437 0.0000
# 6 0.0000 0.0000 0.0000 0.0000 0.0000 13.5185
#
#
#
# Elastic Compliance Matrix: (Units=1/GPa)
#
#
# Indices 1 2 3 4 5 6 
#
# 1 0.012816 -0.001858 -0.002365 0.000000 0.000000 0.000000
# 2 -0.001858 0.009706 -0.009549 0.000000 0.000000 0.000000
# 3 -0.002365 -0.009549 0.036379 0.000000 0.000000 0.000000
# 4 0.000000 0.000000 0.000000 0.006905 0.000000 0.000000
# 5 0.000000 0.000000 0.000000 0.000000 0.042295 0.000000
# 6 0.000000 0.000000 0.000000 0.000000 0.000000 0.073972
#
#
# Mechanical properties :
#
#
# Convention : Reuss Voigt Hill
#
# Bulk Modulus (GPa) = 31.88914 48.80854 40.34884
# Shear Modulus (GPa) = 22.72023 49.02665 35.87344
#
# Velocity S-wave (km/s) = 3.39644 4.98923 4.26780
# Velocity P-wave (km/s) = 5.61891 7.61390 6.69118
#
# Compressibility (1/GPa) = 0.03135864
#
# Stress axis : x y z
#
# Youngs Moduli (GPa) = 78.02776 103.02552 27.48842
#
# Poissons Ratio (x) = 0.19137 0.06501
# Poissons Ratio (y) = 0.14494 0.26248
# Poissons Ratio (z) = 0.18454 0.98376
#
# Static dielectric constant tensor:
#      x y z
#    x 1.339590 0.000000 0.000000 
#    y 0.000000 1.716510 0.000000 
#    z 0.000000 0.000000 1.748850 
# 
# From -- ./inp_files/11878.got.cif
#   From: 2010.05.17/outbox.cif.g08.bks.cpg/sg51_6_cif.got.tgz:11878.got - 2010.06.03 11:52:47.
