data_PCOD9399475
_publ_section_title
;
Structure prediction by ZEFSAII (Michael W. Deem and Ramdas Pophale) SiO2 
 PCOD9399475
Probable space group: P M M A
;
_chemical_formula_sum "Si O2"
_cell_formula_units_Z 56
_cell_length_a 7.637739
_cell_length_b 14.926987
_cell_length_c 22.093600
_cell_angle_alpha 90.000000
_cell_angle_beta 90.000000
_cell_angle_gamma 90.000000
_cell_volume 2518.856666
_symmetry_space_group_name_H-M "P M M A"
_symmetry_group_IT_number 51
_symmetry_cell_setting 'orthorhombic'
loop_
_space_group_symop_operation_xyz
x,y,z
1/2-x,-y,z
1/2+x,-y,-z
-x,y,-z
-x,-y,-z
1/2+x,y,-z
1/2-x,y,z
x,-y,z
loop_
_atom_site_type_symbol
_atom_site_label
_atom_site_fract_x
_atom_site_fract_y
_atom_site_fract_z
Si Si1 0.540010 0.101690 0.071595
Si Si2 0.948202 0.278321 0.754216
Si Si3 0.535390 0.318773 0.621927
Si Si4 0.959390 0.500000 0.569215
Si Si5 0.540315 0.500000 0.070829
Si Si6 0.042380 0.864106 0.431809
Si Si7 0.454647 0.904079 0.705232
Si Si8 0.449413 0.301279 0.887449
O O1 0.750000 0.102054 0.082265
O O2 0.475461 0.201101 0.095096
O O3 0.479700 0.000000 0.092845
O O4 0.500000 0.102826 0.000000
O O5 0.750000 0.312521 0.761161
O O6 0.026050 0.310653 0.690640
O O7 0.944758 0.172997 0.739587
O O8 0.048100 0.300395 0.814769
O O9 0.750000 0.315203 0.624190
O O10 0.469492 0.410886 0.597414
O O11 0.484653 0.238899 0.577045
O O12 0.750000 0.500000 0.578746
O O13 0.000000 0.500000 0.500000
O O14 0.750000 0.500000 0.083178
O O15 0.475984 0.400329 0.093832
O O16 0.500000 0.500000 0.000000
O O17 0.250000 0.872659 0.426523
O O18 0.000000 0.895405 0.500000
O O19 0.971722 0.902583 0.368215
O O20 0.250000 0.892723 0.719006
O O21 0.515936 0.000000 0.726395
O O22 0.250000 0.300621 0.911563
#
# Coordination Sequence:
#
# PCOD9399475 Si02
#       8
#     8   8   8   4   4   8   8   8
#     4   9  18  33  54  80 111 146 183 226 276 328
#     4  10  21  37  56  79 106 140 182 224 269 323
#     4   8  17  32  49  70  98 131 166 210 261 311
#     4  10  18  31  50  72  98 125 159 204 255 312
#     4  10  22  39  60  86 118 155 193 238 287 334
#     4  10  19  32  50  73 102 136 177 223 273 331
#     4  10  21  37  56  77 103 138 178 223 280 339
#     4  10  21  37  56  82 116 151 189 232 280 336
#
# _framework density 22.232309000000001
#
# number of rings (size 3 to 8) (size 9 to 14) (size 15 to 20)
#    0.000    2.429    0.000    3.000    0.000    3.714 
#    0.000    5.714    0.000    0.000    0.000    0.000 
#    0.000    0.000    0.000    0.000    0.000    0.000 
#
# Total GULP energy -311777.755959 kJ/mol
# GULP energy per Si atom -5567.459928 kJ/mol
# Density = 2.218171 g / cm^3
# Si number density = 22.232309 Si / 1000 Ang^3
#
#
#
# Elastic Constant Matrix: (Units=GPa)
#
#
# Indices 1 2 3 4 5 6 
#
# 1 44.6512 3.7399 -9.1276 0.0000 0.0000 0.0000
# 2 3.7399 197.3007 58.4836 0.0000 0.0000 0.0000
# 3 -9.1276 58.4836 98.1677 0.0000 0.0000 0.0000
# 4 0.0000 0.0000 0.0000 328.6485 0.0000 0.0000
# 5 0.0000 0.0000 0.0000 0.0000 20.5701 0.0000
# 6 0.0000 0.0000 0.0000 0.0000 0.0000 -30.6373
#
#
#
# Elastic Compliance Matrix: (Units=1/GPa)
#
#
# Indices 1 2 3 4 5 6 
#
# 1 0.023103 -0.001305 0.002926 0.000000 0.000000 0.000000
# 2 -0.001305 0.006229 -0.003832 0.000000 0.000000 0.000000
# 3 0.002926 -0.003832 0.012742 0.000000 0.000000 0.000000
# 4 0.000000 0.000000 0.000000 0.003043 0.000000 0.000000
# 5 0.000000 0.000000 0.000000 0.000000 0.048614 0.000000
# 6 0.000000 0.000000 0.000000 0.000000 0.000000 -0.032640
#
#
# Mechanical properties :
#
#
# Convention : Reuss Voigt Hill
#
# Bulk Modulus (GPa) = 26.56013 49.59015 38.07514
# Shear Modulus (GPa) = 64.04916 82.85118 73.45017
#
# Velocity S-wave (km/s) = 5.37323 6.11122 5.75407
# Velocity P-wave (km/s) = 7.10408 8.49411 7.83000
#
# Compressibility (1/GPa) = 0.03765042
#
# Stress axis : x y z
#
# Youngs Moduli (GPa) = 43.28411 160.53600 78.48170
#
# Poissons Ratio (x) = 0.20952 -0.22961
# Poissons Ratio (y) = 0.05649 0.30077
# Poissons Ratio (z) = -0.12663 0.61523
#
# Static dielectric constant tensor:
#      x y z
#    x 1.856130 0.000000 0.000000 
#    y 0.000000 1.874020 0.000000 
#    z 0.000000 0.000000 1.765200 
# 
# From -- ./inp_files/32065.got.cif
#   From: 2010.05.17/outbox.cif.g08.bks.cpg/sg51_17_cif.got.tgz:32065.got - 2010.06.03 11:52:47.
