data_PCOD9399607
_publ_section_title
;
Structure prediction by ZEFSAII (Michael W. Deem and Ramdas Pophale) SiO2 
 PCOD9399607
Probable space group: P M M A
;
_chemical_formula_sum "Si O2"
_cell_formula_units_Z 64
_cell_length_a 8.198347
_cell_length_b 23.721319
_cell_length_c 19.139890
_cell_angle_alpha 90.000000
_cell_angle_beta 90.000000
_cell_angle_gamma 90.000000
_cell_volume 3722.241677
_symmetry_space_group_name_H-M "P M M A"
_symmetry_group_IT_number 51
_symmetry_cell_setting 'orthorhombic'
loop_
_space_group_symop_operation_xyz
x,y,z
1/2-x,-y,z
1/2+x,-y,-z
-x,y,-z
-x,-y,-z
1/2+x,y,-z
1/2-x,y,z
x,-y,z
loop_
_atom_site_type_symbol
_atom_site_label
_atom_site_fract_x
_atom_site_fract_y
_atom_site_fract_z
Si Si1 0.442383 0.172513 0.159697
Si Si2 0.947388 0.813136 0.575989
Si Si3 0.936842 0.651302 0.811176
Si Si4 0.056172 0.435880 0.923715
Si Si5 0.937052 0.266173 0.076699
Si Si6 0.448120 0.745268 0.288211
Si Si7 0.056602 0.062453 0.385751
Si Si8 0.057724 0.063547 0.772604
O O1 0.250000 0.179162 0.147334
O O2 0.542231 0.201297 0.097917
O O3 0.486868 0.207335 0.230179
O O4 0.485865 0.108776 0.175202
O O5 0.750000 0.815317 0.580677
O O6 0.003794 0.771293 0.638058
O O7 0.008784 0.878189 0.584452
O O8 0.000000 0.792756 0.500000
O O9 0.750000 0.636825 0.796190
O O10 0.006619 0.684583 0.742826
O O11 0.012126 0.599377 0.854354
O O12 0.950404 0.700133 0.869518
O O13 0.250000 0.437864 0.927337
O O14 0.990488 0.500000 0.918650
O O15 0.000000 0.412745 0.000000
O O16 0.750000 0.284569 0.085254
O O17 0.000000 0.276074 0.000000
O O18 0.250000 0.741011 0.290689
O O19 0.250000 0.061134 0.400388
O O20 0.029468 0.067403 0.302579
O O21 0.989358 0.000000 0.406901
O O22 0.250000 0.073937 0.761293
O O23 0.037074 0.000000 0.798197
#
# Coordination Sequence:
#
# PCOD9399607 Si02
#       8
#     8   8   8   8   8   8   8   8
#     4  10  18  32  51  68  87 117 152 190 236 285
#     4  10  19  32  46  65  92 124 157 196 243 296
#     4  10  19  32  51  72  96 131 169 205 240 277
#     4  10  20  33  49  72 105 142 175 206 239 278
#     4  11  21  33  48  70  97 124 155 194 236 281
#     4   8  16  31  48  66  90 119 155 196 238 282
#     4   9  17  30  47  63  84 119 157 192 235 291
#     4  10  19  29  44  68  92 112 143 189 235 282
#
# _framework density 17.193940000000001
#
# number of rings (size 3 to 8) (size 9 to 14) (size 15 to 20)
#    0.000    2.250    1.250    3.750    0.000    2.250 
#    0.000    1.250    0.000    0.375    0.000    0.000 
#    0.000    0.500    0.000    1.125    0.000    2.000 
#
# Total GULP energy -356483.345067 kJ/mol
# GULP energy per Si atom -5570.052267 kJ/mol
# Density = 1.715481 g / cm^3
# Si number density = 17.193940 Si / 1000 Ang^3
#
#
#
# Elastic Constant Matrix: (Units=GPa)
#
#
# Indices 1 2 3 4 5 6 
#
# 1 23.1276 11.0237 1.0822 0.0000 0.0000 0.0000
# 2 11.0237 78.7822 45.9131 0.0000 0.0000 0.0000
# 3 1.0822 45.9131 71.1620 0.0000 0.0000 0.0000
# 4 0.0000 0.0000 0.0000 -12.4380 0.0000 0.0000
# 5 0.0000 0.0000 0.0000 0.0000 18.2743 0.0000
# 6 0.0000 0.0000 0.0000 0.0000 0.0000 19.8380
#
#
#
# Elastic Compliance Matrix: (Units=1/GPa)
#
#
# Indices 1 2 3 4 5 6 
#
# 1 0.047750 -0.010029 0.005745 0.000000 0.000000 0.000000
# 2 -0.010029 0.022449 -0.014331 0.000000 0.000000 0.000000
# 3 0.005745 -0.014331 0.023211 0.000000 0.000000 0.000000
# 4 0.000000 0.000000 0.000000 -0.080399 0.000000 0.000000
# 5 0.000000 0.000000 0.000000 0.000000 0.054722 0.000000
# 6 0.000000 0.000000 0.000000 0.000000 0.000000 0.050408
#
#
# Mechanical properties :
#
#
# Convention : Reuss Voigt Hill
#
# Bulk Modulus (GPa) = 17.80047 32.12332 24.96189
# Shear Modulus (GPa) = 28.71934 12.80504 20.76219
#
# Velocity S-wave (km/s) = 4.09139 2.73196 3.47872
# Velocity P-wave (km/s) = 5.71791 5.35490 5.53938
#
# Compressibility (1/GPa) = 0.05617830
#
# Stress axis : x y z
#
# Youngs Moduli (GPa) = 20.94244 44.54636 43.08237
#
# Poissons Ratio (x) = 0.44677 -0.24749
# Poissons Ratio (y) = 0.21004 0.61742
# Poissons Ratio (z) = -0.12031 0.63840
#
# Static dielectric constant tensor:
#      x y z
#    x 1.607270 0.000000 0.000000 
#    y 0.000000 1.637970 0.000000 
#    z 0.000000 0.000000 1.583300 
# 
# From -- ./inp_files/32695.got.cif
#   From: 2010.05.17/outbox.cif.g08.bks.cpg/sg51_17_cif.got.tgz:32695.got - 2010.06.03 11:52:47.
