data_PCOD9399542
_publ_section_title
;
Structure prediction by ZEFSAII (Michael W. Deem and Ramdas Pophale) SiO2 
 PCOD9399542
Probable space group: P M M A
;
_chemical_formula_sum "Si O2"
_cell_formula_units_Z 56
_cell_length_a 27.427043
_cell_length_b 15.034531
_cell_length_c 5.418817
_cell_angle_alpha 90.000000
_cell_angle_beta 90.000000
_cell_angle_gamma 90.000000
_cell_volume 2234.463974
_symmetry_space_group_name_H-M "P M M A"
_symmetry_group_IT_number 51
_symmetry_cell_setting 'orthorhombic'
loop_
_space_group_symop_operation_xyz
x,y,z
1/2-x,-y,z
1/2+x,-y,-z
-x,y,-z
-x,-y,-z
1/2+x,y,-z
1/2-x,y,z
x,-y,z
loop_
_atom_site_type_symbol
_atom_site_label
_atom_site_fract_x
_atom_site_fract_y
_atom_site_fract_z
Si Si1 0.546536 0.397483 0.180335
Si Si2 0.444123 0.102558 0.143868
Si Si3 0.438842 0.201692 0.641034
Si Si4 0.842863 0.598449 0.104531
Si Si5 0.329978 0.859916 0.179363
Si Si6 0.307174 0.673634 0.378919
Si Si7 0.661358 0.901821 0.322102
O O1 0.544439 0.500000 0.287670
O O2 0.549706 0.307038 0.343218
O O3 0.599339 0.391680 0.048475
O O4 0.500000 0.389778 0.000000
O O5 0.455760 0.162561 0.380644
O O6 0.384754 0.102709 0.151580
O O7 0.459660 0.000000 0.170936
O O8 0.457046 0.148208 0.883280
O O9 0.381405 0.172155 0.656311
O O10 0.834959 0.500000 0.206095
O O11 0.827555 0.656055 0.345591
O O12 0.815516 0.603788 0.842574
O O13 0.331472 0.756301 0.235294
O O14 0.308746 0.899161 0.427222
O O15 0.307574 0.881825 0.918241
O O16 0.250000 0.690520 0.408165
O O17 0.638299 0.000000 0.306666
#
# Coordination Sequence:
#
# PCOD9399542 Si02
#       7
#     8   8   8   8   8   8   8
#     4  10  23  45  72 103 139 181 232 288 342 405
#     4  10  18  32  60  92 125 169 217 271 337 399
#     4  10  18  33  57  88 125 166 214 263 328 400
#     4  11  24  44  69  97 131 174 226 283 346 411
#     4  10  18  31  52  81 118 160 208 254 314 388
#     4  12  25  42  66  98 136 177 225 281 339 405
#     4  10  18  31  57  88 122 168 216 268 333 395
#
# _framework density 25.061941999999998
#
# number of rings (size 3 to 8) (size 9 to 14) (size 15 to 20)
#    0.000    1.571    0.000    9.429    0.000    1.714 
#    0.000    5.000    0.000   18.000    0.000    0.000 
#    0.000    0.000    0.000    0.000    0.000    0.000 
#
# Total GULP energy -312564.162995 kJ/mol
# GULP energy per Si atom -5581.502911 kJ/mol
# Density = 2.500490 g / cm^3
# Si number density = 25.061942 Si / 1000 Ang^3
#
#
#
# Elastic Constant Matrix: (Units=GPa)
#
#
# Indices 1 2 3 4 5 6 
#
# 1 88.5434 28.6968 38.3741 0.0000 0.0000 0.0000
# 2 28.6968 204.2874 49.3967 0.0000 0.0000 0.0000
# 3 38.3741 49.3967 214.7056 0.0000 0.0000 0.0000
# 4 0.0000 0.0000 0.0000 18.5413 0.0000 0.0000
# 5 0.0000 0.0000 0.0000 0.0000 6.7170 0.0000
# 6 0.0000 0.0000 0.0000 0.0000 0.0000 -35.6272
#
#
#
# Elastic Compliance Matrix: (Units=1/GPa)
#
#
# Indices 1 2 3 4 5 6 
#
# 1 0.012557 -0.001293 -0.001947 0.000000 0.000000 0.000000
# 2 -0.001293 0.005317 -0.000992 0.000000 0.000000 0.000000
# 3 -0.001947 -0.000992 0.005234 0.000000 0.000000 0.000000
# 4 0.000000 0.000000 0.000000 0.053934 0.000000 0.000000
# 5 0.000000 0.000000 0.000000 0.000000 0.148877 0.000000
# 6 0.000000 0.000000 0.000000 0.000000 0.000000 -0.028068
#
#
# Mechanical properties :
#
#
# Convention : Reuss Voigt Hill
#
# Bulk Modulus (GPa) = 68.29136 82.27462 75.28299
# Shear Modulus (GPa) = 23.67493 23.99748 23.83620
#
# Velocity S-wave (km/s) = 3.07686 3.09775 3.08732
# Velocity P-wave (km/s) = 6.31909 6.75977 6.54314
#
# Compressibility (1/GPa) = 0.01464314
#
# Stress axis : x y z
#
# Youngs Moduli (GPa) = 79.63877 188.09030 191.06886
#
# Poissons Ratio (x) = 0.24323 0.37196
# Poissons Ratio (y) = 0.10299 0.18955
# Poissons Ratio (z) = 0.15504 0.18660
#
# Static dielectric constant tensor:
#      x y z
#    x 2.107390 0.000000 0.000000 
#    y 0.000000 2.072610 0.000000 
#    z 0.000000 0.000000 2.046200 
# 
# From -- ./inp_files/4017.got.cif
#   From: 2010.05.17/outbox.cif.g08.bks.cpg/sg51_3_cif.got.tgz:4017.got - 2010.06.03 11:52:47.
