data_PCOD9399158
_publ_section_title
;
Structure prediction by ZEFSAII (Michael W. Deem and Ramdas Pophale) SiO2 
 PCOD9399158
Probable space group: P M M A
;
_chemical_formula_sum "Si O2"
_cell_formula_units_Z 52
_cell_length_a 8.649236
_cell_length_b 18.994749
_cell_length_c 19.220888
_cell_angle_alpha 90.000000
_cell_angle_beta 90.000000
_cell_angle_gamma 90.000000
_cell_volume 3157.800975
_symmetry_space_group_name_H-M "P M M A"
_symmetry_group_IT_number 51
_symmetry_cell_setting 'orthorhombic'
loop_
_space_group_symop_operation_xyz
x,y,z
1/2-x,-y,z
1/2+x,-y,-z
-x,y,-z
-x,-y,-z
1/2+x,y,-z
1/2-x,y,z
x,-y,z
loop_
_atom_site_type_symbol
_atom_site_label
_atom_site_fract_x
_atom_site_fract_y
_atom_site_fract_z
Si Si1 0.565138 0.659102 0.577351
Si Si2 0.564825 0.500000 0.078642
Si Si3 0.563548 0.421785 0.297479
Si Si4 0.934243 0.351481 0.922078
Si Si5 0.565009 0.082241 0.424061
Si Si6 0.435459 0.713492 0.792604
Si Si7 0.934903 0.203797 0.668595
O O1 0.500000 0.657083 0.500000
O O2 0.750000 0.654191 0.576044
O O3 0.496867 0.597990 0.626108
O O4 0.522431 0.732675 0.615396
O O5 0.750000 0.500000 0.080722
O O6 0.502822 0.574117 0.106279
O O7 0.500000 0.500000 0.000000
O O8 0.750000 0.421134 0.297717
O O9 0.512577 0.500000 0.276155
O O10 0.513228 0.357843 0.248045
O O11 0.750000 0.356520 0.925510
O O12 0.989482 0.292059 0.868457
O O13 0.000000 0.341143 0.000000
O O14 0.500000 0.102821 0.500000
O O15 0.750000 0.088953 0.425043
O O16 0.495291 0.132333 0.365432
O O17 0.525190 0.000000 0.413094
O O18 0.250000 0.713612 0.798312
O O19 0.491173 0.776153 0.742691
O O20 0.750000 0.202742 0.674942
#
# Coordination Sequence:
#
# PCOD9399158 Si02
#       7
#     8   4   8   8   8   8   8
#     4  10  20  32  47  66  87 116 154 197 241 287
#     4  10  18  30  46  66  92 122 157 198 249 302
#     4   9  19  34  49  65  85 114 152 196 245 294
#     4  11  21  34  50  72  98 127 163 205 252 303
#     4  10  20  33  51  77 107 138 171 206 246 293
#     4  10  20  34  52  72  96 128 162 202 249 299
#     4  10  20  34  51  72  99 130 165 202 242 293
#
# _framework density 16.467157
#
# number of rings (size 3 to 8) (size 9 to 14) (size 15 to 20)
#    0.000    2.000    0.000    5.308    1.077    5.231 
#    0.000    0.000    0.000    0.000    0.000    0.000 
#    0.000    0.615    0.000    2.308    0.000    3.538 
#
# Total GULP energy -290270.769895 kJ/mol
# GULP energy per Si atom -5582.130190 kJ/mol
# Density = 1.642968 g / cm^3
# Si number density = 16.467157 Si / 1000 Ang^3
#
#
#
# Elastic Constant Matrix: (Units=GPa)
#
#
# Indices 1 2 3 4 5 6 
#
# 1 69.9628 28.2619 34.7183 0.0000 0.0000 0.0000
# 2 28.2619 64.0950 38.9636 0.0000 0.0000 0.0000
# 3 34.7183 38.9636 108.1462 0.0000 0.0000 0.0000
# 4 0.0000 0.0000 0.0000 25.9298 0.0000 0.0000
# 5 0.0000 0.0000 0.0000 0.0000 24.4717 0.0000
# 6 0.0000 0.0000 0.0000 0.0000 0.0000 21.4265
#
#
#
# Elastic Compliance Matrix: (Units=1/GPa)
#
#
# Indices 1 2 3 4 5 6 
#
# 1 0.018567 -0.005843 -0.003855 0.000000 0.000000 0.000000
# 2 -0.005843 0.021816 -0.005984 0.000000 0.000000 0.000000
# 3 -0.003855 -0.005984 0.012640 0.000000 0.000000 0.000000
# 4 0.000000 0.000000 0.000000 0.038566 0.000000 0.000000
# 5 0.000000 0.000000 0.000000 0.000000 0.040863 0.000000
# 6 0.000000 0.000000 0.000000 0.000000 0.000000 0.046671
#
#
# Mechanical properties :
#
#
# Convention : Reuss Voigt Hill
#
# Bulk Modulus (GPa) = 46.17223 49.56574 47.86898
# Shear Modulus (GPa) = 22.96649 23.71629 23.34139
#
# Velocity S-wave (km/s) = 3.73860 3.79914 3.76899
# Velocity P-wave (km/s) = 6.83637 7.02920 6.93346
#
# Compressibility (1/GPa) = 0.02165804
#
# Stress axis : x y z
#
# Youngs Moduli (GPa) = 53.85944 45.83760 79.11098
#
# Poissons Ratio (x) = 0.26784 0.30500
# Poissons Ratio (y) = 0.31471 0.47342
# Poissons Ratio (z) = 0.20765 0.27430
#
# Static dielectric constant tensor:
#      x y z
#    x 1.529300 0.000000 0.000000 
#    y 0.000000 1.559670 0.000000 
#    z 0.000000 0.000000 1.552600 
# 
# From -- ./inp_files/27912.got.cif
#   From: 2010.05.17/outbox.cif.g08.bks.cpg/sg51_14_cif.got.tgz:27912.got - 2010.06.03 11:52:47.
