data_PCOD9399383
_publ_section_title
;
Structure prediction by ZEFSAII (Michael W. Deem and Ramdas Pophale) SiO2 
 PCOD9399383
Probable space group: P M M A
;
_chemical_formula_sum "Si O2"
_cell_formula_units_Z 48
_cell_length_a 17.005477
_cell_length_b 17.010286
_cell_length_c 9.470208
_cell_angle_alpha 90.000000
_cell_angle_beta 90.000000
_cell_angle_gamma 90.000000
_cell_volume 2739.428387
_symmetry_space_group_name_H-M "P M M A"
_symmetry_group_IT_number 51
_symmetry_cell_setting 'orthorhombic'
loop_
_space_group_symop_operation_xyz
x,y,z
1/2-x,-y,z
1/2+x,-y,-z
-x,y,-z
-x,-y,-z
1/2+x,y,-z
1/2-x,y,z
x,-y,z
loop_
_atom_site_type_symbol
_atom_site_label
_atom_site_fract_x
_atom_site_fract_y
_atom_site_fract_z
Si Si1 0.344413 0.187434 0.718730
Si Si2 0.844100 0.411073 0.193124
Si Si3 0.090152 0.332990 0.542538
Si Si4 0.654888 0.913140 0.539110
Si Si5 0.593225 0.736985 0.017101
Si Si6 0.343146 0.758909 0.295224
O O1 0.250000 0.203829 0.711923
O O2 0.392431 0.255125 0.636266
O O3 0.358871 0.110436 0.624634
O O4 0.373391 0.195277 0.878518
O O5 0.750000 0.399206 0.196236
O O6 0.860556 0.500000 0.145780
O O7 0.877001 0.398871 0.352091
O O8 0.880967 0.345026 0.091128
O O9 0.134156 0.313147 0.397352
O O10 0.000000 0.343796 0.500000
O O11 0.750000 0.914956 0.555407
O O12 0.625493 0.840797 0.635859
O O13 0.624260 0.000000 0.572636
O O14 0.628010 0.745552 0.861903
O O15 0.500000 0.740545 0.000000
O O16 0.250000 0.765199 0.295530
#
# Coordination Sequence:
#
# PCOD9399383 Si02
#       6
#     8   8   8   8   8   8
#     4   9  17  32  53  73  99 137 176 205 238 299
#     4  10  21  38  56  72  97 134 170 203 246 304
#     4  10  18  31  51  75 101 128 163 203 246 295
#     4   8  15  29  51  78 102 127 166 213 252 288
#     4  11  21  34  52  74 102 133 168 209 251 299
#     4  10  18  30  52  77 101 129 165 210 252 293
#
# _framework density 17.521903999999999
#
# number of rings (size 3 to 8) (size 9 to 14) (size 15 to 20)
#    0.000    2.333    0.000    7.000    0.000    0.667 
#    0.000    1.667    0.000   26.000    0.000    0.000 
#    0.000    0.000    0.000    0.000    0.000    0.000 
#
# Total GULP energy -267312.577277 kJ/mol
# GULP energy per Si atom -5569.012027 kJ/mol
# Density = 1.748202 g / cm^3
# Si number density = 17.521904 Si / 1000 Ang^3
#
#
#
# Elastic Constant Matrix: (Units=GPa)
#
#
# Indices 1 2 3 4 5 6 
#
# 1 82.9923 3.3020 28.6019 0.0000 0.0000 0.0000
# 2 3.3020 113.9575 43.9661 0.0000 0.0000 0.0000
# 3 28.6019 43.9661 147.6551 0.0000 0.0000 0.0000
# 4 0.0000 0.0000 0.0000 14.3394 0.0000 0.0000
# 5 0.0000 0.0000 0.0000 0.0000 36.3357 0.0000
# 6 0.0000 0.0000 0.0000 0.0000 0.0000 2.8038
#
#
#
# Elastic Compliance Matrix: (Units=1/GPa)
#
#
# Indices 1 2 3 4 5 6 
#
# 1 0.012956 0.000670 -0.002709 0.000000 0.000000 0.000000
# 2 0.000670 0.009949 -0.003092 0.000000 0.000000 0.000000
# 3 -0.002709 -0.003092 0.008218 0.000000 0.000000 0.000000
# 4 0.000000 0.000000 0.000000 0.069738 0.000000 0.000000
# 5 0.000000 0.000000 0.000000 0.000000 0.027521 0.000000
# 6 0.000000 0.000000 0.000000 0.000000 0.000000 0.356659
#
#
# Mechanical properties :
#
#
# Convention : Reuss Voigt Hill
#
# Bulk Modulus (GPa) = 47.93822 55.14942 51.54382
# Shear Modulus (GPa) = 9.95506 28.61144 19.28325
#
# Velocity S-wave (km/s) = 2.38617 4.04529 3.32101
# Velocity P-wave (km/s) = 5.91694 7.30494 6.64727
#
# Compressibility (1/GPa) = 0.02086018
#
# Stress axis : x y z
#
# Youngs Moduli (GPa) = 77.18231 100.51496 121.68344
#
# Poissons Ratio (x) = -0.06733 0.32966
# Poissons Ratio (y) = -0.05170 0.37626
# Poissons Ratio (z) = 0.20910 0.31080
#
# Static dielectric constant tensor:
#      x y z
#    x 1.583410 0.000000 0.000000 
#    y 0.000000 1.635670 0.000000 
#    z 0.000000 0.000000 1.605020 
# 
# From -- ./inp_files/8235.got.cif
#   From: 2010.05.17/outbox.cif.g08.bks.cpg/sg51_5_cif.got.tgz:8235.got - 2010.06.03 11:52:47.
