data_PCOD9399866
_publ_section_title
;
Structure prediction by ZEFSAII (Michael W. Deem and Ramdas Pophale) SiO2 
 PCOD9399866
Probable space group: P M M A
;
_chemical_formula_sum "Si O2"
_cell_formula_units_Z 30
_cell_length_a 32.203309
_cell_length_b 5.158744
_cell_length_c 10.052652
_cell_angle_alpha 90.000000
_cell_angle_beta 90.000000
_cell_angle_gamma 90.000000
_cell_volume 1670.033275
_symmetry_space_group_name_H-M "P M M A"
_symmetry_group_IT_number 51
_symmetry_cell_setting 'orthorhombic'
loop_
_space_group_symop_operation_xyz
x,y,z
1/2-x,-y,z
1/2+x,-y,-z
-x,y,-z
-x,-y,-z
1/2+x,y,-z
1/2-x,y,z
x,-y,z
loop_
_atom_site_type_symbol
_atom_site_label
_atom_site_fract_x
_atom_site_fract_y
_atom_site_fract_z
Si Si1 0.811232 0.500000 0.863191
Si Si2 0.460554 0.000000 0.679765
Si Si3 0.553951 0.000000 0.729743
Si Si4 0.126360 0.500000 0.916061
Si Si5 0.890475 0.500000 0.668969
Si Si6 0.406008 0.500000 0.623223
Si Si7 0.750000 0.000000 0.839902
Si Si8 0.572201 0.000000 0.026079
O O1 0.850625 0.500000 0.763584
O O2 0.785689 0.765224 0.841677
O O3 0.829098 0.500000 0.014397
O O4 0.436159 0.748781 0.628195
O O5 0.509675 0.000000 0.656763
O O6 0.454372 0.000000 0.839779
O O7 0.581037 0.250601 0.695877
O O8 0.547650 0.000000 0.888997
O O9 0.122356 0.500000 0.755921
O O10 0.101498 0.749794 0.966827
O O11 0.880073 0.500000 0.512163
#
# Coordination Sequence:
#
# PCOD9399866 Si02
#       8
#     4   4   4   4   4   4   2   4
#     4  11  20  41  61  91 109 145 170 235 268 362
#     4  10  22  35  53  74 123 152 208 243 287 308
#     4  12  21  34  54  84 110 162 197 253 275 323
#     4  10  19  36  63  77 115 142 191 224 280 331
#     4  12  24  36  61  81 119 149 202 226 284 333
#     4  10  23  39  52  85 110 165 191 236 276 329
#     4  10  24  36  66  92 118 126 174 222 304 324
#     4  10  18  34  52  84 106 154 190 248 281 320
#
# _framework density 17.963712000000001
#
# number of rings (size 3 to 8) (size 9 to 14) (size 15 to 20)
#    0.000    1.333    2.667    3.600    0.000    3.200 
#    0.000    5.333    0.000    4.800    0.000    0.000 
#    0.000    0.000    0.000    0.000    0.000    0.000 
#
# Total GULP energy -167004.043619 kJ/mol
# GULP energy per Si atom -5566.801454 kJ/mol
# Density = 1.792283 g / cm^3
# Si number density = 17.963712 Si / 1000 Ang^3
#
#
#
# Elastic Constant Matrix: (Units=GPa)
#
#
# Indices 1 2 3 4 5 6 
#
# 1 112.3827 57.1812 49.2923 0.0000 0.0000 0.0000
# 2 57.1812 189.7099 29.5458 0.0000 0.0000 0.0000
# 3 49.2923 29.5458 86.5817 0.0000 0.0000 0.0000
# 4 0.0000 0.0000 0.0000 -49.6238 0.0000 0.0000
# 5 0.0000 0.0000 0.0000 0.0000 -3.8303 0.0000
# 6 0.0000 0.0000 0.0000 0.0000 0.0000 16.7830
#
#
#
# Elastic Compliance Matrix: (Units=1/GPa)
#
#
# Indices 1 2 3 4 5 6 
#
# 1 0.013289 -0.002986 -0.006547 0.000000 0.000000 0.000000
# 2 -0.002986 0.006238 -0.000429 0.000000 0.000000 0.000000
# 3 -0.006547 -0.000429 0.015423 0.000000 0.000000 0.000000
# 4 0.000000 0.000000 0.000000 -0.020152 0.000000 0.000000
# 5 0.000000 0.000000 0.000000 0.000000 -0.261073 0.000000
# 6 0.000000 0.000000 0.000000 0.000000 0.000000 0.059584
#
#
# Mechanical properties :
#
#
# Convention : Reuss Voigt Hill
#
# Bulk Modulus (GPa) = 66.54486 73.41254 69.97870
# Shear Modulus (GPa) = -30.91025 9.50943 -10.70041
#
# Velocity S-wave (km/s) = -4.15264 2.30330 -2.44328
# Velocity P-wave (km/s) = 3.75925 6.93033 5.57500
#
# Compressibility (1/GPa) = 0.01502746
#
# Stress axis : x y z
#
# Youngs Moduli (GPa) = 75.25135 160.30869 64.83739
#
# Poissons Ratio (x) = 0.47866 0.42446
# Poissons Ratio (y) = 0.22469 0.02780
# Poissons Ratio (z) = 0.49264 0.06874
#
# Static dielectric constant tensor:
#      x y z
#    x 1.583610 0.000000 0.000000 
#    y 0.000000 1.607820 0.000000 
#    z 0.000000 0.000000 1.655720 
# 
# From -- ./inp_files/12533.got.cif
#   From: 2010.05.17/outbox.cif.g08.bks.cpg/sg51_7_cif.got.tgz:12533.got - 2010.06.03 11:52:47.
