data_PCOD9399551
_publ_section_title
;
Structure prediction by ZEFSAII (Michael W. Deem and Ramdas Pophale) SiO2 
 PCOD9399551
Probable space group: P M M A
;
_chemical_formula_sum "Si O2"
_cell_formula_units_Z 64
_cell_length_a 19.516291
_cell_length_b 7.445075
_cell_length_c 20.394990
_cell_angle_alpha 90.000000
_cell_angle_beta 90.000000
_cell_angle_gamma 90.000000
_cell_volume 2963.397150
_symmetry_space_group_name_H-M "P M M A"
_symmetry_group_IT_number 51
_symmetry_cell_setting 'orthorhombic'
loop_
_space_group_symop_operation_xyz
x,y,z
1/2-x,-y,z
1/2+x,-y,-z
-x,y,-z
-x,-y,-z
1/2+x,y,-z
1/2-x,y,z
x,-y,z
loop_
_atom_site_type_symbol
_atom_site_label
_atom_site_fract_x
_atom_site_fract_y
_atom_site_fract_z
Si Si1 0.923953 0.206922 0.505802
Si Si2 0.409862 0.708823 0.346839
Si Si3 0.671217 0.717642 0.779997
Si Si4 0.558311 0.217060 0.288049
Si Si5 0.671991 0.219718 0.390502
Si Si6 0.560435 0.780289 0.137535
Si Si7 0.671525 0.219745 0.033669
Si Si8 0.585046 0.790071 0.909955
O O1 0.902128 0.209486 0.581343
O O2 0.867435 0.280896 0.456241
O O3 0.000000 0.289861 0.500000
O O4 0.932136 0.000000 0.484156
O O5 0.392891 0.500000 0.354404
O O6 0.363243 0.781410 0.287698
O O7 0.488427 0.725772 0.323520
O O8 0.750000 0.775204 0.786061
O O9 0.669835 0.500000 0.779387
O O10 0.626501 0.775742 0.842113
O O11 0.624129 0.273947 0.329758
O O12 0.559787 0.278711 0.212933
O O13 0.557400 0.000000 0.287619
O O14 0.750000 0.282125 0.386945
O O15 0.674607 0.000000 0.390444
O O16 0.627244 0.727701 0.096868
O O17 0.491067 0.716814 0.101732
O O18 0.558610 0.000000 0.138332
O O19 0.750000 0.280165 0.034287
O O20 0.673211 0.000000 0.032162
O O21 0.630604 0.283107 0.969199
O O22 0.575280 0.000000 0.925583
#
# Coordination Sequence:
#
# PCOD9399551 Si02
#       8
#     8   8   8   8   8   8   8   8
#     4  10  19  34  56  78 104 137 170 210 259 307
#     4  11  22  35  54  78 104 135 173 214 258 309
#     4  10  22  38  53  73 105 140 171 210 262 312
#     4  10  18  33  55  78 104 139 177 215 259 307
#     4   9  18  32  52  79 107 134 170 215 260 303
#     4   9  17  28  48  75 104 137 174 216 259 307
#     4   9  17  28  44  74 112 141 169 213 268 315
#     4  10  18  31  53  78 104 135 175 219 261 308
#
# _framework density 21.596837000000001
#
# number of rings (size 3 to 8) (size 9 to 14) (size 15 to 20)
#    0.000    2.250    2.500    1.125    0.000    4.000 
#    0.000    2.500    0.000    3.375    0.000    0.000 
#    0.000    0.000    0.000    0.000    0.000    0.000 
#
# Total GULP energy -357580.711635 kJ/mol
# GULP energy per Si atom -5587.198619 kJ/mol
# Density = 2.154768 g / cm^3
# Si number density = 21.596837 Si / 1000 Ang^3
#
#
#
# Elastic Constant Matrix: (Units=GPa)
#
#
# Indices 1 2 3 4 5 6 
#
# 1 159.5331 -1.8485 71.6029 0.0000 0.0000 0.0000
# 2 -1.8485 63.3268 -7.6709 0.0000 0.0000 0.0000
# 3 71.6029 -7.6709 114.1090 0.0000 0.0000 0.0000
# 4 0.0000 0.0000 0.0000 -140.7945 0.0000 0.0000
# 5 0.0000 0.0000 0.0000 0.0000 35.0207 0.0000
# 6 0.0000 0.0000 0.0000 0.0000 0.0000 17.8504
#
#
#
# Elastic Compliance Matrix: (Units=1/GPa)
#
#
# Indices 1 2 3 4 5 6 
#
# 1 0.008736 -0.000412 -0.005510 0.000000 0.000000 0.000000
# 2 -0.000412 0.015940 0.001330 0.000000 0.000000 0.000000
# 3 -0.005510 0.001330 0.012310 0.000000 0.000000 0.000000
# 4 0.000000 0.000000 0.000000 -0.007103 0.000000 0.000000
# 5 0.000000 0.000000 0.000000 0.000000 0.028555 0.000000
# 6 0.000000 0.000000 0.000000 0.000000 0.000000 0.056021
#
#
# Mechanical properties :
#
#
# Convention : Reuss Voigt Hill
#
# Bulk Modulus (GPa) = 35.96692 51.23731 43.60212
# Shear Modulus (GPa) = 37.61900 0.74102 19.18001
#
# Velocity S-wave (km/s) = 4.17811 0.58640 2.98332
# Velocity P-wave (km/s) = 6.32182 4.92285 5.66568
#
# Compressibility (1/GPa) = 0.02780333
#
# Stress axis : x y z
#
# Youngs Moduli (GPa) = 114.46272 62.73438 81.23239
#
# Poissons Ratio (x) = 0.02587 0.44758
# Poissons Ratio (y) = 0.04720 -0.10807
# Poissons Ratio (z) = 0.63067 -0.08346
#
# Static dielectric constant tensor:
#      x y z
#    x 1.743880 0.000000 0.000000 
#    y 0.000000 1.813920 0.000000 
#    z 0.000000 0.000000 1.743160 
# 
# From -- ./inp_files/30591.got.cif
#   From: 2010.05.17/outbox.cif.g08.bks.cpg/sg51_16_cif.got.tgz:30591.got - 2010.06.03 11:52:47.
