data_PCOD9399899
_publ_section_title
;
Structure prediction by ZEFSAII (Michael W. Deem and Ramdas Pophale) SiO2 
 PCOD9399899
Probable space group: P M M A
;
_chemical_formula_sum "Si O2"
_cell_formula_units_Z 64
_cell_length_a 32.011725
_cell_length_b 7.730653
_cell_length_c 12.286008
_cell_angle_alpha 90.000000
_cell_angle_beta 90.000000
_cell_angle_gamma 90.000000
_cell_volume 3040.437294
_symmetry_space_group_name_H-M "P M M A"
_symmetry_group_IT_number 51
_symmetry_cell_setting 'orthorhombic'
loop_
_space_group_symop_operation_xyz
x,y,z
1/2-x,-y,z
1/2+x,-y,-z
-x,y,-z
-x,-y,-z
1/2+x,y,-z
1/2-x,y,z
x,-y,z
loop_
_atom_site_type_symbol
_atom_site_label
_atom_site_fract_x
_atom_site_fract_y
_atom_site_fract_z
Si Si1 0.546966 0.291424 0.982041
Si Si2 0.818280 0.291012 0.754846
Si Si3 0.545094 0.295007 0.533251
Si Si4 0.795446 0.709233 0.514045
Si Si5 0.585222 0.288219 0.755008
Si Si6 0.704712 0.794428 0.998274
Si Si7 0.124585 0.791891 0.867619
Si Si8 0.378490 0.204556 0.620461
O O1 0.545079 0.500000 0.977427
O O2 0.564151 0.229348 0.866132
O O3 0.500000 0.226985 0.000000
O O4 0.580884 0.247348 0.073570
O O5 0.815895 0.500000 0.756146
O O6 0.799115 0.233345 0.640111
O O7 0.866592 0.236906 0.753021
O O8 0.799458 0.230736 0.868642
O O9 0.500000 0.222483 0.500000
O O10 0.539251 0.500000 0.550475
O O11 0.561928 0.224479 0.647613
O O12 0.581525 0.275376 0.444336
O O13 0.750000 0.765204 0.470592
O O14 0.796236 0.500000 0.514824
O O15 0.835765 0.764532 0.445927
O O16 0.584934 0.500000 0.754089
O O17 0.750000 0.723400 0.033551
O O18 0.705298 0.000000 0.018218
O O19 0.663805 0.724695 0.060662
O O20 0.125149 0.726415 0.743602
O O21 0.128398 0.000000 0.863898
O O22 0.384998 0.000000 0.627334
#
# Coordination Sequence:
#
# PCOD9399899 Si02
#       8
#     8   8   8   8   8   8   8   8
#     4  10  21  36  59  88 115 144 185 236 280 327
#     4  10  18  34  59  85 116 146 178 227 285 338
#     4  10  21  38  63  88 114 151 191 233 284 340
#     4  10  21  38  60  85 114 149 189 236 289 343
#     4   9  17  33  56  86 116 143 180 228 283 334
#     4  10  21  37  57  81 110 146 189 232 275 331
#     4  10  23  41  57  78 113 154 191 229 281 337
#     4  11  24  40  58  82 116 154 193 238 284 337
#
# _framework density 21.049603000000001
#
# number of rings (size 3 to 8) (size 9 to 14) (size 15 to 20)
#    0.000    2.000    2.500    0.750    1.750    3.500 
#    0.000    1.875    0.000    0.000    0.000    0.000 
#    0.000    0.000    0.000    0.000    0.000    0.000 
#
# Total GULP energy -357434.920650 kJ/mol
# GULP energy per Si atom -5584.920635 kJ/mol
# Density = 2.100169 g / cm^3
# Si number density = 21.049603 Si / 1000 Ang^3
#
#
#
# Elastic Constant Matrix: (Units=GPa)
#
#
# Indices 1 2 3 4 5 6 
#
# 1 171.3971 -10.5339 65.5653 0.0000 0.0000 0.0000
# 2 -10.5339 25.5804 -11.1011 0.0000 0.0000 0.0000
# 3 65.5653 -11.1011 136.2108 0.0000 0.0000 0.0000
# 4 0.0000 0.0000 0.0000 19.1935 0.0000 0.0000
# 5 0.0000 0.0000 0.0000 0.0000 39.9769 0.0000
# 6 0.0000 0.0000 0.0000 0.0000 0.0000 -24.7646
#
#
#
# Elastic Compliance Matrix: (Units=1/GPa)
#
#
# Indices 1 2 3 4 5 6 
#
# 1 0.007207 0.001516 -0.003346 0.000000 0.000000 0.000000
# 2 0.001516 0.040845 0.002599 0.000000 0.000000 0.000000
# 3 -0.003346 0.002599 0.009164 0.000000 0.000000 0.000000
# 4 0.000000 0.000000 0.000000 0.052101 0.000000 0.000000
# 5 0.000000 0.000000 0.000000 0.000000 0.025014 0.000000
# 6 0.000000 0.000000 0.000000 0.000000 0.000000 -0.040380
#
#
# Mechanical properties :
#
#
# Convention : Reuss Voigt Hill
#
# Bulk Modulus (GPa) = 17.01993 46.78321 31.90157
# Shear Modulus (GPa) = 44.64388 26.16502 35.40445
#
# Velocity S-wave (km/s) = 4.61031 3.52947 4.10561
# Velocity P-wave (km/s) = 6.03681 6.23562 6.13702
#
# Compressibility (1/GPa) = 0.05875466
#
# Stress axis : x y z
#
# Youngs Moduli (GPa) = 138.74532 24.48302 109.12413
#
# Poissons Ratio (x) = -0.03712 0.36510
# Poissons Ratio (y) = -0.21034 -0.28362
# Poissons Ratio (z) = 0.46421 -0.06363
#
# Static dielectric constant tensor:
#      x y z
#    x 1.752000 0.000000 0.000000 
#    y 0.000000 1.783860 0.000000 
#    z 0.000000 0.000000 1.735290 
# 
# From -- ./inp_files/19439.got.cif
#   From: 2010.05.17/outbox.cif.g08.bks.cpg/sg51_10_cif.got.tgz:19439.got - 2010.06.03 11:52:47.
