data_PCOD9399609
_publ_section_title
;
Structure prediction by ZEFSAII (Michael W. Deem and Ramdas Pophale) SiO2 
 PCOD9399609
Probable space group: P M M A
;
_chemical_formula_sum "Si O2"
_cell_formula_units_Z 64
_cell_length_a 8.674853
_cell_length_b 22.064046
_cell_length_c 19.254732
_cell_angle_alpha 90.000000
_cell_angle_beta 90.000000
_cell_angle_gamma 90.000000
_cell_volume 3685.401062
_symmetry_space_group_name_H-M "P M M A"
_symmetry_group_IT_number 51
_symmetry_cell_setting 'orthorhombic'
loop_
_space_group_symop_operation_xyz
x,y,z
1/2-x,-y,z
1/2+x,-y,-z
-x,y,-z
-x,-y,-z
1/2+x,y,-z
1/2-x,y,z
x,-y,z
loop_
_atom_site_type_symbol
_atom_site_label
_atom_site_fract_x
_atom_site_fract_y
_atom_site_fract_z
Si Si1 0.565748 0.567139 0.133932
Si Si2 0.065880 0.311471 0.073282
Si Si3 0.430486 0.832721 0.322694
Si Si4 0.937529 0.739097 0.780410
Si Si5 0.435083 0.608348 0.278677
Si Si6 0.928479 0.744092 0.427286
Si Si7 0.933852 0.929953 0.424988
Si Si8 0.927158 0.597727 0.426130
O O1 0.750000 0.574632 0.133256
O O2 0.526882 0.500000 0.108165
O O3 0.489414 0.620363 0.089774
O O4 0.506417 0.573639 0.213146
O O5 0.250000 0.310683 0.071113
O O6 0.014561 0.273041 0.140551
O O7 0.000000 0.290834 0.000000
O O8 0.250000 0.846583 0.317384
O O9 0.489838 0.803452 0.250717
O O10 0.461095 0.774878 0.371915
O O11 0.511659 0.887840 0.361887
O O12 0.750000 0.739745 0.777964
O O13 0.983863 0.678862 0.736341
O O14 0.250000 0.605975 0.275358
O O15 0.488905 0.583584 0.353444
O O16 0.750000 0.763648 0.418501
O O17 0.930390 0.671375 0.426491
O O18 0.000000 0.763491 0.500000
O O19 0.750000 0.927882 0.429381
O O20 0.000000 0.910184 0.500000
O O21 0.982761 0.000000 0.414591
O O22 0.750000 0.577922 0.423305
O O23 0.000000 0.578036 0.500000
#
# Coordination Sequence:
#
# PCOD9399609 Si02
#       8
#     8   8   8   8   8   8   8   8
#     4  10  21  36  54  77 102 130 167 206 243 288
#     4  10  20  36  56  79 106 137 166 196 240 292
#     4  11  19  30  48  68  94 126 164 208 250 295
#     4   8  17  31  48  71  98 127 158 195 240 293
#     4  10  18  32  51  70  97 128 161 202 252 302
#     4  10  19  28  39  60  89 122 157 196 240 287
#     4  10  21  36  50  66  93 132 178 222 261 300
#     4  10  19  29  43  64  91 123 159 199 244 295
#
# _framework density 17.365818000000001
#
# number of rings (size 3 to 8) (size 9 to 14) (size 15 to 20)
#    0.000    2.125    1.250    3.750    0.000    3.000 
#    0.000    1.875    0.000    0.375    0.000    0.000 
#    0.000    0.500    0.000    1.125    0.000    2.000 
#
# Total GULP energy -356916.199764 kJ/mol
# GULP energy per Si atom -5576.815621 kJ/mol
# Density = 1.732629 g / cm^3
# Si number density = 17.365818 Si / 1000 Ang^3
#
#
#
# Elastic Constant Matrix: (Units=GPa)
#
#
# Indices 1 2 3 4 5 6 
#
# 1 43.0697 12.8213 17.9323 0.0000 0.0000 0.0000
# 2 12.8213 70.5704 26.8671 0.0000 0.0000 0.0000
# 3 17.9323 26.8671 109.5474 0.0000 0.0000 0.0000
# 4 0.0000 0.0000 0.0000 12.0651 0.0000 0.0000
# 5 0.0000 0.0000 0.0000 0.0000 27.1097 0.0000
# 6 0.0000 0.0000 0.0000 0.0000 0.0000 8.7095
#
#
#
# Elastic Compliance Matrix: (Units=1/GPa)
#
#
# Indices 1 2 3 4 5 6 
#
# 1 0.025624 -0.003374 -0.003367 0.000000 0.000000 0.000000
# 2 -0.003374 0.016074 -0.003390 0.000000 0.000000 0.000000
# 3 -0.003367 -0.003390 0.010511 0.000000 0.000000 0.000000
# 4 0.000000 0.000000 0.000000 0.082884 0.000000 0.000000
# 5 0.000000 0.000000 0.000000 0.000000 0.036887 0.000000
# 6 0.000000 0.000000 0.000000 0.000000 0.000000 0.114818
#
#
# Mechanical properties :
#
#
# Convention : Reuss Voigt Hill
#
# Bulk Modulus (GPa) = 31.30100 37.60322 34.45211
# Shear Modulus (GPa) = 15.73771 20.61465 18.17618
#
# Velocity S-wave (km/s) = 3.01366 3.44914 3.23873
# Velocity P-wave (km/s) = 5.49301 6.12884 5.81962
#
# Compressibility (1/GPa) = 0.03194787
#
# Stress axis : x y z
#
# Youngs Moduli (GPa) = 39.02529 62.21320 95.13790
#
# Poissons Ratio (x) = 0.20988 0.32035
# Poissons Ratio (y) = 0.13165 0.32251
# Poissons Ratio (z) = 0.13141 0.21090
#
# Static dielectric constant tensor:
#      x y z
#    x 1.591760 0.000000 0.000000 
#    y 0.000000 1.615390 0.000000 
#    z 0.000000 0.000000 1.735970 
# 
# From -- ./inp_files/28461.got.cif
#   From: 2010.05.17/outbox.cif.g08.bks.cpg/sg51_15_cif.got.tgz:28461.got - 2010.06.03 11:52:47.
