data_PCOD9399943
_publ_section_title
;
Structure prediction by ZEFSAII (Michael W. Deem and Ramdas Pophale) SiO2 
 PCOD9399943
Probable space group: P M M A
;
_chemical_formula_sum "Si O2"
_cell_formula_units_Z 48
_cell_length_a 15.260126
_cell_length_b 8.410133
_cell_length_c 19.851999
_cell_angle_alpha 90.000000
_cell_angle_beta 90.000000
_cell_angle_gamma 90.000000
_cell_volume 2547.799383
_symmetry_space_group_name_H-M "P M M A"
_symmetry_group_IT_number 51
_symmetry_cell_setting 'orthorhombic'
loop_
_space_group_symop_operation_xyz
x,y,z
1/2-x,-y,z
1/2+x,-y,-z
-x,y,-z
-x,-y,-z
1/2+x,y,-z
1/2-x,y,z
x,-y,z
loop_
_atom_site_type_symbol
_atom_site_label
_atom_site_fract_x
_atom_site_fract_y
_atom_site_fract_z
Si Si1 0.250000 0.188135 0.966719
Si Si2 0.400153 0.180583 0.471973
Si Si3 0.029700 0.692786 0.337671
Si Si4 0.057604 0.307749 0.934619
Si Si5 0.656775 0.688977 0.391528
Si Si6 0.750000 0.692818 0.880553
Si Si7 0.567358 0.306184 0.813880
O O1 0.158144 0.252923 0.937461
O O2 0.250000 0.000000 0.960008
O O3 0.250000 0.238247 0.044899
O O4 0.500000 0.180562 0.500000
O O5 0.406273 0.248552 0.396877
O O6 0.350421 0.279791 0.528615
O O7 0.367925 0.000000 0.471411
O O8 0.030150 0.500000 0.339615
O O9 0.053172 0.746194 0.262695
O O10 0.931504 0.750499 0.356658
O O11 0.057906 0.500000 0.936141
O O12 0.006785 0.255377 0.867150
O O13 0.000000 0.255901 0.000000
O O14 0.750000 0.754844 0.367060
O O15 0.656899 0.500000 0.380450
O O16 0.750000 0.500000 0.886140
O O17 0.837911 0.741170 0.841952
O O18 0.565498 0.500000 0.813187
#
# Coordination Sequence:
#
# PCOD9399943 Si02
#       7
#     4   8   8   8   8   4   8
#     4  12  24  36  54  84 116 145 180 225 278 327
#     4   9  17  30  49  71  95 130 170 206 249 303
#     4   9  17  32  51  75 106 135 167 213 269 319
#     4  10  19  36  61  84 107 142 188 230 267 318
#     4   9  17  30  49  72  99 133 173 217 262 308
#     4  10  18  36  60  80 106 141 184 225 266 327
#     4   9  18  33  57  84 107 138 180 225 272 320
#
# _framework density 18.839787000000001
#
# number of rings (size 3 to 8) (size 9 to 14) (size 15 to 20)
#    0.000    2.500    1.667    1.250    0.000    2.667 
#    3.000    1.667    0.000    0.000    0.000    0.000 
#    0.000    0.000    0.000    0.000    0.000    0.000 
#
# Total GULP energy -267579.751846 kJ/mol
# GULP energy per Si atom -5574.578163 kJ/mol
# Density = 1.879691 g / cm^3
# Si number density = 18.839787 Si / 1000 Ang^3
#
#
#
# Elastic Constant Matrix: (Units=GPa)
#
#
# Indices 1 2 3 4 5 6 
#
# 1 120.7789 6.5268 50.1655 0.0000 0.0000 0.0000
# 2 6.5268 10.0115 6.0810 0.0000 0.0000 0.0000
# 3 50.1655 6.0810 133.7345 0.0000 0.0000 0.0000
# 4 0.0000 0.0000 0.0000 -2.4626 0.0000 0.0000
# 5 0.0000 0.0000 0.0000 0.0000 7.3860 0.0000
# 6 0.0000 0.0000 0.0000 0.0000 0.0000 -0.3533
#
#
#
# Elastic Compliance Matrix: (Units=1/GPa)
#
#
# Indices 1 2 3 4 5 6 
#
# 1 0.009989 -0.004357 -0.003549 0.000000 0.000000 0.000000
# 2 -0.004357 0.104622 -0.003123 0.000000 0.000000 0.000000
# 3 -0.003549 -0.003123 0.008951 0.000000 0.000000 0.000000
# 4 0.000000 0.000000 0.000000 -0.406069 0.000000 0.000000
# 5 0.000000 0.000000 0.000000 0.000000 0.135391 0.000000
# 6 0.000000 0.000000 0.000000 0.000000 0.000000 -2.830252
#
#
# Mechanical properties :
#
#
# Convention : Reuss Voigt Hill
#
# Bulk Modulus (GPa) = 9.85174 43.34128 26.59651
# Shear Modulus (GPa) = -1.71146 14.36411 6.32632
#
# Velocity S-wave (km/s) = -0.95415 2.76422 1.83446
# Velocity P-wave (km/s) = 2.00666 5.76567 4.31681
#
# Compressibility (1/GPa) = 0.10150489
#
# Stress axis : x y z
#
# Youngs Moduli (GPa) = 100.10945 9.55821 111.72237
#
# Poissons Ratio (x) = 0.04164 0.39650
# Poissons Ratio (y) = 0.43613 0.34891
# Poissons Ratio (z) = 0.35528 0.02985
#
# Static dielectric constant tensor:
#      x y z
#    x 1.684370 0.000000 0.000000 
#    y 0.000000 1.651570 0.000000 
#    z 0.000000 0.000000 1.633460 
# 
# From -- ./inp_files/29570.got.cif
#   From: 2010.05.17/outbox.cif.g08.bks.cpg/sg51_15_cif.got.tgz:29570.got - 2010.06.03 11:52:47.
