data_PCOD9399327
_publ_section_title
;
Structure prediction by ZEFSAII (Michael W. Deem and Ramdas Pophale) SiO2 
 PCOD9399327
Probable space group: P M M A
;
_chemical_formula_sum "Si O2"
_cell_formula_units_Z 48
_cell_length_a 15.656647
_cell_length_b 7.424878
_cell_length_c 19.600774
_cell_angle_alpha 90.000000
_cell_angle_beta 90.000000
_cell_angle_gamma 90.000000
_cell_volume 2278.564376
_symmetry_space_group_name_H-M "P M M A"
_symmetry_group_IT_number 51
_symmetry_cell_setting 'orthorhombic'
loop_
_space_group_symop_operation_xyz
x,y,z
1/2-x,-y,z
1/2+x,-y,-z
-x,y,-z
-x,-y,-z
1/2+x,y,-z
1/2-x,y,z
x,-y,z
loop_
_atom_site_type_symbol
_atom_site_label
_atom_site_fract_x
_atom_site_fract_y
_atom_site_fract_z
Si Si1 0.846626 0.782350 0.177358
Si Si2 0.250000 0.278717 0.576145
Si Si3 0.250000 0.719581 0.419279
Si Si4 0.507079 0.211723 0.076050
Si Si5 0.594627 0.287693 0.331579
Si Si6 0.097129 0.720388 0.321455
Si Si7 0.653610 0.282558 0.830174
O O1 0.750000 0.720930 0.163323
O O2 0.873355 0.732576 0.254052
O O3 0.917200 0.714357 0.123879
O O4 0.846606 0.000000 0.175032
O O5 0.250000 0.500000 0.577753
O O6 0.250000 0.223020 0.497591
O O7 0.333858 0.216488 0.617031
O O8 0.250000 0.500000 0.419311
O O9 0.166447 0.776182 0.377202
O O10 0.417939 0.227627 0.115942
O O11 0.526683 0.000000 0.068345
O O12 0.500000 0.288735 0.000000
O O13 0.588170 0.500000 0.346057
O O14 0.498587 0.215496 0.336514
O O15 0.096458 0.500000 0.320656
O O16 0.125999 0.776613 0.245699
O O17 0.750000 0.221206 0.845414
O O18 0.654675 0.500000 0.829286
#
# Coordination Sequence:
#
# PCOD9399327 Si02
#       7
#     8   4   4   8   8   8   8
#     4  10  20  34  53  76 100 133 174 212 255 313
#     4   9  18  28  43  73 108 133 166 214 259 305
#     4   9  16  28  44  71 110 139 162 206 263 309
#     4  10  22  38  55  78 107 137 171 216 267 313
#     4  10  18  30  50  76 101 130 170 214 255 300
#     4   9  16  27  47  72 101 136 168 204 253 303
#     4  10  19  33  55  81 106 138 178 215 256 311
#
# _framework density 21.065895999999999
#
# number of rings (size 3 to 8) (size 9 to 14) (size 15 to 20)
#    0.000    2.333    3.333    0.000    0.000    2.000 
#    0.000    5.000    0.000    0.000    0.000    5.833 
#    0.000    0.000    0.000    0.000    0.000    0.000 
#
# Total GULP energy -268136.170295 kJ/mol
# GULP energy per Si atom -5586.170214 kJ/mol
# Density = 2.101795 g / cm^3
# Si number density = 21.065896 Si / 1000 Ang^3
#
#
#
# Elastic Constant Matrix: (Units=GPa)
#
#
# Indices 1 2 3 4 5 6 
#
# 1 217.5593 -9.7567 111.5424 0.0000 0.0000 0.0000
# 2 -9.7567 61.4127 -11.4133 0.0000 0.0000 0.0000
# 3 111.5424 -11.4133 195.5994 0.0000 0.0000 0.0000
# 4 0.0000 0.0000 0.0000 16.2834 0.0000 0.0000
# 5 0.0000 0.0000 0.0000 0.0000 37.5997 0.0000
# 6 0.0000 0.0000 0.0000 0.0000 0.0000 -4.9986
#
#
#
# Elastic Compliance Matrix: (Units=1/GPa)
#
#
# Indices 1 2 3 4 5 6 
#
# 1 0.006503 0.000348 -0.003688 0.000000 0.000000 0.000000
# 2 0.000348 0.016480 0.000763 0.000000 0.000000 0.000000
# 3 -0.003688 0.000763 0.007260 0.000000 0.000000 0.000000
# 4 0.000000 0.000000 0.000000 0.061412 0.000000 0.000000
# 5 0.000000 0.000000 0.000000 0.000000 0.026596 0.000000
# 6 0.000000 0.000000 0.000000 0.000000 0.000000 -0.200054
#
#
# Mechanical properties :
#
#
# Convention : Reuss Voigt Hill
#
# Bulk Modulus (GPa) = 39.85733 72.81292 56.33512
# Shear Modulus (GPa) = -73.22210 35.39015 -18.91598
#
# Velocity S-wave (km/s) = -5.90204 4.10319 -2.99982
# Velocity P-wave (km/s) = 5.24252 7.55564 3.84731
#
# Compressibility (1/GPa) = 0.02508949
#
# Stress axis : x y z
#
# Youngs Moduli (GPa) = 153.77749 60.67819 137.73769
#
# Poissons Ratio (x) = -0.02110 0.50798
# Poissons Ratio (y) = -0.05347 -0.10514
# Poissons Ratio (z) = 0.56714 -0.04632
#
# Static dielectric constant tensor:
#      x y z
#    x 1.739150 0.000000 0.000000 
#    y 0.000000 1.823190 0.000000 
#    z 0.000000 0.000000 1.700980 
# 
# From -- ./inp_files/29556.got.cif
#   From: 2010.05.17/outbox.cif.g08.bks.cpg/sg51_15_cif.got.tgz:29556.got - 2010.06.03 11:52:47.
