data_PCOD9399752
_publ_section_title
;
Structure prediction by ZEFSAII (Michael W. Deem and Ramdas Pophale) SiO2 
 PCOD9399752
Probable space group: P M M A
;
_chemical_formula_sum "Si O2"
_cell_formula_units_Z 40
_cell_length_a 16.914448
_cell_length_b 7.815550
_cell_length_c 11.978668
_cell_angle_alpha 90.000000
_cell_angle_beta 90.000000
_cell_angle_gamma 90.000000
_cell_volume 1583.528570
_symmetry_space_group_name_H-M "P M M A"
_symmetry_group_IT_number 51
_symmetry_cell_setting 'orthorhombic'
loop_
_space_group_symop_operation_xyz
x,y,z
1/2-x,-y,z
1/2+x,-y,-z
-x,y,-z
-x,-y,-z
1/2+x,y,-z
1/2-x,y,z
x,-y,z
loop_
_atom_site_type_symbol
_atom_site_label
_atom_site_fract_x
_atom_site_fract_y
_atom_site_fract_z
Si Si1 0.608225 0.202258 0.963060
Si Si2 0.419574 0.300666 0.457106
Si Si3 0.750000 0.197095 0.788495
Si Si4 0.489624 0.799813 0.235392
Si Si5 0.750000 0.696830 0.541590
Si Si6 0.161458 0.301963 0.794085
O O1 0.675543 0.219940 0.868852
O O2 0.531397 0.257354 0.890961
O O3 0.599279 0.000000 0.992408
O O4 0.641928 0.289019 0.073682
O O5 0.500000 0.215816 0.500000
O O6 0.418582 0.500000 0.492762
O O7 0.435296 0.294632 0.324696
O O8 0.334735 0.225155 0.489471
O O9 0.750000 0.305542 0.676545
O O10 0.750000 0.000000 0.748737
O O11 0.582504 0.776602 0.259467
O O12 0.469918 0.000000 0.241143
O O13 0.750000 0.500000 0.502100
O O14 0.250000 0.230518 0.773289
O O15 0.162797 0.500000 0.761463
#
# Coordination Sequence:
#
# PCOD9399752 Si02
#       6
#     8   8   4   8   4   8
#     4  10  20  35  57  85 117 155 195 239 291 345
#     4  10  22  41  63  89 121 155 195 247 303 357
#     4  10  18  32  56  85 118 153 190 239 290 340
#     4  11  23  39  61  87 118 154 196 246 299 354
#     4  10  20  36  62  89 114 151 196 243 300 356
#     4  11  24  39  56  82 118 161 204 244 290 349
#
# _framework density 25.26004
#
# number of rings (size 3 to 8) (size 9 to 14) (size 15 to 20)
#    0.000    1.600    3.000    1.800    0.000    6.400 
#    1.800    0.000    0.000    0.000    0.000    0.000 
#    0.000    0.000    0.000    0.000    0.000    0.000 
#
# Total GULP energy -223576.073015 kJ/mol
# GULP energy per Si atom -5589.401825 kJ/mol
# Density = 2.520255 g / cm^3
# Si number density = 25.260040 Si / 1000 Ang^3
#
#
#
# Elastic Constant Matrix: (Units=GPa)
#
#
# Indices 1 2 3 4 5 6 
#
# 1 243.4309 6.5501 18.6147 0.0000 0.0000 0.0000
# 2 6.5501 41.8042 -0.6100 0.0000 0.0000 0.0000
# 3 18.6147 -0.6100 58.0639 0.0000 0.0000 0.0000
# 4 0.0000 0.0000 0.0000 10.3435 0.0000 0.0000
# 5 0.0000 0.0000 0.0000 0.0000 35.5550 0.0000
# 6 0.0000 0.0000 0.0000 0.0000 0.0000 9.0775
#
#
#
# Elastic Compliance Matrix: (Units=1/GPa)
#
#
# Indices 1 2 3 4 5 6 
#
# 1 0.004231 -0.000683 -0.001363 0.000000 0.000000 0.000000
# 2 -0.000683 0.024035 0.000471 0.000000 0.000000 0.000000
# 3 -0.001363 0.000471 0.017664 0.000000 0.000000 0.000000
# 4 0.000000 0.000000 0.000000 0.096679 0.000000 0.000000
# 5 0.000000 0.000000 0.000000 0.000000 0.028125 0.000000
# 6 0.000000 0.000000 0.000000 0.000000 0.000000 0.110163
#
#
# Mechanical properties :
#
#
# Convention : Reuss Voigt Hill
#
# Bulk Modulus (GPa) = 23.37522 43.60093 33.48808
# Shear Modulus (GPa) = 16.76124 32.24479 24.50302
#
# Velocity S-wave (km/s) = 2.57874 3.57671 3.11791
# Velocity P-wave (km/s) = 4.25916 5.86135 5.12327
#
# Compressibility (1/GPa) = 0.04278034
#
# Stress axis : x y z
#
# Youngs Moduli (GPa) = 236.37451 41.60613 56.61079
#
# Poissons Ratio (x) = 0.02841 0.07719
# Poissons Ratio (y) = 0.16139 -0.02669
# Poissons Ratio (z) = 0.32229 -0.01961
#
# Static dielectric constant tensor:
#      x y z
#    x 2.081170 0.000000 0.000000 
#    y 0.000000 1.910080 0.000000 
#    z 0.000000 0.000000 2.027630 
# 
# From -- ./inp_files/23774.got.cif
#   From: 2010.05.17/outbox.cif.g08.bks.cpg/sg51_12_cif.got.tgz:23774.got - 2010.06.03 11:52:47.
