data_PCOD9399295
_publ_section_title
;
Structure prediction by ZEFSAII (Michael W. Deem and Ramdas Pophale) SiO2 
 PCOD9399295
Probable space group: P M M A
;
_chemical_formula_sum "Si O2"
_cell_formula_units_Z 48
_cell_length_a 14.431395
_cell_length_b 18.291347
_cell_length_c 9.486930
_cell_angle_alpha 90.000000
_cell_angle_beta 90.000000
_cell_angle_gamma 90.000000
_cell_volume 2504.261626
_symmetry_space_group_name_H-M "P M M A"
_symmetry_group_IT_number 51
_symmetry_cell_setting 'orthorhombic'
loop_
_space_group_symop_operation_xyz
x,y,z
1/2-x,-y,z
1/2+x,-y,-z
-x,y,-z
-x,-y,-z
1/2+x,y,-z
1/2-x,y,z
x,-y,z
loop_
_atom_site_type_symbol
_atom_site_label
_atom_site_fract_x
_atom_site_fract_y
_atom_site_fract_z
Si Si1 0.858192 0.815465 0.652144
Si Si2 0.477920 0.137924 0.849865
Si Si3 0.642862 0.717577 0.086284
Si Si4 0.530843 0.419044 0.164601
Si Si5 0.854766 0.338924 0.761897
Si Si6 0.140448 0.080610 0.602898
O O1 0.750000 0.831759 0.683163
O O2 0.866856 0.727863 0.653561
O O3 0.882854 0.855519 0.507043
O O4 0.926571 0.844823 0.770832
O O5 0.422140 0.213620 0.880074
O O6 0.415873 0.091202 0.744965
O O7 0.500000 0.103324 0.000000
O O8 0.750000 0.733081 0.120214
O O9 0.604577 0.646607 0.168980
O O10 0.638271 0.697184 0.919451
O O11 0.564337 0.500000 0.203656
O O12 0.437938 0.395971 0.247052
O O13 0.500000 0.421958 0.000000
O O14 0.750000 0.368640 0.750162
O O15 0.250000 0.085448 0.631373
O O16 0.121827 0.000000 0.540879
#
# Coordination Sequence:
#
# PCOD9399295 Si02
#       6
#     8   8   8   8   8   8
#     4  10  20  36  58  81 111 152 196 238 283 341
#     4  12  21  35  60  87 116 148 191 238 292 343
#     4  10  18  30  49  76 110 149 192 240 289 336
#     4   9  16  27  43  71 111 150 189 237 296 349
#     4   9  16  29  49  75 107 146 195 242 285 337
#     4  10  24  44  62  85 117 150 187 235 288 347
#
# _framework density 19.167327
#
# number of rings (size 3 to 8) (size 9 to 14) (size 15 to 20)
#    0.000    2.000    3.333    1.500    0.000    3.000 
#    0.000    3.333    0.000    2.000    0.000    2.333 
#    0.000    4.000    0.000    0.000    0.000    0.000 
#
# Total GULP energy -267820.971061 kJ/mol
# GULP energy per Si atom -5579.603564 kJ/mol
# Density = 1.912370 g / cm^3
# Si number density = 19.167327 Si / 1000 Ang^3
#
#
#
# Elastic Constant Matrix: (Units=GPa)
#
#
# Indices 1 2 3 4 5 6 
#
# 1 81.9073 24.9805 31.9243 0.0000 0.0000 0.0000
# 2 24.9805 72.3545 22.3733 0.0000 0.0000 0.0000
# 3 31.9243 22.3733 56.8062 0.0000 0.0000 0.0000
# 4 0.0000 0.0000 0.0000 13.6802 0.0000 0.0000
# 5 0.0000 0.0000 0.0000 0.0000 25.6856 0.0000
# 6 0.0000 0.0000 0.0000 0.0000 0.0000 14.0078
#
#
#
# Elastic Compliance Matrix: (Units=1/GPa)
#
#
# Indices 1 2 3 4 5 6 
#
# 1 0.016249 -0.003173 -0.007882 0.000000 0.000000 0.000000
# 2 -0.003173 0.016357 -0.004659 0.000000 0.000000 0.000000
# 3 -0.007882 -0.004659 0.023868 0.000000 0.000000 0.000000
# 4 0.000000 0.000000 0.000000 0.073098 0.000000 0.000000
# 5 0.000000 0.000000 0.000000 0.000000 0.038932 0.000000
# 6 0.000000 0.000000 0.000000 0.000000 0.000000 0.071389
#
#
# Mechanical properties :
#
#
# Convention : Reuss Voigt Hill
#
# Bulk Modulus (GPa) = 39.92619 41.06934 40.49777
# Shear Modulus (GPa) = 17.87825 19.46072 18.66948
#
# Velocity S-wave (km/s) = 3.05740 3.18985 3.12433
# Velocity P-wave (km/s) = 5.77401 5.91947 5.84719
#
# Compressibility (1/GPa) = 0.02504621
#
# Stress axis : x y z
#
# Youngs Moduli (GPa) = 61.54382 61.13624 41.89652
#
# Poissons Ratio (x) = 0.19396 0.33023
# Poissons Ratio (y) = 0.19525 0.19521
# Poissons Ratio (z) = 0.48508 0.28485
#
# Static dielectric constant tensor:
#      x y z
#    x 1.674510 0.000000 0.000000 
#    y 0.000000 1.675840 0.000000 
#    z 0.000000 0.000000 1.664930 
# 
# From -- ./inp_files/8262.got.cif
#   From: 2010.05.17/outbox.cif.g08.bks.cpg/sg51_5_cif.got.tgz:8262.got - 2010.06.03 11:52:47.
