data_PCOD9399834
_publ_section_title
;
Structure prediction by ZEFSAII (Michael W. Deem and Ramdas Pophale) SiO2 
 PCOD9399834
Probable space group: P M M A
;
_chemical_formula_sum "Si O2"
_cell_formula_units_Z 48
_cell_length_a 31.604315
_cell_length_b 8.772796
_cell_length_c 9.368802
_cell_angle_alpha 90.000000
_cell_angle_beta 90.000000
_cell_angle_gamma 90.000000
_cell_volume 2597.577256
_symmetry_space_group_name_H-M "P M M A"
_symmetry_group_IT_number 51
_symmetry_cell_setting 'orthorhombic'
loop_
_space_group_symop_operation_xyz
x,y,z
1/2-x,-y,z
1/2+x,-y,-z
-x,y,-z
-x,-y,-z
1/2+x,y,-z
1/2-x,y,z
x,-y,z
loop_
_atom_site_type_symbol
_atom_site_label
_atom_site_fract_x
_atom_site_fract_y
_atom_site_fract_z
Si Si1 0.462209 0.316537 0.605644
Si Si2 0.876060 0.681643 0.554993
Si Si3 0.337023 0.679872 0.881315
Si Si4 0.924170 0.819884 0.140699
Si Si5 0.702685 0.818217 0.387060
Si Si6 0.380614 0.820701 0.135646
O O1 0.500000 0.272657 0.500000
O O2 0.463193 0.500000 0.622644
O O3 0.418608 0.270745 0.527751
O O4 0.461920 0.238817 0.761351
O O5 0.872299 0.500000 0.542351
O O6 0.834180 0.755770 0.488297
O O7 0.881570 0.729213 0.719225
O O8 0.250000 0.780890 0.561242
O O9 0.332225 0.500000 0.897904
O O10 0.304022 0.747587 0.770295
O O11 0.342198 0.762959 0.033740
O O12 0.883072 0.720811 0.186143
O O13 0.916907 0.000000 0.165236
O O14 0.921554 0.798219 0.969033
O O15 0.698625 0.000000 0.376469
O O16 0.376441 0.000000 0.163764
#
# Coordination Sequence:
#
# PCOD9399834 Si02
#       6
#     8   8   8   8   8   8
#     4  10  21  36  56  84 115 149 188 230 280 334
#     4  11  21  35  58  84 113 149 188 233 279 328
#     4  10  18  33  57  82 108 141 182 228 273 328
#     4   9  18  33  55  80 107 144 185 224 273 330
#     4  11  23  38  58  84 115 150 186 228 279 334
#     4   9  19  34  56  81 111 149 184 227 283 338
#
# _framework density 18.478757000000002
#
# number of rings (size 3 to 8) (size 9 to 14) (size 15 to 20)
#    1.000    1.000    1.667    3.000    0.000    2.333 
#    0.000    1.667    0.000   10.000    0.000    0.000 
#    0.000    0.000    0.000    0.000    0.000    0.000 
#
# Total GULP energy -267280.725976 kJ/mol
# GULP energy per Si atom -5568.348458 kJ/mol
# Density = 1.843670 g / cm^3
# Si number density = 18.478757 Si / 1000 Ang^3
#
#
#
# Elastic Constant Matrix: (Units=GPa)
#
#
# Indices 1 2 3 4 5 6 
#
# 1 40.4943 6.7755 8.7394 0.0000 0.0000 0.0000
# 2 6.7755 39.8150 1.5975 0.0000 0.0000 0.0000
# 3 8.7394 1.5975 69.5298 0.0000 0.0000 0.0000
# 4 0.0000 0.0000 0.0000 29.9936 0.0000 0.0000
# 5 0.0000 0.0000 0.0000 0.0000 6.6902 0.0000
# 6 0.0000 0.0000 0.0000 0.0000 0.0000 19.2784
#
#
#
# Elastic Compliance Matrix: (Units=1/GPa)
#
#
# Indices 1 2 3 4 5 6 
#
# 1 0.026103 -0.004314 -0.003182 0.000000 0.000000 0.000000
# 2 -0.004314 0.025852 -0.000052 0.000000 0.000000 0.000000
# 3 -0.003182 -0.000052 0.014783 0.000000 0.000000 0.000000
# 4 0.000000 0.000000 0.000000 0.033340 0.000000 0.000000
# 5 0.000000 0.000000 0.000000 0.000000 0.149472 0.000000
# 6 0.000000 0.000000 0.000000 0.000000 0.000000 0.051871
#
#
# Mechanical properties :
#
#
# Convention : Reuss Voigt Hill
#
# Bulk Modulus (GPa) = 19.36362 20.45155 19.90759
# Shear Modulus (GPa) = 14.98198 20.04088 17.51143
#
# Velocity S-wave (km/s) = 2.85049 3.29680 3.08174
# Velocity P-wave (km/s) = 4.61902 5.05801 4.84349
#
# Compressibility (1/GPa) = 0.05164323
#
# Stress axis : x y z
#
# Youngs Moduli (GPa) = 38.30917 38.68105 67.64317
#
# Poissons Ratio (x) = 0.16689 0.21523
# Poissons Ratio (y) = 0.16528 0.00350
# Poissons Ratio (z) = 0.12190 0.00200
#
# Static dielectric constant tensor:
#      x y z
#    x 1.659410 0.000000 0.000000 
#    y 0.000000 1.612150 0.000000 
#    z 0.000000 0.000000 1.661990 
# 
# From -- ./inp_files/12813.got.cif
#   From: 2010.05.17/outbox.cif.g08.bks.cpg/sg51_7_cif.got.tgz:12813.got - 2010.06.03 11:52:47.
