data_PCOD9399086
_publ_section_title
;
Structure prediction by ZEFSAII (Michael W. Deem and Ramdas Pophale) SiO2 
 PCOD9399086
Probable space group: P M M A
;
_chemical_formula_sum "Si O2"
_cell_formula_units_Z 64
_cell_length_a 26.137301
_cell_length_b 7.410186
_cell_length_c 14.932017
_cell_angle_alpha 90.000000
_cell_angle_beta 90.000000
_cell_angle_gamma 90.000000
_cell_volume 2892.066828
_symmetry_space_group_name_H-M "P M M A"
_symmetry_group_IT_number 51
_symmetry_cell_setting 'orthorhombic'
loop_
_space_group_symop_operation_xyz
x,y,z
1/2-x,-y,z
1/2+x,-y,-z
-x,y,-z
-x,-y,-z
1/2+x,y,-z
1/2-x,y,z
x,-y,z
loop_
_atom_site_type_symbol
_atom_site_label
_atom_site_fract_x
_atom_site_fract_y
_atom_site_fract_z
Si Si1 0.912123 0.211250 0.229122
Si Si2 0.946519 0.219449 0.537416
Si Si3 0.192664 0.284280 0.291756
Si Si4 0.694853 0.779176 0.308257
Si Si5 0.888314 0.293713 0.854575
Si Si6 0.557983 0.281072 0.024793
Si Si7 0.522457 0.781490 0.729897
Si Si8 0.163411 0.216248 0.498472
O O1 0.856945 0.283521 0.258950
O O2 0.924575 0.227873 0.124019
O O3 0.964069 0.283125 0.274998
O O4 0.910736 0.000000 0.253914
O O5 0.946448 0.267045 0.641397
O O6 0.894888 0.282127 0.492377
O O7 0.000000 0.284540 0.500000
O O8 0.946993 0.000000 0.530764
O O9 0.250000 0.216720 0.272441
O O10 0.192717 0.500000 0.282282
O O11 0.150568 0.214505 0.219951
O O12 0.181415 0.254209 0.397328
O O13 0.750000 0.722068 0.270525
O O14 0.692365 0.722736 0.412835
O O15 0.694503 0.000000 0.305489
O O16 0.871649 0.500000 0.868847
O O17 0.944920 0.292769 0.811199
O O18 0.900351 0.214130 0.952001
O O19 0.557233 0.500000 0.021313
O O20 0.500000 0.220346 0.000000
O O21 0.521792 0.000000 0.737146
O O22 0.163502 0.000000 0.503702
#
# Coordination Sequence:
#
# PCOD9399086 Si02
#       8
#     8   8   8   8   8   8   8   8
#     4  10  20  33  53  80 106 135 172 213 259 309
#     4   9  16  26  43  71 106 138 166 203 251 298
#     4  10  21  36  53  74 103 138 174 214 260 307
#     4   9  18  33  52  76 107 141 176 213 253 300
#     4  10  20  35  53  72 100 135 167 203 256 315
#     4  10  20  35  55  78 104 134 168 209 261 315
#     4  10  18  29  48  76 105 130 163 210 257 300
#     4  10  18  31  54  80 104 136 179 216 249 297
#
# _framework density 22.129501000000001
#
# number of rings (size 3 to 8) (size 9 to 14) (size 15 to 20)
#    0.000    2.250    2.500    1.125    0.000    4.500 
#    0.000    1.250    0.000    4.875    0.000    0.000 
#    0.000    0.000    0.000    0.000    0.000    0.000 
#
# Total GULP energy -357089.758814 kJ/mol
# GULP energy per Si atom -5579.527481 kJ/mol
# Density = 2.207913 g / cm^3
# Si number density = 22.129501 Si / 1000 Ang^3
#
#
#
# Elastic Constant Matrix: (Units=GPa)
#
#
# Indices 1 2 3 4 5 6 
#
# 1 172.4307 0.0929 46.0303 0.0000 0.0000 0.0000
# 2 0.0929 71.6144 -9.0106 0.0000 0.0000 0.0000
# 3 46.0303 -9.0106 59.7497 0.0000 0.0000 0.0000
# 4 0.0000 0.0000 0.0000 15.5600 0.0000 0.0000
# 5 0.0000 0.0000 0.0000 0.0000 22.8498 0.0000
# 6 0.0000 0.0000 0.0000 0.0000 0.0000 4.6488
#
#
#
# Elastic Compliance Matrix: (Units=1/GPa)
#
#
# Indices 1 2 3 4 5 6 
#
# 1 0.007339 -0.000735 -0.005764 0.000000 0.000000 0.000000
# 2 -0.000735 0.014307 0.002724 0.000000 0.000000 0.000000
# 3 -0.005764 0.002724 0.021588 0.000000 0.000000 0.000000
# 4 0.000000 0.000000 0.000000 0.064268 0.000000 0.000000
# 5 0.000000 0.000000 0.000000 0.000000 0.043764 0.000000
# 6 0.000000 0.000000 0.000000 0.000000 0.000000 0.215109
#
#
# Mechanical properties :
#
#
# Convention : Reuss Voigt Hill
#
# Bulk Modulus (GPa) = 28.02452 42.00222 35.01337
# Shear Modulus (GPa) = 12.95941 26.39051 19.67496
#
# Velocity S-wave (km/s) = 2.42258 3.45708 2.98498
# Velocity P-wave (km/s) = 4.52952 5.91241 5.26655
#
# Compressibility (1/GPa) = 0.03568304
#
# Stress axis : x y z
#
# Youngs Moduli (GPa) = 136.26531 69.89423 46.32196
#
# Poissons Ratio (x) = 0.05136 0.26702
# Poissons Ratio (y) = 0.10013 -0.12617
# Poissons Ratio (z) = 0.78549 -0.19037
#
# Static dielectric constant tensor:
#      x y z
#    x 1.825700 0.000000 0.000000 
#    y 0.000000 1.853710 0.000000 
#    z 0.000000 0.000000 1.823670 
# 
# From -- ./inp_files/18864.got.cif
#   From: 2010.05.17/outbox.cif.g08.bks.cpg/sg51_10_cif.got.tgz:18864.got - 2010.06.03 11:52:47.
