data_PCOD9399968
_publ_section_title
;
Structure prediction by ZEFSAII (Michael W. Deem and Ramdas Pophale) SiO2 
 PCOD9399968
Probable space group: P M M A
;
_chemical_formula_sum "Si O2"
_cell_formula_units_Z 64
_cell_length_a 27.142516
_cell_length_b 9.024137
_cell_length_c 18.734551
_cell_angle_alpha 90.000000
_cell_angle_beta 90.000000
_cell_angle_gamma 90.000000
_cell_volume 4588.799386
_symmetry_space_group_name_H-M "P M M A"
_symmetry_group_IT_number 51
_symmetry_cell_setting 'orthorhombic'
loop_
_space_group_symop_operation_xyz
x,y,z
1/2-x,-y,z
1/2+x,-y,-z
-x,y,-z
-x,-y,-z
1/2+x,y,-z
1/2-x,y,z
x,-y,z
loop_
_atom_site_type_symbol
_atom_site_label
_atom_site_fract_x
_atom_site_fract_y
_atom_site_fract_z
Si Si1 0.451597 0.829949 0.550981
Si Si2 0.898639 0.178916 0.913912
Si Si3 0.692171 0.323563 0.667186
Si Si4 0.048872 0.828899 0.949680
Si Si5 0.490055 0.323409 0.167739
Si Si6 0.104565 0.178431 0.414804
Si Si7 0.693262 0.822768 0.819838
Si Si8 0.987696 0.323382 0.665970
O O1 0.500000 0.830237 0.500000
O O2 0.408685 0.781468 0.496823
O O3 0.466566 0.730405 0.617691
O O4 0.443275 0.000000 0.573601
O O5 0.940783 0.249832 0.864517
O O6 0.845780 0.215891 0.880942
O O7 0.904798 0.000000 0.912062
O O8 0.908746 0.223902 0.995959
O O9 0.750000 0.293691 0.652947
O O10 0.684335 0.500000 0.665535
O O11 0.655747 0.243260 0.612727
O O12 0.681463 0.261690 0.746515
O O13 0.035083 0.734947 0.880619
O O14 0.057429 0.000000 0.929508
O O15 0.000000 0.825732 0.000000
O O16 0.486253 0.500000 0.160917
O O17 0.494648 0.285640 0.251045
O O18 0.061050 0.244306 0.365231
O O19 0.103457 0.000000 0.409888
O O20 0.750000 0.790275 0.839004
O O21 0.689455 0.000000 0.806688
O O22 0.981554 0.500000 0.659287
#
# Coordination Sequence:
#
# PCOD9399968 Si02
#       8
#     8   8   8   8   8   8   8   8
#     4   8  16  29  42  58  79 103 133 166 197 233
#     4   9  17  28  41  57  77 103 135 165 195 233
#     4  10  20  31  42  59  83 108 136 170 202 233
#     4   8  15  27  40  54  74 101 131 162 196 233
#     4  10  19  27  37  57  81 104 133 164 194 231
#     4  10  19  30  44  60  79 106 139 169 198 236
#     4   9  17  29  44  60  79 105 135 166 199 233
#     4  10  19  28  40  60  84 108 134 164 199 239
#
# _framework density 13.947001999999999
#
# number of rings (size 3 to 8) (size 9 to 14) (size 15 to 20)
#    0.000    2.750    0.000    3.750    0.000   10.250 
#    0.000    0.000    0.000    0.000    0.000    0.000 
#    0.000    1.000    0.000    9.000    0.000    4.250 
#
# Total GULP energy -356471.342580 kJ/mol
# GULP energy per Si atom -5569.864728 kJ/mol
# Density = 1.391526 g / cm^3
# Si number density = 13.947002 Si / 1000 Ang^3
#
#
#
# Elastic Constant Matrix: (Units=GPa)
#
#
# Indices 1 2 3 4 5 6 
#
# 1 65.1893 27.1971 43.8229 0.0000 0.0000 0.0000
# 2 27.1971 39.0097 42.2196 0.0000 0.0000 0.0000
# 3 43.8229 42.2196 90.4314 0.0000 0.0000 0.0000
# 4 0.0000 0.0000 0.0000 33.1485 0.0000 0.0000
# 5 0.0000 0.0000 0.0000 0.0000 28.0699 0.0000
# 6 0.0000 0.0000 0.0000 0.0000 0.0000 -142.6745
#
#
#
# Elastic Compliance Matrix: (Units=1/GPa)
#
#
# Indices 1 2 3 4 5 6 
#
# 1 0.024038 -0.008392 -0.007731 0.000000 0.000000 0.000000
# 2 -0.008392 0.054747 -0.021493 0.000000 0.000000 0.000000
# 3 -0.007731 -0.021493 0.024839 0.000000 0.000000 0.000000
# 4 0.000000 0.000000 0.000000 0.030167 0.000000 0.000000
# 5 0.000000 0.000000 0.000000 0.000000 0.035625 0.000000
# 6 0.000000 0.000000 0.000000 0.000000 0.000000 -0.007009
#
#
# Mechanical properties :
#
#
# Convention : Reuss Voigt Hill
#
# Bulk Modulus (GPa) = 35.22089 46.78996 41.00542
# Shear Modulus (GPa) = 20.23451 -10.86516 4.68467
#
# Velocity S-wave (km/s) = 3.81309 -2.79414 1.83472
# Velocity P-wave (km/s) = 6.68539 4.81784 5.82692
#
# Compressibility (1/GPa) = 0.02839224
#
# Stress axis : x y z
#
# Youngs Moduli (GPa) = 41.60063 18.26593 40.25971
#
# Poissons Ratio (x) = 0.15329 0.31124
# Poissons Ratio (y) = 0.34912 0.86529
# Poissons Ratio (z) = 0.32161 0.39258
#
# Static dielectric constant tensor:
#      x y z
#    x 1.459060 0.000000 0.000000 
#    y 0.000000 1.467330 0.000000 
#    z 0.000000 0.000000 1.458270 
# 
# From -- ./inp_files/30979.got.cif
#   From: 2010.05.17/outbox.cif.g08.bks.cpg/sg51_16_cif.got.tgz:30979.got - 2010.06.03 11:52:47.
