data_PCOD9399973
_publ_section_title
;
Structure prediction by ZEFSAII (Michael W. Deem and Ramdas Pophale) SiO2 
 PCOD9399973
Probable space group: P M M A
;
_chemical_formula_sum "Si O2"
_cell_formula_units_Z 64
_cell_length_a 9.082721
_cell_length_b 18.583765
_cell_length_c 27.027598
_cell_angle_alpha 90.000000
_cell_angle_beta 90.000000
_cell_angle_gamma 90.000000
_cell_volume 4562.019419
_symmetry_space_group_name_H-M "P M M A"
_symmetry_group_IT_number 51
_symmetry_cell_setting 'orthorhombic'
loop_
_space_group_symop_operation_xyz
x,y,z
1/2-x,-y,z
1/2+x,-y,-z
-x,y,-z
-x,-y,-z
1/2+x,y,-z
1/2-x,y,z
x,-y,z
loop_
_atom_site_type_symbol
_atom_site_label
_atom_site_fract_x
_atom_site_fract_y
_atom_site_fract_z
Si Si1 0.576317 0.913401 0.847675
Si Si2 0.418422 0.795416 0.600463
Si Si3 0.081588 0.703538 0.702732
Si Si4 0.076202 0.416197 0.352601
Si Si5 0.072755 0.349110 0.551146
Si Si6 0.427354 0.846887 0.751669
Si Si7 0.419948 0.087560 0.949776
Si Si8 0.924971 0.916204 0.655111
O O1 0.750000 0.897434 0.846277
O O2 0.492697 0.876799 0.802267
O O3 0.506379 0.891493 0.900198
O O4 0.559717 0.000000 0.843056
O O5 0.250000 0.817450 0.590477
O O6 0.417576 0.750146 0.651867
O O7 0.465728 0.735181 0.561125
O O8 0.517935 0.864129 0.611538
O O9 0.250000 0.680820 0.711989
O O10 0.034959 0.762598 0.743006
O O11 0.980949 0.635592 0.691027
O O12 0.250000 0.404597 0.360425
O O13 0.050629 0.500000 0.342127
O O14 0.990508 0.393350 0.402470
O O15 0.250000 0.354631 0.550137
O O16 0.000000 0.372941 0.500000
O O17 0.250000 0.852967 0.750171
O O18 0.495104 0.891122 0.705600
O O19 0.250000 0.110605 0.948285
O O20 0.420368 0.000000 0.950693
O O21 0.500000 0.111601 0.000000
O O22 0.750000 0.907239 0.661438
O O23 0.956315 0.000000 0.645738
#
# Coordination Sequence:
#
# PCOD9399973 Si02
#       8
#     8   8   8   8   8   8   8   8
#     4  10  19  28  38  55  79 106 139 179 219 255
#     4   8  16  30  45  61  79 101 130 159 190 232
#     4   8  16  30  45  61  81 106 135 163 193 233
#     4  10  20  32  47  68  90 110 133 159 187 223
#     4  10  20  33  49  67  85 106 131 158 191 230
#     4  10  19  29  41  58  80 106 136 168 204 245
#     4   9  16  26  39  53  71  99 136 177 219 259
#     4  10  19  28  40  60  82 103 129 162 200 240
#
# _framework density 14.028874999999999
#
# number of rings (size 3 to 8) (size 9 to 14) (size 15 to 20)
#    0.000    2.625    0.000    4.125    0.000   11.500 
#    0.000    0.000    0.000    0.375    0.000    0.000 
#    0.000    0.000    0.000    0.000    0.000    0.625 
#
# Total GULP energy -356579.056424 kJ/mol
# GULP energy per Si atom -5571.547757 kJ/mol
# Density = 1.399694 g / cm^3
# Si number density = 14.028875 Si / 1000 Ang^3
#
#
#
# Elastic Constant Matrix: (Units=GPa)
#
#
# Indices 1 2 3 4 5 6 
#
# 1 74.7203 49.2350 22.1961 0.0000 0.0000 0.0000
# 2 49.2350 69.0053 15.6825 0.0000 0.0000 0.0000
# 3 22.1961 15.6825 30.6860 0.0000 0.0000 0.0000
# 4 0.0000 0.0000 0.0000 10.5893 0.0000 0.0000
# 5 0.0000 0.0000 0.0000 0.0000 22.0396 0.0000
# 6 0.0000 0.0000 0.0000 0.0000 0.0000 21.2088
#
#
#
# Elastic Compliance Matrix: (Units=1/GPa)
#
#
# Indices 1 2 3 4 5 6 
#
# 1 0.028470 -0.017688 -0.011554 0.000000 0.000000 0.000000
# 2 -0.017688 0.027385 -0.001201 0.000000 0.000000 0.000000
# 3 -0.011554 -0.001201 0.041559 0.000000 0.000000 0.000000
# 4 0.000000 0.000000 0.000000 0.094435 0.000000 0.000000
# 5 0.000000 0.000000 0.000000 0.000000 0.045373 0.000000
# 6 0.000000 0.000000 0.000000 0.000000 0.000000 0.047150
#
#
# Mechanical properties :
#
#
# Convention : Reuss Voigt Hill
#
# Bulk Modulus (GPa) = 27.37582 38.73767 33.05674
# Shear Modulus (GPa) = 13.98862 16.58743 15.28803
#
# Velocity S-wave (km/s) = 3.16116 3.44230 3.30472
# Velocity P-wave (km/s) = 5.73413 6.59333 6.17868
#
# Compressibility (1/GPa) = 0.03652859
#
# Stress axis : x y z
#
# Youngs Moduli (GPa) = 35.12453 36.51680 24.06200
#
# Poissons Ratio (x) = 0.64589 0.27801
# Poissons Ratio (y) = 0.62127 0.02891
# Poissons Ratio (z) = 0.40582 0.04387
#
# Static dielectric constant tensor:
#      x y z
#    x 1.470760 0.000000 0.000000 
#    y 0.000000 1.459900 0.000000 
#    z 0.000000 0.000000 1.449640 
# 
# From -- ./inp_files/36404.got.cif
#   From: 2010.05.17/outbox.cif.g08.bks.cpg/sg51_19_cif.got.tgz:36404.got - 2010.06.03 11:52:47.
