data_PCOD9399483
_publ_section_title
;
Structure prediction by ZEFSAII (Michael W. Deem and Ramdas Pophale) SiO2 
 PCOD9399483
Probable space group: P M M A
;
_chemical_formula_sum "Si O2"
_cell_formula_units_Z 64
_cell_length_a 30.302674
_cell_length_b 8.727411
_cell_length_c 15.091887
_cell_angle_alpha 90.000000
_cell_angle_beta 90.000000
_cell_angle_gamma 90.000000
_cell_volume 3991.259149
_symmetry_space_group_name_H-M "P M M A"
_symmetry_group_IT_number 51
_symmetry_cell_setting 'orthorhombic'
loop_
_space_group_symop_operation_xyz
x,y,z
1/2-x,-y,z
1/2+x,-y,-z
-x,y,-z
-x,-y,-z
1/2+x,y,-z
1/2-x,y,z
x,-y,z
loop_
_atom_site_type_symbol
_atom_site_label
_atom_site_fract_x
_atom_site_fract_y
_atom_site_fract_z
Si Si1 0.937697 0.318127 0.956135
Si Si2 0.800056 0.180586 0.694820
Si Si3 0.391520 0.183257 0.545590
Si Si4 0.444439 0.183881 0.366771
Si Si5 0.027518 0.183016 0.873153
Si Si6 0.700116 0.317641 0.500601
Si Si7 0.615108 0.183604 0.803940
Si Si8 0.537476 0.682353 0.321729
O O1 0.941003 0.500000 0.966057
O O2 0.897831 0.270073 0.892840
O O3 0.981156 0.255128 0.905380
O O4 0.938176 0.238878 0.052125
O O5 0.750000 0.197847 0.727375
O O6 0.804577 0.274164 0.604304
O O7 0.836825 0.222026 0.765947
O O8 0.807131 0.000000 0.672283
O O9 0.413678 0.223637 0.450348
O O10 0.341061 0.238856 0.547181
O O11 0.421705 0.259359 0.620216
O O12 0.393177 0.000000 0.553861
O O13 0.419106 0.221399 0.275480
O O14 0.491714 0.264451 0.367506
O O15 0.451335 0.000000 0.368378
O O16 0.038119 0.242500 0.775571
O O17 0.023611 0.000000 0.873549
O O18 0.750000 0.268269 0.474297
O O19 0.697249 0.500000 0.489995
O O20 0.612345 0.000000 0.818382
O O21 0.537972 0.500000 0.313841
#
# Coordination Sequence:
#
# PCOD9399483 Si02
#       8
#     8   8   8   8   8   8   8   8
#     4  11  21  33  51  76 101 129 165 209 253 299
#     4   9  17  31  51  73  99 134 174 212 251 300
#     4  11  22  37  54  73  99 138 179 214 252 304
#     4  10  20  34  50  71 102 140 178 212 246 296
#     4  11  21  36  54  72  97 132 168 208 251 299
#     4  10  20  33  50  74 103 132 166 213 263 305
#     4  10  18  31  50  74 103 137 172 209 252 302
#     4  12  24  36  51  74 103 136 173 217 258 302
#
# _framework density 16.035039000000001
#
# number of rings (size 3 to 8) (size 9 to 14) (size 15 to 20)
#    0.000    1.500    2.500    5.250    0.000    3.750 
#    0.000    0.000    0.000    0.000    0.000    0.875 
#    0.000    5.000    0.000    0.000    0.000    0.000 
#
# Total GULP energy -357411.513353 kJ/mol
# GULP energy per Si atom -5584.554896 kJ/mol
# Density = 1.599854 g / cm^3
# Si number density = 16.035039 Si / 1000 Ang^3
#
#
#
# Elastic Constant Matrix: (Units=GPa)
#
#
# Indices 1 2 3 4 5 6 
#
# 1 99.3532 36.2724 30.8788 0.0000 0.0000 0.0000
# 2 36.2724 67.2422 24.8870 0.0000 0.0000 0.0000
# 3 30.8788 24.8870 57.9034 0.0000 0.0000 0.0000
# 4 0.0000 0.0000 0.0000 14.2167 0.0000 0.0000
# 5 0.0000 0.0000 0.0000 0.0000 20.9741 0.0000
# 6 0.0000 0.0000 0.0000 0.0000 0.0000 16.1288
#
#
#
# Elastic Compliance Matrix: (Units=1/GPa)
#
#
# Indices 1 2 3 4 5 6 
#
# 1 0.013600 -0.005532 -0.004875 0.000000 0.000000 0.000000
# 2 -0.005532 0.019935 -0.005618 0.000000 0.000000 0.000000
# 3 -0.004875 -0.005618 0.022284 0.000000 0.000000 0.000000
# 4 0.000000 0.000000 0.000000 0.070340 0.000000 0.000000
# 5 0.000000 0.000000 0.000000 0.000000 0.047678 0.000000
# 6 0.000000 0.000000 0.000000 0.000000 0.000000 0.062001
#
#
# Mechanical properties :
#
#
# Convention : Reuss Voigt Hill
#
# Bulk Modulus (GPa) = 42.07055 45.39724 43.73390
# Shear Modulus (GPa) = 18.12837 19.09462 18.61150
#
# Velocity S-wave (km/s) = 3.36601 3.45455 3.41057
# Velocity P-wave (km/s) = 6.43431 6.65467 6.54541
#
# Compressibility (1/GPa) = 0.02376960
#
# Stress axis : x y z
#
# Youngs Moduli (GPa) = 73.53031 50.16309 44.87427
#
# Poissons Ratio (x) = 0.27750 0.21876
# Poissons Ratio (y) = 0.40676 0.25211
# Poissons Ratio (z) = 0.35845 0.28182
#
# Static dielectric constant tensor:
#      x y z
#    x 1.544230 0.000000 0.000000 
#    y 0.000000 1.540070 0.000000 
#    z 0.000000 0.000000 1.523130 
# 
# From -- ./inp_files/26703.got.cif
#   From: 2010.05.17/outbox.cif.g08.bks.cpg/sg51_14_cif.got.tgz:26703.got - 2010.06.03 11:52:47.
