data_PCOD9399106
_publ_section_title
;
Structure prediction by ZEFSAII (Michael W. Deem and Ramdas Pophale) SiO2 
 PCOD9399106
Probable space group: P M M A
;
_chemical_formula_sum "Si O2"
_cell_formula_units_Z 48
_cell_length_a 14.526183
_cell_length_b 18.380379
_cell_length_c 8.597842
_cell_angle_alpha 90.000000
_cell_angle_beta 90.000000
_cell_angle_gamma 90.000000
_cell_volume 2295.595862
_symmetry_space_group_name_H-M "P M M A"
_symmetry_group_IT_number 51
_symmetry_cell_setting 'orthorhombic'
loop_
_space_group_symop_operation_xyz
x,y,z
1/2-x,-y,z
1/2+x,-y,-z
-x,y,-z
-x,-y,-z
1/2+x,y,-z
1/2-x,y,z
x,-y,z
loop_
_atom_site_type_symbol
_atom_site_label
_atom_site_fract_x
_atom_site_fract_y
_atom_site_fract_z
Si Si1 0.355980 0.804483 0.169643
Si Si2 0.110359 0.586536 0.836561
Si Si3 0.611566 0.414309 0.507475
Si Si4 0.902138 0.643821 0.836661
Si Si5 0.352870 0.915522 0.883896
Si Si6 0.532216 0.080469 0.674804
O O1 0.250000 0.783734 0.192985
O O2 0.412591 0.730567 0.155580
O O3 0.395106 0.856028 0.302804
O O4 0.361434 0.856971 0.020200
O O5 0.124291 0.500000 0.842825
O O6 0.144095 0.611524 0.664524
O O7 0.001134 0.604138 0.835467
O O8 0.144361 0.620006 0.000017
O O9 0.500000 0.407776 0.500000
O O10 0.633454 0.500000 0.520191
O O11 0.641132 0.376465 0.668703
O O12 0.250000 0.906646 0.813008
O O13 0.440576 0.905303 0.775025
O O14 0.357040 0.000000 0.937942
O O15 0.500000 0.077968 0.500000
O O16 0.568679 0.000000 0.717666
#
# Coordination Sequence:
#
# PCOD9399106 Si02
#       6
#     8   8   8   8   8   8
#     4  11  24  38  54  83 123 163 205 245 297 359
#     4   9  17  29  52  83 107 142 200 255 304 361
#     4   8  14  27  48  75 106 138 183 243 300 354
#     4  10  18  29  49  76 111 148 191 242 296 353
#     4   9  19  38  63  88 116 154 197 242 293 357
#     4  10  22  39  63  91 118 153 200 249 302 361
#
# _framework density 20.909606
#
# number of rings (size 3 to 8) (size 9 to 14) (size 15 to 20)
#    0.000    2.500    0.000    4.000    4.667    5.000 
#    0.000    1.667    0.000    4.500    0.000    2.333 
#    0.000    0.000    0.000    0.000    0.000    0.000 
#
# Total GULP energy -267568.579833 kJ/mol
# GULP energy per Si atom -5574.345413 kJ/mol
# Density = 2.086201 g / cm^3
# Si number density = 20.909606 Si / 1000 Ang^3
#
#
#
# Elastic Constant Matrix: (Units=GPa)
#
#
# Indices 1 2 3 4 5 6 
#
# 1 30.6061 -8.9468 11.8968 0.0000 0.0000 0.0000
# 2 -8.9468 72.1305 36.6432 0.0000 0.0000 0.0000
# 3 11.8968 36.6432 159.7489 0.0000 0.0000 0.0000
# 4 0.0000 0.0000 0.0000 61.1576 0.0000 0.0000
# 5 0.0000 0.0000 0.0000 0.0000 -54.4124 0.0000
# 6 0.0000 0.0000 0.0000 0.0000 0.0000 -33.7739
#
#
#
# Elastic Compliance Matrix: (Units=1/GPa)
#
#
# Indices 1 2 3 4 5 6 
#
# 1 0.036257 0.006643 -0.004224 0.000000 0.000000 0.000000
# 2 0.006643 0.016909 -0.004373 0.000000 0.000000 0.000000
# 3 -0.004224 -0.004373 0.007578 0.000000 0.000000 0.000000
# 4 0.000000 0.000000 0.000000 0.016351 0.000000 0.000000
# 5 0.000000 0.000000 0.000000 0.000000 -0.018378 0.000000
# 6 0.000000 0.000000 0.000000 0.000000 0.000000 -0.029609
#
#
# Mechanical properties :
#
#
# Convention : Reuss Voigt Hill
#
# Bulk Modulus (GPa) = 17.59468 37.96354 27.77911
# Shear Modulus (GPa) = 96.22397 9.45376 52.83886
#
# Velocity S-wave (km/s) = 6.79109 2.12863 5.03239
# Velocity P-wave (km/s) = 8.36211 4.92310 6.86155
#
# Compressibility (1/GPa) = 0.05683537
#
# Stress axis : x y z
#
# Youngs Moduli (GPa) = 27.58091 59.13840 131.96854
#
# Poissons Ratio (x) = -0.39286 0.55742
# Poissons Ratio (y) = -0.18322 0.57715
# Poissons Ratio (z) = 0.11650 0.25864
#
# Static dielectric constant tensor:
#      x y z
#    x 1.765900 0.000000 0.000000 
#    y 0.000000 1.704610 0.000000 
#    z 0.000000 0.000000 1.792340 
# 
# From -- ./inp_files/8244.got.cif
#   From: 2010.05.17/outbox.cif.g08.bks.cpg/sg51_5_cif.got.tgz:8244.got - 2010.06.03 11:52:47.
