data_PCOD9399982
_publ_section_title
;
Structure prediction by ZEFSAII (Michael W. Deem and Ramdas Pophale) SiO2 
 PCOD9399982
Probable space group: P M M A
;
_chemical_formula_sum "Si O2"
_cell_formula_units_Z 64
_cell_length_a 9.363311
_cell_length_b 21.587103
_cell_length_c 22.126772
_cell_angle_alpha 90.000000
_cell_angle_beta 90.000000
_cell_angle_gamma 90.000000
_cell_volume 4472.412711
_symmetry_space_group_name_H-M "P M M A"
_symmetry_group_IT_number 51
_symmetry_cell_setting 'orthorhombic'
loop_
_space_group_symop_operation_xyz
x,y,z
1/2-x,-y,z
1/2+x,-y,-z
-x,y,-z
-x,-y,-z
1/2+x,y,-z
1/2-x,y,z
x,-y,z
loop_
_atom_site_type_symbol
_atom_site_label
_atom_site_fract_x
_atom_site_fract_y
_atom_site_fract_z
Si Si1 0.579487 0.428993 0.436829
Si Si2 0.412602 0.845160 0.156904
Si Si3 0.914324 0.573381 0.781591
Si Si4 0.585459 0.653422 0.132528
Si Si5 0.089534 0.740874 0.054070
Si Si6 0.584131 0.074437 0.062592
Si Si7 0.578039 0.351406 0.320316
Si Si8 0.414360 0.758376 0.761119
O O1 0.500000 0.419195 0.500000
O O2 0.750000 0.426980 0.446395
O O3 0.545519 0.500000 0.415825
O O4 0.544421 0.376985 0.386950
O O5 0.250000 0.866376 0.168724
O O6 0.403673 0.788968 0.108818
O O7 0.507075 0.895036 0.120482
O O8 0.487424 0.814415 0.215511
O O9 0.750000 0.595247 0.785288
O O10 0.915570 0.500000 0.775936
O O11 0.001855 0.595855 0.839686
O O12 0.993074 0.604177 0.724946
O O13 0.750000 0.640578 0.118684
O O14 0.498944 0.682214 0.077312
O O15 0.583511 0.705999 0.185726
O O16 0.250000 0.725620 0.035281
O O17 0.000000 0.769716 0.000000
O O18 0.750000 0.095175 0.058102
O O19 0.583036 0.000000 0.069120
O O20 0.500000 0.088030 0.000000
O O21 0.750000 0.358369 0.311294
O O22 0.543964 0.281117 0.298701
O O23 0.250000 0.779173 0.755195
#
# Coordination Sequence:
#
# PCOD9399982 Si02
#       8
#     8   8   8   8   8   8   8   8
#     4   9  17  28  41  58  82 112 145 178 210 246
#     4  10  19  29  43  62  83 106 131 163 201 239
#     4  10  19  28  40  59  79  97 119 152 194 237
#     4   9  17  29  43  57  74  96 121 151 189 233
#     4  10  19  29  42  60  79  98 122 153 191 234
#     4  10  20  32  45  61  83 112 144 176 207 240
#     4   9  17  29  44  60  79 105 136 169 204 242
#     4   8  15  27  42  59  78 100 128 164 203 241
#
# _framework density 14.309949
#
# number of rings (size 3 to 8) (size 9 to 14) (size 15 to 20)
#    0.000    2.625    0.000    3.375    0.000    8.250 
#    0.000    1.250    0.000    0.375    0.000    0.000 
#    0.000    0.000    0.000    0.000    0.000    0.625 
#
# Total GULP energy -356364.950859 kJ/mol
# GULP energy per Si atom -5568.202357 kJ/mol
# Density = 1.427738 g / cm^3
# Si number density = 14.309949 Si / 1000 Ang^3
#
#
#
# Elastic Constant Matrix: (Units=GPa)
#
#
# Indices 1 2 3 4 5 6 
#
# 1 90.4802 36.0001 33.0383 0.0000 0.0000 0.0000
# 2 36.0001 43.9969 30.2376 0.0000 0.0000 0.0000
# 3 33.0383 30.2376 52.5555 0.0000 0.0000 0.0000
# 4 0.0000 0.0000 0.0000 24.3538 0.0000 0.0000
# 5 0.0000 0.0000 0.0000 0.0000 20.5860 0.0000
# 6 0.0000 0.0000 0.0000 0.0000 0.0000 15.7176
#
#
#
# Elastic Compliance Matrix: (Units=1/GPa)
#
#
# Indices 1 2 3 4 5 6 
#
# 1 0.016990 -0.010853 -0.004436 0.000000 0.000000 0.000000
# 2 -0.010853 0.044527 -0.018796 0.000000 0.000000 0.000000
# 3 -0.004436 -0.018796 0.032630 0.000000 0.000000 0.000000
# 4 0.000000 0.000000 0.000000 0.041061 0.000000 0.000000
# 5 0.000000 0.000000 0.000000 0.000000 0.048577 0.000000
# 6 0.000000 0.000000 0.000000 0.000000 0.000000 0.063623
#
#
# Mechanical properties :
#
#
# Convention : Reuss Voigt Hill
#
# Bulk Modulus (GPa) = 38.49534 42.84272 40.66903
# Shear Modulus (GPa) = 15.42075 17.98191 16.70133
#
# Velocity S-wave (km/s) = 3.28628 3.54870 3.42001
# Velocity P-wave (km/s) = 6.43110 6.84070 6.63906
#
# Compressibility (1/GPa) = 0.02597717
#
# Stress axis : x y z
#
# Youngs Moduli (GPa) = 58.85702 22.45827 30.64625
#
# Poissons Ratio (x) = 0.24374 0.13596
# Poissons Ratio (y) = 0.63879 0.57602
# Poissons Ratio (z) = 0.26112 0.42212
#
# Static dielectric constant tensor:
#      x y z
#    x 1.495310 0.000000 0.000000 
#    y 0.000000 1.476100 0.000000 
#    z 0.000000 0.000000 1.480080 
# 
# From -- ./inp_files/32624.got.cif
#   From: 2010.05.17/outbox.cif.g08.bks.cpg/sg51_17_cif.got.tgz:32624.got - 2010.06.03 11:52:47.
