data_PCOD9399888
_publ_section_title
;
Structure prediction by ZEFSAII (Michael W. Deem and Ramdas Pophale) SiO2 
 PCOD9399888
Probable space group: P M M A
;
_chemical_formula_sum "Si O2"
_cell_formula_units_Z 48
_cell_length_a 15.178501
_cell_length_b 7.609819
_cell_length_c 18.700790
_cell_angle_alpha 90.000000
_cell_angle_beta 90.000000
_cell_angle_gamma 90.000000
_cell_volume 2160.046817
_symmetry_space_group_name_H-M "P M M A"
_symmetry_group_IT_number 51
_symmetry_cell_setting 'orthorhombic'
loop_
_space_group_symop_operation_xyz
x,y,z
1/2-x,-y,z
1/2+x,-y,-z
-x,y,-z
-x,-y,-z
1/2+x,y,-z
1/2-x,y,z
x,-y,z
loop_
_atom_site_type_symbol
_atom_site_label
_atom_site_fract_x
_atom_site_fract_y
_atom_site_fract_z
Si Si1 0.401033 0.713888 0.019421
Si Si2 0.250000 0.715807 0.911238
Si Si3 0.443393 0.785746 0.430328
Si Si4 0.250000 0.707205 0.747872
Si Si5 0.913711 0.289586 0.820581
Si Si6 0.750000 0.803299 0.565103
Si Si7 0.446452 0.793284 0.707191
Si Si8 0.750000 0.714282 0.725010
O O1 0.393525 0.500000 0.020499
O O2 0.390435 0.777968 0.100597
O O3 0.500000 0.759295 0.000000
O O4 0.333644 0.772523 0.958630
O O5 0.250000 0.500000 0.909094
O O6 0.250000 0.780233 0.829490
O O7 0.500000 0.748110 0.500000
O O8 0.345000 0.717926 0.447303
O O9 0.493474 0.720082 0.358486
O O10 0.434939 0.000000 0.423765
O O11 0.250000 0.500000 0.755716
O O12 0.342638 0.749594 0.709281
O O13 0.909991 0.500000 0.825920
O O14 0.837006 0.233638 0.767415
O O15 0.006791 0.250103 0.782930
O O16 0.750000 0.809568 0.650535
O O17 0.750000 0.000000 0.532390
O O18 0.450955 0.000000 0.698502
O O19 0.750000 0.500000 0.715923
#
# Coordination Sequence:
#
# PCOD9399888 Si02
#       8
#     8   4   8   4   8   4   8   4
#     4   9  16  27  46  73 103 136 181 232 276 319
#     4   9  17  31  52  78 105 139 188 238 276 322
#     4   9  19  35  58  87 114 146 189 235 275 318
#     4  11  23  39  60  82 110 149 190 236 289 339
#     4  10  19  32  53  82 114 147 184 232 285 334
#     4  10  18  34  58  82 110 143 180 220 268 325
#     4  11  22  37  58  84 112 145 190 237 281 336
#     4  10  19  30  50  80 113 143 174 218 273 326
#
# _framework density 22.221741000000002
#
# number of rings (size 3 to 8) (size 9 to 14) (size 15 to 20)
#    0.000    2.167    1.667    2.250    0.000    5.333 
#    0.000    2.500    0.000   11.000    0.000    0.000 
#    0.000    0.000    0.000    0.000    0.000    0.000 
#
# Total GULP energy -267823.863438 kJ/mol
# GULP energy per Si atom -5579.663822 kJ/mol
# Density = 2.217116 g / cm^3
# Si number density = 22.221741 Si / 1000 Ang^3
#
#
#
# Elastic Constant Matrix: (Units=GPa)
#
#
# Indices 1 2 3 4 5 6 
#
# 1 153.4608 -4.5583 48.0123 0.0000 0.0000 0.0000
# 2 -4.5583 42.5064 1.5190 0.0000 0.0000 0.0000
# 3 48.0123 1.5190 80.2750 0.0000 0.0000 0.0000
# 4 0.0000 0.0000 0.0000 12.9864 0.0000 0.0000
# 5 0.0000 0.0000 0.0000 0.0000 32.3634 0.0000
# 6 0.0000 0.0000 0.0000 0.0000 0.0000 20.1130
#
#
#
# Elastic Compliance Matrix: (Units=1/GPa)
#
#
# Indices 1 2 3 4 5 6 
#
# 1 0.008062 0.001038 -0.004841 0.000000 0.000000 0.000000
# 2 0.001038 0.023675 -0.001069 0.000000 0.000000 0.000000
# 3 -0.004841 -0.001069 0.015373 0.000000 0.000000 0.000000
# 4 0.000000 0.000000 0.000000 0.077004 0.000000 0.000000
# 5 0.000000 0.000000 0.000000 0.000000 0.030899 0.000000
# 6 0.000000 0.000000 0.000000 0.000000 0.000000 0.049719
#
#
# Mechanical properties :
#
#
# Convention : Reuss Voigt Hill
#
# Bulk Modulus (GPa) = 26.76275 40.68757 33.72516
# Shear Modulus (GPa) = 22.03301 28.51050 25.27175
#
# Velocity S-wave (km/s) = 3.15224 3.58579 3.37598
# Velocity P-wave (km/s) = 5.03174 5.95763 5.51415
#
# Compressibility (1/GPa) = 0.03736536
#
# Stress axis : x y z
#
# Youngs Moduli (GPa) = 124.04117 42.23810 65.04897
#
# Poissons Ratio (x) = -0.04382 0.31493
# Poissons Ratio (y) = -0.12870 0.06951
# Poissons Ratio (z) = 0.60053 0.04513
#
# Static dielectric constant tensor:
#      x y z
#    x 1.731100 0.000000 0.000000 
#    y 0.000000 1.851050 0.000000 
#    z 0.000000 0.000000 1.829960 
# 
# From -- ./inp_files/29715.got.cif
#   From: 2010.05.17/outbox.cif.g08.bks.cpg/sg51_15_cif.got.tgz:29715.got - 2010.06.03 11:52:47.
