data_PCOD9399854
_publ_section_title
;
Structure prediction by ZEFSAII (Michael W. Deem and Ramdas Pophale) SiO2 
 PCOD9399854
Probable space group: P M M A
;
_chemical_formula_sum "Si O2"
_cell_formula_units_Z 64
_cell_length_a 31.737564
_cell_length_b 7.672319
_cell_length_c 12.136348
_cell_angle_alpha 90.000000
_cell_angle_beta 90.000000
_cell_angle_gamma 90.000000
_cell_volume 2955.209419
_symmetry_space_group_name_H-M "P M M A"
_symmetry_group_IT_number 51
_symmetry_cell_setting 'orthorhombic'
loop_
_space_group_symop_operation_xyz
x,y,z
1/2-x,-y,z
1/2+x,-y,-z
-x,y,-z
-x,-y,-z
1/2+x,y,-z
1/2-x,y,z
x,-y,z
loop_
_atom_site_type_symbol
_atom_site_label
_atom_site_fract_x
_atom_site_fract_y
_atom_site_fract_z
Si Si1 0.335037 0.288849 0.494078
Si Si2 0.537795 0.300414 0.757869
Si Si3 0.796598 0.712748 0.737560
Si Si4 0.067668 0.202407 0.478682
Si Si5 0.797990 0.288825 0.270276
Si Si6 0.121796 0.702902 0.133931
Si Si7 0.053753 0.797581 0.720866
Si Si8 0.374696 0.204902 0.883086
O O1 0.338539 0.500000 0.495548
O O2 0.306719 0.242242 0.389078
O O3 0.381766 0.215434 0.478376
O O4 0.315351 0.232854 0.610114
O O5 0.532216 0.500000 0.793877
O O6 0.549765 0.294226 0.628897
O O7 0.577879 0.220607 0.821354
O O8 0.492569 0.212782 0.771349
O O9 0.750000 0.773683 0.770092
O O10 0.795911 0.500000 0.744369
O O11 0.835769 0.776132 0.810968
O O12 0.053504 0.276862 0.596979
O O13 0.054294 0.000000 0.469593
O O14 0.750000 0.230572 0.254105
O O15 0.798099 0.500000 0.269832
O O16 0.830188 0.228063 0.177233
O O17 0.120333 0.500000 0.169529
O O18 0.124395 0.712178 0.003077
O O19 0.089360 0.722198 0.800905
O O20 0.065662 0.000000 0.704580
O O21 0.382947 0.000000 0.899603
#
# Coordination Sequence:
#
# PCOD9399854 Si02
#       8
#     8   8   8   8   8   8   8   8
#     4  10  18  33  59  90 120 150 192 239 287 346
#     4  11  23  39  61  90 119 149 191 243 295 349
#     4   9  17  33  59  87 117 151 186 233 291 345
#     4  11  21  36  59  86 121 158 190 232 291 354
#     4  10  21  37  61  92 122 154 194 241 293 348
#     4  10  22  40  59  85 117 150 196 248 295 343
#     4  10  23  41  59  84 118 156 194 236 293 354
#     4  11  24  42  61  83 115 157 202 245 290 344
#
# _framework density 21.656673000000001
#
# number of rings (size 3 to 8) (size 9 to 14) (size 15 to 20)
#    0.000    1.750    2.500    1.875    0.000    7.250 
#    0.000    3.750    0.000    1.875    0.000    0.000 
#    0.000    0.000    0.000    0.000    0.000    0.000 
#
# Total GULP energy -357685.914926 kJ/mol
# GULP energy per Si atom -5588.842421 kJ/mol
# Density = 2.160738 g / cm^3
# Si number density = 21.656673 Si / 1000 Ang^3
#
#
#
# Elastic Constant Matrix: (Units=GPa)
#
#
# Indices 1 2 3 4 5 6 
#
# 1 145.1686 -11.3440 37.7634 0.0000 0.0000 0.0000
# 2 -11.3440 38.7881 -11.0951 0.0000 0.0000 0.0000
# 3 37.7634 -11.0951 94.0863 0.0000 0.0000 0.0000
# 4 0.0000 0.0000 0.0000 128.3130 0.0000 0.0000
# 5 0.0000 0.0000 0.0000 0.0000 -73.7182 0.0000
# 6 0.0000 0.0000 0.0000 0.0000 0.0000 23.8041
#
#
#
# Elastic Compliance Matrix: (Units=1/GPa)
#
#
# Indices 1 2 3 4 5 6 
#
# 1 0.007767 0.001428 -0.002949 0.000000 0.000000 0.000000
# 2 0.001428 0.026944 0.002604 0.000000 0.000000 0.000000
# 3 -0.002949 0.002604 0.012119 0.000000 0.000000 0.000000
# 4 0.000000 0.000000 0.000000 0.007793 0.000000 0.000000
# 5 0.000000 0.000000 0.000000 0.000000 -0.013565 0.000000
# 6 0.000000 0.000000 0.000000 0.000000 0.000000 0.042010
#
#
# Mechanical properties :
#
#
# Convention : Reuss Voigt Hill
#
# Bulk Modulus (GPa) = 20.40968 34.29908 27.35438
# Shear Modulus (GPa) = 51.42222 33.19435 42.30828
#
# Velocity S-wave (km/s) = 4.87810 3.91929 4.42474
# Velocity P-wave (km/s) = 6.41657 6.02935 6.22598
#
# Compressibility (1/GPa) = 0.04899635
#
# Stress axis : x y z
#
# Youngs Moduli (GPa) = 128.74459 37.11449 82.51280
#
# Poissons Ratio (x) = -0.05300 0.24334
# Poissons Ratio (y) = -0.18385 -0.21487
# Poissons Ratio (z) = 0.37969 -0.09665
#
# Static dielectric constant tensor:
#      x y z
#    x 1.775720 0.000000 0.000000 
#    y 0.000000 1.820770 0.000000 
#    z 0.000000 0.000000 1.750710 
# 
# From -- ./inp_files/19525.got.cif
#   From: 2010.05.17/outbox.cif.g08.bks.cpg/sg51_10_cif.got.tgz:19525.got - 2010.06.03 11:52:47.
