data_PCOD9399897
_publ_section_title
;
Structure prediction by ZEFSAII (Michael W. Deem and Ramdas Pophale) SiO2 
 PCOD9399897
Probable space group: P M M A
;
_chemical_formula_sum "Si O2"
_cell_formula_units_Z 48
_cell_length_a 15.098589
_cell_length_b 8.577872
_cell_length_c 19.335342
_cell_angle_alpha 90.000000
_cell_angle_beta 90.000000
_cell_angle_gamma 90.000000
_cell_volume 2504.192917
_symmetry_space_group_name_H-M "P M M A"
_symmetry_group_IT_number 51
_symmetry_cell_setting 'orthorhombic'
loop_
_space_group_symop_operation_xyz
x,y,z
1/2-x,-y,z
1/2+x,-y,-z
-x,y,-z
-x,-y,-z
1/2+x,y,-z
1/2-x,y,z
x,-y,z
loop_
_atom_site_type_symbol
_atom_site_label
_atom_site_fract_x
_atom_site_fract_y
_atom_site_fract_z
Si Si1 0.348000 0.189853 0.654148
Si Si2 0.990230 0.816214 0.747488
Si Si3 0.486640 0.315317 0.101138
Si Si4 0.853949 0.187401 0.012491
Si Si5 0.852231 0.678652 0.645980
Si Si6 0.606378 0.819081 0.499716
O O1 0.250000 0.233517 0.676871
O O2 0.422770 0.242134 0.706909
O O3 0.363409 0.241374 0.575088
O O4 0.353963 0.000000 0.651603
O O5 0.976248 0.728452 0.819035
O O6 0.911284 0.788387 0.693580
O O7 0.999758 0.000000 0.762093
O O8 0.484963 0.500000 0.090772
O O9 0.580976 0.251225 0.072629
O O10 0.406385 0.241880 0.056365
O O11 0.750000 0.236966 0.015373
O O12 0.855036 0.000000 0.015328
O O13 0.750000 0.690117 0.666099
O O14 0.881967 0.500000 0.654994
O O15 0.860978 0.725426 0.565806
O O16 0.500000 0.817441 0.500000
O O17 0.635246 0.000000 0.506719
#
# Coordination Sequence:
#
# PCOD9399897 Si02
#       6
#     8   8   8   8   8   8
#     4   9  18  33  55  82 110 143 188 241 291 340
#     4  11  22  39  60  83 115 154 198 241 287 345
#     4  11  23  39  61  91 126 159 191 236 295 349
#     4  10  21  40  67  95 121 155 199 239 277 333
#     4  11  24  39  55  80 114 152 194 243 301 355
#     4  10  18  34  59  84 107 142 193 243 293 348
#
# _framework density 19.167850999999999
#
# number of rings (size 3 to 8) (size 9 to 14) (size 15 to 20)
#    0.000    1.667    1.667    4.500    0.000    5.000 
#    0.000    1.667    0.000    2.500    0.000    0.000 
#    0.000    0.000    0.000    0.000    0.000    0.000 
#
# Total GULP energy -268070.095418 kJ/mol
# GULP energy per Si atom -5584.793655 kJ/mol
# Density = 1.912422 g / cm^3
# Si number density = 19.167851 Si / 1000 Ang^3
#
#
#
# Elastic Constant Matrix: (Units=GPa)
#
#
# Indices 1 2 3 4 5 6 
#
# 1 75.0198 13.4260 -13.5758 0.0000 0.0000 0.0000
# 2 13.4260 48.6526 -1.0276 0.0000 0.0000 0.0000
# 3 -13.5758 -1.0276 45.5667 0.0000 0.0000 0.0000
# 4 0.0000 0.0000 0.0000 157.2272 0.0000 0.0000
# 5 0.0000 0.0000 0.0000 0.0000 -122.5976 0.0000
# 6 0.0000 0.0000 0.0000 0.0000 0.0000 10.9107
#
#
#
# Elastic Compliance Matrix: (Units=1/GPa)
#
#
# Indices 1 2 3 4 5 6 
#
# 1 0.014829 -0.004001 0.004328 0.000000 0.000000 0.000000
# 2 -0.004001 0.021643 -0.000704 0.000000 0.000000 0.000000
# 3 0.004328 -0.000704 0.023219 0.000000 0.000000 0.000000
# 4 0.000000 0.000000 0.000000 0.006360 0.000000 0.000000
# 5 0.000000 0.000000 0.000000 0.000000 -0.008157 0.000000
# 6 0.000000 0.000000 0.000000 0.000000 0.000000 0.091653
#
#
# Mechanical properties :
#
#
# Convention : Reuss Voigt Hill
#
# Bulk Modulus (GPa) = 16.96703 18.54270 17.75487
# Shear Modulus (GPa) = 29.42082 20.46915 24.94499
#
# Velocity S-wave (km/s) = 3.92204 3.27140 3.61140
# Velocity P-wave (km/s) = 5.42041 4.89533 5.16455
#
# Compressibility (1/GPa) = 0.05893782
#
# Stress axis : x y z
#
# Youngs Moduli (GPa) = 67.43553 46.20422 43.06748
#
# Poissons Ratio (x) = 0.18485 -0.18639
# Poissons Ratio (y) = 0.26979 0.03031
# Poissons Ratio (z) = -0.29185 0.03252
#
# Static dielectric constant tensor:
#      x y z
#    x 1.669720 0.000000 0.000000 
#    y 0.000000 1.661140 0.000000 
#    z 0.000000 0.000000 1.638730 
# 
# From -- ./inp_files/29410.got.cif
#   From: 2010.05.17/outbox.cif.g08.bks.cpg/sg51_15_cif.got.tgz:29410.got - 2010.06.03 11:52:47.
