data_PCOD9399572
_publ_section_title
;
Structure prediction by ZEFSAII (Michael W. Deem and Ramdas Pophale) SiO2 
 PCOD9399572
Probable space group: P M M A
;
_chemical_formula_sum "Si O2"
_cell_formula_units_Z 64
_cell_length_a 25.435461
_cell_length_b 7.602514
_cell_length_c 13.326631
_cell_angle_alpha 90.000000
_cell_angle_beta 90.000000
_cell_angle_gamma 90.000000
_cell_volume 2577.016591
_symmetry_space_group_name_H-M "P M M A"
_symmetry_group_IT_number 51
_symmetry_cell_setting 'orthorhombic'
loop_
_space_group_symop_operation_xyz
x,y,z
1/2-x,-y,z
1/2+x,-y,-z
-x,y,-z
-x,-y,-z
1/2+x,y,-z
1/2-x,y,z
x,-y,z
loop_
_atom_site_type_symbol
_atom_site_label
_atom_site_fract_x
_atom_site_fract_y
_atom_site_fract_z
Si Si1 0.530371 0.203075 0.245168
Si Si2 0.187717 0.197458 0.828184
Si Si3 0.056992 0.213600 0.967316
Si Si4 0.078629 0.708766 0.329863
Si Si5 0.689885 0.214456 0.390381
Si Si6 0.693112 0.295238 0.732578
Si Si7 0.419994 0.297319 0.545237
Si Si8 0.337008 0.786435 0.049008
O O1 0.562810 0.273107 0.148877
O O2 0.470878 0.270681 0.256789
O O3 0.559737 0.218012 0.351114
O O4 0.523347 0.000000 0.222305
O O5 0.250000 0.177229 0.816210
O O6 0.173694 0.279694 0.721545
O O7 0.180861 0.274102 0.938415
O O8 0.163283 0.000000 0.831436
O O9 0.102071 0.267782 0.044058
O O10 0.058874 0.000000 0.971920
O O11 0.000000 0.272925 0.000000
O O12 0.085860 0.500000 0.341885
O O13 0.136165 0.781648 0.299702
O O14 0.061097 0.779195 0.439352
O O15 0.750000 0.266721 0.413809
O O16 0.643446 0.281383 0.460122
O O17 0.688686 0.000000 0.388795
O O18 0.750000 0.218070 0.699658
O O19 0.693822 0.500000 0.702769
O O20 0.690751 0.285984 0.853610
O O21 0.436402 0.500000 0.551566
O O22 0.330653 0.000000 0.052611
#
# Coordination Sequence:
#
# PCOD9399572 Si02
#       8
#     8   8   8   8   8   8   8   8
#     4  11  22  38  63  90 115 146 188 240 293 341
#     4   8  14  26  46  72 102 137 174 213 264 324
#     4   9  18  32  52  81 114 145 177 215 265 329
#     4  10  23  42  60  79 109 150 193 237 289 348
#     4   9  18  34  56  82 113 148 188 236 286 336
#     4  10  22  40  59  80 111 151 192 235 284 337
#     4  11  23  38  58  83 113 151 193 237 289 353
#     4  10  18  31  54  80 107 141 181 222 264 320
#
# _framework density 24.834921999999999
#
# number of rings (size 3 to 8) (size 9 to 14) (size 15 to 20)
#    0.000    2.250    0.000    3.750    0.000    7.500 
#    0.000    4.375    0.000    4.125    0.000    0.000 
#    0.000    0.000    0.000    0.000    0.000    0.000 
#
# Total GULP energy -357294.480352 kJ/mol
# GULP energy per Si atom -5582.726255 kJ/mol
# Density = 2.477840 g / cm^3
# Si number density = 24.834922 Si / 1000 Ang^3
#
#
#
# Elastic Constant Matrix: (Units=GPa)
#
#
# Indices 1 2 3 4 5 6 
#
# 1 124.3215 -4.2208 9.4344 0.0000 0.0000 0.0000
# 2 -4.2208 51.5182 -4.6192 0.0000 0.0000 0.0000
# 3 9.4344 -4.6192 64.2973 0.0000 0.0000 0.0000
# 4 0.0000 0.0000 0.0000 13.8465 0.0000 0.0000
# 5 0.0000 0.0000 0.0000 0.0000 33.7993 0.0000
# 6 0.0000 0.0000 0.0000 0.0000 0.0000 19.1520
#
#
#
# Elastic Compliance Matrix: (Units=1/GPa)
#
#
# Indices 1 2 3 4 5 6 
#
# 1 0.008150 0.000564 -0.001155 0.000000 0.000000 0.000000
# 2 0.000564 0.019576 0.001324 0.000000 0.000000 0.000000
# 3 -0.001155 0.001324 0.015817 0.000000 0.000000 0.000000
# 4 0.000000 0.000000 0.000000 0.072220 0.000000 0.000000
# 5 0.000000 0.000000 0.000000 0.000000 0.029586 0.000000
# 6 0.000000 0.000000 0.000000 0.000000 0.000000 0.052214
#
#
# Mechanical properties :
#
#
# Convention : Reuss Voigt Hill
#
# Bulk Modulus (GPa) = 22.21825 26.81396 24.51611
# Shear Modulus (GPa) = 23.68525 29.32908 26.50716
#
# Velocity S-wave (km/s) = 3.09157 3.44024 3.27055
# Velocity P-wave (km/s) = 4.65935 5.15758 4.91478
#
# Compressibility (1/GPa) = 0.04500804
#
# Stress axis : x y z
#
# Youngs Moduli (GPa) = 122.69193 51.08419 63.22164
#
# Poissons Ratio (x) = -0.02882 0.07305
# Poissons Ratio (y) = -0.06922 -0.08368
# Poissons Ratio (z) = 0.14176 -0.06761
#
# Static dielectric constant tensor:
#      x y z
#    x 1.996870 0.000000 0.000000 
#    y 0.000000 1.944320 0.000000 
#    z 0.000000 0.000000 1.994060 
# 
# From -- ./inp_files/26314.got.cif
#   From: 2010.05.17/outbox.cif.g08.bks.cpg/sg51_14_cif.got.tgz:26314.got - 2010.06.03 11:52:47.
