data_PCOD9399259
_publ_section_title
;
Structure prediction by ZEFSAII (Michael W. Deem and Ramdas Pophale) SiO2 
 PCOD9399259
Probable space group: P M M A
;
_chemical_formula_sum "Si O2"
_cell_formula_units_Z 64
_cell_length_a 23.509951
_cell_length_b 7.449696
_cell_length_c 18.251769
_cell_angle_alpha 90.000000
_cell_angle_beta 90.000000
_cell_angle_gamma 90.000000
_cell_volume 3196.651106
_symmetry_space_group_name_H-M "P M M A"
_symmetry_group_IT_number 51
_symmetry_cell_setting 'orthorhombic'
loop_
_space_group_symop_operation_xyz
x,y,z
1/2-x,-y,z
1/2+x,-y,-z
-x,y,-z
-x,-y,-z
1/2+x,y,-z
1/2-x,y,z
x,-y,z
loop_
_atom_site_type_symbol
_atom_site_label
_atom_site_fract_x
_atom_site_fract_y
_atom_site_fract_z
Si Si1 0.088124 0.219127 0.324169
Si Si2 0.050166 0.220402 0.168966
Si Si3 0.568621 0.206132 0.989831
Si Si4 0.811941 0.291566 0.243803
Si Si5 0.421306 0.788225 0.852218
Si Si6 0.686286 0.780832 0.565519
Si Si7 0.147630 0.217150 0.595896
Si Si8 0.481271 0.218765 0.581208
O O1 0.085308 0.276277 0.240073
O O2 0.139644 0.279244 0.375743
O O3 0.029100 0.274406 0.361912
O O4 0.089373 0.000000 0.324968
O O5 0.075516 0.283969 0.091372
O O6 0.983456 0.277061 0.174643
O O7 0.050286 0.000000 0.167726
O O8 0.589218 0.000000 0.985476
O O9 0.500000 0.202945 0.000000
O O10 0.591198 0.286582 0.066042
O O11 0.750000 0.211424 0.223866
O O12 0.809705 0.500000 0.225449
O O13 0.868762 0.226259 0.203004
O O14 0.820104 0.273505 0.331125
O O15 0.430289 0.000000 0.863696
O O16 0.750000 0.726569 0.584938
O O17 0.672109 0.723732 0.482428
O O18 0.684318 0.000000 0.564637
O O19 0.082107 0.277420 0.599940
O O20 0.148482 0.000000 0.595496
O O21 0.500000 0.274557 0.500000
O O22 0.480301 0.000000 0.580908
#
# Coordination Sequence:
#
# PCOD9399259 Si02
#       8
#     8   8   8   8   8   8   8   8
#     4   9  14  20  32  56  90 121 144 172 218 269
#     4   8  13  22  41  71  97 116 143 181 228 274
#     4   7  11  21  40  67  95 114 133 170 217 265
#     4  11  24  37  46  61  90 125 157 192 236 280
#     4   9  16  29  50  72  90 114 151 189 225 270
#     4   9  16  24  35  55  83 114 147 182 216 252
#     4  10  18  30  49  68  86 111 150 195 230 267
#     4   9  14  22  38  65  93 112 140 186 231 263
#
# _framework density 20.020951
#
# number of rings (size 3 to 8) (size 9 to 14) (size 15 to 20)
#    0.000    3.000    1.250    3.000    0.000    3.500 
#    0.000    0.000    0.000    4.500    0.000    3.500 
#    0.000    0.000    0.000    2.875    0.000    2.250 
#
# Total GULP energy -356801.219899 kJ/mol
# GULP energy per Si atom -5575.019061 kJ/mol
# Density = 1.997538 g / cm^3
# Si number density = 20.020951 Si / 1000 Ang^3
#
#
#
# Elastic Constant Matrix: (Units=GPa)
#
#
# Indices 1 2 3 4 5 6 
#
# 1 97.7359 -1.0423 47.7843 0.0000 0.0000 0.0000
# 2 -1.0423 55.9683 -2.4334 0.0000 0.0000 0.0000
# 3 47.7843 -2.4334 154.3855 0.0000 0.0000 0.0000
# 4 0.0000 0.0000 0.0000 -95.5323 0.0000 0.0000
# 5 0.0000 0.0000 0.0000 0.0000 10.9077 0.0000
# 6 0.0000 0.0000 0.0000 0.0000 0.0000 -0.5983
#
#
#
# Elastic Compliance Matrix: (Units=1/GPa)
#
#
# Indices 1 2 3 4 5 6 
#
# 1 0.012056 0.000062 -0.003731 0.000000 0.000000 0.000000
# 2 0.000062 0.017880 0.000263 0.000000 0.000000 0.000000
# 3 -0.003731 0.000263 0.007636 0.000000 0.000000 0.000000
# 4 0.000000 0.000000 0.000000 -0.010468 0.000000 0.000000
# 5 0.000000 0.000000 0.000000 0.000000 0.091678 0.000000
# 6 0.000000 0.000000 0.000000 0.000000 0.000000 -1.671417
#
#
# Mechanical properties :
#
#
# Convention : Reuss Voigt Hill
#
# Bulk Modulus (GPa) = 32.50899 44.07855 38.29377
# Shear Modulus (GPa) = -3.25612 0.54082 -1.35765
#
# Velocity S-wave (km/s) = -1.27667 0.52030 -0.82437
# Velocity P-wave (km/s) = 3.75494 4.73550 4.27344
#
# Compressibility (1/GPa) = 0.03076072
#
# Stress axis : x y z
#
# Youngs Moduli (GPa) = 82.94454 55.92893 130.95699
#
# Poissons Ratio (x) = -0.00349 0.48855
# Poissons Ratio (y) = -0.00517 -0.03438
# Poissons Ratio (z) = 0.30943 -0.01468
#
# Static dielectric constant tensor:
#      x y z
#    x 1.697230 0.000000 0.000000 
#    y 0.000000 1.774480 0.000000 
#    z 0.000000 0.000000 1.726040 
# 
# From -- ./inp_files/30928.got.cif
#   From: 2010.05.17/outbox.cif.g08.bks.cpg/sg51_16_cif.got.tgz:30928.got - 2010.06.03 11:52:47.
