data_PCOD9399529
_publ_section_title
;
Structure prediction by ZEFSAII (Michael W. Deem and Ramdas Pophale) SiO2 
 PCOD9399529
Probable space group: P M M A
;
_chemical_formula_sum "Si O2"
_cell_formula_units_Z 48
_cell_length_a 8.637385
_cell_length_b 20.977167
_cell_length_c 14.875362
_cell_angle_alpha 90.000000
_cell_angle_beta 90.000000
_cell_angle_gamma 90.000000
_cell_volume 2695.235120
_symmetry_space_group_name_H-M "P M M A"
_symmetry_group_IT_number 51
_symmetry_cell_setting 'orthorhombic'
loop_
_space_group_symop_operation_xyz
x,y,z
1/2-x,-y,z
1/2+x,-y,-z
-x,y,-z
-x,-y,-z
1/2+x,y,-z
1/2-x,y,z
x,-y,z
loop_
_atom_site_type_symbol
_atom_site_label
_atom_site_fract_x
_atom_site_fract_y
_atom_site_fract_z
Si Si1 0.564390 0.618578 0.594621
Si Si2 0.935464 0.237750 0.406114
Si Si3 0.935408 0.813272 0.213642
Si Si4 0.435353 0.926111 0.098275
Si Si5 0.563592 0.694231 0.899301
Si Si6 0.438456 0.570101 0.211557
O O1 0.500000 0.593285 0.500000
O O2 0.750000 0.618805 0.590301
O O3 0.505460 0.691286 0.604098
O O4 0.515847 0.582017 0.684780
O O5 0.750000 0.243314 0.411507
O O6 0.976844 0.197588 0.317978
O O7 0.000000 0.211469 0.500000
O O8 0.750000 0.811822 0.205986
O O9 0.998448 0.878309 0.171826
O O10 0.004008 0.754419 0.157159
O O11 0.250000 0.921779 0.096255
O O12 0.479146 0.000000 0.114445
O O13 0.500000 0.907938 0.000000
O O14 0.750000 0.695511 0.900742
O O15 0.511112 0.629134 0.849764
O O16 0.500000 0.696821 0.000000
O O17 0.250000 0.570627 0.210110
O O18 0.490441 0.500000 0.181517
#
# Coordination Sequence:
#
# PCOD9399529 Si02
#       6
#     8   8   8   8   8   8
#     4  10  18  31  52  76 103 136 173 216 269 325
#     4  10  20  33  53  80 110 140 176 220 267 317
#     4  11  22  36  57  84 113 144 180 223 267 316
#     4  10  21  37  58  85 117 151 185 221 264 316
#     4  11  22  37  56  77 104 138 179 227 275 323
#     4   9  19  35  53  73 101 139 179 220 272 329
#
# _framework density 17.809207000000001
#
# number of rings (size 3 to 8) (size 9 to 14) (size 15 to 20)
#    0.000    1.833    1.667    4.000    0.000    3.667 
#    0.000    0.000    0.000    7.500    0.000    0.000 
#    0.000    0.000    0.000    0.000    0.000    0.000 
#
# Total GULP energy -268047.328790 kJ/mol
# GULP energy per Si atom -5584.319350 kJ/mol
# Density = 1.776867 g / cm^3
# Si number density = 17.809207 Si / 1000 Ang^3
#
#
#
# Elastic Constant Matrix: (Units=GPa)
#
#
# Indices 1 2 3 4 5 6 
#
# 1 47.5607 25.9242 38.0693 0.0000 0.0000 0.0000
# 2 25.9242 87.0862 64.3500 0.0000 0.0000 0.0000
# 3 38.0693 64.3500 141.4778 0.0000 0.0000 0.0000
# 4 0.0000 0.0000 0.0000 49.6479 0.0000 0.0000
# 5 0.0000 0.0000 0.0000 0.0000 28.0602 0.0000
# 6 0.0000 0.0000 0.0000 0.0000 0.0000 -8.6232
#
#
#
# Elastic Compliance Matrix: (Units=1/GPa)
#
#
# Indices 1 2 3 4 5 6 
#
# 1 0.027751 -0.004132 -0.005588 0.000000 0.000000 0.000000
# 2 -0.004132 0.017911 -0.007035 0.000000 0.000000 0.000000
# 3 -0.005588 -0.007035 0.011772 0.000000 0.000000 0.000000
# 4 0.000000 0.000000 0.000000 0.020142 0.000000 0.000000
# 5 0.000000 0.000000 0.000000 0.000000 0.035638 0.000000
# 6 0.000000 0.000000 0.000000 0.000000 0.000000 -0.115966
#
#
# Mechanical properties :
#
#
# Convention : Reuss Voigt Hill
#
# Bulk Modulus (GPa) = 41.79897 59.20131 50.50014
# Shear Modulus (GPa) = 129.09423 23.66906 76.38164
#
# Velocity S-wave (km/s) = 8.52319 3.64955 6.55606
# Velocity P-wave (km/s) = 10.97183 7.14654 9.25889
#
# Compressibility (1/GPa) = 0.02392403
#
# Stress axis : x y z
#
# Youngs Moduli (GPa) = 36.03515 55.83121 84.95017
#
# Poissons Ratio (x) = 0.23069 0.47469
# Poissons Ratio (y) = 0.14889 0.59762
# Poissons Ratio (z) = 0.20136 0.39277
#
# Static dielectric constant tensor:
#      x y z
#    x 1.601330 0.000000 0.000000 
#    y 0.000000 1.595260 0.000000 
#    z 0.000000 0.000000 1.606000 
# 
# From -- ./inp_files/21117.got.cif
#   From: 2010.05.17/outbox.cif.g08.bks.cpg/sg51_11_cif.got.tgz:21117.got - 2010.06.03 11:52:47.
