data_PCOD9399782
_publ_section_title
;
Structure prediction by ZEFSAII (Michael W. Deem and Ramdas Pophale) SiO2 
 PCOD9399782
Probable space group: P M M A
;
_chemical_formula_sum "Si O2"
_cell_formula_units_Z 64
_cell_length_a 18.258188
_cell_length_b 15.256007
_cell_length_c 12.093200
_cell_angle_alpha 90.000000
_cell_angle_beta 90.000000
_cell_angle_gamma 90.000000
_cell_volume 3368.525112
_symmetry_space_group_name_H-M "P M M A"
_symmetry_group_IT_number 51
_symmetry_cell_setting 'orthorhombic'
loop_
_space_group_symop_operation_xyz
x,y,z
1/2-x,-y,z
1/2+x,-y,-z
-x,y,-z
-x,-y,-z
1/2+x,y,-z
1/2-x,y,z
x,-y,z
loop_
_atom_site_type_symbol
_atom_site_label
_atom_site_fract_x
_atom_site_fract_y
_atom_site_fract_z
Si Si1 0.960631 0.204224 0.312091
Si Si2 0.167717 0.896955 0.566016
Si Si3 0.106927 0.097746 0.330456
Si Si4 0.830190 0.396736 0.104307
Si Si5 0.566190 0.669304 0.917252
Si Si6 0.067903 0.101132 0.913937
Si Si7 0.335700 0.834010 0.107288
Si Si8 0.462294 0.398420 0.733773
O O1 0.894336 0.162267 0.379944
O O2 0.944594 0.171057 0.184774
O O3 0.968953 0.308335 0.334296
O O4 0.038162 0.161370 0.340467
O O5 0.250000 0.873522 0.601633
O O6 0.160399 0.888606 0.433590
O O7 0.155501 0.000000 0.592710
O O8 0.147422 0.106167 0.213225
O O9 0.075999 0.000000 0.338959
O O10 0.750000 0.354039 0.110752
O O11 0.821158 0.500000 0.107656
O O12 0.885666 0.378786 0.203619
O O13 0.873318 0.376644 0.992572
O O14 0.610071 0.752019 0.871783
O O15 0.527518 0.610729 0.824339
O O16 0.500000 0.694876 0.000000
O O17 0.073063 0.000000 0.872386
O O18 0.137196 0.125331 0.990996
O O19 0.000000 0.103094 0.000000
O O20 0.250000 0.811739 0.103085
O O21 0.461605 0.500000 0.692390
#
# Coordination Sequence:
#
# PCOD9399782 Si02
#       8
#     8   8   8   8   8   8   8   8
#     4  12  22  38  63  89 116 156 206 242 294 354
#     4  10  23  42  64  92 121 148 189 248 303 349
#     4  11  22  40  63  87 116 154 197 244 290 349
#     4   9  17  29  48  76 108 146 194 244 292 340
#     4  10  18  33  50  73 110 154 202 240 287 337
#     4  11  21  35  54  81 124 167 197 231 278 349
#     4  12  23  34  54  86 122 162 200 239 290 349
#     4  10  20  34  55  81 114 150 192 247 299 347
#
# _framework density 18.999414000000002
#
# number of rings (size 3 to 8) (size 9 to 14) (size 15 to 20)
#    0.000    1.375    2.500    4.875    0.000    5.000 
#    0.000    0.000    0.000    1.500    0.000    0.000 
#    0.000    0.000    0.000    0.000    0.000    0.000 
#
# Total GULP energy -356885.371894 kJ/mol
# GULP energy per Si atom -5576.333936 kJ/mol
# Density = 1.895617 g / cm^3
# Si number density = 18.999414 Si / 1000 Ang^3
#
#
#
# Elastic Constant Matrix: (Units=GPa)
#
#
# Indices 1 2 3 4 5 6 
#
# 1 119.5901 30.2606 4.0832 0.0000 0.0000 0.0000
# 2 30.2606 84.4883 6.3409 0.0000 0.0000 0.0000
# 3 4.0832 6.3409 32.6150 0.0000 0.0000 0.0000
# 4 0.0000 0.0000 0.0000 14.1474 0.0000 0.0000
# 5 0.0000 0.0000 0.0000 0.0000 19.3303 0.0000
# 6 0.0000 0.0000 0.0000 0.0000 0.0000 24.5709
#
#
#
# Elastic Compliance Matrix: (Units=1/GPa)
#
#
# Indices 1 2 3 4 5 6 
#
# 1 0.009204 -0.003258 -0.000519 0.000000 0.000000 0.000000
# 2 -0.003258 0.013164 -0.002152 0.000000 0.000000 0.000000
# 3 -0.000519 -0.002152 0.031144 0.000000 0.000000 0.000000
# 4 0.000000 0.000000 0.000000 0.070684 0.000000 0.000000
# 5 0.000000 0.000000 0.000000 0.000000 0.051732 0.000000
# 6 0.000000 0.000000 0.000000 0.000000 0.000000 0.040699
#
#
# Mechanical properties :
#
#
# Convention : Reuss Voigt Hill
#
# Bulk Modulus (GPa) = 24.00614 35.34032 29.67323
# Shear Modulus (GPa) = 20.62973 24.67695 22.65334
#
# Velocity S-wave (km/s) = 3.29874 3.60783 3.45674
# Velocity P-wave (km/s) = 5.21263 5.99970 5.61996
#
# Compressibility (1/GPa) = 0.04165602
#
# Stress axis : x y z
#
# Youngs Moduli (GPa) = 108.64965 75.96379 32.10891
#
# Poissons Ratio (x) = 0.24746 0.01666
# Poissons Ratio (y) = 0.35393 0.06908
# Poissons Ratio (z) = 0.05638 0.16344
#
# Static dielectric constant tensor:
#      x y z
#    x 1.687720 0.000000 0.000000 
#    y 0.000000 1.732970 0.000000 
#    z 0.000000 0.000000 1.706740 
# 
# From -- ./inp_files/17523.got.cif
#   From: 2010.05.17/outbox.cif.g08.bks.cpg/sg51_9_cif.got.tgz:17523.got - 2010.06.03 11:52:47.
