data_PCOD9399117
_publ_section_title
;
Structure prediction by ZEFSAII (Michael W. Deem and Ramdas Pophale) SiO2 
 PCOD9399117
Probable space group: P M M A
;
_chemical_formula_sum "Si O2"
_cell_formula_units_Z 56
_cell_length_a 8.809574
_cell_length_b 14.758693
_cell_length_c 24.130918
_cell_angle_alpha 90.000000
_cell_angle_beta 90.000000
_cell_angle_gamma 90.000000
_cell_volume 3137.448825
_symmetry_space_group_name_H-M "P M M A"
_symmetry_group_IT_number 51
_symmetry_cell_setting 'orthorhombic'
loop_
_space_group_symop_operation_xyz
x,y,z
1/2-x,-y,z
1/2+x,-y,-z
-x,y,-z
-x,-y,-z
1/2+x,y,-z
1/2-x,y,z
x,-y,z
loop_
_atom_site_type_symbol
_atom_site_label
_atom_site_fract_x
_atom_site_fract_y
_atom_site_fract_z
Si Si1 0.932896 0.394985 0.440429
Si Si2 0.433849 0.714407 0.667516
Si Si3 0.568668 0.604842 0.109573
Si Si4 0.928562 0.891530 0.155431
Si Si5 0.570470 0.222922 0.942696
Si Si6 0.565268 0.897799 0.281490
Si Si7 0.927667 0.608134 0.770910
O O1 0.750000 0.391698 0.443568
O O2 0.976202 0.500000 0.429109
O O3 0.982706 0.331078 0.390046
O O4 0.000000 0.369499 0.500000
O O5 0.250000 0.709500 0.669895
O O6 0.479786 0.818903 0.676553
O O7 0.500018 0.659122 0.719165
O O8 0.750000 0.612183 0.106288
O O9 0.525431 0.500000 0.098923
O O10 0.492258 0.676427 0.069088
O O11 0.514372 0.628130 0.171882
O O12 0.750000 0.867128 0.151085
O O13 0.980061 0.872351 0.218524
O O14 0.018675 0.838212 0.108934
O O15 0.940630 0.000000 0.148056
O O16 0.750000 0.224664 0.946907
O O17 0.500000 0.188199 0.000000
O O18 0.750000 0.900692 0.280527
O O19 0.512684 0.000000 0.293817
O O20 0.750000 0.631052 0.777075
O O21 0.939682 0.500000 0.761746
#
# Coordination Sequence:
#
# PCOD9399117 Si02
#       7
#     8   8   8   8   8   8   8
#     4   9  18  31  46  67  97 134 176 217 256 300
#     4  10  18  29  50  76 101 132 171 214 255 299
#     4  10  21  38  58  77 101 135 172 211 256 306
#     4   9  18  35  58  81 106 135 167 206 255 313
#     4  12  25  39  56  77 103 134 171 215 260 311
#     4   8  15  29  51  78 103 127 158 199 249 303
#     4  10  20  32  48  75 108 136 163 200 251 309
#
# _framework density 17.848897000000001
#
# number of rings (size 3 to 8) (size 9 to 14) (size 15 to 20)
#    0.000    2.286    0.000    4.286    0.000    4.857 
#    0.000    1.429    0.000    1.714    0.000    0.000 
#    0.000    0.000    0.000    0.000    0.000    0.000 
#
# Total GULP energy -312633.929984 kJ/mol
# GULP energy per Si atom -5582.748750 kJ/mol
# Density = 1.780827 g / cm^3
# Si number density = 17.848897 Si / 1000 Ang^3
#
#
#
# Elastic Constant Matrix: (Units=GPa)
#
#
# Indices 1 2 3 4 5 6 
#
# 1 46.9343 27.5341 25.8020 0.0000 0.0000 0.0000
# 2 27.5341 70.4668 64.3582 0.0000 0.0000 0.0000
# 3 25.8020 64.3582 94.8115 0.0000 0.0000 0.0000
# 4 0.0000 0.0000 0.0000 19.7936 0.0000 0.0000
# 5 0.0000 0.0000 0.0000 0.0000 26.8464 0.0000
# 6 0.0000 0.0000 0.0000 0.0000 0.0000 16.9454
#
#
#
# Elastic Compliance Matrix: (Units=1/GPa)
#
#
# Indices 1 2 3 4 5 6 
#
# 1 0.027652 -0.010346 -0.000502 0.000000 0.000000 0.000000
# 2 -0.010346 0.041212 -0.025159 0.000000 0.000000 0.000000
# 3 -0.000502 -0.025159 0.027762 0.000000 0.000000 0.000000
# 4 0.000000 0.000000 0.000000 0.050522 0.000000 0.000000
# 5 0.000000 0.000000 0.000000 0.000000 0.037249 0.000000
# 6 0.000000 0.000000 0.000000 0.000000 0.000000 0.059013
#
#
# Mechanical properties :
#
#
# Convention : Reuss Voigt Hill
#
# Bulk Modulus (GPa) = 40.63219 49.73348 45.18284
# Shear Modulus (GPa) = 15.44987 19.01829 17.23408
#
# Velocity S-wave (km/s) = 2.94529 3.26777 3.11071
# Velocity P-wave (km/s) = 5.86347 6.49321 6.18636
#
# Compressibility (1/GPa) = 0.02461103
#
# Stress axis : x y z
#
# Youngs Moduli (GPa) = 36.16370 24.26501 36.02051
#
# Poissons Ratio (x) = 0.25104 0.01810
# Poissons Ratio (y) = 0.37414 0.90624
# Poissons Ratio (z) = 0.01817 0.61048
#
# Static dielectric constant tensor:
#      x y z
#    x 1.597620 0.000000 0.000000 
#    y 0.000000 1.628600 0.000000 
#    z 0.000000 0.000000 1.583980 
# 
# From -- ./inp_files/31938.got.cif
#   From: 2010.05.17/outbox.cif.g08.bks.cpg/sg51_16_cif.got.tgz:31938.got - 2010.06.03 11:52:47.
