data_PCOD9399357
_publ_section_title
;
Structure prediction by ZEFSAII (Michael W. Deem and Ramdas Pophale) SiO2 
 PCOD9399357
Probable space group: P M M A
;
_chemical_formula_sum "Si O2"
_cell_formula_units_Z 48
_cell_length_a 8.670234
_cell_length_b 31.806866
_cell_length_c 9.625611
_cell_angle_alpha 90.000000
_cell_angle_beta 90.000000
_cell_angle_gamma 90.000000
_cell_volume 2654.483343
_symmetry_space_group_name_H-M "P M M A"
_symmetry_group_IT_number 51
_symmetry_cell_setting 'orthorhombic'
loop_
_space_group_symop_operation_xyz
x,y,z
1/2-x,-y,z
1/2+x,-y,-z
-x,y,-z
-x,-y,-z
1/2+x,y,-z
1/2-x,y,z
x,-y,z
loop_
_atom_site_type_symbol
_atom_site_label
_atom_site_fract_x
_atom_site_fract_y
_atom_site_fract_z
Si Si1 0.564850 0.700223 0.156206
Si Si2 0.565367 0.379661 0.345496
Si Si3 0.065601 0.212201 0.157564
Si Si4 0.064318 0.874882 0.843855
Si Si5 0.435950 0.047078 0.654443
Si Si6 0.934651 0.451099 0.848671
O O1 0.750000 0.703736 0.147529
O O2 0.523050 0.660911 0.252522
O O3 0.496552 0.743807 0.216006
O O4 0.500000 0.694151 0.000000
O O5 0.500000 0.376225 0.500000
O O6 0.750000 0.381943 0.350861
O O7 0.501208 0.420642 0.267727
O O8 0.250000 0.211769 0.155286
O O9 0.001139 0.168717 0.218640
O O10 0.000000 0.212274 0.000000
O O11 0.250000 0.872392 0.848943
O O12 0.015748 0.915380 0.755309
O O13 0.000000 0.878943 0.000000
O O14 0.500000 0.053452 0.500000
O O15 0.250000 0.047735 0.648681
O O16 0.483465 0.000000 0.700829
O O17 0.750000 0.448008 0.851707
O O18 0.976985 0.500000 0.824562
O O19 0.000000 0.438946 0.000000
#
# Coordination Sequence:
#
# PCOD9399357 Si02
#       6
#     8   8   8   8   8   8
#     4  10  20  35  56  81 106 137 177 218 263 313
#     4  11  24  39  57  81 112 148 183 224 272 322
#     4  10  18  30  51  77 104 135 171 212 259 309
#     4  10  19  32  51  76 106 135 167 211 259 308
#     4   9  19  35  53  73  99 133 172 212 255 305
#     4  10  21  38  61  87 114 145 183 226 269 317
#
# _framework density 18.082614
#
# number of rings (size 3 to 8) (size 9 to 14) (size 15 to 20)
#    0.000    2.000    0.000    6.000    0.000    7.000 
#    0.000    0.833    0.000    0.000    0.000    0.000 
#    0.000    0.000    0.000    0.000    0.000    0.000 
#
# Total GULP energy -267926.560851 kJ/mol
# GULP energy per Si atom -5581.803351 kJ/mol
# Density = 1.804146 g / cm^3
# Si number density = 18.082614 Si / 1000 Ang^3
#
#
#
# Elastic Constant Matrix: (Units=GPa)
#
#
# Indices 1 2 3 4 5 6 
#
# 1 67.6519 53.9667 35.3274 0.0000 0.0000 0.0000
# 2 53.9667 157.3364 88.8705 0.0000 0.0000 0.0000
# 3 35.3274 88.8705 92.5577 0.0000 0.0000 0.0000
# 4 0.0000 0.0000 0.0000 -6.1451 0.0000 0.0000
# 5 0.0000 0.0000 0.0000 0.0000 28.8818 0.0000
# 6 0.0000 0.0000 0.0000 0.0000 0.0000 19.9252
#
#
#
# Elastic Compliance Matrix: (Units=1/GPa)
#
#
# Indices 1 2 3 4 5 6 
#
# 1 0.020582 -0.005730 -0.002354 0.000000 0.000000 0.000000
# 2 -0.005730 0.015483 -0.012679 0.000000 0.000000 0.000000
# 3 -0.002354 -0.012679 0.023877 0.000000 0.000000 0.000000
# 4 0.000000 0.000000 0.000000 -0.162731 0.000000 0.000000
# 5 0.000000 0.000000 0.000000 0.000000 0.034624 0.000000
# 6 0.000000 0.000000 0.000000 0.000000 0.000000 0.050188
#
#
# Mechanical properties :
#
#
# Convention : Reuss Voigt Hill
#
# Bulk Modulus (GPa) = 54.30327 74.87503 64.58915
# Shear Modulus (GPa) = 168.43194 17.82447 93.12820
#
# Velocity S-wave (km/s) = 9.66168 3.14303 7.18424
# Velocity P-wave (km/s) = 12.43221 7.39382 10.22811
#
# Compressibility (1/GPa) = 0.01841510
#
# Stress axis : x y z
#
# Youngs Moduli (GPa) = 48.58719 64.58728 41.88206
#
# Poissons Ratio (x) = 0.37008 0.09859
# Poissons Ratio (y) = 0.27840 0.53103
# Poissons Ratio (z) = 0.11437 0.81891
#
# Static dielectric constant tensor:
#      x y z
#    x 1.607160 0.000000 0.000000 
#    y 0.000000 1.658230 0.000000 
#    z 0.000000 0.000000 1.584080 
# 
# From -- ./inp_files/6077.got.cif
#   From: 2010.05.17/outbox.cif.g08.bks.cpg/sg51_4_cif.got.tgz:6077.got - 2010.06.03 11:52:47.
