data_PCOD9399534
_publ_section_title
;
Structure prediction by ZEFSAII (Michael W. Deem and Ramdas Pophale) SiO2 
 PCOD9399534
Probable space group: P M M A
;
_chemical_formula_sum "Si O2"
_cell_formula_units_Z 64
_cell_length_a 8.465408
_cell_length_b 15.858208
_cell_length_c 25.458747
_cell_angle_alpha 90.000000
_cell_angle_beta 90.000000
_cell_angle_gamma 90.000000
_cell_volume 3417.740064
_symmetry_space_group_name_H-M "P M M A"
_symmetry_group_IT_number 51
_symmetry_cell_setting 'orthorhombic'
loop_
_space_group_symop_operation_xyz
x,y,z
1/2-x,-y,z
1/2+x,-y,-z
-x,y,-z
-x,-y,-z
1/2+x,y,-z
1/2-x,y,z
x,-y,z
loop_
_atom_site_type_symbol
_atom_site_label
_atom_site_fract_x
_atom_site_fract_y
_atom_site_fract_z
Si Si1 0.441110 0.596256 0.558772
Si Si2 0.063034 0.908559 0.905127
Si Si3 0.061938 0.269822 0.057240
Si Si4 0.061953 0.308985 0.765338
Si Si5 0.936251 0.130599 0.793031
Si Si6 0.940323 0.594384 0.857410
Si Si7 0.439900 0.273104 0.646685
Si Si8 0.059485 0.092246 0.326113
O O1 0.500000 0.613946 0.500000
O O2 0.250000 0.597669 0.558749
O O3 0.489805 0.500000 0.572453
O O4 0.497729 0.665908 0.600399
O O5 0.250000 0.903748 0.913859
O O6 0.985872 0.826028 0.929857
O O7 0.027816 0.904487 0.842812
O O8 0.004864 0.000000 0.924672
O O9 0.250000 0.274710 0.057384
O O10 0.002542 0.334590 0.101716
O O11 0.000000 0.293125 0.000000
O O12 0.250000 0.293170 0.768613
O O13 0.017669 0.310928 0.703956
O O14 0.968403 0.230312 0.790211
O O15 0.015724 0.387815 0.800703
O O16 0.750000 0.113447 0.799697
O O17 0.986908 0.098189 0.735588
O O18 0.750000 0.601175 0.852712
O O19 0.977774 0.500000 0.875675
O O20 0.250000 0.271133 0.644118
O O21 0.497806 0.176373 0.645909
O O22 0.250000 0.095337 0.327260
O O23 0.008803 0.000000 0.346411
#
# Coordination Sequence:
#
# PCOD9399534 Si02
#       8
#     8   8   8   8   8   8   8   8
#     4   9  18  34  55  78 107 142 182 229 277 325
#     4  11  23  37  56  83 112 141 177 222 268 321
#     4  11  24  42  63  82 106 141 178 225 275 324
#     4  10  19  32  53  81 113 146 181 217 263 321
#     4  10  18  31  52  77 108 145 181 218 264 317
#     4  10  22  40  60  83 111 143 178 219 270 324
#     4   9  19  33  51  79 112 146 182 224 272 320
#     4   9  18  31  48  74 109 147 185 223 264 314
#
# _framework density 18.725825
#
# number of rings (size 3 to 8) (size 9 to 14) (size 15 to 20)
#    0.000    2.125    1.250    1.875    0.000    5.000 
#    0.000    1.250    0.000    1.875    0.000    0.000 
#    0.000    0.000    0.000    0.000    0.000    0.000 
#
# Total GULP energy -357129.537830 kJ/mol
# GULP energy per Si atom -5580.149029 kJ/mol
# Density = 1.868320 g / cm^3
# Si number density = 18.725825 Si / 1000 Ang^3
#
#
#
# Elastic Constant Matrix: (Units=GPa)
#
#
# Indices 1 2 3 4 5 6 
#
# 1 16.0937 18.1443 12.6068 0.0000 0.0000 0.0000
# 2 18.1443 130.7295 70.1840 0.0000 0.0000 0.0000
# 3 12.6068 70.1840 90.9829 0.0000 0.0000 0.0000
# 4 0.0000 0.0000 0.0000 1.8847 0.0000 0.0000
# 5 0.0000 0.0000 0.0000 0.0000 26.2713 0.0000
# 6 0.0000 0.0000 0.0000 0.0000 0.0000 23.1584
#
#
#
# Elastic Compliance Matrix: (Units=1/GPa)
#
#
# Indices 1 2 3 4 5 6 
#
# 1 0.074508 -0.008191 -0.004006 0.000000 0.000000 0.000000
# 2 -0.008191 0.013957 -0.009631 0.000000 0.000000 0.000000
# 3 -0.004006 -0.009631 0.018976 0.000000 0.000000 0.000000
# 4 0.000000 0.000000 0.000000 0.530579 0.000000 0.000000
# 5 0.000000 0.000000 0.000000 0.000000 0.038064 0.000000
# 6 0.000000 0.000000 0.000000 0.000000 0.000000 0.043181
#
#
# Mechanical properties :
#
#
# Convention : Reuss Voigt Hill
#
# Bulk Modulus (GPa) = 15.67759 48.85292 32.26526
# Shear Modulus (GPa) = 6.37606 19.38762 12.88184
#
# Velocity S-wave (km/s) = 1.84725 3.22116 2.62567
# Velocity P-wave (km/s) = 3.59724 6.32295 5.14392
#
# Compressibility (1/GPa) = 0.06378531
#
# Stress axis : x y z
#
# Youngs Moduli (GPa) = 13.42131 71.64890 52.69869
#
# Poissons Ratio (x) = 0.58685 0.21110
# Poissons Ratio (y) = 0.10993 0.50756
# Poissons Ratio (z) = 0.05376 0.69008
#
# Static dielectric constant tensor:
#      x y z
#    x 1.641790 0.000000 0.000000 
#    y 0.000000 1.686470 0.000000 
#    z 0.000000 0.000000 1.634480 
# 
# From -- ./inp_files/34842.got.cif
#   From: 2010.05.17/outbox.cif.g08.bks.cpg/sg51_18_cif.got.tgz:34842.got - 2010.06.03 11:52:47.
