data_PCOD9399786
_publ_section_title
;
Structure prediction by ZEFSAII (Michael W. Deem and Ramdas Pophale) SiO2 
 PCOD9399786
Probable space group: P M M A
;
_chemical_formula_sum "Si O2"
_cell_formula_units_Z 28
_cell_length_a 8.198021
_cell_length_b 17.467542
_cell_length_c 9.194741
_cell_angle_alpha 90.000000
_cell_angle_beta 90.000000
_cell_angle_gamma 90.000000
_cell_volume 1316.680255
_symmetry_space_group_name_H-M "P M M A"
_symmetry_group_IT_number 51
_symmetry_cell_setting 'orthorhombic'
loop_
_space_group_symop_operation_xyz
x,y,z
1/2-x,-y,z
1/2+x,-y,-z
-x,y,-z
-x,-y,-z
1/2+x,y,-z
1/2-x,y,z
x,-y,z
loop_
_atom_site_type_symbol
_atom_site_label
_atom_site_fract_x
_atom_site_fract_y
_atom_site_fract_z
Si Si1 0.250000 0.410111 0.810715
Si Si2 0.929560 0.671431 0.778995
Si Si3 0.946453 0.833390 0.169491
Si Si4 0.053644 0.000000 0.831419
Si Si5 0.750000 0.409989 0.537822
O O1 0.250000 0.500000 0.848013
O O2 0.417324 0.368661 0.854792
O O3 0.250000 0.401318 0.634172
O O4 0.750000 0.666492 0.852019
O O5 0.897475 0.628411 0.627074
O O6 0.973624 0.760035 0.756774
O O7 0.750000 0.827654 0.177372
O O8 0.999414 0.917202 0.228091
O O9 0.000000 0.829563 0.000000
O O10 0.250000 0.000000 0.827709
O O11 0.000000 0.000000 0.000000
O O12 0.750000 0.500000 0.569392
#
# Coordination Sequence:
#
# PCOD9399786 Si02
#       5
#     4   8   8   4   4
#     4  11  20  36  57  78 103 134 169 220 270 301
#     4  10  21  32  51  81 107 136 169 208 261 313
#     4  10  18  33  52  77 109 139 171 211 253 302
#     4   8  16  28  50  76 101 132 169 211 253 294
#     4   9  20  36  55  78 105 130 169 222 264 303
#
# _framework density 21.265601
#
# number of rings (size 3 to 8) (size 9 to 14) (size 15 to 20)
#    0.857    1.429    1.429    2.571    0.000    3.429 
#    0.000    0.000    0.000    5.143    0.000    6.000 
#    0.000    0.000    0.000    0.000    0.000    0.000 
#
# Total GULP energy -156047.431456 kJ/mol
# GULP energy per Si atom -5573.122552 kJ/mol
# Density = 2.121720 g / cm^3
# Si number density = 21.265601 Si / 1000 Ang^3
#
#
#
# Elastic Constant Matrix: (Units=GPa)
#
#
# Indices 1 2 3 4 5 6 
#
# 1 155.6197 77.0625 13.2529 0.0000 0.0000 0.0000
# 2 77.0625 206.5579 42.3289 0.0000 0.0000 0.0000
# 3 13.2529 42.3289 45.2433 0.0000 0.0000 0.0000
# 4 0.0000 0.0000 0.0000 172.3380 0.0000 0.0000
# 5 0.0000 0.0000 0.0000 0.0000 22.7332 0.0000
# 6 0.0000 0.0000 0.0000 0.0000 0.0000 62.5813
#
#
#
# Elastic Compliance Matrix: (Units=1/GPa)
#
#
# Indices 1 2 3 4 5 6 
#
# 1 0.007893 -0.003057 0.000548 0.000000 0.000000 0.000000
# 2 -0.003057 0.007174 -0.005816 0.000000 0.000000 0.000000
# 3 0.000548 -0.005816 0.027384 0.000000 0.000000 0.000000
# 4 0.000000 0.000000 0.000000 0.005803 0.000000 0.000000
# 5 0.000000 0.000000 0.000000 0.000000 0.043989 0.000000
# 6 0.000000 0.000000 0.000000 0.000000 0.000000 0.015979
#
#
# Mechanical properties :
#
#
# Convention : Reuss Voigt Hill
#
# Bulk Modulus (GPa) = 38.75940 74.74548 56.75244
# Shear Modulus (GPa) = 37.46139 69.84894 53.65516
#
# Velocity S-wave (km/s) = 4.20169 5.73736 5.02849
# Velocity P-wave (km/s) = 6.46567 8.89464 7.77558
#
# Compressibility (1/GPa) = 0.02580019
#
# Stress axis : x y z
#
# Youngs Moduli (GPa) = 126.69294 139.39931 36.51826
#
# Poissons Ratio (x) = 0.42615 -0.02001
# Poissons Ratio (y) = 0.38731 0.21239
# Poissons Ratio (z) = -0.06943 0.81075
#
# Static dielectric constant tensor:
#      x y z
#    x 1.807380 0.000000 0.000000 
#    y 0.000000 1.787480 0.000000 
#    z 0.000000 0.000000 1.770360 
# 
# From -- ./inp_files/13910.got.cif
#   From: 2010.05.17/outbox.cif.g08.bks.cpg/sg51_7_cif.got.tgz:13910.got - 2010.06.03 11:52:47.
