data_PCOD9399063
_publ_section_title
;
Structure prediction by ZEFSAII (Michael W. Deem and Ramdas Pophale) SiO2 
 PCOD9399063
Probable space group: P M M A
;
_chemical_formula_sum "Si O2"
_cell_formula_units_Z 64
_cell_length_a 18.477393
_cell_length_b 15.044885
_cell_length_c 13.368648
_cell_angle_alpha 90.000000
_cell_angle_beta 90.000000
_cell_angle_gamma 90.000000
_cell_volume 3716.353837
_symmetry_space_group_name_H-M "P M M A"
_symmetry_group_IT_number 51
_symmetry_cell_setting 'orthorhombic'
loop_
_space_group_symop_operation_xyz
x,y,z
1/2-x,-y,z
1/2+x,-y,-z
-x,y,-z
-x,-y,-z
1/2+x,y,-z
1/2-x,y,z
x,-y,z
loop_
_atom_site_type_symbol
_atom_site_label
_atom_site_fract_x
_atom_site_fract_y
_atom_site_fract_z
Si Si1 0.447777 0.897527 0.406464
Si Si2 0.873496 0.102301 0.883734
Si Si3 0.670785 0.392965 0.034164
Si Si4 0.120955 0.398809 0.188471
Si Si5 0.665441 0.225166 0.695520
Si Si6 0.671102 0.106025 0.101091
Si Si7 0.977338 0.670675 0.114229
Si Si8 0.521415 0.140947 0.199402
O O1 0.500000 0.879295 0.500000
O O2 0.384761 0.825027 0.386430
O O3 0.497167 0.892130 0.307119
O O4 0.420227 0.000000 0.414481
O O5 0.845118 0.162907 0.793885
O O6 0.960882 0.102811 0.876390
O O7 0.849189 0.000000 0.871333
O O8 0.848037 0.139920 0.989987
O O9 0.750000 0.361543 0.065693
O O10 0.668443 0.500000 0.038833
O O11 0.605179 0.358410 0.101318
O O12 0.659017 0.371805 0.916598
O O13 0.142125 0.500000 0.215072
O O14 0.139345 0.323651 0.270268
O O15 0.036160 0.397680 0.156805
O O16 0.750000 0.227739 0.668425
O O17 0.750000 0.138789 0.133675
O O18 0.603397 0.121436 0.171884
O O19 0.675345 0.000000 0.090059
O O20 0.985879 0.754042 0.186187
O O21 0.000000 0.693952 0.000000
#
# Coordination Sequence:
#
# PCOD9399063 Si02
#       8
#     8   8   8   8   8   8   8   8
#     4  10  22  41  62  81 103 135 175 224 280 334
#     4  10  19  32  49  72 105 143 176 211 255 310
#     4   9  18  30  44  68 106 152 196 231 261 299
#     4  10  19  33  51  76 111 149 184 223 269 317
#     4  11  21  34  56  86 111 137 174 223 272 320
#     4  10  20  30  42  68 106 144 178 211 251 310
#     4  10  18  29  47  74 106 146 188 219 257 316
#     4  11  19  32  52  74  98 137 181 219 261 319
#
# _framework density 17.221181000000001
#
# number of rings (size 3 to 8) (size 9 to 14) (size 15 to 20)
#    0.000    1.875    2.500    4.500    1.750    5.250 
#    0.000    0.625    0.000    1.125    0.000    0.000 
#    0.000    0.000    0.000    0.000    0.000    0.000 
#
# Total GULP energy -356839.607859 kJ/mol
# GULP energy per Si atom -5575.618873 kJ/mol
# Density = 1.718198 g / cm^3
# Si number density = 17.221181 Si / 1000 Ang^3
#
#
#
# Elastic Constant Matrix: (Units=GPa)
#
#
# Indices 1 2 3 4 5 6 
#
# 1 132.6157 24.3637 26.5800 0.0000 0.0000 0.0000
# 2 24.3637 92.3070 20.5006 0.0000 0.0000 0.0000
# 3 26.5800 20.5006 37.0253 0.0000 0.0000 0.0000
# 4 0.0000 0.0000 0.0000 14.7197 0.0000 0.0000
# 5 0.0000 0.0000 0.0000 0.0000 16.8474 0.0000
# 6 0.0000 0.0000 0.0000 0.0000 0.0000 -755.5687
#
#
#
# Elastic Compliance Matrix: (Units=1/GPa)
#
#
# Indices 1 2 3 4 5 6 
#
# 1 0.008898 -0.001060 -0.005801 0.000000 0.000000 0.000000
# 2 -0.001060 0.012479 -0.006148 0.000000 0.000000 0.000000
# 3 -0.005801 -0.006148 0.034577 0.000000 0.000000 0.000000
# 4 0.000000 0.000000 0.000000 0.067936 0.000000 0.000000
# 5 0.000000 0.000000 0.000000 0.000000 0.059356 0.000000
# 6 0.000000 0.000000 0.000000 0.000000 0.000000 -0.001324
#
#
# Mechanical properties :
#
#
# Convention : Reuss Voigt Hill
#
# Bulk Modulus (GPa) = 33.40529 44.98185 39.19357
# Shear Modulus (GPa) = 22.94425 -132.10007 -54.57791
#
# Velocity S-wave (km/s) = 3.65407 -8.76781 -5.63570
# Velocity P-wave (km/s) = 6.10269 8.73627 4.42039
#
# Compressibility (1/GPa) = 0.02993537
#
# Stress axis : x y z
#
# Youngs Moduli (GPa) = 112.38474 80.13627 28.92091
#
# Poissons Ratio (x) = 0.08497 0.16776
# Poissons Ratio (y) = 0.11916 0.17781
# Poissons Ratio (z) = 0.65191 0.49270
#
# Static dielectric constant tensor:
#      x y z
#    x 1.656050 0.000000 0.000000 
#    y 0.000000 1.632680 0.000000 
#    z 0.000000 0.000000 1.546880 
# 
# From -- ./inp_files/25329.got.cif
#   From: 2010.05.17/outbox.cif.g08.bks.cpg/sg51_13_cif.got.tgz:25329.got - 2010.06.03 11:52:47.
