data_PCOD9399502
_publ_section_title
;
Structure prediction by ZEFSAII (Michael W. Deem and Ramdas Pophale) SiO2 
 PCOD9399502
Probable space group: P M M A
;
_chemical_formula_sum "Si O2"
_cell_formula_units_Z 64
_cell_length_a 19.487867
_cell_length_b 7.457009
_cell_length_c 20.476626
_cell_angle_alpha 90.000000
_cell_angle_beta 90.000000
_cell_angle_gamma 90.000000
_cell_volume 2975.687854
_symmetry_space_group_name_H-M "P M M A"
_symmetry_group_IT_number 51
_symmetry_cell_setting 'orthorhombic'
loop_
_space_group_symop_operation_xyz
x,y,z
1/2-x,-y,z
1/2+x,-y,-z
-x,y,-z
-x,-y,-z
1/2+x,y,-z
1/2-x,y,z
x,-y,z
loop_
_atom_site_type_symbol
_atom_site_label
_atom_site_fract_x
_atom_site_fract_y
_atom_site_fract_z
Si Si1 0.406552 0.784269 0.837202
Si Si2 0.171460 0.719122 0.461478
Si Si3 0.080180 0.707826 0.581328
Si Si4 0.827843 0.285941 0.888001
Si Si5 0.828538 0.784594 0.035605
Si Si6 0.828913 0.217483 0.293121
Si Si7 0.441709 0.286783 0.210744
Si Si8 0.939547 0.280611 0.640447
O O1 0.376057 0.717888 0.905697
O O2 0.361481 0.722377 0.775415
O O3 0.485257 0.739727 0.823621
O O4 0.401449 0.000000 0.837921
O O5 0.250000 0.780533 0.464250
O O6 0.173550 0.500000 0.464171
O O7 0.125657 0.783378 0.522556
O O8 0.130334 0.768324 0.396164
O O9 0.068241 0.500000 0.563645
O O10 0.125084 0.717347 0.647040
O O11 0.005521 0.783192 0.599076
O O12 0.750000 0.214700 0.882610
O O13 0.823952 0.500000 0.879201
O O14 0.880746 0.214334 0.834582
O O15 0.852239 0.256442 0.962276
O O16 0.750000 0.718374 0.042525
O O17 0.825998 0.000000 0.040718
O O18 0.750000 0.274186 0.299577
O O19 0.830338 0.000000 0.294312
O O20 0.430950 0.500000 0.216493
O O21 0.443606 0.217219 0.284912
O O22 0.943298 0.500000 0.641348
#
# Coordination Sequence:
#
# PCOD9399502 Si02
#       8
#     8   8   8   8   8   8   8   8
#     4  10  20  34  52  74 102 133 167 207 249 296
#     4   9  17  28  46  75 104 130 167 213 255 294
#     4  10  18  31  51  75 102 131 165 207 252 299
#     4   9  19  35  53  74 101 132 167 209 255 299
#     4   9  18  34  55  76  99 131 171 210 249 297
#     4  10  20  33  50  73 102 135 167 200 244 296
#     4  10  20  34  52  75 102 134 170 207 250 300
#     4   9  17  30  48  70 100 136 168 204 251 299
#
# _framework density 21.507632000000001
#
# number of rings (size 3 to 8) (size 9 to 14) (size 15 to 20)
#    0.000    2.500    1.250    1.125    0.000    5.750 
#    0.000    5.000    0.000    4.500    0.000    0.000 
#    0.000    0.000    0.000    0.000    0.000    0.000 
#
# Total GULP energy -357467.540370 kJ/mol
# GULP energy per Si atom -5585.430318 kJ/mol
# Density = 2.145868 g / cm^3
# Si number density = 21.507632 Si / 1000 Ang^3
#
#
#
# Elastic Constant Matrix: (Units=GPa)
#
#
# Indices 1 2 3 4 5 6 
#
# 1 133.0142 -0.3629 107.2599 0.0000 0.0000 0.0000
# 2 -0.3629 64.3470 1.8473 0.0000 0.0000 0.0000
# 3 107.2599 1.8473 136.0036 0.0000 0.0000 0.0000
# 4 0.0000 0.0000 0.0000 31.7311 0.0000 0.0000
# 5 0.0000 0.0000 0.0000 0.0000 28.8992 0.0000
# 6 0.0000 0.0000 0.0000 0.0000 0.0000 25.5647
#
#
#
# Elastic Compliance Matrix: (Units=1/GPa)
#
#
# Indices 1 2 3 4 5 6 
#
# 1 0.020673 0.000585 -0.016312 0.000000 0.000000 0.000000
# 2 0.000585 0.015563 -0.000673 0.000000 0.000000 0.000000
# 3 -0.016312 -0.000673 0.020226 0.000000 0.000000 0.000000
# 4 0.000000 0.000000 0.000000 0.031515 0.000000 0.000000
# 5 0.000000 0.000000 0.000000 0.000000 0.034603 0.000000
# 6 0.000000 0.000000 0.000000 0.000000 0.000000 0.039116
#
#
# Mechanical properties :
#
#
# Convention : Reuss Voigt Hill
#
# Bulk Modulus (GPa) = 42.25925 61.20594 51.73260
# Shear Modulus (GPa) = 24.70542 32.21370 28.45956
#
# Velocity S-wave (km/s) = 3.39290 3.87431 3.64157
# Velocity P-wave (km/s) = 5.91947 6.96659 6.46427
#
# Compressibility (1/GPa) = 0.02366346
#
# Stress axis : x y z
#
# Youngs Moduli (GPa) = 48.37164 64.25353 49.44025
#
# Poissons Ratio (x) = -0.03758 0.80647
# Poissons Ratio (y) = -0.02829 0.03326
# Poissons Ratio (z) = 0.78904 0.04322
#
# Static dielectric constant tensor:
#      x y z
#    x 1.745790 0.000000 0.000000 
#    y 0.000000 1.735360 0.000000 
#    z 0.000000 0.000000 1.751600 
# 
# From -- ./inp_files/30593.got.cif
#   From: 2010.05.17/outbox.cif.g08.bks.cpg/sg51_16_cif.got.tgz:30593.got - 2010.06.03 11:52:47.
