data_PCOD9399081
_publ_section_title
;
Structure prediction by ZEFSAII (Michael W. Deem and Ramdas Pophale) SiO2 
 PCOD9399081
Probable space group: P M M A
;
_chemical_formula_sum "Si O2"
_cell_formula_units_Z 56
_cell_length_a 9.157988
_cell_length_b 23.333005
_cell_length_c 14.556630
_cell_angle_alpha 90.000000
_cell_angle_beta 90.000000
_cell_angle_gamma 90.000000
_cell_volume 3110.509897
_symmetry_space_group_name_H-M "P M M A"
_symmetry_group_IT_number 51
_symmetry_cell_setting 'orthorhombic'
loop_
_space_group_symop_operation_xyz
x,y,z
1/2-x,-y,z
1/2+x,-y,-z
-x,y,-z
-x,-y,-z
1/2+x,y,-z
1/2-x,y,z
x,-y,z
loop_
_atom_site_type_symbol
_atom_site_label
_atom_site_fract_x
_atom_site_fract_y
_atom_site_fract_z
Si Si1 0.076356 0.710934 0.911609
Si Si2 0.923454 0.433973 0.597705
Si Si3 0.582099 0.908290 0.409858
Si Si4 0.074895 0.935030 0.799537
Si Si5 0.922275 0.176282 0.848477
Si Si6 0.418760 0.211833 0.668491
Si Si7 0.079002 0.662706 0.707851
O O1 0.250000 0.714461 0.924215
O O2 0.048665 0.679808 0.813930
O O3 0.006682 0.774145 0.902433
O O4 0.000000 0.682938 0.000000
O O5 0.750000 0.428568 0.587237
O O6 0.956706 0.500000 0.623703
O O7 0.000000 0.422896 0.500000
O O8 0.982851 0.388554 0.670406
O O9 0.500000 0.928593 0.500000
O O10 0.750000 0.925701 0.416989
O O11 0.531852 0.928837 0.308789
O O12 0.576314 0.838547 0.405493
O O13 0.250000 0.924331 0.803191
O O14 0.991048 0.886842 0.857068
O O15 0.046577 0.000000 0.828922
O O16 0.750000 0.177156 0.865605
O O17 0.962931 0.193731 0.743867
O O18 0.250000 0.209249 0.707139
O O19 0.443194 0.278598 0.648900
O O20 0.250000 0.647559 0.700915
#
# Coordination Sequence:
#
# PCOD9399081 Si02
#       7
#     8   8   8   8   8   8   8
#     4  10  20  35  56  83 113 142 172 208 255 312
#     4  10  21  36  54  77 107 145 188 230 268 309
#     4   9  17  28  41  59  86 119 155 199 251 307
#     4   9  18  33  49  62  83 122 167 208 255 310
#     4  10  18  29  48  73  98 124 157 199 247 298
#     4   8  16  31  46  63  91 125 160 198 247 305
#     4   9  18  33  54  79 107 139 175 219 267 312
#
# _framework density 18.003478999999999
#
# number of rings (size 3 to 8) (size 9 to 14) (size 15 to 20)
#    0.000    2.714    0.000    3.857    0.000    7.143 
#    0.000    1.429    0.000    0.857    0.000    0.000 
#    0.000    0.000    0.000    0.000    0.000    0.000 
#
# Total GULP energy -311994.307620 kJ/mol
# GULP energy per Si atom -5571.326922 kJ/mol
# Density = 1.796250 g / cm^3
# Si number density = 18.003479 Si / 1000 Ang^3
#
#
#
# Elastic Constant Matrix: (Units=GPa)
#
#
# Indices 1 2 3 4 5 6 
#
# 1 75.4984 58.7262 37.2820 0.0000 0.0000 0.0000
# 2 58.7262 111.9785 38.5037 0.0000 0.0000 0.0000
# 3 37.2820 38.5037 46.4570 0.0000 0.0000 0.0000
# 4 0.0000 0.0000 0.0000 9.8511 0.0000 0.0000
# 5 0.0000 0.0000 0.0000 0.0000 24.5532 0.0000
# 6 0.0000 0.0000 0.0000 0.0000 0.0000 25.4224
#
#
#
# Elastic Compliance Matrix: (Units=1/GPa)
#
#
# Indices 1 2 3 4 5 6 
#
# 1 0.027849 -0.009679 -0.014327 0.000000 0.000000 0.000000
# 2 -0.009679 0.015853 -0.005372 0.000000 0.000000 0.000000
# 3 -0.014327 -0.005372 0.037475 0.000000 0.000000 0.000000
# 4 0.000000 0.000000 0.000000 0.101511 0.000000 0.000000
# 5 0.000000 0.000000 0.000000 0.000000 0.040728 0.000000
# 6 0.000000 0.000000 0.000000 0.000000 0.000000 0.039335
#
#
# Mechanical properties :
#
#
# Convention : Reuss Voigt Hill
#
# Bulk Modulus (GPa) = 44.59974 55.88418 50.24196
# Shear Modulus (GPa) = 15.19842 18.59347 16.89595
#
# Velocity S-wave (km/s) = 2.90865 3.21716 3.06679
# Velocity P-wave (km/s) = 6.00891 6.70137 6.36456
#
# Compressibility (1/GPa) = 0.02242165
#
# Stress axis : x y z
#
# Youngs Moduli (GPa) = 35.90842 63.07792 26.68432
#
# Poissons Ratio (x) = 0.61051 0.38230
# Poissons Ratio (y) = 0.34755 0.14335
# Poissons Ratio (z) = 0.51446 0.33887
#
# Static dielectric constant tensor:
#      x y z
#    x 1.605150 0.000000 0.000000 
#    y 0.000000 1.638440 0.000000 
#    z 0.000000 0.000000 1.642640 
# 
# From -- ./inp_files/21827.got.cif
#   From: 2010.05.17/outbox.cif.g08.bks.cpg/sg51_11_cif.got.tgz:21827.got - 2010.06.03 11:52:47.
