data_PCOD9399433
_publ_section_title
;
Structure prediction by ZEFSAII (Michael W. Deem and Ramdas Pophale) SiO2 
 PCOD9399433
Probable space group: P M M A
;
_chemical_formula_sum "Si O2"
_cell_formula_units_Z 34
_cell_length_a 22.137967
_cell_length_b 8.441187
_cell_length_c 7.513525
_cell_angle_alpha 90.000000
_cell_angle_beta 90.000000
_cell_angle_gamma 90.000000
_cell_volume 1404.057821
_symmetry_space_group_name_H-M "P M M A"
_symmetry_group_IT_number 51
_symmetry_cell_setting 'orthorhombic'
loop_
_space_group_symop_operation_xyz
x,y,z
1/2-x,-y,z
1/2+x,-y,-z
-x,y,-z
-x,-y,-z
1/2+x,y,-z
1/2-x,y,z
x,-y,z
loop_
_atom_site_type_symbol
_atom_site_label
_atom_site_fract_x
_atom_site_fract_y
_atom_site_fract_z
Si Si1 0.499754 0.324910 0.786875
Si Si2 0.878191 0.178226 0.726638
Si Si3 0.319205 0.500000 0.180057
Si Si4 0.250000 0.500000 0.521209
Si Si5 0.878241 0.175276 0.310980
Si Si6 0.250000 0.179332 0.734398
O O1 0.519497 0.500000 0.727760
O O2 0.549465 0.201346 0.721665
O O3 0.431698 0.295104 0.725738
O O4 0.500000 0.319199 0.000000
O O5 0.852931 0.330520 0.837233
O O6 0.858778 0.184208 0.518671
O O7 0.862825 0.000000 0.792257
O O8 0.250000 0.500000 0.100298
O O9 0.306442 0.500000 0.390768
O O10 0.250000 0.341473 0.628481
O O11 0.818076 0.187709 0.190521
O O12 0.904239 0.000000 0.281039
O O13 0.250000 0.000000 0.653372
#
# Coordination Sequence:
#
# PCOD9399433 Si02
#       6
#     8   8   4   2   8   4
#     4  11  25  41  60  86 120 162 207 251 301 357
#     4  11  22  38  63  93 120 155 202 247 299 357
#     4  10  20  34  57  91 130 158 191 239 301 355
#     4  10  18  30  56  84 122 168 180 228 310 352
#     4  10  21  37  61  91 121 155 198 247 297 358
#     4  10  20  34  56  91 126 150 194 244 296 360
#
# _framework density 24.215529
#
# number of rings (size 3 to 8) (size 9 to 14) (size 15 to 20)
#    0.353    1.176    3.529    1.412    3.294    5.176 
#    0.000    0.000    2.588    0.000    0.000    0.000 
#    0.000    0.000    0.000    0.000    0.000    0.000 
#
# Total GULP energy -189486.863276 kJ/mol
# GULP energy per Si atom -5573.143038 kJ/mol
# Density = 2.416041 g / cm^3
# Si number density = 24.215529 Si / 1000 Ang^3
#
#
#
# Elastic Constant Matrix: (Units=GPa)
#
#
# Indices 1 2 3 4 5 6 
#
# 1 131.9332 57.8538 7.0439 0.0000 0.0000 0.0000
# 2 57.8538 168.8726 31.5339 0.0000 0.0000 0.0000
# 3 7.0439 31.5339 52.8979 0.0000 0.0000 0.0000
# 4 0.0000 0.0000 0.0000 -1.3577 0.0000 0.0000
# 5 0.0000 0.0000 0.0000 0.0000 -19.6725 0.0000
# 6 0.0000 0.0000 0.0000 0.0000 0.0000 49.6212
#
#
#
# Elastic Compliance Matrix: (Units=1/GPa)
#
#
# Indices 1 2 3 4 5 6 
#
# 1 0.008944 -0.003198 0.000715 0.000000 0.000000 0.000000
# 2 -0.003198 0.007807 -0.004228 0.000000 0.000000 0.000000
# 3 0.000715 -0.004228 0.021329 0.000000 0.000000 0.000000
# 4 0.000000 0.000000 0.000000 -0.736528 0.000000 0.000000
# 5 0.000000 0.000000 0.000000 0.000000 -0.050832 0.000000
# 6 0.000000 0.000000 0.000000 0.000000 0.000000 0.020153
#
#
# Mechanical properties :
#
#
# Convention : Reuss Voigt Hill
#
# Bulk Modulus (GPa) = 40.55292 60.72964 50.64128
# Shear Modulus (GPa) = -7.06726 22.86968 7.90121
#
# Velocity S-wave (km/s) = -1.71021 3.07648 1.80830
# Velocity P-wave (km/s) = 3.58933 6.14434 5.03171
#
# Compressibility (1/GPa) = 0.02465913
#
# Stress axis : x y z
#
# Youngs Moduli (GPa) = 111.81254 128.09781 46.88345
#
# Poissons Ratio (x) = 0.40959 -0.03353
# Poissons Ratio (y) = 0.35752 0.19822
# Poissons Ratio (z) = -0.07997 0.54159
#
# Static dielectric constant tensor:
#      x y z
#    x 1.956690 0.000000 0.000000 
#    y 0.000000 1.938270 0.000000 
#    z 0.000000 0.000000 1.973740 
# 
# From -- ./inp_files/10444.got.cif
#   From: 2010.05.17/outbox.cif.g08.bks.cpg/sg51_6_cif.got.tgz:10444.got - 2010.06.03 11:52:47.
