data_PCOD9399170
_publ_section_title
;
Structure prediction by ZEFSAII (Michael W. Deem and Ramdas Pophale) SiO2 
 PCOD9399170
Probable space group: P M M A
;
_chemical_formula_sum "Si O2"
_cell_formula_units_Z 64
_cell_length_a 31.648211
_cell_length_b 7.520843
_cell_length_c 14.847501
_cell_angle_alpha 90.000000
_cell_angle_beta 90.000000
_cell_angle_gamma 90.000000
_cell_volume 3534.020393
_symmetry_space_group_name_H-M "P M M A"
_symmetry_group_IT_number 51
_symmetry_cell_setting 'orthorhombic'
loop_
_space_group_symop_operation_xyz
x,y,z
1/2-x,-y,z
1/2+x,-y,-z
-x,y,-z
-x,-y,-z
1/2+x,y,-z
1/2-x,y,z
x,-y,z
loop_
_atom_site_type_symbol
_atom_site_label
_atom_site_fract_x
_atom_site_fract_y
_atom_site_fract_z
Si Si1 0.884318 0.293197 0.440905
Si Si2 0.977113 0.785950 0.759729
Si Si3 0.962145 0.206610 0.562263
Si Si4 0.701957 0.717162 0.365394
Si Si5 0.043717 0.292871 0.040744
Si Si6 0.297797 0.282632 0.842398
Si Si7 0.923872 0.213492 0.247710
Si Si8 0.378289 0.297432 0.934269
O O1 0.881115 0.500000 0.464665
O O2 0.917855 0.213251 0.510324
O O3 0.836611 0.221574 0.428254
O O4 0.905184 0.274909 0.342366
O O5 0.959674 0.720408 0.663583
O O6 0.957487 0.715550 0.851842
O O7 0.026812 0.742022 0.758898
O O8 0.972899 0.000000 0.765130
O O9 0.000000 0.284192 0.500000
O O10 0.974274 0.000000 0.575384
O O11 0.750000 0.770719 0.388836
O O12 0.701180 0.500000 0.365924
O O13 0.693653 0.771653 0.261408
O O14 0.044041 0.500000 0.011783
O O15 0.086526 0.213538 0.999075
O O16 0.000000 0.215737 0.000000
O O17 0.250000 0.231127 0.864136
O O18 0.299644 0.500000 0.841960
O O19 0.332672 0.216333 0.912383
O O20 0.899852 0.297781 0.164076
O O21 0.919703 0.000000 0.242462
O O22 0.370789 0.500000 0.965748
#
# Coordination Sequence:
#
# PCOD9399170 Si02
#       8
#     8   8   8   8   8   8   8   8
#     4  11  20  30  48  73  95 123 160 195 230 276
#     4  10  21  35  49  63  88 128 163 189 220 272
#     4  10  20  36  50  65  93 126 159 194 233 276
#     4   8  14  25  43  68  96 123 150 184 228 278
#     4  10  20  31  46  69  96 120 147 194 240 266
#     4   8  13  23  42  66  91 120 152 184 220 270
#     4  11  20  30  45  66  94 128 160 190 225 270
#     4  10  18  30  46  68  94 123 155 189 230 270
#
# _framework density 18.109686
#
# number of rings (size 3 to 8) (size 9 to 14) (size 15 to 20)
#    0.000    2.250    3.750    1.500    0.000    2.000 
#    0.000    0.000    0.000    2.625    0.000    0.875 
#    0.000    5.000    0.000    0.000    0.000    0.000 
#
# Total GULP energy -356901.062463 kJ/mol
# GULP energy per Si atom -5576.579101 kJ/mol
# Density = 1.806847 g / cm^3
# Si number density = 18.109686 Si / 1000 Ang^3
#
#
#
# Elastic Constant Matrix: (Units=GPa)
#
#
# Indices 1 2 3 4 5 6 
#
# 1 136.8439 -0.2243 52.1229 0.0000 0.0000 0.0000
# 2 -0.2243 45.4111 -6.4625 0.0000 0.0000 0.0000
# 3 52.1229 -6.4625 95.1344 0.0000 0.0000 0.0000
# 4 0.0000 0.0000 0.0000 10.5813 0.0000 0.0000
# 5 0.0000 0.0000 0.0000 0.0000 23.4451 0.0000
# 6 0.0000 0.0000 0.0000 0.0000 0.0000 21.6309
#
#
#
# Elastic Compliance Matrix: (Units=1/GPa)
#
#
# Indices 1 2 3 4 5 6 
#
# 1 0.009256 -0.000683 -0.005117 0.000000 0.000000 0.000000
# 2 -0.000683 0.022286 0.001888 0.000000 0.000000 0.000000
# 3 -0.005117 0.001888 0.013443 0.000000 0.000000 0.000000
# 4 0.000000 0.000000 0.000000 0.094506 0.000000 0.000000
# 5 0.000000 0.000000 0.000000 0.000000 0.042653 0.000000
# 6 0.000000 0.000000 0.000000 0.000000 0.000000 0.046230
#
#
# Mechanical properties :
#
#
# Convention : Reuss Voigt Hill
#
# Bulk Modulus (GPa) = 26.90977 40.91798 33.91387
# Shear Modulus (GPa) = 20.11377 26.59501 23.35439
#
# Velocity S-wave (km/s) = 3.33628 3.83633 3.59501
# Velocity P-wave (km/s) = 5.45276 6.50129 5.99997
#
# Compressibility (1/GPa) = 0.03716122
#
# Stress axis : x y z
#
# Youngs Moduli (GPa) = 108.04181 44.87058 74.38563
#
# Poissons Ratio (x) = 0.03063 0.38066
# Poissons Ratio (y) = 0.07374 -0.14043
# Poissons Ratio (z) = 0.55290 -0.08471
#
# Static dielectric constant tensor:
#      x y z
#    x 1.659130 0.000000 0.000000 
#    y 0.000000 1.688330 0.000000 
#    z 0.000000 0.000000 1.596020 
# 
# From -- ./inp_files/26585.got.cif
#   From: 2010.05.17/outbox.cif.g08.bks.cpg/sg51_14_cif.got.tgz:26585.got - 2010.06.03 11:52:47.
