data_PCOD9399332
_publ_section_title
;
Structure prediction by ZEFSAII (Michael W. Deem and Ramdas Pophale) SiO2 
 PCOD9399332
Probable space group: P M M A
;
_chemical_formula_sum "Si O2"
_cell_formula_units_Z 56
_cell_length_a 21.289637
_cell_length_b 9.213847
_cell_length_c 13.958541
_cell_angle_alpha 90.000000
_cell_angle_beta 90.000000
_cell_angle_gamma 90.000000
_cell_volume 2738.099837
_symmetry_space_group_name_H-M "P M M A"
_symmetry_group_IT_number 51
_symmetry_cell_setting 'orthorhombic'
loop_
_space_group_symop_operation_xyz
x,y,z
1/2-x,-y,z
1/2+x,-y,-z
-x,y,-z
-x,-y,-z
1/2+x,y,-z
1/2-x,y,z
x,-y,z
loop_
_atom_site_type_symbol
_atom_site_label
_atom_site_fract_x
_atom_site_fract_y
_atom_site_fract_z
Si Si1 0.361143 0.165421 0.640397
Si Si2 0.459113 0.830457 0.903143
Si Si3 0.180142 0.824110 0.851851
Si Si4 0.820793 0.173079 0.748819
Si Si5 0.441095 0.669729 0.223509
Si Si6 0.505820 0.838250 0.613135
Si Si7 0.823719 0.335918 0.547020
O O1 0.329802 0.215607 0.739480
O O2 0.435800 0.159469 0.654903
O O3 0.351847 0.263108 0.547279
O O4 0.339283 0.000000 0.620201
O O5 0.385324 0.784941 0.905746
O O6 0.499129 0.729360 0.833339
O O7 0.460036 0.000000 0.870844
O O8 0.500000 0.825410 0.000000
O O9 0.250000 0.773142 0.883703
O O10 0.181909 0.000000 0.855341
O O11 0.750000 0.210139 0.782279
O O12 0.877656 0.246332 0.805982
O O13 0.826888 0.235621 0.641034
O O14 0.826895 0.000000 0.749645
O O15 0.433230 0.500000 0.212661
O O16 0.455692 0.716580 0.332714
O O17 0.500000 0.815973 0.500000
O O18 0.533946 0.000000 0.628409
O O19 0.750000 0.347089 0.525900
O O20 0.847277 0.500000 0.565357
#
# Coordination Sequence:
#
# PCOD9399332 Si02
#       7
#     8   8   8   8   8   8   8
#     4  10  18  30  50  76 110 154 201 249 295 349
#     4  10  21  41  67  91 118 157 203 253 308 369
#     4   9  17  32  57  88 117 147 192 250 304 355
#     4  10  21  38  60  83 111 154 208 257 297 348
#     4  12  24  38  60  88 122 157 192 246 309 373
#     4  10  20  34  54  81 116 158 205 251 290 343
#     4  10  20  32  47  74 116 159 198 244 299 358
#
# _framework density 20.452138999999999
#
# number of rings (size 3 to 8) (size 9 to 14) (size 15 to 20)
#    0.000    1.857    1.429    3.429    0.000    4.571 
#    0.000    0.714    0.000    3.000    0.000    0.000 
#    0.000    0.000    0.000    0.000    0.000    0.000 
#
# Total GULP energy -312422.471444 kJ/mol
# GULP energy per Si atom -5578.972704 kJ/mol
# Density = 2.040559 g / cm^3
# Si number density = 20.452139 Si / 1000 Ang^3
#
#
#
# Elastic Constant Matrix: (Units=GPa)
#
#
# Indices 1 2 3 4 5 6 
#
# 1 174.0886 43.2350 28.6076 0.0000 0.0000 0.0000
# 2 43.2350 91.4134 14.6556 0.0000 0.0000 0.0000
# 3 28.6076 14.6556 25.9943 0.0000 0.0000 0.0000
# 4 0.0000 0.0000 0.0000 -1.4711 0.0000 0.0000
# 5 0.0000 0.0000 0.0000 0.0000 21.8039 0.0000
# 6 0.0000 0.0000 0.0000 0.0000 0.0000 18.1405
#
#
#
# Elastic Compliance Matrix: (Units=1/GPa)
#
#
# Indices 1 2 3 4 5 6 
#
# 1 0.007476 -0.002437 -0.006853 0.000000 0.000000 0.000000
# 2 -0.002437 0.012821 -0.004546 0.000000 0.000000 0.000000
# 3 -0.006853 -0.004546 0.048576 0.000000 0.000000 0.000000
# 4 0.000000 0.000000 0.000000 -0.679746 0.000000 0.000000
# 5 0.000000 0.000000 0.000000 0.000000 0.045863 0.000000
# 6 0.000000 0.000000 0.000000 0.000000 0.000000 0.055125
#
#
# Mechanical properties :
#
#
# Convention : Reuss Voigt Hill
#
# Bulk Modulus (GPa) = 24.27261 51.61030 37.94145
# Shear Modulus (GPa) = -10.67282 21.36119 5.34419
#
# Velocity S-wave (km/s) = -2.28687 3.23530 1.61824
# Velocity P-wave (km/s) = 2.21828 6.26464 4.69928
#
# Compressibility (1/GPa) = 0.04119871
#
# Stress axis : x y z
#
# Youngs Moduli (GPa) = 133.76876 77.99828 20.58651
#
# Poissons Ratio (x) = 0.19008 0.14108
# Poissons Ratio (y) = 0.32599 0.09360
# Poissons Ratio (z) = 0.91674 0.35462
#
# Static dielectric constant tensor:
#      x y z
#    x 1.790300 0.000000 0.000000 
#    y 0.000000 1.708500 0.000000 
#    z 0.000000 0.000000 1.754380 
# 
# From -- ./inp_files/25739.got.cif
#   From: 2010.05.17/outbox.cif.g08.bks.cpg/sg51_13_cif.got.tgz:25739.got - 2010.06.03 11:52:47.
