data_PCOD9399544
_publ_section_title
;
Structure prediction by ZEFSAII (Michael W. Deem and Ramdas Pophale) SiO2 
 PCOD9399544
Probable space group: P M M A
;
_chemical_formula_sum "Si O2"
_cell_formula_units_Z 48
_cell_length_a 22.377436
_cell_length_b 7.381171
_cell_length_c 12.709785
_cell_angle_alpha 90.000000
_cell_angle_beta 90.000000
_cell_angle_gamma 90.000000
_cell_volume 2099.296562
_symmetry_space_group_name_H-M "P M M A"
_symmetry_group_IT_number 51
_symmetry_cell_setting 'orthorhombic'
loop_
_space_group_symop_operation_xyz
x,y,z
1/2-x,-y,z
1/2+x,-y,-z
-x,y,-z
-x,-y,-z
1/2+x,y,-z
1/2-x,y,z
x,-y,z
loop_
_atom_site_type_symbol
_atom_site_label
_atom_site_fract_x
_atom_site_fract_y
_atom_site_fract_z
Si Si1 0.529101 0.290247 0.107506
Si Si2 0.661624 0.205028 0.143503
Si Si3 0.582096 0.218675 0.753716
Si Si4 0.315360 0.779246 0.089069
Si Si5 0.683484 0.221493 0.376519
Si Si6 0.930424 0.779206 0.515900
O O1 0.543595 0.500000 0.087356
O O2 0.590102 0.198453 0.139317
O O3 0.481238 0.274984 0.199359
O O4 0.500000 0.216011 0.000000
O O5 0.679911 0.284872 0.255180
O O6 0.684945 0.000000 0.143471
O O7 0.679432 0.286496 0.031119
O O8 0.632479 0.284412 0.834541
O O9 0.588409 0.275563 0.633632
O O10 0.583900 0.000000 0.754301
O O11 0.250000 0.733946 0.130823
O O12 0.320087 0.000000 0.084563
O O13 0.750000 0.271063 0.418591
O O14 0.623074 0.279513 0.437516
O O15 0.681545 0.000000 0.376450
O O16 0.000000 0.721753 0.500000
O O17 0.931670 0.000000 0.510147
#
# Coordination Sequence:
#
# PCOD9399544 Si02
#       6
#     8   8   8   8   8   8
#     4  11  22  34  50  74 105 134 166 213 265 314
#     4  10  18  31  53  76 102 134 168 207 253 310
#     4  10  19  32  52  75 101 135 171 208 253 305
#     4   9  17  28  45  73 102 126 160 206 251 296
#     4   9  17  29  49  79 110 139 172 214 263 310
#     4   9  17  29  46  72 105 136 170 212 254 300
#
# _framework density 22.864802000000001
#
# number of rings (size 3 to 8) (size 9 to 14) (size 15 to 20)
#    0.000    2.333    1.667    2.000    0.000    6.000 
#    0.000    3.333    0.000    8.000    0.000    0.000 
#    0.000    0.000    0.000    0.000    0.000    0.000 
#
# Total GULP energy -268099.052627 kJ/mol
# GULP energy per Si atom -5585.396930 kJ/mol
# Density = 2.281276 g / cm^3
# Si number density = 22.864802 Si / 1000 Ang^3
#
#
#
# Elastic Constant Matrix: (Units=GPa)
#
#
# Indices 1 2 3 4 5 6 
#
# 1 209.8137 8.2203 72.9047 0.0000 0.0000 0.0000
# 2 8.2203 82.5041 7.7288 0.0000 0.0000 0.0000
# 3 72.9047 7.7288 129.8368 0.0000 0.0000 0.0000
# 4 0.0000 0.0000 0.0000 -12.0977 0.0000 0.0000
# 5 0.0000 0.0000 0.0000 0.0000 10.6944 0.0000
# 6 0.0000 0.0000 0.0000 0.0000 0.0000 -33.0599
#
#
#
# Elastic Compliance Matrix: (Units=1/GPa)
#
#
# Indices 1 2 3 4 5 6 
#
# 1 0.005928 -0.000280 -0.003312 0.000000 0.000000 0.000000
# 2 -0.000280 0.012202 -0.000569 0.000000 0.000000 0.000000
# 3 -0.003312 -0.000569 0.009596 0.000000 0.000000 0.000000
# 4 0.000000 0.000000 0.000000 -0.082660 0.000000 0.000000
# 5 0.000000 0.000000 0.000000 0.000000 0.093507 0.000000
# 6 0.000000 0.000000 0.000000 0.000000 0.000000 -0.030248
#
#
# Mechanical properties :
#
#
# Convention : Reuss Voigt Hill
#
# Bulk Modulus (GPa) = 51.53866 66.65133 59.09500
# Shear Modulus (GPa) = 216.32148 15.32741 115.82445
#
# Velocity S-wave (km/s) = 9.73727 2.59192 7.12504
# Velocity P-wave (km/s) = 12.20691 6.17826 9.67418
#
# Compressibility (1/GPa) = 0.01940291
#
# Stress axis : x y z
#
# Youngs Moduli (GPa) = 168.69350 81.95487 104.21548
#
# Poissons Ratio (x) = 0.02298 0.34515
# Poissons Ratio (y) = 0.04730 0.05929
# Poissons Ratio (z) = 0.55869 0.04662
#
# Static dielectric constant tensor:
#      x y z
#    x 1.823880 0.000000 0.000000 
#    y 0.000000 1.900870 0.000000 
#    z 0.000000 0.000000 1.822880 
# 
# From -- ./inp_files/18098.got.cif
#   From: 2010.05.17/outbox.cif.g08.bks.cpg/sg51_10_cif.got.tgz:18098.got - 2010.06.03 11:52:47.
