data_PCOD9399675
_publ_section_title
;
Structure prediction by ZEFSAII (Michael W. Deem and Ramdas Pophale) SiO2 
 PCOD9399675
Probable space group: P M M A
;
_chemical_formula_sum "Si O2"
_cell_formula_units_Z 44
_cell_length_a 8.522085
_cell_length_b 18.504074
_cell_length_c 14.815853
_cell_angle_alpha 90.000000
_cell_angle_beta 90.000000
_cell_angle_gamma 90.000000
_cell_volume 2336.360626
_symmetry_space_group_name_H-M "P M M A"
_symmetry_group_IT_number 51
_symmetry_cell_setting 'orthorhombic'
loop_
_space_group_symop_operation_xyz
x,y,z
1/2-x,-y,z
1/2+x,-y,-z
-x,y,-z
-x,-y,-z
1/2+x,y,-z
1/2-x,y,z
x,-y,z
loop_
_atom_site_type_symbol
_atom_site_label
_atom_site_fract_x
_atom_site_fract_y
_atom_site_fract_z
Si Si1 0.560391 0.418820 0.213945
Si Si2 0.562011 0.353390 0.404408
Si Si3 0.058776 0.857901 0.210310
Si Si4 0.938110 0.810667 0.596013
Si Si5 0.937942 0.715574 0.898680
Si Si6 0.559789 0.000000 0.897841
O O1 0.750000 0.416560 0.209652
O O2 0.508936 0.500000 0.191096
O O3 0.515129 0.398920 0.316758
O O4 0.494719 0.357628 0.148581
O O5 0.500000 0.382137 0.500000
O O6 0.750000 0.349897 0.408143
O O7 0.496925 0.271944 0.394038
O O8 0.250000 0.858189 0.209964
O O9 0.010042 0.853790 0.314914
O O10 0.007734 0.784800 0.159645
O O11 0.007282 0.928471 0.155894
O O12 0.750000 0.809386 0.593238
O O13 0.000000 0.838342 0.500000
O O14 0.750000 0.716351 0.899874
O O15 0.000000 0.720963 0.000000
O O16 0.750000 0.000000 0.899710
O O17 0.500000 0.000000 0.000000
#
# Coordination Sequence:
#
# PCOD9399675 Si02
#       6
#     8   8   8   8   8   4
#     4  10  22  39  56  78 109 144 184 229 275 326
#     4  10  19  32  53  80 109 143 180 224 272 323
#     4   9  19  35  58  83 113 146 181 221 271 328
#     4  10  18  32  53  81 111 144 183 223 265 321
#     4  11  22  38  58  82 107 140 184 229 276 331
#     4  10  20  38  59  84 114 148 181 224 277 324
#
# _framework density 18.832709000000001
#
# number of rings (size 3 to 8) (size 9 to 14) (size 15 to 20)
#    0.000    2.000    1.818    3.273    0.000    1.818 
#    0.000    3.182    0.000    0.000    0.000    0.000 
#    0.000    0.000    0.000    0.000    0.000    0.000 
#
# Total GULP energy -245673.726526 kJ/mol
# GULP energy per Si atom -5583.493785 kJ/mol
# Density = 1.878985 g / cm^3
# Si number density = 18.832709 Si / 1000 Ang^3
#
#
#
# Elastic Constant Matrix: (Units=GPa)
#
#
# Indices 1 2 3 4 5 6 
#
# 1 30.4713 21.0000 31.4040 0.0000 0.0000 0.0000
# 2 21.0000 133.5695 95.6810 0.0000 0.0000 0.0000
# 3 31.4040 95.6810 183.9509 0.0000 0.0000 0.0000
# 4 0.0000 0.0000 0.0000 25.5147 0.0000 0.0000
# 5 0.0000 0.0000 0.0000 0.0000 29.3183 0.0000
# 6 0.0000 0.0000 0.0000 0.0000 0.0000 15.7754
#
#
#
# Elastic Compliance Matrix: (Units=1/GPa)
#
#
# Indices 1 2 3 4 5 6 
#
# 1 0.040241 -0.002240 -0.005705 0.000000 0.000000 0.000000
# 2 -0.002240 0.012058 -0.005889 0.000000 0.000000 0.000000
# 3 -0.005705 -0.005889 0.009473 0.000000 0.000000 0.000000
# 4 0.000000 0.000000 0.000000 0.039193 0.000000 0.000000
# 5 0.000000 0.000000 0.000000 0.000000 0.034108 0.000000
# 6 0.000000 0.000000 0.000000 0.000000 0.000000 0.063390
#
#
# Mechanical properties :
#
#
# Convention : Reuss Voigt Hill
#
# Bulk Modulus (GPa) = 29.32237 71.57351 50.44794
# Shear Modulus (GPa) = 21.05266 27.44879 24.25072
#
# Velocity S-wave (km/s) = 3.34709 3.82187 3.59234
# Velocity P-wave (km/s) = 5.52640 7.58703 6.63717
#
# Compressibility (1/GPa) = 0.03410366
#
# Stress axis : x y z
#
# Youngs Moduli (GPa) = 24.85028 82.93476 105.55876
#
# Poissons Ratio (x) = 0.18580 0.60217
# Poissons Ratio (y) = 0.05567 0.62166
# Poissons Ratio (z) = 0.14176 0.48843
#
# Static dielectric constant tensor:
#      x y z
#    x 1.648880 0.000000 0.000000 
#    y 0.000000 1.633330 0.000000 
#    z 0.000000 0.000000 1.648160 
# 
# From -- ./inp_files/20914.got.cif
#   From: 2010.05.17/outbox.cif.g08.bks.cpg/sg51_11_cif.got.tgz:20914.got - 2010.06.03 11:52:47.
