data_PCOD9399825
_publ_section_title
;
Structure prediction by ZEFSAII (Michael W. Deem and Ramdas Pophale) SiO2 
 PCOD9399825
Probable space group: P M M A
;
_chemical_formula_sum "Si O2"
_cell_formula_units_Z 48
_cell_length_a 15.170401
_cell_length_b 7.570191
_cell_length_c 20.881562
_cell_angle_alpha 90.000000
_cell_angle_beta 90.000000
_cell_angle_gamma 90.000000
_cell_volume 2398.097740
_symmetry_space_group_name_H-M "P M M A"
_symmetry_group_IT_number 51
_symmetry_cell_setting 'orthorhombic'
loop_
_space_group_symop_operation_xyz
x,y,z
1/2-x,-y,z
1/2+x,-y,-z
-x,y,-z
-x,-y,-z
1/2+x,y,-z
1/2-x,y,z
x,-y,z
loop_
_atom_site_type_symbol
_atom_site_label
_atom_site_fract_x
_atom_site_fract_y
_atom_site_fract_z
Si Si1 0.250000 0.793917 0.535804
Si Si2 0.562582 0.710785 0.820947
Si Si3 0.556443 0.283151 0.062287
Si Si4 0.057640 0.211239 0.559981
Si Si5 0.750000 0.295502 0.031765
Si Si6 0.250000 0.285246 0.386338
Si Si7 0.067711 0.712750 0.322691
Si Si8 0.750000 0.208593 0.883740
O O1 0.342933 0.716473 0.559017
O O2 0.250000 0.781379 0.458858
O O3 0.250000 0.000000 0.554991
O O4 0.549384 0.500000 0.818312
O O5 0.494205 0.777559 0.874171
O O6 0.551609 0.780401 0.749011
O O7 0.661843 0.740637 0.845799
O O8 0.557476 0.500000 0.061901
O O9 0.657029 0.220156 0.055716
O O10 0.500000 0.230532 0.000000
O O11 0.000000 0.280638 0.500000
O O12 0.006603 0.242636 0.625721
O O13 0.064419 0.000000 0.550379
O O14 0.750000 0.500000 0.052149
O O15 0.750000 0.290905 0.954517
O O16 0.250000 0.500000 0.388656
O O17 0.338116 0.226084 0.350133
O O18 0.072917 0.500000 0.319178
O O19 0.750000 0.000000 0.892978
#
# Coordination Sequence:
#
# PCOD9399825 Si02
#       8
#     4   8   8   8   4   4   8   4
#     4  10  20  35  54  79 104 135 178 220 263 307
#     4  10  20  37  56  77 110 146 180 219 269 326
#     4   9  16  29  55  82 100 135 182 221 263 313
#     4  10  20  35  56  78 105 142 182 222 262 313
#     4  10  18  33  56  81 106 135 182 231 268 316
#     4  10  19  31  49  77 107 135 167 212 272 323
#     4  10  21  35  54  80 110 141 173 218 275 325
#     4  12  23  33  51  83 113 141 177 221 273 322
#
# _framework density 20.015864000000001
#
# number of rings (size 3 to 8) (size 9 to 14) (size 15 to 20)
#    0.000    2.000    3.333    1.250    0.000    3.000 
#    0.000    3.333    0.000    2.000    0.000    0.000 
#    0.000    0.000    0.000    0.000    0.000    0.000 
#
# Total GULP energy -268075.926061 kJ/mol
# GULP energy per Si atom -5584.915126 kJ/mol
# Density = 1.997031 g / cm^3
# Si number density = 20.015864 Si / 1000 Ang^3
#
#
#
# Elastic Constant Matrix: (Units=GPa)
#
#
# Indices 1 2 3 4 5 6 
#
# 1 223.4018 -0.4145 129.3069 0.0000 0.0000 0.0000
# 2 -0.4145 41.7946 -8.1228 0.0000 0.0000 0.0000
# 3 129.3069 -8.1228 143.7223 0.0000 0.0000 0.0000
# 4 0.0000 0.0000 0.0000 75.9663 0.0000 0.0000
# 5 0.0000 0.0000 0.0000 0.0000 240.2862 0.0000
# 6 0.0000 0.0000 0.0000 0.0000 0.0000 4.7905
#
#
#
# Elastic Compliance Matrix: (Units=1/GPa)
#
#
# Indices 1 2 3 4 5 6 
#
# 1 0.009442 -0.001575 -0.008584 0.000000 0.000000 0.000000
# 2 -0.001575 0.024455 0.002799 0.000000 0.000000 0.000000
# 3 -0.008584 0.002799 0.014839 0.000000 0.000000 0.000000
# 4 0.000000 0.000000 0.000000 0.013164 0.000000 0.000000
# 5 0.000000 0.000000 0.000000 0.000000 0.004162 0.000000
# 6 0.000000 0.000000 0.000000 0.000000 0.000000 0.208745
#
#
# Mechanical properties :
#
#
# Convention : Reuss Voigt Hill
#
# Bulk Modulus (GPa) = 29.39761 72.27309 50.83535
# Shear Modulus (GPa) = 16.61884 83.41853 50.01869
#
# Velocity S-wave (km/s) = 2.88459 6.46271 5.00438
# Velocity P-wave (km/s) = 5.08070 9.58516 7.67101
#
# Compressibility (1/GPa) = 0.03401637
#
# Stress axis : x y z
#
# Youngs Moduli (GPa) = 105.91477 40.89165 67.39151
#
# Poissons Ratio (x) = 0.06439 0.57846
# Poissons Ratio (y) = 0.16677 -0.18861
# Poissons Ratio (z) = 0.90913 -0.11445
#
# Static dielectric constant tensor:
#      x y z
#    x 1.703680 0.000000 0.000000 
#    y 0.000000 1.731680 0.000000 
#    z 0.000000 0.000000 1.673110 
# 
# From -- ./inp_files/29699.got.cif
#   From: 2010.05.17/outbox.cif.g08.bks.cpg/sg51_15_cif.got.tgz:29699.got - 2010.06.03 11:52:47.
