data_PCOD9399589
_publ_section_title
;
Structure prediction by ZEFSAII (Michael W. Deem and Ramdas Pophale) SiO2 
 PCOD9399589
Probable space group: P M M A
;
_chemical_formula_sum "Si O2"
_cell_formula_units_Z 48
_cell_length_a 16.160319
_cell_length_b 16.656478
_cell_length_c 7.764524
_cell_angle_alpha 90.000000
_cell_angle_beta 90.000000
_cell_angle_gamma 90.000000
_cell_volume 2090.007967
_symmetry_space_group_name_H-M "P M M A"
_symmetry_group_IT_number 51
_symmetry_cell_setting 'orthorhombic'
loop_
_space_group_symop_operation_xyz
x,y,z
1/2-x,-y,z
1/2+x,-y,-z
-x,y,-z
-x,-y,-z
1/2+x,y,-z
1/2-x,y,z
x,-y,z
loop_
_atom_site_type_symbol
_atom_site_label
_atom_site_fract_x
_atom_site_fract_y
_atom_site_fract_z
Si Si1 0.843023 0.194211 0.231369
Si Si2 0.003432 0.092153 0.210159
Si Si3 0.072618 0.656992 0.600923
Si Si4 0.343627 0.798364 0.186596
Si Si5 0.157229 0.500000 0.554254
Si Si6 0.940851 0.646937 0.862097
Si Si7 0.344778 0.500000 0.971472
O O1 0.750000 0.169890 0.286066
O O2 0.864866 0.281381 0.311319
O O3 0.920150 0.136388 0.273890
O O4 0.841053 0.198260 0.022741
O O5 0.087870 0.139396 0.253181
O O6 0.005937 0.000000 0.266878
O O7 0.000000 0.092376 0.000000
O O8 0.115433 0.583590 0.503812
O O9 0.000000 0.703652 0.500000
O O10 0.012497 0.614160 0.739645
O O11 0.250000 0.810458 0.249774
O O12 0.378783 0.709853 0.223088
O O13 0.250000 0.500000 0.489259
O O14 0.157957 0.500000 0.763777
O O15 0.890618 0.577521 0.953790
O O16 0.000000 0.694139 0.000000
O O17 0.250000 0.500000 0.030134
#
# Coordination Sequence:
#
# PCOD9399589 Si02
#       7
#     8   8   8   8   4   8   4
#     4  10  19  35  58  83 114 154 198 239 286 355
#     4   9  17  31  53  87 123 150 185 242 299 344
#     4  12  24  38  57  84 116 156 201 245 301 349
#     4  10  18  31  55  86 116 153 196 239 288 349
#     4  11  22  39  59  84 112 151 201 243 292 356
#     4  12  19  36  57  80 114 148 197 244 296 351
#     4  11  22  34  57  89 112 147 201 251 292 346
#
# _framework density 22.966418000000001
#
# number of rings (size 3 to 8) (size 9 to 14) (size 15 to 20)
#    0.000    1.333    5.000    2.500    0.000    3.333 
#    0.000    7.500    0.000    0.500    0.000    0.000 
#    0.000    0.000    0.000    0.000    0.000    0.000 
#
# Total GULP energy -268112.199418 kJ/mol
# GULP energy per Si atom -5585.670821 kJ/mol
# Density = 2.291415 g / cm^3
# Si number density = 22.966418 Si / 1000 Ang^3
#
#
#
# Elastic Constant Matrix: (Units=GPa)
#
#
# Indices 1 2 3 4 5 6 
#
# 1 236.6362 97.6133 17.3890 0.0000 0.0000 0.0000
# 2 97.6133 160.4356 5.0870 0.0000 0.0000 0.0000
# 3 17.3890 5.0870 22.9614 0.0000 0.0000 0.0000
# 4 0.0000 0.0000 0.0000 16.4835 0.0000 0.0000
# 5 0.0000 0.0000 0.0000 0.0000 19.1903 0.0000
# 6 0.0000 0.0000 0.0000 0.0000 0.0000 15.9832
#
#
#
# Elastic Compliance Matrix: (Units=1/GPa)
#
#
# Indices 1 2 3 4 5 6 
#
# 1 0.005942 -0.003497 -0.003725 0.000000 0.000000 0.000000
# 2 -0.003497 0.008335 0.000802 0.000000 0.000000 0.000000
# 3 -0.003725 0.000802 0.046195 0.000000 0.000000 0.000000
# 4 0.000000 0.000000 0.000000 0.060667 0.000000 0.000000
# 5 0.000000 0.000000 0.000000 0.000000 0.052110 0.000000
# 6 0.000000 0.000000 0.000000 0.000000 0.000000 0.062566
#
#
# Mechanical properties :
#
#
# Convention : Reuss Voigt Hill
#
# Bulk Modulus (GPa) = 20.99470 73.35689 47.17579
# Shear Modulus (GPa) = 18.90121 30.32767 24.61444
#
# Velocity S-wave (km/s) = 2.87190 3.63784 3.27732
# Velocity P-wave (km/s) = 4.48981 7.04666 5.90821
#
# Compressibility (1/GPa) = 0.04763108
#
# Stress axis : x y z
#
# Youngs Moduli (GPa) = 168.28451 119.96914 21.64739
#
# Poissons Ratio (x) = 0.41957 0.08064
# Poissons Ratio (y) = 0.58855 -0.01736
# Poissons Ratio (z) = 0.62692 -0.09620
#
# Static dielectric constant tensor:
#      x y z
#    x 1.822240 0.000000 0.000000 
#    y 0.000000 1.786930 0.000000 
#    z 0.000000 0.000000 2.012880 
# 
# From -- ./inp_files/8350.got.cif
#   From: 2010.05.17/outbox.cif.g08.bks.cpg/sg51_5_cif.got.tgz:8350.got - 2010.06.03 11:52:47.
