data_PCOD9399512
_publ_section_title
;
Structure prediction by ZEFSAII (Michael W. Deem and Ramdas Pophale) SiO2 
 PCOD9399512
Probable space group: P M M A
;
_chemical_formula_sum "Si O2"
_cell_formula_units_Z 64
_cell_length_a 8.638999
_cell_length_b 26.876021
_cell_length_c 14.611629
_cell_angle_alpha 90.000000
_cell_angle_beta 90.000000
_cell_angle_gamma 90.000000
_cell_volume 3392.556054
_symmetry_space_group_name_H-M "P M M A"
_symmetry_group_IT_number 51
_symmetry_cell_setting 'orthorhombic'
loop_
_space_group_symop_operation_xyz
x,y,z
1/2-x,-y,z
1/2+x,-y,-z
-x,y,-z
-x,-y,-z
1/2+x,y,-z
1/2-x,y,z
x,-y,z
loop_
_atom_site_type_symbol
_atom_site_label
_atom_site_fract_x
_atom_site_fract_y
_atom_site_fract_z
Si Si1 0.435137 0.694920 0.101638
Si Si2 0.563692 0.354373 0.717426
Si Si3 0.935042 0.054832 0.279538
Si Si4 0.934391 0.903324 0.897359
Si Si5 0.435318 0.798774 0.896173
Si Si6 0.936152 0.853812 0.603230
Si Si7 0.437168 0.257435 0.396967
Si Si8 0.434981 0.556881 0.600211
O O1 0.250000 0.700461 0.095741
O O2 0.474401 0.653183 0.175856
O O3 0.503799 0.746621 0.141005
O O4 0.500000 0.686212 0.000000
O O5 0.750000 0.356683 0.709822
O O6 0.512114 0.304616 0.662919
O O7 0.493610 0.403105 0.672378
O O8 0.750000 0.059345 0.275920
O O9 0.001356 0.058703 0.176866
O O10 0.001580 0.100344 0.337987
O O11 0.974408 0.000000 0.317600
O O12 0.750000 0.903879 0.901727
O O13 0.992021 0.849541 0.859992
O O14 0.000000 0.910354 0.000000
O O15 0.250000 0.801277 0.895267
O O16 0.500000 0.797582 0.000000
O O17 0.750000 0.855669 0.602593
O O18 0.983709 0.798083 0.636506
O O19 0.000000 0.858133 0.500000
O O20 0.500000 0.262913 0.500000
O O21 0.250000 0.257992 0.399133
O O22 0.500000 0.569921 0.500000
O O23 0.250000 0.557978 0.596334
O O24 0.484575 0.500000 0.620725
#
# Coordination Sequence:
#
# PCOD9399512 Si02
#       8
#     8   8   8   8   8   8   8   8
#     4  10  20  34  52  77 114 155 196 241 287 336
#     4  10  21  35  55  84 117 154 194 238 288 337
#     4  11  25  43  61  84 112 142 185 238 286 342
#     4  11  22  38  60  84 113 147 185 229 281 341
#     4  10  18  31  51  77 107 143 185 227 275 330
#     4  10  21  39  63  86 113 149 186 230 285 342
#     4   9  19  35  54  82 115 147 179 221 276 336
#     4  10  21  37  58  85 118 155 195 240 288 339
#
# _framework density 18.864832
#
# number of rings (size 3 to 8) (size 9 to 14) (size 15 to 20)
#    0.000    1.875    0.000    5.625    1.750    5.250 
#    0.000    0.000    0.000    0.375    0.000    0.000 
#    0.000    0.000    0.000    0.000    0.000    0.000 
#
# Total GULP energy -357366.543948 kJ/mol
# GULP energy per Si atom -5583.852249 kJ/mol
# Density = 1.882189 g / cm^3
# Si number density = 18.864832 Si / 1000 Ang^3
#
#
#
# Elastic Constant Matrix: (Units=GPa)
#
#
# Indices 1 2 3 4 5 6 
#
# 1 70.3551 39.6548 26.9958 0.0000 0.0000 0.0000
# 2 39.6548 113.1438 66.9536 0.0000 0.0000 0.0000
# 3 26.9958 66.9536 86.4148 0.0000 0.0000 0.0000
# 4 0.0000 0.0000 0.0000 31.2913 0.0000 0.0000
# 5 0.0000 0.0000 0.0000 0.0000 26.8692 0.0000
# 6 0.0000 0.0000 0.0000 0.0000 0.0000 25.8762
#
#
#
# Elastic Compliance Matrix: (Units=1/GPa)
#
#
# Indices 1 2 3 4 5 6 
#
# 1 0.017797 -0.005443 -0.001342 0.000000 0.000000 0.000000
# 2 -0.005443 0.017986 -0.012235 0.000000 0.000000 0.000000
# 3 -0.001342 -0.012235 0.021471 0.000000 0.000000 0.000000
# 4 0.000000 0.000000 0.000000 0.031958 0.000000 0.000000
# 5 0.000000 0.000000 0.000000 0.000000 0.037217 0.000000
# 6 0.000000 0.000000 0.000000 0.000000 0.000000 0.038646
#
#
# Mechanical properties :
#
#
# Convention : Reuss Voigt Hill
#
# Bulk Modulus (GPa) = 52.04873 59.68024 55.86449
# Shear Modulus (GPa) = 23.86403 25.89463 24.87933
#
# Velocity S-wave (km/s) = 3.56054 3.70894 3.63550
# Velocity P-wave (km/s) = 6.67484 7.07432 6.87748
#
# Compressibility (1/GPa) = 0.01921276
#
# Stress axis : x y z
#
# Youngs Moduli (GPa) = 56.19053 55.59800 46.57391
#
# Poissons Ratio (x) = 0.30262 0.06252
# Poissons Ratio (y) = 0.30584 0.56984
# Poissons Ratio (z) = 0.07543 0.68026
#
# Static dielectric constant tensor:
#      x y z
#    x 1.630610 0.000000 0.000000 
#    y 0.000000 1.686550 0.000000 
#    z 0.000000 0.000000 1.623730 
# 
# From -- ./inp_files/22260.got.cif
#   From: 2010.05.17/outbox.cif.g08.bks.cpg/sg51_12_cif.got.tgz:22260.got - 2010.06.03 11:52:47.
