data_PCOD9399789
_publ_section_title
;
Structure prediction by ZEFSAII (Michael W. Deem and Ramdas Pophale) SiO2 
 PCOD9399789
Probable space group: P M M A
;
_chemical_formula_sum "Si O2"
_cell_formula_units_Z 64
_cell_length_a 25.369086
_cell_length_b 8.742916
_cell_length_c 15.320168
_cell_angle_alpha 90.000000
_cell_angle_beta 90.000000
_cell_angle_gamma 90.000000
_cell_volume 3398.010013
_symmetry_space_group_name_H-M "P M M A"
_symmetry_group_IT_number 51
_symmetry_cell_setting 'orthorhombic'
loop_
_space_group_symop_operation_xyz
x,y,z
1/2-x,-y,z
1/2+x,-y,-z
-x,y,-z
-x,-y,-z
1/2+x,y,-z
1/2-x,y,z
x,-y,z
loop_
_atom_site_type_symbol
_atom_site_label
_atom_site_fract_x
_atom_site_fract_y
_atom_site_fract_z
Si Si1 0.114891 0.685536 0.792831
Si Si2 0.957558 0.166940 0.424024
Si Si3 0.612496 0.183638 0.718728
Si Si4 0.689115 0.816565 0.057876
Si Si5 0.188682 0.682955 0.134493
Si Si6 0.651126 0.176060 0.528321
Si Si7 0.192415 0.683373 0.639800
Si Si8 0.996513 0.322741 0.262048
O O1 0.114868 0.500000 0.792528
O O2 0.148859 0.746129 0.873123
O O3 0.145881 0.738351 0.704648
O O4 0.053350 0.733915 0.795448
O O5 0.903012 0.177014 0.473840
O O6 0.971359 0.300538 0.358020
O O7 0.000000 0.167334 0.500000
O O8 0.960796 0.000000 0.378159
O O9 0.649974 0.245201 0.794653
O O10 0.636371 0.235726 0.624681
O O11 0.552563 0.238662 0.735236
O O12 0.612163 0.000000 0.716369
O O13 0.750000 0.775432 0.079937
O O14 0.685032 0.000000 0.057423
O O15 0.678621 0.752152 0.961179
O O16 0.250000 0.716279 0.156474
O O17 0.182173 0.500000 0.131828
O O18 0.687655 0.265685 0.460788
O O19 0.669422 0.000000 0.537036
O O20 0.250000 0.733357 0.673573
O O21 0.190294 0.500000 0.641879
O O22 0.006324 0.500000 0.242284
#
# Coordination Sequence:
#
# PCOD9399789 Si02
#       8
#     8   8   8   8   8   8   8   8
#     4  10  21  37  57  83 117 155 191 234 290 345
#     4  10  18  33  53  75 107 147 192 238 286 336
#     4  11  23  40  60  85 118 156 195 240 291 343
#     4  10  21  38  63  93 118 146 189 237 286 344
#     4  10  22  42  67  92 117 147 186 236 291 344
#     4  10  21  35  53  77 109 150 193 236 284 337
#     4  10  21  36  53  77 113 154 195 241 293 345
#     4  11  22  35  55  85 117 152 196 241 288 343
#
# _framework density 18.834555000000002
#
# number of rings (size 3 to 8) (size 9 to 14) (size 15 to 20)
#    0.000    1.750    2.500    1.875    0.000    5.500 
#    0.000    3.125    0.000    3.750    0.000    0.000 
#    0.000    0.000    0.000    0.000    0.000    0.000 
#
# Total GULP energy -356920.727612 kJ/mol
# GULP energy per Si atom -5576.886369 kJ/mol
# Density = 1.879169 g / cm^3
# Si number density = 18.834555 Si / 1000 Ang^3
#
#
#
# Elastic Constant Matrix: (Units=GPa)
#
#
# Indices 1 2 3 4 5 6 
#
# 1 92.3758 23.0360 61.3810 0.0000 0.0000 0.0000
# 2 23.0360 23.3506 22.5113 0.0000 0.0000 0.0000
# 3 61.3810 22.5113 108.7894 0.0000 0.0000 0.0000
# 4 0.0000 0.0000 0.0000 31.9648 0.0000 0.0000
# 5 0.0000 0.0000 0.0000 0.0000 29.4171 0.0000
# 6 0.0000 0.0000 0.0000 0.0000 0.0000 47.2840
#
#
#
# Elastic Compliance Matrix: (Units=1/GPa)
#
#
# Indices 1 2 3 4 5 6 
#
# 1 0.019220 -0.010626 -0.008645 0.000000 0.000000 0.000000
# 2 -0.010626 0.059373 -0.006290 0.000000 0.000000 0.000000
# 3 -0.008645 -0.006290 0.015372 0.000000 0.000000 0.000000
# 4 0.000000 0.000000 0.000000 0.031284 0.000000 0.000000
# 5 0.000000 0.000000 0.000000 0.000000 0.033994 0.000000
# 6 0.000000 0.000000 0.000000 0.000000 0.000000 0.021149
#
#
# Mechanical properties :
#
#
# Convention : Reuss Voigt Hill
#
# Bulk Modulus (GPa) = 23.34242 48.70807 36.02524
# Shear Modulus (GPa) = 20.34215 29.57235 24.95725
#
# Velocity S-wave (km/s) = 3.28997 3.96676 3.64411
# Velocity P-wave (km/s) = 5.18191 6.84817 6.07246
#
# Compressibility (1/GPa) = 0.04284046
#
# Stress axis : x y z
#
# Youngs Moduli (GPa) = 52.02954 16.84273 65.05530
#
# Poissons Ratio (x) = 0.17898 0.56243
# Poissons Ratio (y) = 0.55288 0.40921
# Poissons Ratio (z) = 0.44981 0.10594
#
# Static dielectric constant tensor:
#      x y z
#    x 1.641880 0.000000 0.000000 
#    y 0.000000 1.671310 0.000000 
#    z 0.000000 0.000000 1.634690 
# 
# From -- ./inp_files/26223.got.cif
#   From: 2010.05.17/outbox.cif.g08.bks.cpg/sg51_14_cif.got.tgz:26223.got - 2010.06.03 11:52:47.
