data_PCOD9399257
_publ_section_title
;
Structure prediction by ZEFSAII (Michael W. Deem and Ramdas Pophale) SiO2 
 PCOD9399257
Probable space group: P M M A
;
_chemical_formula_sum "Si O2"
_cell_formula_units_Z 48
_cell_length_a 10.445708
_cell_length_b 13.327333
_cell_length_c 23.396976
_cell_angle_alpha 90.000000
_cell_angle_beta 90.000000
_cell_angle_gamma 90.000000
_cell_volume 3257.173256
_symmetry_space_group_name_H-M "P M M A"
_symmetry_group_IT_number 51
_symmetry_cell_setting 'orthorhombic'
loop_
_space_group_symop_operation_xyz
x,y,z
1/2-x,-y,z
1/2+x,-y,-z
-x,y,-z
-x,-y,-z
1/2+x,y,-z
1/2-x,y,z
x,-y,z
loop_
_atom_site_type_symbol
_atom_site_label
_atom_site_fract_x
_atom_site_fract_y
_atom_site_fract_z
Si Si1 0.903015 0.880833 0.176840
Si Si2 0.003337 0.615054 0.632958
Si Si3 0.495049 0.190392 0.706367
Si Si4 0.750000 0.114478 0.362562
Si Si5 0.750000 0.883919 0.645343
Si Si6 0.103138 0.122140 0.953466
Si Si7 0.250000 0.311232 0.565316
Si Si8 0.750000 0.690246 0.570574
O O1 0.750000 0.867874 0.184802
O O2 0.977241 0.823097 0.226285
O O3 0.932026 0.850139 0.111658
O O4 0.929388 0.000000 0.182816
O O5 0.004867 0.500000 0.651572
O O6 0.875470 0.638845 0.597174
O O7 0.007636 0.694968 0.684548
O O8 0.125008 0.637877 0.592780
O O9 0.374829 0.135972 0.675914
O O10 0.624511 0.140937 0.682688
O O11 0.750000 0.195833 0.413139
O O12 0.750000 0.000000 0.382236
O O13 0.750000 0.805540 0.592746
O O14 0.750000 0.000000 0.628018
O O15 0.250000 0.153843 0.965116
O O16 0.104137 0.000000 0.954394
O O17 0.000000 0.156370 0.000000
O O18 0.250000 0.317072 0.497387
#
# Coordination Sequence:
#
# PCOD9399257 Si02
#       8
#     8   8   8   4   4   8   4   4
#     4   9  15  25  44  64  85 118 153 181 211 254
#     4  10  21  35  50  67  88 114 142 184 235 269
#     4  10  19  31  46  66  89 114 151 187 218 266
#     4  10  18  30  49  66  87 119 146 175 217 265
#     4  10  20  32  45  64  93 119 140 181 227 257
#     4   8  14  24  37  56  84 117 150 179 207 242
#     4  10  21  33  48  73  91 105 145 188 217 264
#     4  10  21  35  50  67  87 117 149 172 215 284
#
# _framework density 14.736706
#
# number of rings (size 3 to 8) (size 9 to 14) (size 15 to 20)
#    0.000    2.500    0.833    3.500    0.000    2.333 
#    1.500    0.000    0.000    6.000    0.000    0.000 
#    0.000    0.667    0.000    0.500    0.000    0.667 
#
# Total GULP energy -267589.899980 kJ/mol
# GULP energy per Si atom -5574.789583 kJ/mol
# Density = 1.470316 g / cm^3
# Si number density = 14.736706 Si / 1000 Ang^3
#
#
#
# Elastic Constant Matrix: (Units=GPa)
#
#
# Indices 1 2 3 4 5 6 
#
# 1 104.4256 26.7027 43.0223 0.0000 0.0000 0.0000
# 2 26.7027 88.6395 23.5038 0.0000 0.0000 0.0000
# 3 43.0223 23.5038 99.5194 0.0000 0.0000 0.0000
# 4 0.0000 0.0000 0.0000 7.5923 0.0000 0.0000
# 5 0.0000 0.0000 0.0000 0.0000 2.6425 0.0000
# 6 0.0000 0.0000 0.0000 0.0000 0.0000 -56.0434
#
#
#
# Elastic Compliance Matrix: (Units=1/GPa)
#
#
# Indices 1 2 3 4 5 6 
#
# 1 0.012116 -0.002412 -0.004668 0.000000 0.000000 0.000000
# 2 -0.002412 0.012516 -0.001913 0.000000 0.000000 0.000000
# 3 -0.004668 -0.001913 0.012518 0.000000 0.000000 0.000000
# 4 0.000000 0.000000 0.000000 0.131713 0.000000 0.000000
# 5 0.000000 0.000000 0.000000 0.000000 0.378436 0.000000
# 6 0.000000 0.000000 0.000000 0.000000 0.000000 -0.017843
#
#
# Mechanical properties :
#
#
# Convention : Reuss Voigt Hill
#
# Bulk Modulus (GPa) = 52.18343 53.22688 52.70515
# Shear Modulus (GPa) = 9.02805 4.12866 6.57835
#
# Velocity S-wave (km/s) = 2.47781 1.67562 2.11509
# Velocity P-wave (km/s) = 6.60859 6.31986 6.46583
#
# Compressibility (1/GPa) = 0.01916317
#
# Stress axis : x y z
#
# Youngs Moduli (GPa) = 82.53370 79.90029 79.88402
#
# Poissons Ratio (x) = 0.19274 0.37291
# Poissons Ratio (y) = 0.19909 0.15282
# Poissons Ratio (z) = 0.38528 0.15285
#
# Static dielectric constant tensor:
#      x y z
#    x 1.492310 0.000000 0.000000 
#    y 0.000000 1.475230 0.000000 
#    z 0.000000 0.000000 1.473180 
# 
# From -- ./inp_files/32981.got.cif
#   From: 2010.05.17/outbox.cif.g08.bks.cpg/sg51_17_cif.got.tgz:32981.got - 2010.06.03 11:52:47.
