data_PCOD9399738
_publ_section_title
;
Structure prediction by ZEFSAII (Michael W. Deem and Ramdas Pophale) SiO2 
 PCOD9399738
Probable space group: P M M A
;
_chemical_formula_sum "Si O2"
_cell_formula_units_Z 56
_cell_length_a 21.426048
_cell_length_b 9.275618
_cell_length_c 17.194573
_cell_angle_alpha 90.000000
_cell_angle_beta 90.000000
_cell_angle_gamma 90.000000
_cell_volume 3417.246627
_symmetry_space_group_name_H-M "P M M A"
_symmetry_group_IT_number 51
_symmetry_cell_setting 'orthorhombic'
loop_
_space_group_symop_operation_xyz
x,y,z
1/2-x,-y,z
1/2+x,-y,-z
-x,y,-z
-x,-y,-z
1/2+x,y,-z
1/2-x,y,z
x,-y,z
loop_
_atom_site_type_symbol
_atom_site_label
_atom_site_fract_x
_atom_site_fract_y
_atom_site_fract_z
Si Si1 0.970773 0.825334 0.122368
Si Si2 0.522110 0.828653 0.299198
Si Si3 0.063788 0.672984 0.547975
Si Si4 0.903130 0.826548 0.970222
Si Si5 0.374034 0.168027 0.292491
Si Si6 0.823929 0.335019 0.855444
Si Si7 0.178053 0.827222 0.461496
O O1 0.963031 0.778382 0.211126
O O2 0.037661 0.786802 0.084800
O O3 0.970618 0.000000 0.124670
O O4 0.919915 0.781719 0.058105
O O5 0.555306 0.739188 0.366337
O O6 0.447410 0.813631 0.309406
O O7 0.536558 0.000000 0.306217
O O8 0.069302 0.500000 0.549798
O O9 0.124663 0.742952 0.508217
O O10 0.000000 0.708615 0.500000
O O11 0.844628 0.752063 0.931401
O O12 0.897754 0.000000 0.968450
O O13 0.354285 0.263642 0.220232
O O14 0.335189 0.199970 0.370127
O O15 0.364338 0.000000 0.271567
O O16 0.750000 0.330274 0.845989
O O17 0.844480 0.500000 0.862716
O O18 0.250000 0.789508 0.480431
O O19 0.170376 0.000000 0.473478
#
# Coordination Sequence:
#
# PCOD9399738 Si02
#       7
#     8   8   8   8   8   8   8
#     4   8  15  29  52  79 101 124 160 212 262 298
#     4  10  18  32  56  81 106 136 171 217 267 310
#     4  11  23  36  52  78 111 146 180 216 263 321
#     4   9  16  31  53  74  98 129 169 209 248 300
#     4  10  19  33  55  79 104 137 176 215 260 314
#     4  11  23  34  45  69 108 146 175 207 251 305
#     4  10  21  37  57  80 105 137 181 228 268 314
#
# _framework density 16.387461999999999
#
# number of rings (size 3 to 8) (size 9 to 14) (size 15 to 20)
#    0.000    2.143    2.857    2.143    0.000    3.714 
#    0.000    2.143    0.000    0.857    0.000    2.000 
#    0.000    0.000    0.000    0.000    0.000    0.000 
#
# Total GULP energy -312281.940400 kJ/mol
# GULP energy per Si atom -5576.463221 kJ/mol
# Density = 1.635016 g / cm^3
# Si number density = 16.387462 Si / 1000 Ang^3
#
#
#
# Elastic Constant Matrix: (Units=GPa)
#
#
# Indices 1 2 3 4 5 6 
#
# 1 75.3349 42.9126 47.3759 0.0000 0.0000 0.0000
# 2 42.9126 46.1724 45.2519 0.0000 0.0000 0.0000
# 3 47.3759 45.2519 115.6594 0.0000 0.0000 0.0000
# 4 0.0000 0.0000 0.0000 -5.8682 0.0000 0.0000
# 5 0.0000 0.0000 0.0000 0.0000 20.3194 0.0000
# 6 0.0000 0.0000 0.0000 0.0000 0.0000 16.2445
#
#
#
# Elastic Compliance Matrix: (Units=1/GPa)
#
#
# Indices 1 2 3 4 5 6 
#
# 1 0.028526 -0.024427 -0.002128 0.000000 0.000000 0.000000
# 2 -0.024427 0.056045 -0.011922 0.000000 0.000000 0.000000
# 3 -0.002128 -0.011922 0.014182 0.000000 0.000000 0.000000
# 4 0.000000 0.000000 0.000000 -0.170410 0.000000 0.000000
# 5 0.000000 0.000000 0.000000 0.000000 0.049214 0.000000
# 6 0.000000 0.000000 0.000000 0.000000 0.000000 0.061559
#
#
# Mechanical properties :
#
#
# Convention : Reuss Voigt Hill
#
# Bulk Modulus (GPa) = 45.87199 56.47194 51.17197
# Shear Modulus (GPa) = 40.53940 12.91422 26.72681
#
# Velocity S-wave (km/s) = 4.97913 2.81028 4.04286
# Velocity P-wave (km/s) = 7.81720 6.71308 7.28608
#
# Compressibility (1/GPa) = 0.02179979
#
# Stress axis : x y z
#
# Youngs Moduli (GPa) = 35.05524 17.84291 70.51155
#
# Poissons Ratio (x) = 0.43585 0.15003
# Poissons Ratio (y) = 0.85630 0.84063
# Poissons Ratio (z) = 0.07459 0.21272
#
# Static dielectric constant tensor:
#      x y z
#    x 1.544780 0.000000 0.000000 
#    y 0.000000 1.549060 0.000000 
#    z 0.000000 0.000000 1.549950 
# 
# From -- ./inp_files/30376.got.cif
#   From: 2010.05.17/outbox.cif.g08.bks.cpg/sg51_16_cif.got.tgz:30376.got - 2010.06.03 11:52:47.
