data_PCOD9399406
_publ_section_title
;
Structure prediction by ZEFSAII (Michael W. Deem and Ramdas Pophale) SiO2 
 PCOD9399406
Probable space group: P M M A
;
_chemical_formula_sum "Si O2"
_cell_formula_units_Z 52
_cell_length_a 20.779162
_cell_length_b 13.971817
_cell_length_c 10.053489
_cell_angle_alpha 90.000000
_cell_angle_beta 90.000000
_cell_angle_gamma 90.000000
_cell_volume 2918.755557
_symmetry_space_group_name_H-M "P M M A"
_symmetry_group_IT_number 51
_symmetry_cell_setting 'orthorhombic'
loop_
_space_group_symop_operation_xyz
x,y,z
1/2-x,-y,z
1/2+x,-y,-z
-x,y,-z
-x,-y,-z
1/2+x,y,-z
1/2-x,y,z
x,-y,z
loop_
_atom_site_type_symbol
_atom_site_label
_atom_site_fract_x
_atom_site_fract_y
_atom_site_fract_z
Si Si1 0.111660 0.198804 0.827302
Si Si2 0.173154 0.756158 0.320596
Si Si3 0.000000 0.735135 0.000000
Si Si4 0.394069 0.388877 0.154813
Si Si5 0.826677 0.106865 0.919035
Si Si6 0.825387 0.391222 0.119696
Si Si7 0.174255 0.111720 0.576627
O O1 0.041914 0.203198 0.896134
O O2 0.126502 0.139477 0.695688
O O3 0.156315 0.154521 0.942093
O O4 0.134058 0.308884 0.808940
O O5 0.250000 0.737293 0.310007
O O6 0.133088 0.661128 0.287234
O O7 0.151896 0.826873 0.201554
O O8 0.163241 0.814465 0.456181
O O9 0.047059 0.668392 0.087667
O O10 0.409901 0.500000 0.174517
O O11 0.339718 0.382700 0.038401
O O12 0.750000 0.100911 0.907424
O O13 0.853728 0.000000 0.911510
O O14 0.750000 0.377079 0.144470
O O15 0.843267 0.500000 0.157516
O O16 0.250000 0.122150 0.618156
O O17 0.166435 0.000000 0.537061
#
# Coordination Sequence:
#
# PCOD9399406 Si02
#       7
#     8   8   4   8   8   8   8
#     4  11  20  34  54  77 110 146 189 231 272 322
#     4  10  19  34  56  84 115 142 174 223 282 339
#     4  10  21  36  55  80 112 148 191 240 277 308
#     4  10  19  33  56  81 109 145 185 228 274 325
#     4  10  18  30  53  80 104 135 179 230 281 333
#     4   9  16  27  48  79 108 133 169 223 285 333
#     4  10  21  37  58  84 114 147 178 219 282 346
#
# _framework density 17.815811
#
# number of rings (size 3 to 8) (size 9 to 14) (size 15 to 20)
#    0.000    2.000    3.077    3.000    0.000    4.615 
#    0.000    3.077    0.000    2.769    0.000    0.000 
#    0.000    0.000    0.000    0.000    0.000    0.000 
#
# Total GULP energy -289854.188524 kJ/mol
# GULP energy per Si atom -5574.119010 kJ/mol
# Density = 1.777526 g / cm^3
# Si number density = 17.815811 Si / 1000 Ang^3
#
#
#
# Elastic Constant Matrix: (Units=GPa)
#
#
# Indices 1 2 3 4 5 6 
#
# 1 37.4614 18.3505 15.9690 0.0000 0.0000 0.0000
# 2 18.3505 60.1625 15.4373 0.0000 0.0000 0.0000
# 3 15.9690 15.4373 65.9474 0.0000 0.0000 0.0000
# 4 0.0000 0.0000 0.0000 28.3795 0.0000 0.0000
# 5 0.0000 0.0000 0.0000 0.0000 19.6937 0.0000
# 6 0.0000 0.0000 0.0000 0.0000 0.0000 5.0805
#
#
#
# Elastic Compliance Matrix: (Units=1/GPa)
#
#
# Indices 1 2 3 4 5 6 
#
# 1 0.033536 -0.008666 -0.006092 0.000000 0.000000 0.000000
# 2 -0.008666 0.019923 -0.002565 0.000000 0.000000 0.000000
# 3 -0.006092 -0.002565 0.017239 0.000000 0.000000 0.000000
# 4 0.000000 0.000000 0.000000 0.035237 0.000000 0.000000
# 5 0.000000 0.000000 0.000000 0.000000 0.050778 0.000000
# 6 0.000000 0.000000 0.000000 0.000000 0.000000 0.196830
#
#
# Mechanical properties :
#
#
# Convention : Reuss Voigt Hill
#
# Bulk Modulus (GPa) = 27.73777 29.23167 28.48472
# Shear Modulus (GPa) = 12.49355 18.21839 15.35597
#
# Velocity S-wave (km/s) = 2.65101 3.20128 2.93905
# Velocity P-wave (km/s) = 4.99734 5.48703 5.24790
#
# Compressibility (1/GPa) = 0.03605193
#
# Stress axis : x y z
#
# Youngs Moduli (GPa) = 29.81868 50.19305 58.00704
#
# Poissons Ratio (x) = 0.43496 0.35339
# Poissons Ratio (y) = 0.25840 0.14880
# Poissons Ratio (z) = 0.18166 0.12876
#
# Static dielectric constant tensor:
#      x y z
#    x 1.618150 0.000000 0.000000 
#    y 0.000000 1.659940 0.000000 
#    z 0.000000 0.000000 1.587590 
# 
# From -- ./inp_files/10893.got.cif
#   From: 2010.05.17/outbox.cif.g08.bks.cpg/sg51_6_cif.got.tgz:10893.got - 2010.06.03 11:52:47.
