data_PCOD9399114
_publ_section_title
;
Structure prediction by ZEFSAII (Michael W. Deem and Ramdas Pophale) SiO2 
 PCOD9399114
Probable space group: P M M A
;
_chemical_formula_sum "Si O2"
_cell_formula_units_Z 56
_cell_length_a 19.457545
_cell_length_b 7.375466
_cell_length_c 18.844682
_cell_angle_alpha 90.000000
_cell_angle_beta 90.000000
_cell_angle_gamma 90.000000
_cell_volume 2704.371323
_symmetry_space_group_name_H-M "P M M A"
_symmetry_group_IT_number 51
_symmetry_cell_setting 'orthorhombic'
loop_
_space_group_symop_operation_xyz
x,y,z
1/2-x,-y,z
1/2+x,-y,-z
-x,y,-z
-x,-y,-z
1/2+x,y,-z
1/2-x,y,z
x,-y,z
loop_
_atom_site_type_symbol
_atom_site_label
_atom_site_fract_x
_atom_site_fract_y
_atom_site_fract_z
Si Si1 0.038081 0.781896 0.200695
Si Si2 0.670455 0.781458 0.565803
Si Si3 0.954454 0.706253 0.063011
Si Si4 0.328043 0.779073 0.274696
Si Si5 0.411007 0.711215 0.702785
Si Si6 0.670293 0.721901 0.158434
Si Si7 0.560438 0.706547 0.451946
O O1 0.114672 0.721430 0.219239
O O2 0.005398 0.703873 0.129964
O O3 0.986566 0.728306 0.263608
O O4 0.037172 0.000000 0.194774
O O5 0.750000 0.734251 0.556925
O O6 0.650465 0.725176 0.645563
O O7 0.624759 0.703218 0.504101
O O8 0.664596 0.000000 0.562687
O O9 0.937993 0.500000 0.040095
O O10 0.883269 0.782031 0.096662
O O11 0.000000 0.791343 0.000000
O O12 0.250000 0.719457 0.261439
O O13 0.326997 0.000000 0.274668
O O14 0.391389 0.500000 0.694975
O O15 0.360283 0.782708 0.764889
O O16 0.416994 0.788929 0.623451
O O17 0.750000 0.773661 0.149125
O O18 0.667220 0.500000 0.158396
O O19 0.500000 0.791411 0.500000
O O20 0.537134 0.500000 0.435370
#
# Coordination Sequence:
#
# PCOD9399114 Si02
#       7
#     8   8   8   8   8   8   8
#     4  10  18  29  50  74  92 116 153 194 230 268
#     4   9  18  32  48  65  88 122 162 200 239 285
#     4   9  18  33  51  70  96 127 151 178 226 282
#     4   8  15  29  47  66  90 122 158 192 230 279
#     4   9  18  31  46  65  92 125 157 192 236 285
#     4   8  14  27  48  69  86 113 156 192 216 260
#     4  10  20  31  44  66  95 125 159 202 249 292
#
# _framework density 20.707217
#
# number of rings (size 3 to 8) (size 9 to 14) (size 15 to 20)
#    0.000    3.000    0.000    3.000    0.000    2.000 
#    0.000    2.857    0.000   11.143    0.000    0.000 
#    0.000    0.000    0.000    0.000    0.000    0.000 
#
# Total GULP energy -312123.742931 kJ/mol
# GULP energy per Si atom -5573.638267 kJ/mol
# Density = 2.066009 g / cm^3
# Si number density = 20.707217 Si / 1000 Ang^3
#
#
#
# Elastic Constant Matrix: (Units=GPa)
#
#
# Indices 1 2 3 4 5 6 
#
# 1 134.5647 1.7236 89.3596 0.0000 0.0000 0.0000
# 2 1.7236 71.2881 6.4364 0.0000 0.0000 0.0000
# 3 89.3596 6.4364 88.7426 0.0000 0.0000 0.0000
# 4 0.0000 0.0000 0.0000 1.5535 0.0000 0.0000
# 5 0.0000 0.0000 0.0000 0.0000 26.2943 0.0000
# 6 0.0000 0.0000 0.0000 0.0000 0.0000 10.9195
#
#
#
# Elastic Compliance Matrix: (Units=1/GPa)
#
#
# Indices 1 2 3 4 5 6 
#
# 1 0.022592 0.001518 -0.022859 0.000000 0.000000 0.000000
# 2 0.001518 0.014222 -0.002560 0.000000 0.000000 0.000000
# 3 -0.022859 -0.002560 0.034472 0.000000 0.000000 0.000000
# 4 0.000000 0.000000 0.000000 0.643699 0.000000 0.000000
# 5 0.000000 0.000000 0.000000 0.000000 0.038031 0.000000
# 6 0.000000 0.000000 0.000000 0.000000 0.000000 0.091579
#
#
# Mechanical properties :
#
#
# Convention : Reuss Voigt Hill
#
# Bulk Modulus (GPa) = 42.58243 54.40386 48.49315
# Shear Modulus (GPa) = 5.55417 20.89184 13.22301
#
# Velocity S-wave (km/s) = 1.63953 3.17979 2.52974
# Velocity P-wave (km/s) = 4.91862 6.30962 5.65704
#
# Compressibility (1/GPa) = 0.02348386
#
# Stress axis : x y z
#
# Youngs Moduli (GPa) = 44.26426 70.31362 29.00918
#
# Poissons Ratio (x) = -0.10671 0.66311
# Poissons Ratio (y) = -0.06718 0.07425
# Poissons Ratio (z) = 1.01182 0.17998
#
# Static dielectric constant tensor:
#      x y z
#    x 1.686800 0.000000 0.000000 
#    y 0.000000 1.808920 0.000000 
#    z 0.000000 0.000000 1.734050 
# 
# From -- ./inp_files/30361.got.cif
#   From: 2010.05.17/outbox.cif.g08.bks.cpg/sg51_16_cif.got.tgz:30361.got - 2010.06.03 11:52:47.
