data_PCOD9399054
_publ_section_title
;
Structure prediction by ZEFSAII (Michael W. Deem and Ramdas Pophale) SiO2 
 PCOD9399054
Probable space group: P M M A
;
_chemical_formula_sum "Si O2"
_cell_formula_units_Z 48
_cell_length_a 21.353612
_cell_length_b 8.484899
_cell_length_c 15.445679
_cell_angle_alpha 90.000000
_cell_angle_beta 90.000000
_cell_angle_gamma 90.000000
_cell_volume 2798.498182
_symmetry_space_group_name_H-M "P M M A"
_symmetry_group_IT_number 51
_symmetry_cell_setting 'orthorhombic'
loop_
_space_group_symop_operation_xyz
x,y,z
1/2-x,-y,z
1/2+x,-y,-z
-x,y,-z
-x,-y,-z
1/2+x,y,-z
1/2-x,y,z
x,-y,z
loop_
_atom_site_type_symbol
_atom_site_label
_atom_site_fract_x
_atom_site_fract_y
_atom_site_fract_z
Si Si1 0.180912 0.812594 0.611096
Si Si2 0.182726 0.689920 0.992174
Si Si3 0.554108 0.810991 0.933214
Si Si4 0.478799 0.187709 0.768623
Si Si5 0.655561 0.314442 0.201108
Si Si6 0.456721 0.688578 0.581709
O O1 0.250000 0.758815 0.578842
O O2 0.178951 0.774262 0.713722
O O3 0.116607 0.738224 0.574170
O O4 0.176983 0.000000 0.598972
O O5 0.250000 0.740123 0.029189
O O6 0.180674 0.500000 0.991225
O O7 0.121593 0.748647 0.040547
O O8 0.180080 0.740574 0.891502
O O9 0.534164 0.772905 0.834978
O O10 0.555563 0.000000 0.940960
O O11 0.500000 0.754188 0.000000
O O12 0.418517 0.283707 0.800615
O O13 0.484653 0.231847 0.668207
O O14 0.466209 0.000000 0.775750
O O15 0.669160 0.500000 0.211664
O O16 0.500000 0.730498 0.500000
O O17 0.458121 0.500000 0.592898
#
# Coordination Sequence:
#
# PCOD9399054 Si02
#       6
#     8   8   8   8   8   8
#     4  10  20  32  49  75 105 136 168 203 250 307
#     4  10  21  33  46  69 101 137 177 217 256 299
#     4  10  20  34  51  73 102 134 173 213 249 297
#     4  10  19  32  52  76 102 132 169 211 253 299
#     4  10  18  29  47  71 102 136 169 204 248 300
#     4  10  21  36  55  79 105 133 168 210 258 309
#
# _framework density 17.152058
#
# number of rings (size 3 to 8) (size 9 to 14) (size 15 to 20)
#    0.000    2.000    1.667    4.500    0.000    6.000 
#    0.000    0.000    0.000    1.000    0.000    0.000 
#    0.000    0.000    0.000    0.000    0.000    0.000 
#
# Total GULP energy -267634.871335 kJ/mol
# GULP energy per Si atom -5575.726486 kJ/mol
# Density = 1.711302 g / cm^3
# Si number density = 17.152058 Si / 1000 Ang^3
#
#
#
# Elastic Constant Matrix: (Units=GPa)
#
#
# Indices 1 2 3 4 5 6 
#
# 1 153.2341 19.7497 67.7751 0.0000 0.0000 0.0000
# 2 19.7497 22.5257 17.2863 0.0000 0.0000 0.0000
# 3 67.7751 17.2863 75.3339 0.0000 0.0000 0.0000
# 4 0.0000 0.0000 0.0000 22.0852 0.0000 0.0000
# 5 0.0000 0.0000 0.0000 0.0000 15.9048 0.0000
# 6 0.0000 0.0000 0.0000 0.0000 0.0000 19.5868
#
#
#
# Elastic Compliance Matrix: (Units=1/GPa)
#
#
# Indices 1 2 3 4 5 6 
#
# 1 0.010952 -0.002477 -0.009284 0.000000 0.000000 0.000000
# 2 -0.002477 0.054442 -0.010264 0.000000 0.000000 0.000000
# 3 -0.009284 -0.010264 0.023982 0.000000 0.000000 0.000000
# 4 0.000000 0.000000 0.000000 0.045279 0.000000 0.000000
# 5 0.000000 0.000000 0.000000 0.000000 0.062874 0.000000
# 6 0.000000 0.000000 0.000000 0.000000 0.000000 0.051055
#
#
# Mechanical properties :
#
#
# Convention : Reuss Voigt Hill
#
# Bulk Modulus (GPa) = 22.06278 51.19065 36.62671
# Shear Modulus (GPa) = 16.24731 21.26753 18.75742
#
# Velocity S-wave (km/s) = 3.08108 3.52510 3.31054
# Velocity P-wave (km/s) = 5.05454 6.81751 6.00112
#
# Compressibility (1/GPa) = 0.04532520
#
# Stress axis : x y z
#
# Youngs Moduli (GPa) = 91.30993 18.36818 41.69749
#
# Poissons Ratio (x) = 0.04550 0.38714
# Poissons Ratio (y) = 0.22619 0.42797
# Poissons Ratio (z) = 0.84776 0.18853
#
# Static dielectric constant tensor:
#      x y z
#    x 1.610640 0.000000 0.000000 
#    y 0.000000 1.586950 0.000000 
#    z 0.000000 0.000000 1.572680 
# 
# From -- ./inp_files/25441.got.cif
#   From: 2010.05.17/outbox.cif.g08.bks.cpg/sg51_13_cif.got.tgz:25441.got - 2010.06.03 11:52:47.
