data_PCOD9399034
_publ_section_title
;
Structure prediction by ZEFSAII (Michael W. Deem and Ramdas Pophale) SiO2 
 PCOD9399034
Probable space group: P M M A
;
_chemical_formula_sum "Si O2"
_cell_formula_units_Z 64
_cell_length_a 19.295709
_cell_length_b 9.494577
_cell_length_c 20.767749
_cell_angle_alpha 90.000000
_cell_angle_beta 90.000000
_cell_angle_gamma 90.000000
_cell_volume 3804.747042
_symmetry_space_group_name_H-M "P M M A"
_symmetry_group_IT_number 51
_symmetry_cell_setting 'orthorhombic'
loop_
_space_group_symop_operation_xyz
x,y,z
1/2-x,-y,z
1/2+x,-y,-z
-x,y,-z
-x,-y,-z
1/2+x,y,-z
1/2-x,y,z
x,-y,z
loop_
_atom_site_type_symbol
_atom_site_label
_atom_site_fract_x
_atom_site_fract_y
_atom_site_fract_z
Si Si1 0.426671 0.836517 0.580866
Si Si2 0.041165 0.835877 0.828877
Si Si3 0.111790 0.661508 0.315066
Si Si4 0.094188 0.162910 0.437553
Si Si5 0.556345 0.337477 0.296507
Si Si6 0.374695 0.837457 0.191426
Si Si7 0.330732 0.837416 0.049785
Si Si8 0.929582 0.335670 0.041623
O O1 0.394441 0.795132 0.511912
O O2 0.510448 0.833695 0.571871
O O3 0.411548 0.735144 0.640345
O O4 0.408779 0.000000 0.594288
O O5 0.070537 0.756028 0.766376
O O6 0.060898 0.752180 0.893071
O O7 0.957548 0.832473 0.821060
O O8 0.061768 0.000000 0.831643
O O9 0.134075 0.500000 0.316882
O O10 0.125911 0.740932 0.382039
O O11 0.141136 0.742804 0.253156
O O12 0.027623 0.663399 0.306171
O O13 0.115240 0.000000 0.429483
O O14 0.577074 0.500000 0.288783
O O15 0.340513 0.793488 0.124221
O O16 0.355727 0.000000 0.204569
O O17 0.250000 0.837442 0.034108
O O18 0.356959 0.000000 0.045258
O O19 0.371775 0.736705 0.002385
O O20 0.915269 0.500000 0.055121
O O21 0.000000 0.328295 0.000000
#
# Coordination Sequence:
#
# PCOD9399034 Si02
#       8
#     8   8   8   8   8   8   8   8
#     4   8  13  21  32  46  68 103 144 180 219 268
#     4  10  18  29  47  66  87 117 155 195 234 279
#     4   9  16  23  34  53  77 106 142 184 225 268
#     4   8  13  21  32  46  68 101 142 184 220 262
#     4   9  16  24  34  53  81 109 141 184 231 274
#     4   9  17  29  45  64  86 115 149 189 233 276
#     4  10  21  37  55  74  96 124 160 199 240 290
#     4  11  22  34  51  74  99 125 155 196 243 292
#
# _framework density 16.821093000000001
#
# number of rings (size 3 to 8) (size 9 to 14) (size 15 to 20)
#    0.000    2.750    1.250    2.250    0.000    5.250 
#    0.000    2.500    0.000    0.000    0.000    0.000 
#    0.000    0.000    0.000    1.125    0.000   19.500 
#
# Total GULP energy -356620.760715 kJ/mol
# GULP energy per Si atom -5572.199386 kJ/mol
# Density = 1.678281 g / cm^3
# Si number density = 16.821093 Si / 1000 Ang^3
#
#
#
# Elastic Constant Matrix: (Units=GPa)
#
#
# Indices 1 2 3 4 5 6 
#
# 1 12.3502 17.5704 14.7224 0.0000 0.0000 0.0000
# 2 17.5704 139.6175 108.0997 0.0000 0.0000 0.0000
# 3 14.7224 108.0997 150.9254 0.0000 0.0000 0.0000
# 4 0.0000 0.0000 0.0000 21.0943 0.0000 0.0000
# 5 0.0000 0.0000 0.0000 0.0000 2.7975 0.0000
# 6 0.0000 0.0000 0.0000 0.0000 0.0000 3.5262
#
#
#
# Elastic Compliance Matrix: (Units=1/GPa)
#
#
# Indices 1 2 3 4 5 6 
#
# 1 0.098811 -0.011162 -0.001644 0.000000 0.000000 0.000000
# 2 -0.011162 0.017340 -0.011331 0.000000 0.000000 0.000000
# 3 -0.001644 -0.011331 0.014902 0.000000 0.000000 0.000000
# 4 0.000000 0.000000 0.000000 0.047406 0.000000 0.000000
# 5 0.000000 0.000000 0.000000 0.000000 0.357464 0.000000
# 6 0.000000 0.000000 0.000000 0.000000 0.000000 0.283594
#
#
# Mechanical properties :
#
#
# Convention : Reuss Voigt Hill
#
# Bulk Modulus (GPa) = 12.08043 64.85312 38.46677
# Shear Modulus (GPa) = 5.58419 16.31695 10.95057
#
# Velocity S-wave (km/s) = 1.82400 3.11791 2.55424
# Velocity P-wave (km/s) = 3.41076 7.18332 5.62287
#
# Compressibility (1/GPa) = 0.08277854
#
# Stress axis : x y z
#
# Youngs Moduli (GPa) = 10.12038 57.66916 67.10523
#
# Poissons Ratio (x) = 0.64371 0.11031
# Poissons Ratio (y) = 0.11297 0.76037
# Poissons Ratio (z) = 0.01664 0.65345
#
# Static dielectric constant tensor:
#      x y z
#    x 1.544940 0.000000 0.000000 
#    y 0.000000 1.566250 0.000000 
#    z 0.000000 0.000000 1.563090 
# 
# From -- ./inp_files/34057.got.cif
#   From: 2010.05.17/outbox.cif.g08.bks.cpg/sg51_18_cif.got.tgz:34057.got - 2010.06.03 11:52:47.
