data_PCOD9399385
_publ_section_title
;
Structure prediction by ZEFSAII (Michael W. Deem and Ramdas Pophale) SiO2 
 PCOD9399385
Probable space group: P M M A
;
_chemical_formula_sum "Si O2"
_cell_formula_units_Z 64
_cell_length_a 34.006084
_cell_length_b 9.100369
_cell_length_c 10.957085
_cell_angle_alpha 90.000000
_cell_angle_beta 90.000000
_cell_angle_gamma 90.000000
_cell_volume 3390.866224
_symmetry_space_group_name_H-M "P M M A"
_symmetry_group_IT_number 51
_symmetry_cell_setting 'orthorhombic'
loop_
_space_group_symop_operation_xyz
x,y,z
1/2-x,-y,z
1/2+x,-y,-z
-x,y,-z
-x,-y,-z
1/2+x,y,-z
1/2-x,y,z
x,-y,z
loop_
_atom_site_type_symbol
_atom_site_label
_atom_site_fract_x
_atom_site_fract_y
_atom_site_fract_z
Si Si1 0.937242 0.173672 0.303260
Si Si2 0.204400 0.174952 0.932885
Si Si3 0.795180 0.673020 0.803232
Si Si4 0.490422 0.673170 0.201345
Si Si5 0.913260 0.671874 0.925842
Si Si6 0.444818 0.171911 0.417788
Si Si7 0.368566 0.327611 0.817949
Si Si8 0.133808 0.170681 0.286884
O O1 0.952695 0.200635 0.440767
O O2 0.895694 0.252273 0.283134
O O3 0.969489 0.237246 0.210324
O O4 0.932819 0.000000 0.287246
O O5 0.250000 0.202387 0.898178
O O6 0.172677 0.248742 0.844397
O O7 0.198251 0.000000 0.938973
O O8 0.198954 0.244424 0.067674
O O9 0.750000 0.696332 0.765603
O O10 0.801392 0.500000 0.823607
O O11 0.826779 0.734925 0.708814
O O12 0.499375 0.500000 0.201899
O O13 0.459594 0.703222 0.092090
O O14 0.466392 0.722127 0.322881
O O15 0.908246 0.500000 0.889154
O O16 0.889597 0.774054 0.832802
O O17 0.894426 0.687933 0.058003
O O18 0.398080 0.187008 0.393826
O O19 0.455149 0.000000 0.390378
O O20 0.362891 0.500000 0.794893
O O21 0.143942 0.000000 0.274901
#
# Coordination Sequence:
#
# PCOD9399385 Si02
#       8
#     8   8   8   8   8   8   8   8
#     4  11  23  38  54  74 105 142 182 224 268 313
#     4  10  20  34  54  81 110 140 175 214 256 305
#     4  10  19  30  47  75 110 141 167 202 255 314
#     4  10  20  35  56  80 105 134 175 223 271 320
#     4   9  19  34  51  74 106 141 170 209 267 320
#     4   9  20  37  55  76 102 136 176 222 271 316
#     4  11  22  36  55  78 109 143 179 219 262 314
#     4  10  18  30  52  77 102 132 171 216 260 311
#
# _framework density 18.874231999999999
#
# number of rings (size 3 to 8) (size 9 to 14) (size 15 to 20)
#    0.000    2.000    1.250    2.625    0.000    6.000 
#    0.000    2.500    0.000    0.750    0.000    1.750 
#    0.000    0.000    0.000    0.000    0.000    0.000 
#
# Total GULP energy -357345.456125 kJ/mol
# GULP energy per Si atom -5583.522752 kJ/mol
# Density = 1.883127 g / cm^3
# Si number density = 18.874232 Si / 1000 Ang^3
#
#
#
# Elastic Constant Matrix: (Units=GPa)
#
#
# Indices 1 2 3 4 5 6 
#
# 1 102.9561 44.2313 2.5714 0.0000 0.0000 0.0000
# 2 44.2313 72.5041 15.6027 0.0000 0.0000 0.0000
# 3 2.5714 15.6027 21.3912 0.0000 0.0000 0.0000
# 4 0.0000 0.0000 0.0000 14.9210 0.0000 0.0000
# 5 0.0000 0.0000 0.0000 0.0000 26.5214 0.0000
# 6 0.0000 0.0000 0.0000 0.0000 0.0000 33.3756
#
#
#
# Elastic Compliance Matrix: (Units=1/GPa)
#
#
# Indices 1 2 3 4 5 6 
#
# 1 0.013643 -0.009454 0.005256 0.000000 0.000000 0.000000
# 2 -0.009454 0.022912 -0.015575 0.000000 0.000000 0.000000
# 3 0.005256 -0.015575 0.057477 0.000000 0.000000 0.000000
# 4 0.000000 0.000000 0.000000 0.067020 0.000000 0.000000
# 5 0.000000 0.000000 0.000000 0.000000 0.037705 0.000000
# 6 0.000000 0.000000 0.000000 0.000000 0.000000 0.029962
#
#
# Mechanical properties :
#
#
# Convention : Reuss Voigt Hill
#
# Bulk Modulus (GPa) = 18.35374 35.74023 27.04699
# Shear Modulus (GPa) = 17.45642 23.92668 20.69155
#
# Velocity S-wave (km/s) = 3.04449 3.56433 3.31461
# Velocity P-wave (km/s) = 4.70147 5.99302 5.38610
#
# Compressibility (1/GPa) = 0.05448479
#
# Stress axis : x y z
#
# Youngs Moduli (GPa) = 73.29642 43.64600 17.39825
#
# Poissons Ratio (x) = 0.41264 -0.09144
# Poissons Ratio (y) = 0.69295 0.27098
# Poissons Ratio (z) = -0.38523 0.67980
#
# Static dielectric constant tensor:
#      x y z
#    x 1.691140 0.000000 0.000000 
#    y 0.000000 1.629680 0.000000 
#    z 0.000000 0.000000 1.642630 
# 
# From -- ./inp_files/19505.got.cif
#   From: 2010.05.17/outbox.cif.g08.bks.cpg/sg51_10_cif.got.tgz:19505.got - 2010.06.03 11:52:47.
