data_PCOD9399210
_publ_section_title
;
Structure prediction by ZEFSAII (Michael W. Deem and Ramdas Pophale) SiO2 
 PCOD9399210
Probable space group: P M M A
;
_chemical_formula_sum "Si O2"
_cell_formula_units_Z 40
_cell_length_a 8.791960
_cell_length_b 15.978459
_cell_length_c 20.343495
_cell_angle_alpha 90.000000
_cell_angle_beta 90.000000
_cell_angle_gamma 90.000000
_cell_volume 2857.894303
_symmetry_space_group_name_H-M "P M M A"
_symmetry_group_IT_number 51
_symmetry_cell_setting 'orthorhombic'
loop_
_space_group_symop_operation_xyz
x,y,z
1/2-x,-y,z
1/2+x,-y,-z
-x,y,-z
-x,-y,-z
1/2+x,y,-z
1/2-x,y,z
x,-y,z
loop_
_atom_site_type_symbol
_atom_site_label
_atom_site_fract_x
_atom_site_fract_y
_atom_site_fract_z
Si Si1 0.933132 0.672859 0.926490
Si Si2 0.934077 0.097741 0.288008
Si Si3 0.933563 0.000000 0.927268
Si Si4 0.432931 0.837463 0.156318
Si Si5 0.067585 0.500000 0.925970
Si Si6 0.926441 0.101678 0.432385
O O1 0.750000 0.665314 0.931271
O O2 0.972138 0.752233 0.881477
O O3 0.003355 0.586925 0.898054
O O4 0.000000 0.685274 0.000000
O O5 0.750000 0.099240 0.288667
O O6 0.988580 0.126166 0.360568
O O7 0.995776 0.151446 0.227972
O O8 0.979626 0.000000 0.278333
O O9 0.981254 0.082822 0.887596
O O10 0.750000 0.000000 0.931218
O O11 0.000000 0.000000 0.000000
O O12 0.250000 0.840670 0.162235
O O13 0.250000 0.500000 0.927354
O O14 0.000000 0.500000 0.000000
O O15 0.750000 0.124599 0.434323
O O16 0.000000 0.131787 0.500000
O O17 0.935169 0.000000 0.432413
#
# Coordination Sequence:
#
# PCOD9399210 Si02
#       6
#     8   8   4   8   4   8
#     4  10  19  31  46  64  83 105 134 172 213 255
#     4   9  17  28  41  57  79 108 141 174 207 244
#     4  10  20  32  42  56  77 104 141 178 207 240
#     4  10  20  31  43  59  82 109 140 175 209 245
#     4  10  18  30  48  66  82 102 127 164 211 260
#     4   8  14  24  37  55  76  99 132 170 205 241
#
# _framework density 13.996319
#
# number of rings (size 3 to 8) (size 9 to 14) (size 15 to 20)
#    0.000    2.600    1.000    4.500    0.000    3.200 
#    0.000    2.000    0.000    0.000    0.000    0.000 
#    0.000    0.000    0.000    0.900    0.000   11.800 
#
# Total GULP energy -222776.204228 kJ/mol
# GULP energy per Si atom -5569.405106 kJ/mol
# Density = 1.396446 g / cm^3
# Si number density = 13.996319 Si / 1000 Ang^3
#
#
#
# Elastic Constant Matrix: (Units=GPa)
#
#
# Indices 1 2 3 4 5 6 
#
# 1 36.8760 34.4168 36.1549 0.0000 0.0000 0.0000
# 2 34.4168 98.8995 54.8874 0.0000 0.0000 0.0000
# 3 36.1549 54.8874 127.1978 0.0000 0.0000 0.0000
# 4 0.0000 0.0000 0.0000 5.9245 0.0000 0.0000
# 5 0.0000 0.0000 0.0000 0.0000 25.0936 0.0000
# 6 0.0000 0.0000 0.0000 0.0000 0.0000 13.6550
#
#
#
# Elastic Compliance Matrix: (Units=1/GPa)
#
#
# Indices 1 2 3 4 5 6 
#
# 1 0.045678 -0.011427 -0.008053 0.000000 0.000000 0.000000
# 2 -0.011427 0.016154 -0.003723 0.000000 0.000000 0.000000
# 3 -0.008053 -0.003723 0.011757 0.000000 0.000000 0.000000
# 4 0.000000 0.000000 0.000000 0.168791 0.000000 0.000000
# 5 0.000000 0.000000 0.000000 0.000000 0.039851 0.000000
# 6 0.000000 0.000000 0.000000 0.000000 0.000000 0.073233
#
#
# Mechanical properties :
#
#
# Convention : Reuss Voigt Hill
#
# Bulk Modulus (GPa) = 36.78564 57.09904 46.94234
# Shear Modulus (GPa) = 12.16756 18.10224 15.13490
#
# Velocity S-wave (km/s) = 2.95166 3.60023 3.29195
# Velocity P-wave (km/s) = 6.16083 7.62670 6.93262
#
# Compressibility (1/GPa) = 0.02718452
#
# Stress axis : x y z
#
# Youngs Moduli (GPa) = 21.89248 61.90541 85.05537
#
# Poissons Ratio (x) = 0.70737 0.68493
# Poissons Ratio (y) = 0.25016 0.31663
# Poissons Ratio (z) = 0.17630 0.23045
#
# Static dielectric constant tensor:
#      x y z
#    x 1.474200 0.000000 0.000000 
#    y 0.000000 1.462320 0.000000 
#    z 0.000000 0.000000 1.465730 
# 
# From -- ./inp_files/31533.got.cif
#   From: 2010.05.17/outbox.cif.g08.bks.cpg/sg51_16_cif.got.tgz:31533.got - 2010.06.03 11:52:47.
