data_PCOD9399614
_publ_section_title
;
Structure prediction by ZEFSAII (Michael W. Deem and Ramdas Pophale) SiO2 
 PCOD9399614
Probable space group: P M M A
;
_chemical_formula_sum "Si O2"
_cell_formula_units_Z 36
_cell_length_a 14.602572
_cell_length_b 10.016457
_cell_length_c 14.854402
_cell_angle_alpha 90.000000
_cell_angle_beta 90.000000
_cell_angle_gamma 90.000000
_cell_volume 2172.694476
_symmetry_space_group_name_H-M "P M M A"
_symmetry_group_IT_number 51
_symmetry_cell_setting 'orthorhombic'
loop_
_space_group_symop_operation_xyz
x,y,z
1/2-x,-y,z
1/2+x,-y,-z
-x,y,-z
-x,-y,-z
1/2+x,y,-z
1/2-x,y,z
x,-y,z
loop_
_atom_site_type_symbol
_atom_site_label
_atom_site_fract_x
_atom_site_fract_y
_atom_site_fract_z
Si Si1 0.440645 0.654632 0.908932
Si Si2 0.078498 0.155395 0.426627
Si Si3 0.750000 0.343240 0.607064
Si Si4 0.250000 0.339587 0.988802
Si Si5 0.750000 0.239540 0.806928
Si Si6 0.953811 0.147761 0.780388
O O1 0.433640 0.500000 0.879604
O O2 0.341078 0.707091 0.938000
O O3 0.491610 0.741723 0.835042
O O4 0.500000 0.656683 0.000000
O O5 0.161542 0.260941 0.427952
O O6 0.036208 0.164452 0.326567
O O7 0.000000 0.180420 0.500000
O O8 0.110646 0.000000 0.436979
O O9 0.750000 0.500000 0.582958
O O10 0.750000 0.331459 0.716938
O O11 0.250000 0.500000 0.984345
O O12 0.250000 0.305356 0.094554
O O13 0.844996 0.159892 0.799318
O O14 0.984922 0.000000 0.807011
#
# Coordination Sequence:
#
# PCOD9399614 Si02
#       6
#     8   8   4   4   4   8
#     4  10  20  34  52  73 101 141 177 207 252 314
#     4   9  19  37  58  77 104 144 181 215 262 323
#     4  10  20  31  53  86 112 131 166 225 277 312
#     4  10  19  33  50  71 101 138 179 209 244 310
#     4  10  18  32  51  77 105 137 167 210 265 316
#     4  10  20  34  53  79 106 132 172 221 264 303
#
# _framework density 16.569288
#
# number of rings (size 3 to 8) (size 9 to 14) (size 15 to 20)
#    0.000    2.222    2.222    1.000    0.000    7.111 
#    0.000    1.667    0.000    4.000    0.000    0.000 
#    0.000    0.000    0.000    0.000    0.000    0.000 
#
# Total GULP energy -200617.591944 kJ/mol
# GULP energy per Si atom -5572.710887 kJ/mol
# Density = 1.653158 g / cm^3
# Si number density = 16.569288 Si / 1000 Ang^3
#
#
#
# Elastic Constant Matrix: (Units=GPa)
#
#
# Indices 1 2 3 4 5 6 
#
# 1 113.8774 61.5767 62.1838 0.0000 0.0000 0.0000
# 2 61.5767 115.5736 56.7421 0.0000 0.0000 0.0000
# 3 62.1838 56.7421 86.3139 0.0000 0.0000 0.0000
# 4 0.0000 0.0000 0.0000 18.0159 0.0000 0.0000
# 5 0.0000 0.0000 0.0000 0.0000 28.9520 0.0000
# 6 0.0000 0.0000 0.0000 0.0000 0.0000 -3.3972
#
#
#
# Elastic Compliance Matrix: (Units=1/GPa)
#
#
# Indices 1 2 3 4 5 6 
#
# 1 0.015722 -0.004157 -0.008594 0.000000 0.000000 0.000000
# 2 -0.004157 0.013875 -0.006126 0.000000 0.000000 0.000000
# 3 -0.008594 -0.006126 0.021804 0.000000 0.000000 0.000000
# 4 0.000000 0.000000 0.000000 0.055507 0.000000 0.000000
# 5 0.000000 0.000000 0.000000 0.000000 0.034540 0.000000
# 6 0.000000 0.000000 0.000000 0.000000 0.000000 -0.294363
#
#
# Mechanical properties :
#
#
# Convention : Reuss Voigt Hill
#
# Bulk Modulus (GPa) = 73.27792 75.19666 74.23729
# Shear Modulus (GPa) = -45.20351 17.73164 -13.73593
#
# Velocity S-wave (km/s) = -5.22884 3.27487 -2.88236
# Velocity P-wave (km/s) = 2.80479 7.73184 5.81585
#
# Compressibility (1/GPa) = 0.01364667
#
# Stress axis : x y z
#
# Youngs Moduli (GPa) = 63.60475 72.07032 45.86248
#
# Poissons Ratio (x) = 0.29963 0.39413
# Poissons Ratio (y) = 0.26443 0.28097
# Poissons Ratio (z) = 0.54660 0.44153
#
# Static dielectric constant tensor:
#      x y z
#    x 1.588610 0.000000 0.000000 
#    y 0.000000 1.562990 0.000000 
#    z 0.000000 0.000000 1.531070 
# 
# From -- ./inp_files/23625.got.cif
#   From: 2010.05.17/outbox.cif.g08.bks.cpg/sg51_12_cif.got.tgz:23625.got - 2010.06.03 11:52:47.
