data_PCOD9399394
_publ_section_title
;
Structure prediction by ZEFSAII (Michael W. Deem and Ramdas Pophale) SiO2 
 PCOD9399394
Probable space group: P M M A
;
_chemical_formula_sum "Si O2"
_cell_formula_units_Z 56
_cell_length_a 16.283610
_cell_length_b 8.054573
_cell_length_c 20.830916
_cell_angle_alpha 90.000000
_cell_angle_beta 90.000000
_cell_angle_gamma 90.000000
_cell_volume 2732.131395
_symmetry_space_group_name_H-M "P M M A"
_symmetry_group_IT_number 51
_symmetry_cell_setting 'orthorhombic'
loop_
_space_group_symop_operation_xyz
x,y,z
1/2-x,-y,z
1/2+x,-y,-z
-x,y,-z
-x,-y,-z
1/2+x,y,-z
1/2-x,y,z
x,-y,z
loop_
_atom_site_type_symbol
_atom_site_label
_atom_site_fract_x
_atom_site_fract_y
_atom_site_fract_z
Si Si1 0.839245 0.689780 0.116335
Si Si2 0.013106 0.193447 0.070904
Si Si3 0.842924 0.699525 0.831032
Si Si4 0.508649 0.310780 0.570116
Si Si5 0.338490 0.193868 0.608494
Si Si6 0.379428 0.190144 0.753480
Si Si7 0.941509 0.298302 0.708020
O O1 0.750000 0.755579 0.094353
O O2 0.846580 0.500000 0.093527
O O3 0.841142 0.694142 0.193273
O O4 0.922257 0.785531 0.099823
O O5 0.085661 0.259977 0.116994
O O6 0.032876 0.000000 0.063171
O O7 0.000000 0.270128 0.000000
O O8 0.750000 0.760279 0.845923
O O9 0.839390 0.500000 0.829102
O O10 0.872043 0.753665 0.759259
O O11 0.500000 0.227513 0.500000
O O12 0.538973 0.500000 0.560730
O O13 0.413830 0.308223 0.590678
O O14 0.556880 0.241136 0.632913
O O15 0.250000 0.240830 0.581323
O O16 0.336379 0.199810 0.685212
O O17 0.355502 0.000000 0.591605
O O18 0.473825 0.236247 0.739564
O O19 0.373420 0.000000 0.776156
O O20 0.943062 0.500000 0.705644
#
# Coordination Sequence:
#
# PCOD9399394 Si02
#       7
#     8   8   8   8   8   8   8
#     4  11  23  37  56  84 116 149 184 224 275 338
#     4  11  25  43  62  85 115 151 190 239 296 349
#     4  10  21  38  62  89 116 152 199 248 296 348
#     4   9  18  32  50  75 108 146 186 230 280 334
#     4   9  18  31  47  71 103 138 176 218 267 327
#     4  10  18  30  52  80 110 142 176 218 273 330
#     4   9  17  32  54  79 111 149 189 233 283 337
#
# _framework density 20.496818999999999
#
# number of rings (size 3 to 8) (size 9 to 14) (size 15 to 20)
#    0.000    2.143    1.429    1.714    0.000    4.857 
#    0.000    3.571    0.000    2.571    0.000    0.000 
#    0.000    0.000    0.000    0.000    0.000    0.000 
#
# Total GULP energy -311746.802066 kJ/mol
# GULP energy per Si atom -5566.907180 kJ/mol
# Density = 2.045017 g / cm^3
# Si number density = 20.496819 Si / 1000 Ang^3
#
#
#
# Elastic Constant Matrix: (Units=GPa)
#
#
# Indices 1 2 3 4 5 6 
#
# 1 120.9593 5.1795 51.7693 0.0000 0.0000 0.0000
# 2 5.1795 20.1498 9.4759 0.0000 0.0000 0.0000
# 3 51.7693 9.4759 123.8287 0.0000 0.0000 0.0000
# 4 0.0000 0.0000 0.0000 8.9176 0.0000 0.0000
# 5 0.0000 0.0000 0.0000 0.0000 1.1033 0.0000
# 6 0.0000 0.0000 0.0000 0.0000 0.0000 -76.5015
#
#
#
# Elastic Compliance Matrix: (Units=1/GPa)
#
#
# Indices 1 2 3 4 5 6 
#
# 1 0.010077 -0.000632 -0.004164 0.000000 0.000000 0.000000
# 2 -0.000632 0.051520 -0.003678 0.000000 0.000000 0.000000
# 3 -0.004164 -0.003678 0.010098 0.000000 0.000000 0.000000
# 4 0.000000 0.000000 0.000000 0.112138 0.000000 0.000000
# 5 0.000000 0.000000 0.000000 0.000000 0.906394 0.000000
# 6 0.000000 0.000000 0.000000 0.000000 0.000000 -0.013072
#
#
# Mechanical properties :
#
#
# Convention : Reuss Voigt Hill
#
# Bulk Modulus (GPa) = 18.26617 44.19857 31.23237
# Shear Modulus (GPa) = 4.49497 -0.06190 2.21653
#
# Velocity S-wave (km/s) = 1.48249 -0.17398 1.04103
# Velocity P-wave (km/s) = 3.44404 4.64436 4.08849
#
# Compressibility (1/GPa) = 0.05474602
#
# Stress axis : x y z
#
# Youngs Moduli (GPa) = 99.23970 19.40977 99.02775
#
# Poissons Ratio (x) = 0.01226 0.41239
# Poissons Ratio (y) = 0.06270 0.36426
# Poissons Ratio (z) = 0.41327 0.07140
#
# Static dielectric constant tensor:
#      x y z
#    x 1.729280 0.000000 0.000000 
#    y 0.000000 1.741540 0.000000 
#    z 0.000000 0.000000 1.804220 
# 
# From -- ./inp_files/33423.got.cif
#   From: 2010.05.17/outbox.cif.g08.bks.cpg/sg51_17_cif.got.tgz:33423.got - 2010.06.03 11:52:47.
