data_PCOD9399428
_publ_section_title
;
Structure prediction by ZEFSAII (Michael W. Deem and Ramdas Pophale) SiO2 
 PCOD9399428
Probable space group: P M M A
;
_chemical_formula_sum "Si O2"
_cell_formula_units_Z 52
_cell_length_a 16.414381
_cell_length_b 13.628029
_cell_length_c 12.548324
_cell_angle_alpha 90.000000
_cell_angle_beta 90.000000
_cell_angle_gamma 90.000000
_cell_volume 2807.005623
_symmetry_space_group_name_H-M "P M M A"
_symmetry_group_IT_number 51
_symmetry_cell_setting 'orthorhombic'
loop_
_space_group_symop_operation_xyz
x,y,z
1/2-x,-y,z
1/2+x,-y,-z
-x,y,-z
-x,-y,-z
1/2+x,y,-z
1/2-x,y,z
x,-y,z
loop_
_atom_site_type_symbol
_atom_site_label
_atom_site_fract_x
_atom_site_fract_y
_atom_site_fract_z
Si Si1 0.250000 0.614716 0.247672
Si Si2 0.921275 0.381371 0.421923
Si Si3 0.344237 0.218437 0.967548
Si Si4 0.250000 0.887859 0.348961
Si Si5 0.897579 0.383515 0.897920
Si Si6 0.964247 0.735427 0.208527
Si Si7 0.250000 0.693615 0.481079
Si Si8 0.400372 0.885287 0.186600
O O1 0.250000 0.807034 0.441989
O O2 0.333640 0.649385 0.194354
O O3 0.250000 0.634971 0.370486
O O4 0.914181 0.500000 0.411146
O O5 0.938985 0.328093 0.309916
O O6 0.834740 0.337731 0.462791
O O7 0.000000 0.363919 0.500000
O O8 0.250000 0.194335 0.956952
O O9 0.393098 0.212386 0.858266
O O10 0.357352 0.332119 0.000869
O O11 0.379766 0.157449 0.068345
O O12 0.325891 0.875287 0.268712
O O13 0.250000 0.000000 0.389193
O O14 0.903047 0.500000 0.905133
O O15 0.984039 0.336743 0.869185
O O16 0.026762 0.822123 0.235090
O O17 0.250000 0.500000 0.225896
O O18 0.419452 0.000000 0.175508
#
# Coordination Sequence:
#
# PCOD9399428 Si02
#       8
#     4   8   8   4   8   8   4   8
#     4  10  18  30  55  83 105 141 195 253 302 345
#     4  11  24  42  62  88 120 163 216 262 309 361
#     4  11  22  36  54  83 122 158 191 235 299 369
#     4  10  20  36  65  94 116 148 195 256 311 354
#     4  10  19  34  54  80 112 151 196 242 295 356
#     4  11  24  36  57  84 118 160 197 249 298 359
#     4  12  22  38  62  85 121 157 204 259 313 363
#     4  10  20  39  65  93 119 151 200 247 300 363
#
# _framework density 18.525078000000001
#
# number of rings (size 3 to 8) (size 9 to 14) (size 15 to 20)
#    0.000    1.385    1.538    6.692    1.077    5.538 
#    0.000    0.769    0.000    2.769    0.000    0.000 
#    0.000    0.000    0.000    0.000    0.000    0.000 
#
# Total GULP energy -290088.267812 kJ/mol
# GULP energy per Si atom -5578.620535 kJ/mol
# Density = 1.848291 g / cm^3
# Si number density = 18.525078 Si / 1000 Ang^3
#
#
#
# Elastic Constant Matrix: (Units=GPa)
#
#
# Indices 1 2 3 4 5 6 
#
# 1 109.4760 42.1089 58.8074 0.0000 0.0000 0.0000
# 2 42.1089 128.5553 34.5900 0.0000 0.0000 0.0000
# 3 58.8074 34.5900 70.5527 0.0000 0.0000 0.0000
# 4 0.0000 0.0000 0.0000 3.2126 0.0000 0.0000
# 5 0.0000 0.0000 0.0000 0.0000 -39.7121 0.0000
# 6 0.0000 0.0000 0.0000 0.0000 0.0000 18.1275
#
#
#
# Elastic Compliance Matrix: (Units=1/GPa)
#
#
# Indices 1 2 3 4 5 6 
#
# 1 0.016984 -0.002021 -0.013166 0.000000 0.000000 0.000000
# 2 -0.002021 0.009201 -0.002827 0.000000 0.000000 0.000000
# 3 -0.013166 -0.002827 0.026534 0.000000 0.000000 0.000000
# 4 0.000000 0.000000 0.000000 0.311270 0.000000 0.000000
# 5 0.000000 0.000000 0.000000 0.000000 -0.025181 0.000000
# 6 0.000000 0.000000 0.000000 0.000000 0.000000 0.055165
#
#
# Mechanical properties :
#
#
# Convention : Reuss Voigt Hill
#
# Bulk Modulus (GPa) = 59.90805 64.39963 62.15384
# Shear Modulus (GPa) = 11.47939 7.86412 9.67175
#
# Velocity S-wave (km/s) = 2.49201 2.06260 2.28741
# Velocity P-wave (km/s) = 6.37881 6.36486 6.37184
#
# Compressibility (1/GPa) = 0.01669225
#
# Stress axis : x y z
#
# Youngs Moduli (GPa) = 58.87893 108.68101 37.68779
#
# Poissons Ratio (x) = 0.21961 0.49619
# Poissons Ratio (y) = 0.11898 0.10654
# Poissons Ratio (z) = 0.77519 0.30722
#
# Static dielectric constant tensor:
#      x y z
#    x 1.734510 0.000000 0.000000 
#    y 0.000000 1.664400 0.000000 
#    z 0.000000 0.000000 1.637950 
# 
# From -- ./inp_files/17442.got.cif
#   From: 2010.05.17/outbox.cif.g08.bks.cpg/sg51_9_cif.got.tgz:17442.got - 2010.06.03 11:52:47.
