data_PCOD9399841
_publ_section_title
;
Structure prediction by ZEFSAII (Michael W. Deem and Ramdas Pophale) SiO2 
 PCOD9399841
Probable space group: P M M A
;
_chemical_formula_sum "Si O2"
_cell_formula_units_Z 56
_cell_length_a 15.516618
_cell_length_b 7.536983
_cell_length_c 22.357999
_cell_angle_alpha 90.000000
_cell_angle_beta 90.000000
_cell_angle_gamma 90.000000
_cell_volume 2614.734135
_symmetry_space_group_name_H-M "P M M A"
_symmetry_group_IT_number 51
_symmetry_cell_setting 'orthorhombic'
loop_
_space_group_symop_operation_xyz
x,y,z
1/2-x,-y,z
1/2+x,-y,-z
-x,y,-z
-x,-y,-z
1/2+x,y,-z
1/2-x,y,z
x,-y,z
loop_
_atom_site_type_symbol
_atom_site_label
_atom_site_fract_x
_atom_site_fract_y
_atom_site_fract_z
Si Si1 0.250000 0.783970 0.892752
Si Si2 0.843519 0.706764 0.372911
Si Si3 0.750000 0.292575 0.966829
Si Si4 0.345643 0.782795 0.364306
Si Si5 0.430031 0.787838 0.836413
Si Si6 0.900091 0.214371 0.503903
Si Si7 0.941814 0.713511 0.944223
Si Si8 0.003821 0.203857 0.710960
O O1 0.250000 0.722444 0.961294
O O2 0.337696 0.722037 0.860512
O O3 0.250000 0.000000 0.893823
O O4 0.750000 0.778985 0.355271
O O5 0.847034 0.500000 0.356899
O O6 0.853843 0.721899 0.444182
O O7 0.922082 0.796454 0.339144
O O8 0.750000 0.500000 0.949574
O O9 0.657034 0.218654 0.945564
O O10 0.250000 0.732118 0.345620
O O11 0.362655 0.726048 0.432684
O O12 0.419589 0.716374 0.320081
O O13 0.350219 0.000000 0.365463
O O14 0.504649 0.753997 0.884693
O O15 0.459000 0.716260 0.771893
O O16 0.418997 0.000000 0.830546
O O17 0.000000 0.267128 0.500000
O O18 0.896001 0.000000 0.502683
O O19 0.936504 0.500000 0.950545
O O20 0.000000 0.779372 0.000000
O O21 0.981132 0.000000 0.725411
#
# Coordination Sequence:
#
# PCOD9399841 Si02
#       8
#     4   8   4   8   8   8   8   8
#     4  10  20  34  54  84 116 144 177 226 283 334
#     4  11  24  38  53  80 115 148 182 227 283 336
#     4  10  20  36  58  86 112 146 189 224 267 326
#     4   9  17  32  56  82 106 136 182 234 276 323
#     4  10  22  37  56  84 115 147 184 228 281 332
#     4  10  18  33  58  84 106 139 185 231 283 336
#     4  10  20  36  59  83 111 147 185 227 272 322
#     4  10  21  39  59  80 109 148 189 229 273 329
#
# _framework density 21.417092
#
# number of rings (size 3 to 8) (size 9 to 14) (size 15 to 20)
#    0.000    2.000    2.857    0.857    1.000    3.429 
#    1.286    0.000    0.000    0.429    0.000    0.000 
#    0.000    0.000    0.000    0.000    0.000    0.000 
#
# Total GULP energy -312801.009558 kJ/mol
# GULP energy per Si atom -5585.732314 kJ/mol
# Density = 2.136835 g / cm^3
# Si number density = 21.417092 Si / 1000 Ang^3
#
#
#
# Elastic Constant Matrix: (Units=GPa)
#
#
# Indices 1 2 3 4 5 6 
#
# 1 205.3453 0.1225 80.9887 0.0000 0.0000 0.0000
# 2 0.1225 51.6512 -9.9116 0.0000 0.0000 0.0000
# 3 80.9887 -9.9116 123.8678 0.0000 0.0000 0.0000
# 4 0.0000 0.0000 0.0000 29.5806 0.0000 0.0000
# 5 0.0000 0.0000 0.0000 0.0000 -11.5058 0.0000
# 6 0.0000 0.0000 0.0000 0.0000 0.0000 12.0592
#
#
#
# Elastic Compliance Matrix: (Units=1/GPa)
#
#
# Indices 1 2 3 4 5 6 
#
# 1 0.006599 -0.000857 -0.004383 0.000000 0.000000 0.000000
# 2 -0.000857 0.019774 0.002142 0.000000 0.000000 0.000000
# 3 -0.004383 0.002142 0.011110 0.000000 0.000000 0.000000
# 4 0.000000 0.000000 0.000000 0.033806 0.000000 0.000000
# 5 0.000000 0.000000 0.000000 0.000000 -0.086913 0.000000
# 6 0.000000 0.000000 0.000000 0.000000 0.000000 0.082924
#
#
# Mechanical properties :
#
#
# Convention : Reuss Voigt Hill
#
# Bulk Modulus (GPa) = 31.96096 58.14037 45.05067
# Shear Modulus (GPa) = 59.57655 26.67111 43.12383
#
# Velocity S-wave (km/s) = 5.27993 3.53274 4.49210
# Velocity P-wave (km/s) = 7.21982 6.62163 6.92718
#
# Compressibility (1/GPa) = 0.03128817
#
# Stress axis : x y z
#
# Youngs Moduli (GPa) = 151.53501 50.57201 90.00506
#
# Poissons Ratio (x) = 0.04333 0.39452
# Poissons Ratio (y) = 0.12983 -0.19283
# Poissons Ratio (z) = 0.66422 -0.10835
#
# Static dielectric constant tensor:
#      x y z
#    x 1.781900 0.000000 0.000000 
#    y 0.000000 1.811370 0.000000 
#    z 0.000000 0.000000 1.733110 
# 
# From -- ./inp_files/33507.got.cif
#   From: 2010.05.17/outbox.cif.g08.bks.cpg/sg51_17_cif.got.tgz:33507.got - 2010.06.03 11:52:47.
