data_PCOD9399867
_publ_section_title
;
Structure prediction by ZEFSAII (Michael W. Deem and Ramdas Pophale) SiO2 
 PCOD9399867
Probable space group: P M M A
;
_chemical_formula_sum "Si O2"
_cell_formula_units_Z 56
_cell_length_a 21.369545
_cell_length_b 7.627517
_cell_length_c 15.810141
_cell_angle_alpha 90.000000
_cell_angle_beta 90.000000
_cell_angle_gamma 90.000000
_cell_volume 2576.998719
_symmetry_space_group_name_H-M "P M M A"
_symmetry_group_IT_number 51
_symmetry_cell_setting 'orthorhombic'
loop_
_space_group_symop_operation_xyz
x,y,z
1/2-x,-y,z
1/2+x,-y,-z
-x,y,-z
-x,-y,-z
1/2+x,y,-z
1/2-x,y,z
x,-y,z
loop_
_atom_site_type_symbol
_atom_site_label
_atom_site_fract_x
_atom_site_fract_y
_atom_site_fract_z
Si Si1 0.250000 0.290541 0.777038
Si Si2 0.609851 0.201883 0.675087
Si Si3 0.615641 0.787279 0.484190
Si Si4 0.969405 0.707810 0.323811
Si Si5 0.118579 0.714620 0.829343
Si Si6 0.750000 0.790518 0.418680
Si Si7 0.822774 0.210409 0.844246
Si Si8 0.427883 0.711107 0.011692
O O1 0.250000 0.500000 0.790168
O O2 0.312368 0.218331 0.815437
O O3 0.250000 0.254656 0.678724
O O4 0.610619 0.279377 0.580318
O O5 0.536093 0.205981 0.693774
O O6 0.650293 0.276586 0.753082
O O7 0.631169 0.000000 0.666455
O O8 0.562607 0.737463 0.415576
O O9 0.684050 0.726141 0.454305
O O10 0.613457 0.000000 0.485677
O O11 0.978660 0.500000 0.315012
O O12 0.923058 0.770164 0.250018
O O13 0.117493 0.500000 0.827290
O O14 0.099262 0.767391 0.921974
O O15 0.750000 0.000000 0.431330
O O16 0.750000 0.271653 0.860754
O O17 0.877815 0.243544 0.914057
O O18 0.818929 0.000000 0.838801
O O19 0.431776 0.500000 0.016765
O O20 0.500000 0.773630 0.000000
#
# Coordination Sequence:
#
# PCOD9399867 Si02
#       8
#     4   8   8   8   8   4   8   8
#     4  10  18  34  54  75 108 148 188 223 276 339
#     4  10  22  39  59  80 111 153 193 233 283 341
#     4  10  21  36  56  82 113 150 192 234 281 337
#     4  11  21  36  58  85 116 148 186 235 286 338
#     4   9  19  33  55  82 109 145 182 221 275 340
#     4  10  20  34  54  81 110 142 188 237 274 321
#     4  10  23  42  62  87 119 155 198 248 299 348
#     4  10  21  39  63  89 117 151 193 239 289 351
#
# _framework density 21.730706000000001
#
# number of rings (size 3 to 8) (size 9 to 14) (size 15 to 20)
#    0.000    2.000    1.429    1.714    2.000    4.571 
#    0.000    2.143    0.000    0.000    0.000    0.000 
#    0.000    0.000    0.000    0.000    0.000    0.000 
#
# Total GULP energy -312209.868848 kJ/mol
# GULP energy per Si atom -5575.176229 kJ/mol
# Density = 2.168125 g / cm^3
# Si number density = 21.730706 Si / 1000 Ang^3
#
#
#
# Elastic Constant Matrix: (Units=GPa)
#
#
# Indices 1 2 3 4 5 6 
#
# 1 152.4998 -4.8869 74.3940 0.0000 0.0000 0.0000
# 2 -4.8869 48.4460 -3.2967 0.0000 0.0000 0.0000
# 3 74.3940 -3.2967 157.3904 0.0000 0.0000 0.0000
# 4 0.0000 0.0000 0.0000 34.1892 0.0000 0.0000
# 5 0.0000 0.0000 0.0000 0.0000 33.5756 0.0000
# 6 0.0000 0.0000 0.0000 0.0000 0.0000 17.2674
#
#
#
# Elastic Compliance Matrix: (Units=1/GPa)
#
#
# Indices 1 2 3 4 5 6 
#
# 1 0.008539 0.000588 -0.004024 0.000000 0.000000 0.000000
# 2 0.000588 0.020711 0.000156 0.000000 0.000000 0.000000
# 3 -0.004024 0.000156 0.008259 0.000000 0.000000 0.000000
# 4 0.000000 0.000000 0.000000 0.029249 0.000000 0.000000
# 5 0.000000 0.000000 0.000000 0.000000 0.029784 0.000000
# 6 0.000000 0.000000 0.000000 0.000000 0.000000 0.057913
#
#
# Mechanical properties :
#
#
# Convention : Reuss Voigt Hill
#
# Bulk Modulus (GPa) = 32.31121 54.52853 43.41987
# Shear Modulus (GPa) = 29.18317 36.48150 32.83234
#
# Velocity S-wave (km/s) = 3.66860 4.10176 3.89121
# Velocity P-wave (km/s) = 5.73114 6.89782 6.34137
#
# Compressibility (1/GPa) = 0.03094901
#
# Stress axis : x y z
#
# Youngs Moduli (GPa) = 117.10686 48.28247 121.08151
#
# Poissons Ratio (x) = -0.02837 0.48722
# Poissons Ratio (y) = -0.06881 -0.01890
# Poissons Ratio (z) = 0.47123 -0.00754
#
# Static dielectric constant tensor:
#      x y z
#    x 1.743150 0.000000 0.000000 
#    y 0.000000 1.822070 0.000000 
#    z 0.000000 0.000000 1.713230 
# 
# From -- ./inp_files/25910.got.cif
#   From: 2010.05.17/outbox.cif.g08.bks.cpg/sg51_13_cif.got.tgz:25910.got - 2010.06.03 11:52:47.
