data_PCOD9399635
_publ_section_title
;
Structure prediction by ZEFSAII (Michael W. Deem and Ramdas Pophale) SiO2 
 PCOD9399635
Probable space group: P M M A
;
_chemical_formula_sum "Si O2"
_cell_formula_units_Z 44
_cell_length_a 8.936529
_cell_length_b 14.360884
_cell_length_c 21.272589
_cell_angle_alpha 90.000000
_cell_angle_beta 90.000000
_cell_angle_gamma 90.000000
_cell_volume 2730.048689
_symmetry_space_group_name_H-M "P M M A"
_symmetry_group_IT_number 51
_symmetry_cell_setting 'orthorhombic'
loop_
_space_group_symop_operation_xyz
x,y,z
1/2-x,-y,z
1/2+x,-y,-z
-x,y,-z
-x,-y,-z
1/2+x,y,-z
1/2-x,y,z
x,-y,z
loop_
_atom_site_type_symbol
_atom_site_label
_atom_site_fract_x
_atom_site_fract_y
_atom_site_fract_z
Si Si1 0.072118 0.793625 0.689922
Si Si2 0.079075 0.887995 0.193650
Si Si3 0.428407 0.888729 0.432331
Si Si4 0.577089 0.886539 0.064879
Si Si5 0.927441 0.602956 0.674932
Si Si6 0.928784 0.500000 0.432237
O O1 0.250000 0.791557 0.683928
O O2 0.020267 0.856933 0.747878
O O3 0.000287 0.832858 0.625486
O O4 0.006776 0.691149 0.704210
O O5 0.250000 0.855112 0.201729
O O6 0.010971 0.856092 0.127146
O O7 0.081940 0.000000 0.192151
O O8 0.500000 0.864462 0.500000
O O9 0.250000 0.872941 0.433849
O O10 0.453587 0.000000 0.422528
O O11 0.750000 0.857898 0.067358
O O12 0.574666 0.000000 0.064770
O O13 0.500000 0.856351 0.000000
O O14 0.750000 0.618022 0.668414
O O15 0.948487 0.500000 0.705642
O O16 0.005554 0.586886 0.607204
O O17 0.750000 0.500000 0.432947
O O18 0.000000 0.500000 0.500000
#
# Coordination Sequence:
#
# PCOD9399635 Si02
#       6
#     8   8   8   8   8   4
#     4  12  23  34  52  75 100 129 163 206 251 301
#     4  10  20  33  49  71 101 137 175 212 249 292
#     4  10  21  37  54  71  94 125 163 205 247 294
#     4   9  16  27  44  67  97 133 171 208 247 292
#     4   9  20  37  54  71  93 122 154 195 243 295
#     4  10  18  32  52  74  96 118 147 186 237 294
#
# _framework density 16.116928000000001
#
# number of rings (size 3 to 8) (size 9 to 14) (size 15 to 20)
#    0.545    1.455    0.000    4.909    0.000    7.273 
#    0.000    3.636    0.000    0.000    0.000    0.000 
#    0.000    0.727    0.000    2.727    0.000    4.182 
#
# Total GULP energy -245256.678805 kJ/mol
# GULP energy per Si atom -5574.015427 kJ/mol
# Density = 1.608025 g / cm^3
# Si number density = 16.116928 Si / 1000 Ang^3
#
#
#
# Elastic Constant Matrix: (Units=GPa)
#
#
# Indices 1 2 3 4 5 6 
#
# 1 133.6818 36.5999 42.2172 0.0000 0.0000 0.0000
# 2 36.5999 37.7666 24.8986 0.0000 0.0000 0.0000
# 3 42.2172 24.8986 85.8354 0.0000 0.0000 0.0000
# 4 0.0000 0.0000 0.0000 -0.0652 0.0000 0.0000
# 5 0.0000 0.0000 0.0000 0.0000 29.6154 0.0000
# 6 0.0000 0.0000 0.0000 0.0000 0.0000 22.7163
#
#
#
# Elastic Compliance Matrix: (Units=1/GPa)
#
#
# Indices 1 2 3 4 5 6 
#
# 1 0.010695 -0.008528 -0.002787 0.000000 0.000000 0.000000
# 2 -0.008528 0.039539 -0.007275 0.000000 0.000000 0.000000
# 3 -0.002787 -0.007275 0.015131 0.000000 0.000000 0.000000
# 4 0.000000 0.000000 0.000000-15.331783 0.000000 0.000000
# 5 0.000000 0.000000 0.000000 0.000000 0.033766 0.000000
# 6 0.000000 0.000000 0.000000 0.000000 0.000000 0.044021
#
#
# Mechanical properties :
#
#
# Convention : Reuss Voigt Hill
#
# Bulk Modulus (GPa) = 35.47787 51.63502 43.55645
# Shear Modulus (GPa) = -0.33021 20.69117 10.18048
#
# Velocity S-wave (km/s) = -0.45313 3.58692 2.51602
# Velocity P-wave (km/s) = 4.66764 7.01869 5.96024
#
# Compressibility (1/GPa) = 0.02818659
#
# Stress axis : x y z
#
# Youngs Moduli (GPa) = 93.49962 25.29161 66.08912
#
# Poissons Ratio (x) = 0.21568 0.18417
# Poissons Ratio (y) = 0.79733 0.48079
# Poissons Ratio (z) = 0.26056 0.18399
#
# Static dielectric constant tensor:
#      x y z
#    x 1.538970 0.000000 0.000000 
#    y 0.000000 1.261990 0.000000 
#    z 0.000000 0.000000 1.532850 
# 
# From -- ./inp_files/27412.got.cif
#   From: 2010.05.17/outbox.cif.g08.bks.cpg/sg51_14_cif.got.tgz:27412.got - 2010.06.03 11:52:47.
