data_PCOD9399922
_publ_section_title
;
Structure prediction by ZEFSAII (Michael W. Deem and Ramdas Pophale) SiO2 
 PCOD9399922
Probable space group: P M M A
;
_chemical_formula_sum "Si O2"
_cell_formula_units_Z 64
_cell_length_a 15.233613
_cell_length_b 16.183398
_cell_length_c 11.837410
_cell_angle_alpha 90.000000
_cell_angle_beta 90.000000
_cell_angle_gamma 90.000000
_cell_volume 2918.295889
_symmetry_space_group_name_H-M "P M M A"
_symmetry_group_IT_number 51
_symmetry_cell_setting 'orthorhombic'
loop_
_space_group_symop_operation_xyz
x,y,z
1/2-x,-y,z
1/2+x,-y,-z
-x,y,-z
-x,-y,-z
1/2+x,y,-z
1/2-x,y,z
x,-y,z
loop_
_atom_site_type_symbol
_atom_site_label
_atom_site_fract_x
_atom_site_fract_y
_atom_site_fract_z
Si Si1 0.584594 0.747044 0.919836
Si Si2 0.645465 0.748021 0.673604
Si Si3 0.104688 0.592861 0.485097
Si Si4 0.357638 0.148274 0.714049
Si Si5 0.147040 0.337023 0.724611
Si Si6 0.643010 0.909510 0.530008
Si Si7 0.645961 0.410104 0.044559
Si Si8 0.854989 0.909681 0.039967
O O1 0.586638 0.744402 0.785393
O O2 0.500000 0.743481 0.000000
O O3 0.634130 0.664404 0.958722
O O4 0.625675 0.834265 0.957486
O O5 0.750000 0.755245 0.702759
O O6 0.633998 0.665742 0.598332
O O7 0.618908 0.829181 0.602153
O O8 0.130122 0.500000 0.448807
O O9 0.139822 0.612115 0.610205
O O10 0.000000 0.595802 0.500000
O O11 0.250000 0.145242 0.714138
O O12 0.386054 0.243874 0.708488
O O13 0.385869 0.103194 0.599817
O O14 0.387907 0.110965 0.833230
O O15 0.250000 0.325675 0.749190
O O16 0.107603 0.382322 0.833686
O O17 0.750000 0.909521 0.529373
O O18 0.614368 0.000000 0.571577
O O19 0.750000 0.418849 0.059301
O O20 0.610898 0.500000 0.010032
O O21 0.750000 0.913758 0.048790
O O22 0.887369 0.000000 0.003285
#
# Coordination Sequence:
#
# PCOD9399922 Si02
#       8
#     8   8   8   8   8   8   8   8
#     4  12  27  43  62  88 127 173 215 267 325 380
#     4  11  24  43  66  92 125 172 222 264 313 384
#     4  11  25  41  62  93 131 168 204 253 319 387
#     4   9  15  28  57  93 123 151 189 249 319 372
#     4  10  18  34  63  93 122 157 200 253 309 369
#     4   9  17  32  58  93 126 155 197 255 314 373
#     4  10  21  39  65  92 118 154 205 263 313 369
#     4  10  20  37  64  93 122 163 218 275 324 378
#
# _framework density 21.930606000000001
#
# number of rings (size 3 to 8) (size 9 to 14) (size 15 to 20)
#    0.000    1.750    2.500    2.250    1.750    4.500 
#    0.000    1.250    0.000    0.375    0.000    0.000 
#    0.000    0.000    0.000    0.000    0.000    0.000 
#
# Total GULP energy -357430.373274 kJ/mol
# GULP energy per Si atom -5584.849582 kJ/mol
# Density = 2.188069 g / cm^3
# Si number density = 21.930606 Si / 1000 Ang^3
#
#
#
# Elastic Constant Matrix: (Units=GPa)
#
#
# Indices 1 2 3 4 5 6 
#
# 1 33.7143 7.9787 -4.3630 0.0000 0.0000 0.0000
# 2 7.9787 208.9789 62.3877 0.0000 0.0000 0.0000
# 3 -4.3630 62.3877 101.4062 0.0000 0.0000 0.0000
# 4 0.0000 0.0000 0.0000 126.6907 0.0000 0.0000
# 5 0.0000 0.0000 0.0000 0.0000 18.4367 0.0000
# 6 0.0000 0.0000 0.0000 0.0000 0.0000 -44.8153
#
#
#
# Elastic Compliance Matrix: (Units=1/GPa)
#
#
# Indices 1 2 3 4 5 6 
#
# 1 0.030432 -0.001902 0.002480 0.000000 0.000000 0.000000
# 2 -0.001902 0.005981 -0.003761 0.000000 0.000000 0.000000
# 3 0.002480 -0.003761 0.012282 0.000000 0.000000 0.000000
# 4 0.000000 0.000000 0.000000 0.007893 0.000000 0.000000
# 5 0.000000 0.000000 0.000000 0.000000 0.054240 0.000000
# 6 0.000000 0.000000 0.000000 0.000000 0.000000 -0.022314
#
#
# Mechanical properties :
#
#
# Convention : Reuss Voigt Hill
#
# Bulk Modulus (GPa) = 23.62554 52.90070 38.26312
# Shear Modulus (GPa) = 45.87546 38.60214 42.23880
#
# Velocity S-wave (km/s) = 4.57863 4.20002 4.39341
# Velocity P-wave (km/s) = 6.22480 6.90612 6.57429
#
# Compressibility (1/GPa) = 0.04232707
#
# Stress axis : x y z
#
# Youngs Moduli (GPa) = 32.86008 167.20515 81.41956
#
# Poissons Ratio (x) = 0.31805 -0.20189
# Poissons Ratio (y) = 0.06250 0.30624
# Poissons Ratio (z) = -0.08148 0.62891
#
# Static dielectric constant tensor:
#      x y z
#    x 1.943690 0.000000 0.000000 
#    y 0.000000 1.640640 0.000000 
#    z 0.000000 0.000000 1.763880 
# 
# From -- ./inp_files/17547.got.cif
#   From: 2010.05.17/outbox.cif.g08.bks.cpg/sg51_9_cif.got.tgz:17547.got - 2010.06.03 11:52:47.
