data_PCOD9399780
_publ_section_title
;
Structure prediction by ZEFSAII (Michael W. Deem and Ramdas Pophale) SiO2 
 PCOD9399780
Probable space group: P M M A
;
_chemical_formula_sum "Si O2"
_cell_formula_units_Z 32
_cell_length_a 14.198971
_cell_length_b 11.856900
_cell_length_c 9.988044
_cell_angle_alpha 90.000000
_cell_angle_beta 90.000000
_cell_angle_gamma 90.000000
_cell_volume 1681.544931
_symmetry_space_group_name_H-M "P M M A"
_symmetry_group_IT_number 51
_symmetry_cell_setting 'orthorhombic'
loop_
_space_group_symop_operation_xyz
x,y,z
1/2-x,-y,z
1/2+x,-y,-z
-x,y,-z
-x,-y,-z
1/2+x,y,-z
1/2-x,y,z
x,-y,z
loop_
_atom_site_type_symbol
_atom_site_label
_atom_site_fract_x
_atom_site_fract_y
_atom_site_fract_z
Si Si1 0.424589 0.741059 0.620007
Si Si2 0.557959 0.735722 0.862958
Si Si3 0.391851 0.500000 0.542882
Si Si4 0.855502 0.500000 0.766359
Si Si5 0.750000 0.136662 0.808728
Si Si6 0.250000 0.133174 0.503287
O O1 0.500000 0.739653 0.500000
O O2 0.483560 0.774325 0.749997
O O3 0.378849 0.615225 0.624367
O O4 0.341678 0.823483 0.579029
O O5 0.591149 0.611651 0.814627
O O6 0.653013 0.811417 0.867754
O O7 0.500000 0.731500 0.000000
O O8 0.500000 0.500000 0.500000
O O9 0.346967 0.500000 0.395415
O O10 0.750000 0.500000 0.822659
O O11 0.750000 0.173546 0.651492
O O12 0.750000 0.000000 0.818033
O O13 0.250000 0.000000 0.497537
#
# Coordination Sequence:
#
# PCOD9399780 Si02
#       6
#     8   8   4   4   4   4
#     4  11  21  39  65  95 126 163 214 264 317 373
#     4  12  25  42  66  96 133 171 209 259 322 389
#     4  10  18  32  63  94 120 154 208 258 306 381
#     4  12  21  38  68  93 126 169 209 259 322 385
#     4  11  24  44  68  93 120 171 227 259 317 386
#     4  11  24  40  66  99 126 163 223 279 317 366
#
# _framework density 19.030118999999999
#
# number of rings (size 3 to 8) (size 9 to 14) (size 15 to 20)
#    0.000    0.750    8.750    0.375    1.750    3.000 
#    0.000    1.250    0.000    0.000    0.000    0.000 
#    0.000    0.000    0.000    0.000    0.000    0.000 
#
# Total GULP energy -178642.072842 kJ/mol
# GULP energy per Si atom -5582.564776 kJ/mol
# Density = 1.898681 g / cm^3
# Si number density = 19.030119 Si / 1000 Ang^3
#
#
#
# Elastic Constant Matrix: (Units=GPa)
#
#
# Indices 1 2 3 4 5 6 
#
# 1 148.8274 41.4835 53.7791 0.0000 0.0000 0.0000
# 2 41.4835 61.9197 -2.5797 0.0000 0.0000 0.0000
# 3 53.7791 -2.5797 74.0990 0.0000 0.0000 0.0000
# 4 0.0000 0.0000 0.0000 5.8322 0.0000 0.0000
# 5 0.0000 0.0000 0.0000 0.0000 12.2002 0.0000
# 6 0.0000 0.0000 0.0000 0.0000 0.0000 1.9847
#
#
#
# Elastic Compliance Matrix: (Units=1/GPa)
#
#
# Indices 1 2 3 4 5 6 
#
# 1 0.012595 -0.008832 -0.009449 0.000000 0.000000 0.000000
# 2 -0.008832 0.022366 0.007189 0.000000 0.000000 0.000000
# 3 -0.009449 0.007189 0.020603 0.000000 0.000000 0.000000
# 4 0.000000 0.000000 0.000000 0.171463 0.000000 0.000000
# 5 0.000000 0.000000 0.000000 0.000000 0.081966 0.000000
# 6 0.000000 0.000000 0.000000 0.000000 0.000000 0.503864
#
#
# Mechanical properties :
#
#
# Convention : Reuss Voigt Hill
#
# Bulk Modulus (GPa) = 29.95714 52.24575 41.10144
# Shear Modulus (GPa) = 5.90898 16.81429 11.36163
#
# Velocity S-wave (km/s) = 1.76403 2.97570 2.44608
# Velocity P-wave (km/s) = 4.46377 6.27059 5.44268
#
# Compressibility (1/GPa) = 0.03338102
#
# Stress axis : x y z
#
# Youngs Moduli (GPa) = 79.39444 44.70973 48.53554
#
# Poissons Ratio (x) = 0.39488 0.45860
# Poissons Ratio (y) = 0.70121 -0.34891
# Poissons Ratio (z) = 0.75019 -0.32140
#
# Static dielectric constant tensor:
#      x y z
#    x 1.673280 0.000000 0.000000 
#    y 0.000000 1.743970 0.000000 
#    z 0.000000 0.000000 1.654780 
# 
# From -- ./inp_files/7640.got.cif
#   From: 2010.05.17/outbox.cif.g08.bks.cpg/sg51_4_cif.got.tgz:7640.got - 2010.06.03 11:52:47.
