data_PCOD9399735
_publ_section_title
;
Structure prediction by ZEFSAII (Michael W. Deem and Ramdas Pophale) SiO2 
 PCOD9399735
Probable space group: P M M A
;
_chemical_formula_sum "Si O2"
_cell_formula_units_Z 24
_cell_length_a 8.558318
_cell_length_b 15.944342
_cell_length_c 9.150814
_cell_angle_alpha 90.000000
_cell_angle_beta 90.000000
_cell_angle_gamma 90.000000
_cell_volume 1248.690330
_symmetry_space_group_name_H-M "P M M A"
_symmetry_group_IT_number 51
_symmetry_cell_setting 'orthorhombic'
loop_
_space_group_symop_operation_xyz
x,y,z
1/2-x,-y,z
1/2+x,-y,-z
-x,y,-z
-x,-y,-z
1/2+x,y,-z
1/2-x,y,z
x,-y,z
loop_
_atom_site_type_symbol
_atom_site_label
_atom_site_fract_x
_atom_site_fract_y
_atom_site_fract_z
Si Si1 0.437268 0.662153 0.164584
Si Si2 0.562709 0.500000 0.335234
Si Si3 0.437109 0.823848 0.666364
Si Si4 0.936976 0.000000 0.666814
O O1 0.250000 0.661799 0.165395
O O2 0.500306 0.582220 0.253093
O O3 0.499815 0.746263 0.241167
O O4 0.500000 0.657806 0.000000
O O5 0.750000 0.500000 0.335070
O O6 0.500000 0.500000 0.500000
O O7 0.500000 0.815815 0.500000
O O8 0.250000 0.824371 0.662868
O O9 0.498689 0.912691 0.729033
O O10 0.000000 0.000000 0.500000
O O11 0.750000 0.000000 0.666604
#
# Coordination Sequence:
#
# PCOD9399735 Si02
#       4
#     8   4   8   4
#     4  12  25  43  63  89 122 160 199 244 298 358
#     4  12  25  44  67  94 122 156 198 246 295 350
#     4  11  21  37  60  89 121 159 202 250 299 353
#     4  10  18  32  55  86 119 156 199 250 300 350
#
# _framework density 19.220139
#
# number of rings (size 3 to 8) (size 9 to 14) (size 15 to 20)
#    0.000    0.667    0.000   12.500    0.000    0.000 
#    0.000    0.833    0.000    0.000    0.000    0.000 
#    0.000    0.000    0.000    0.000    0.000    0.000 
#
# Total GULP energy -134310.153135 kJ/mol
# GULP energy per Si atom -5596.256381 kJ/mol
# Density = 1.917639 g / cm^3
# Si number density = 19.220139 Si / 1000 Ang^3
#
#
#
# Elastic Constant Matrix: (Units=GPa)
#
#
# Indices 1 2 3 4 5 6 
#
# 1 266.9757 107.5296 72.1687 0.0000 0.0000 0.0000
# 2 107.5296 240.9356 104.4605 0.0000 0.0000 0.0000
# 3 72.1687 104.4605 131.6698 0.0000 0.0000 0.0000
# 4 0.0000 0.0000 0.0000 -26.1838 0.0000 0.0000
# 5 0.0000 0.0000 0.0000 0.0000 34.3327 0.0000
# 6 0.0000 0.0000 0.0000 0.0000 0.0000 39.2498
#
#
#
# Elastic Compliance Matrix: (Units=1/GPa)
#
#
# Indices 1 2 3 4 5 6 
#
# 1 0.004730 -0.001504 -0.001399 0.000000 0.000000 0.000000
# 2 -0.001504 0.006805 -0.004574 0.000000 0.000000 0.000000
# 3 -0.001399 -0.004574 0.011991 0.000000 0.000000 0.000000
# 4 0.000000 0.000000 0.000000 -0.038192 0.000000 0.000000
# 5 0.000000 0.000000 0.000000 0.000000 0.029127 0.000000
# 6 0.000000 0.000000 0.000000 0.000000 0.000000 0.025478
#
#
# Mechanical properties :
#
#
# Convention : Reuss Voigt Hill
#
# Bulk Modulus (GPa) = 116.68275 134.21097 125.44686
# Shear Modulus (GPa) = 86.57975 33.17458 59.87717
#
# Velocity S-wave (km/s) = 6.71894 4.15906 5.58757
# Velocity P-wave (km/s) = 11.00148 9.64591 10.34592
#
# Compressibility (1/GPa) = 0.00857025
#
# Stress axis : x y z
#
# Youngs Moduli (GPa) = 211.42911 146.94779 83.39921
#
# Poissons Ratio (x) = 0.22106 0.11667
# Poissons Ratio (y) = 0.31807 0.38149
# Poissons Ratio (z) = 0.29576 0.67219
#
# Static dielectric constant tensor:
#      x y z
#    x 1.636200 0.000000 0.000000 
#    y 0.000000 1.678400 0.000000 
#    z 0.000000 0.000000 0.604610 
# 
# From -- ./inp_files/4585.got.cif
#   From: 2010.05.17/outbox.cif.g08.bks.cpg/sg51_3_cif.got.tgz:4585.got - 2010.06.03 11:52:47.
