data_PCOD9399336
_publ_section_title
;
Structure prediction by ZEFSAII (Michael W. Deem and Ramdas Pophale) SiO2 
 PCOD9399336
Probable space group: P M M A
;
_chemical_formula_sum "Si O2"
_cell_formula_units_Z 56
_cell_length_a 8.540691
_cell_length_b 15.810271
_cell_length_c 20.937132
_cell_angle_alpha 90.000000
_cell_angle_beta 90.000000
_cell_angle_gamma 90.000000
_cell_volume 2827.154318
_symmetry_space_group_name_H-M "P M M A"
_symmetry_group_IT_number 51
_symmetry_cell_setting 'orthorhombic'
loop_
_space_group_symop_operation_xyz
x,y,z
1/2-x,-y,z
1/2+x,-y,-z
-x,y,-z
-x,-y,-z
1/2+x,y,-z
1/2-x,y,z
x,-y,z
loop_
_atom_site_type_symbol
_atom_site_label
_atom_site_fract_x
_atom_site_fract_y
_atom_site_fract_z
Si Si1 0.437639 0.590459 0.101312
Si Si2 0.562519 0.406378 0.622652
Si Si3 0.432974 0.172973 0.800826
Si Si4 0.563640 0.776024 0.933785
Si Si5 0.558704 0.905698 0.327673
Si Si6 0.062505 0.767466 0.569115
Si Si7 0.433367 0.368687 0.762388
O O1 0.250000 0.591129 0.093668
O O2 0.498762 0.500000 0.076382
O O3 0.499891 0.678838 0.073143
O O4 0.478825 0.594777 0.176239
O O5 0.750000 0.401572 0.619867
O O6 0.513346 0.500000 0.599828
O O7 0.492313 0.327364 0.584984
O O8 0.507528 0.396404 0.695965
O O9 0.250000 0.154535 0.812120
O O10 0.515391 0.176103 0.869219
O O11 0.494239 0.112729 0.744800
O O12 0.443109 0.267230 0.770667
O O13 0.750000 0.772355 0.936637
O O14 0.500000 0.812062 0.000000
O O15 0.750000 0.901914 0.326128
O O16 0.506613 0.832715 0.376245
O O17 0.513560 0.000000 0.348032
O O18 0.250000 0.768710 0.569087
O O19 0.000000 0.792958 0.500000
O O20 0.250000 0.391855 0.764113
#
# Coordination Sequence:
#
# PCOD9399336 Si02
#       7
#     8   8   8   8   8   8   8
#     4   9  18  31  45  66 100 141 185 234 287 339
#     4  11  23  37  55  80 112 154 200 244 290 337
#     4   9  17  33  56  82 111 145 184 228 278 336
#     4  10  20  33  50  74 104 145 188 233 284 340
#     4   9  18  36  64  94 121 150 186 229 283 347
#     4  11  23  41  62  88 120 157 194 235 285 340
#     4  10  18  30  50  78 108 143 187 235 287 339
#
# _framework density 19.807903
#
# number of rings (size 3 to 8) (size 9 to 14) (size 15 to 20)
#    0.000    2.143    1.429    2.143    0.000    5.143 
#    0.000    0.000    0.000    3.857    0.000    0.000 
#    0.000    0.000    0.000    0.000    0.000    0.000 
#
# Total GULP energy -312566.925642 kJ/mol
# GULP energy per Si atom -5581.552244 kJ/mol
# Density = 1.976282 g / cm^3
# Si number density = 19.807903 Si / 1000 Ang^3
#
#
#
# Elastic Constant Matrix: (Units=GPa)
#
#
# Indices 1 2 3 4 5 6 
#
# 1 30.6225 17.8715 21.2046 0.0000 0.0000 0.0000
# 2 17.8715 80.0733 45.6080 0.0000 0.0000 0.0000
# 3 21.2046 45.6080 124.6583 0.0000 0.0000 0.0000
# 4 0.0000 0.0000 0.0000 -3.3536 0.0000 0.0000
# 5 0.0000 0.0000 0.0000 0.0000 26.9967 0.0000
# 6 0.0000 0.0000 0.0000 0.0000 0.0000 9.4391
#
#
#
# Elastic Compliance Matrix: (Units=1/GPa)
#
#
# Indices 1 2 3 4 5 6 
#
# 1 0.039367 -0.006281 -0.004398 0.000000 0.000000 0.000000
# 2 -0.006281 0.016778 -0.005070 0.000000 0.000000 0.000000
# 3 -0.004398 -0.005070 0.010625 0.000000 0.000000 0.000000
# 4 0.000000 0.000000 0.000000 -0.298188 0.000000 0.000000
# 5 0.000000 0.000000 0.000000 0.000000 0.037042 0.000000
# 6 0.000000 0.000000 0.000000 0.000000 0.000000 0.105942
#
#
# Mechanical properties :
#
#
# Convention : Reuss Voigt Hill
#
# Bulk Modulus (GPa) = 28.35173 44.96916 36.66044
# Shear Modulus (GPa) = -110.67545 16.66111 -47.00717
#
# Velocity S-wave (km/s) = -7.48303 2.90338 -4.87679
# Velocity P-wave (km/s) = 7.76637 5.83021 3.62802
#
# Compressibility (1/GPa) = 0.03527122
#
# Stress axis : x y z
#
# Youngs Moduli (GPa) = 25.40194 59.60086 94.11685
#
# Poissons Ratio (x) = 0.37436 0.41396
# Poissons Ratio (y) = 0.15955 0.47719
# Poissons Ratio (z) = 0.11173 0.30219
#
# Static dielectric constant tensor:
#      x y z
#    x 1.675480 0.000000 0.000000 
#    y 0.000000 1.732150 0.000000 
#    z 0.000000 0.000000 1.691210 
# 
# From -- ./inp_files/31972.got.cif
#   From: 2010.05.17/outbox.cif.g08.bks.cpg/sg51_16_cif.got.tgz:31972.got - 2010.06.03 11:52:47.
