data_PCOD9399124
_publ_section_title
;
Structure prediction by ZEFSAII (Michael W. Deem and Ramdas Pophale) SiO2 
 PCOD9399124
Probable space group: P M M A
;
_chemical_formula_sum "Si O2"
_cell_formula_units_Z 64
_cell_length_a 19.457093
_cell_length_b 9.279239
_cell_length_c 20.361071
_cell_angle_alpha 90.000000
_cell_angle_beta 90.000000
_cell_angle_gamma 90.000000
_cell_volume 3676.130616
_symmetry_space_group_name_H-M "P M M A"
_symmetry_group_IT_number 51
_symmetry_cell_setting 'orthorhombic'
loop_
_space_group_symop_operation_xyz
x,y,z
1/2-x,-y,z
1/2+x,-y,-z
-x,y,-z
-x,-y,-z
1/2+x,y,-z
1/2-x,y,z
x,-y,z
loop_
_atom_site_type_symbol
_atom_site_label
_atom_site_fract_x
_atom_site_fract_y
_atom_site_fract_z
Si Si1 0.575108 0.671424 0.215445
Si Si2 0.893717 0.169242 0.608845
Si Si3 0.081361 0.665894 0.518764
Si Si4 0.947156 0.829028 0.351667
Si Si5 0.170138 0.168345 0.254715
Si Si6 0.074321 0.671122 0.153840
Si Si7 0.830986 0.672459 0.094171
Si Si8 0.080563 0.170246 0.017153
O O1 0.577032 0.500000 0.229784
O O2 0.574677 0.758254 0.283156
O O3 0.503870 0.700579 0.176770
O O4 0.636371 0.707087 0.165243
O O5 0.882690 0.262039 0.543848
O O6 0.842857 0.200048 0.668670
O O7 0.970819 0.194932 0.637132
O O8 0.889886 0.000000 0.591683
O O9 0.100990 0.500000 0.527811
O O10 0.088766 0.754891 0.585770
O O11 0.000000 0.670046 0.500000
O O12 0.935555 0.000000 0.351319
O O13 0.250000 0.183282 0.238412
O O14 0.123803 0.269760 0.210342
O O15 0.149827 0.000000 0.244855
O O16 0.081555 0.500000 0.145049
O O17 0.091363 0.752991 0.086784
O O18 0.750000 0.703798 0.091583
O O19 0.840586 0.500000 0.084374
O O20 0.872878 0.756737 0.038535
O O21 0.094935 0.000000 0.021384
O O22 0.000000 0.188842 0.000000
#
# Coordination Sequence:
#
# PCOD9399124 Si02
#       8
#     8   8   8   8   8   8   8   8
#     4  10  20  34  55  83 112 143 179 225 276 327
#     4   9  17  30  48  72 103 139 180 223 271 326
#     4   9  17  28  45  72 105 137 172 220 273 323
#     4  10  18  29  50  78 107 140 177 223 272 323
#     4  10  21  37  55  77 110 150 189 231 279 333
#     4  11  22  36  58  83 111 145 185 232 277 327
#     4  10  22  41  63  86 114 148 184 225 277 335
#     4  11  23  38  60  87 115 147 185 229 276 327
#
# _framework density 17.409610000000001
#
# number of rings (size 3 to 8) (size 9 to 14) (size 15 to 20)
#    0.000    2.000    2.500    1.500    0.000    5.000 
#    0.000    0.000    0.000    0.750    0.000    0.000 
#    0.000    0.000    0.000    0.000    0.000    0.000 
#
# Total GULP energy -357225.606165 kJ/mol
# GULP energy per Si atom -5581.650096 kJ/mol
# Density = 1.736999 g / cm^3
# Si number density = 17.409610 Si / 1000 Ang^3
#
#
#
# Elastic Constant Matrix: (Units=GPa)
#
#
# Indices 1 2 3 4 5 6 
#
# 1 67.4200 51.5849 44.6971 0.0000 0.0000 0.0000
# 2 51.5849 87.8619 86.1200 0.0000 0.0000 0.0000
# 3 44.6971 86.1200 144.7035 0.0000 0.0000 0.0000
# 4 0.0000 0.0000 0.0000 39.2210 0.0000 0.0000
# 5 0.0000 0.0000 0.0000 0.0000 18.3592 0.0000
# 6 0.0000 0.0000 0.0000 0.0000 0.0000 14.0408
#
#
#
# Elastic Compliance Matrix: (Units=1/GPa)
#
#
# Indices 1 2 3 4 5 6 
#
# 1 0.027350 -0.018665 0.002661 0.000000 0.000000 0.000000
# 2 -0.018665 0.040055 -0.018073 0.000000 0.000000 0.000000
# 3 0.002661 -0.018073 0.016845 0.000000 0.000000 0.000000
# 4 0.000000 0.000000 0.000000 0.025497 0.000000 0.000000
# 5 0.000000 0.000000 0.000000 0.000000 0.054469 0.000000
# 6 0.000000 0.000000 0.000000 0.000000 0.000000 0.071221
#
#
# Mechanical properties :
#
#
# Convention : Reuss Voigt Hill
#
# Bulk Modulus (GPa) = 62.13438 73.86549 67.99994
# Shear Modulus (GPa) = 16.18351 22.16310 19.17330
#
# Velocity S-wave (km/s) = 3.05220 3.57184 3.32219
# Velocity P-wave (km/s) = 6.94179 7.71562 7.33891
#
# Compressibility (1/GPa) = 0.01609415
#
# Stress axis : x y z
#
# Youngs Moduli (GPa) = 36.56323 24.96565 59.36460
#
# Poissons Ratio (x) = 0.46599 -0.15795
# Poissons Ratio (y) = 0.68247 1.07291
# Poissons Ratio (z) = -0.09728 0.45121
#
# Static dielectric constant tensor:
#      x y z
#    x 1.582230 0.000000 0.000000 
#    y 0.000000 1.582020 0.000000 
#    z 0.000000 0.000000 1.570130 
# 
# From -- ./inp_files/30535.got.cif
#   From: 2010.05.17/outbox.cif.g08.bks.cpg/sg51_16_cif.got.tgz:30535.got - 2010.06.03 11:52:47.
