data_PCOD9399096
_publ_section_title
;
Structure prediction by ZEFSAII (Michael W. Deem and Ramdas Pophale) SiO2 
 PCOD9399096
Probable space group: P M M A
;
_chemical_formula_sum "Si O2"
_cell_formula_units_Z 56
_cell_length_a 24.258719
_cell_length_b 7.290453
_cell_length_c 11.544524
_cell_angle_alpha 90.000000
_cell_angle_beta 90.000000
_cell_angle_gamma 90.000000
_cell_volume 2041.730466
_symmetry_space_group_name_H-M "P M M A"
_symmetry_group_IT_number 51
_symmetry_cell_setting 'orthorhombic'
loop_
_space_group_symop_operation_xyz
x,y,z
1/2-x,-y,z
1/2+x,-y,-z
-x,y,-z
-x,-y,-z
1/2+x,y,-z
1/2-x,y,z
x,-y,z
loop_
_atom_site_type_symbol
_atom_site_label
_atom_site_fract_x
_atom_site_fract_y
_atom_site_fract_z
Si Si1 0.308031 0.217701 0.668572
Si Si2 0.581104 0.277673 0.821133
Si Si3 0.686192 0.276640 0.694881
Si Si4 0.066617 0.707968 0.935308
Si Si5 0.102032 0.296474 0.502710
Si Si6 0.023327 0.276349 0.688825
Si Si7 0.191383 0.218189 0.942858
O O1 0.250000 0.278130 0.614343
O O2 0.359269 0.314816 0.615403
O O3 0.304578 0.246190 0.804781
O O4 0.313631 0.000000 0.650415
O O5 0.580850 0.500000 0.825544
O O6 0.644426 0.220882 0.798599
O O7 0.540415 0.225850 0.714790
O O8 0.550657 0.211807 0.938589
O O9 0.750000 0.213798 0.697326
O O10 0.688497 0.500000 0.692933
O O11 0.647664 0.218442 0.586250
O O12 0.046153 0.500000 0.926233
O O13 0.055152 0.785783 0.807350
O O14 0.131957 0.699627 0.963865
O O15 0.086756 0.500000 0.458472
O O16 0.050069 0.209753 0.568946
O O17 0.026373 0.500000 0.682730
O O18 0.250000 0.284622 0.994879
O O19 0.188363 0.000000 0.963230
#
# Coordination Sequence:
#
# PCOD9399096 Si02
#       7
#     8   8   8   8   8   8   8
#     4   9  17  29  45  67  97 131 162 193 241 304
#     4   9  18  31  48  69 100 137 165 197 242 297
#     4   9  18  31  46  68  99 133 166 200 242 291
#     4  10  18  30  50  75  99 127 167 211 248 286
#     4  10  18  29  49  75 100 124 156 206 254 286
#     4   9  17  29  46  73 101 126 160 203 253 297
#     4   9  18  31  46  68 101 136 165 198 247 302
#
# _framework density 27.427714999999999
#
# number of rings (size 3 to 8) (size 9 to 14) (size 15 to 20)
#    0.000    2.714    1.429    1.714    0.000    4.000 
#    0.000    5.714    0.000    3.429    0.000    3.000 
#    0.000    0.000    0.000    0.000    0.000    0.000 
#
# Total GULP energy -312483.138287 kJ/mol
# GULP energy per Si atom -5580.056041 kJ/mol
# Density = 2.736529 g / cm^3
# Si number density = 27.427715 Si / 1000 Ang^3
#
#
#
# Elastic Constant Matrix: (Units=GPa)
#
#
# Indices 1 2 3 4 5 6 
#
# 1 206.8640 0.0405 73.3525 0.0000 0.0000 0.0000
# 2 0.0405 90.6519 9.0881 0.0000 0.0000 0.0000
# 3 73.3525 9.0881 127.2603 0.0000 0.0000 0.0000
# 4 0.0000 0.0000 0.0000 16.0725 0.0000 0.0000
# 5 0.0000 0.0000 0.0000 0.0000 55.0589 0.0000
# 6 0.0000 0.0000 0.0000 0.0000 0.0000 -0.6885
#
#
#
# Elastic Compliance Matrix: (Units=1/GPa)
#
#
# Indices 1 2 3 4 5 6 
#
# 1 0.006087 0.000352 -0.003534 0.000000 0.000000 0.000000
# 2 0.000352 0.011131 -0.000998 0.000000 0.000000 0.000000
# 3 -0.003534 -0.000998 0.009966 0.000000 0.000000 0.000000
# 4 0.000000 0.000000 0.000000 0.062218 0.000000 0.000000
# 5 0.000000 0.000000 0.000000 0.000000 0.018162 0.000000
# 6 0.000000 0.000000 0.000000 0.000000 0.000000 -1.452380
#
#
# Mechanical properties :
#
#
# Convention : Reuss Voigt Hill
#
# Bulk Modulus (GPa) = 53.12163 65.52650 59.32407
# Shear Modulus (GPa) = -3.75889 36.90824 16.57468
#
# Velocity S-wave (km/s) = -1.17194 3.67230 2.46093
# Velocity P-wave (km/s) = 4.19269 6.47484 5.45445
#
# Compressibility (1/GPa) = 0.01882472
#
# Stress axis : x y z
#
# Youngs Moduli (GPa) = 164.28363 89.83873 100.34176
#
# Poissons Ratio (x) = -0.03158 0.35457
# Poissons Ratio (y) = -0.05775 0.10009
# Poissons Ratio (z) = 0.58052 0.08962
#
# Static dielectric constant tensor:
#      x y z
#    x 2.253690 0.000000 0.000000 
#    y 0.000000 2.070570 0.000000 
#    z 0.000000 0.000000 2.237150 
# 
# From -- ./inp_files/18775.got.cif
#   From: 2010.05.17/outbox.cif.g08.bks.cpg/sg51_10_cif.got.tgz:18775.got - 2010.06.03 11:52:47.
