data_PCOD9399915
_publ_section_title
;
Structure prediction by ZEFSAII (Michael W. Deem and Ramdas Pophale) SiO2 
 PCOD9399915
Probable space group: P M M A
;
_chemical_formula_sum "Si O2"
_cell_formula_units_Z 56
_cell_length_a 15.561129
_cell_length_b 8.900319
_cell_length_c 21.441854
_cell_angle_alpha 90.000000
_cell_angle_beta 90.000000
_cell_angle_gamma 90.000000
_cell_volume 2969.675597
_symmetry_space_group_name_H-M "P M M A"
_symmetry_group_IT_number 51
_symmetry_cell_setting 'orthorhombic'
loop_
_space_group_symop_operation_xyz
x,y,z
1/2-x,-y,z
1/2+x,-y,-z
-x,y,-z
-x,-y,-z
1/2+x,y,-z
1/2-x,y,z
x,-y,z
loop_
_atom_site_type_symbol
_atom_site_label
_atom_site_fract_x
_atom_site_fract_y
_atom_site_fract_z
Si Si1 0.651103 0.180140 0.910362
Si Si2 0.154281 0.182826 0.355626
Si Si3 0.603239 0.823648 0.504504
Si Si4 0.486125 0.678450 0.849327
Si Si5 0.515618 0.819868 0.284557
Si Si6 0.348099 0.322894 0.623093
Si Si7 0.150556 0.820232 0.942664
O O1 0.750000 0.219124 0.895034
O O2 0.579589 0.263156 0.870637
O O3 0.641941 0.000000 0.902189
O O4 0.637310 0.212293 0.983930
O O5 0.250000 0.232941 0.338124
O O6 0.133221 0.226137 0.426980
O O7 0.077721 0.230649 0.310296
O O8 0.153573 0.000000 0.355122
O O9 0.500000 0.813594 0.500000
O O10 0.642182 0.729421 0.448285
O O11 0.626634 0.000000 0.496942
O O12 0.484811 0.500000 0.846593
O O13 0.465878 0.747486 0.781961
O O14 0.416803 0.736546 0.899444
O O15 0.585603 0.769290 0.335070
O O16 0.515418 0.000000 0.279312
O O17 0.250000 0.296507 0.643318
O O18 0.366595 0.500000 0.628159
O O19 0.250000 0.783364 0.927682
O O20 0.139877 0.000000 0.934931
#
# Coordination Sequence:
#
# PCOD9399915 Si02
#       7
#     8   8   8   8   8   8   8
#     4   9  19  38  64  91 118 152 197 244 284 332
#     4   9  18  34  58  86 112 140 183 239 288 331
#     4  10  18  34  61  90 115 144 187 235 283 341
#     4  12  25  38  56  86 123 159 193 235 296 357
#     4  11  23  41  61  81 109 152 203 245 285 338
#     4  11  24  40  58  84 118 153 189 235 296 355
#     4   9  19  38  64  91 117 150 196 244 287 337
#
# _framework density 18.857278000000001
#
# number of rings (size 3 to 8) (size 9 to 14) (size 15 to 20)
#    0.000    1.857    1.429    3.857    0.000    6.000 
#    0.000    2.857    0.000    2.143    0.000    0.000 
#    0.000    0.000    0.000    0.000    0.000    0.000 
#
# Total GULP energy -312891.384815 kJ/mol
# GULP energy per Si atom -5587.346157 kJ/mol
# Density = 1.881436 g / cm^3
# Si number density = 18.857278 Si / 1000 Ang^3
#
#
#
# Elastic Constant Matrix: (Units=GPa)
#
#
# Indices 1 2 3 4 5 6 
#
# 1 42.3134 19.0570 -6.6030 0.0000 0.0000 0.0000
# 2 19.0570 38.4103 13.4308 0.0000 0.0000 0.0000
# 3 -6.6030 13.4308 20.0610 0.0000 0.0000 0.0000
# 4 0.0000 0.0000 0.0000 -49.6669 0.0000 0.0000
# 5 0.0000 0.0000 0.0000 0.0000 -8.1777 0.0000
# 6 0.0000 0.0000 0.0000 0.0000 0.0000 4.7169
#
#
#
# Elastic Compliance Matrix: (Units=1/GPa)
#
#
# Indices 1 2 3 4 5 6 
#
# 1 0.046721 -0.037286 0.040341 0.000000 0.000000 0.000000
# 2 -0.037286 0.063749 -0.054952 0.000000 0.000000 0.000000
# 3 0.040341 -0.054952 0.099916 0.000000 0.000000 0.000000
# 4 0.000000 0.000000 0.000000 -0.020134 0.000000 0.000000
# 5 0.000000 0.000000 0.000000 0.000000 -0.122284 0.000000
# 6 0.000000 0.000000 0.000000 0.000000 0.000000 0.212004
#
#
# Mechanical properties :
#
#
# Convention : Reuss Voigt Hill
#
# Bulk Modulus (GPa) = 9.38160 16.95048 13.16604
# Shear Modulus (GPa) = 11.92470 -5.63221 3.14624
#
# Velocity S-wave (km/s) = 2.51742 -1.73010 1.29309
# Velocity P-wave (km/s) = 3.66547 2.23995 3.03752
#
# Compressibility (1/GPa) = 0.10659158
#
# Stress axis : x y z
#
# Youngs Moduli (GPa) = 21.40352 15.68653 10.00838
#
# Poissons Ratio (x) = 0.58489 -0.40375
# Poissons Ratio (y) = 0.79806 0.54998
# Poissons Ratio (z) = -0.86344 0.86201
#
# Static dielectric constant tensor:
#      x y z
#    x 1.655840 0.000000 0.000000 
#    y 0.000000 1.625650 0.000000 
#    z 0.000000 0.000000 1.623000 
# 
# From -- ./inp_files/33308.got.cif
#   From: 2010.05.17/outbox.cif.g08.bks.cpg/sg51_17_cif.got.tgz:33308.got - 2010.06.03 11:52:47.
