data_PCOD9399704
_publ_section_title
;
Structure prediction by ZEFSAII (Michael W. Deem and Ramdas Pophale) SiO2 
 PCOD9399704
Probable space group: P M M A
;
_chemical_formula_sum "Si O2"
_cell_formula_units_Z 52
_cell_length_a 8.378420
_cell_length_b 22.562768
_cell_length_c 15.124847
_cell_angle_alpha 90.000000
_cell_angle_beta 90.000000
_cell_angle_gamma 90.000000
_cell_volume 2859.206320
_symmetry_space_group_name_H-M "P M M A"
_symmetry_group_IT_number 51
_symmetry_cell_setting 'orthorhombic'
loop_
_space_group_symop_operation_xyz
x,y,z
1/2-x,-y,z
1/2+x,-y,-z
-x,y,-z
-x,-y,-z
1/2+x,y,-z
1/2-x,y,z
x,-y,z
loop_
_atom_site_type_symbol
_atom_site_label
_atom_site_fract_x
_atom_site_fract_y
_atom_site_fract_z
Si Si1 0.560918 0.872457 0.897714
Si Si2 0.063099 0.772530 0.763211
Si Si3 0.941630 0.566132 0.649858
Si Si4 0.441122 0.302831 0.597056
Si Si5 0.942286 0.688942 0.909147
Si Si6 0.942694 0.437605 0.859697
Si Si7 0.939941 0.000000 0.100698
O O1 0.250000 0.871701 0.094699
O O2 0.511175 0.825693 0.821775
O O3 0.503413 0.937254 0.865097
O O4 0.500000 0.862457 0.000000
O O5 0.250000 0.785776 0.752686
O O6 0.000349 0.745483 0.670041
O O7 0.031627 0.717939 0.828201
O O8 0.750000 0.567207 0.637857
O O9 0.997220 0.500000 0.617635
O O10 0.974945 0.567130 0.755031
O O11 0.006725 0.628432 0.613392
O O12 0.500000 0.286070 0.500000
O O13 0.250000 0.302398 0.601375
O O14 0.750000 0.693685 0.899944
O O15 0.997143 0.620989 0.907089
O O16 0.000000 0.717443 0.000000
O O17 0.750000 0.438682 0.867691
O O18 0.009226 0.500000 0.892175
O O19 0.750000 0.000000 0.103809
O O20 0.000000 0.000000 0.000000
#
# Coordination Sequence:
#
# PCOD9399704 Si02
#       7
#     8   8   8   8   8   8   4
#     4  11  21  35  57  86 120 158 194 228 265 311
#     4  11  23  39  55  77 107 141 181 225 270 320
#     4   9  17  33  57  79 100 129 169 219 277 340
#     4  11  24  39  58  80 106 136 175 226 280 339
#     4  11  21  33  51  73 101 136 174 218 264 319
#     4   8  15  29  49  70  93 126 167 211 262 318
#     4  10  18  32  54  84 123 160 193 230 264 304
#
# _framework density 18.186865000000001
#
# number of rings (size 3 to 8) (size 9 to 14) (size 15 to 20)
#    0.000    1.846    1.538    5.769    0.000    2.769 
#    0.000    0.000    0.000    1.385    0.000    0.538 
#    0.000    0.000    0.000    0.000    0.000    0.000 
#
# Total GULP energy -289717.120791 kJ/mol
# GULP energy per Si atom -5571.483092 kJ/mol
# Density = 1.814547 g / cm^3
# Si number density = 18.186865 Si / 1000 Ang^3
#
#
#
# Elastic Constant Matrix: (Units=GPa)
#
#
# Indices 1 2 3 4 5 6 
#
# 1 62.2057 30.7869 19.9395 0.0000 0.0000 0.0000
# 2 30.7869 143.6600 58.3254 0.0000 0.0000 0.0000
# 3 19.9395 58.3254 107.1596 0.0000 0.0000 0.0000
# 4 0.0000 0.0000 0.0000 32.5050 0.0000 0.0000
# 5 0.0000 0.0000 0.0000 0.0000 18.2751 0.0000
# 6 0.0000 0.0000 0.0000 0.0000 0.0000 47.2228
#
#
#
# Elastic Compliance Matrix: (Units=1/GPa)
#
#
# Indices 1 2 3 4 5 6 
#
# 1 0.018200 -0.003242 -0.001622 0.000000 0.000000 0.000000
# 2 -0.003242 0.009513 -0.004574 0.000000 0.000000 0.000000
# 3 -0.001622 -0.004574 0.012124 0.000000 0.000000 0.000000
# 4 0.000000 0.000000 0.000000 0.030765 0.000000 0.000000
# 5 0.000000 0.000000 0.000000 0.000000 0.054719 0.000000
# 6 0.000000 0.000000 0.000000 0.000000 0.000000 0.021176
#
#
# Mechanical properties :
#
#
# Convention : Reuss Voigt Hill
#
# Bulk Modulus (GPa) = 47.71056 59.01432 53.36244
# Shear Modulus (GPa) = 29.00909 33.19881 31.10395
#
# Velocity S-wave (km/s) = 3.99815 4.27714 4.13999
# Velocity P-wave (km/s) = 6.89957 7.54395 7.22894
#
# Compressibility (1/GPa) = 0.02095972
#
# Stress axis : x y z
#
# Youngs Moduli (GPa) = 54.94479 105.12114 82.48423
#
# Poissons Ratio (x) = 0.34078 0.13380
# Poissons Ratio (y) = 0.17812 0.37732
# Poissons Ratio (z) = 0.08913 0.48088
#
# Static dielectric constant tensor:
#      x y z
#    x 1.626610 0.000000 0.000000 
#    y 0.000000 1.722500 0.000000 
#    z 0.000000 0.000000 1.549310 
# 
# From -- ./inp_files/22021.got.cif
#   From: 2010.05.17/outbox.cif.g08.bks.cpg/sg51_12_cif.got.tgz:22021.got - 2010.06.03 11:52:47.
