data_PCOD9399758
_publ_section_title
;
Structure prediction by ZEFSAII (Michael W. Deem and Ramdas Pophale) SiO2 
 PCOD9399758
Probable space group: P M M A
;
_chemical_formula_sum "Si O2"
_cell_formula_units_Z 64
_cell_length_a 31.991749
_cell_length_b 8.274615
_cell_length_c 12.311069
_cell_angle_alpha 90.000000
_cell_angle_beta 90.000000
_cell_angle_gamma 90.000000
_cell_volume 3258.978875
_symmetry_space_group_name_H-M "P M M A"
_symmetry_group_IT_number 51
_symmetry_cell_setting 'orthorhombic'
loop_
_space_group_symop_operation_xyz
x,y,z
1/2-x,-y,z
1/2+x,-y,-z
-x,y,-z
-x,-y,-z
1/2+x,y,-z
1/2-x,y,z
x,-y,z
loop_
_atom_site_type_symbol
_atom_site_label
_atom_site_fract_x
_atom_site_fract_y
_atom_site_fract_z
Si Si1 0.547064 0.197376 0.976535
Si Si2 0.819532 0.194051 0.743727
Si Si3 0.546704 0.308933 0.516732
Si Si4 0.795577 0.691776 0.508028
Si Si5 0.581696 0.194276 0.743113
Si Si6 0.703952 0.802768 0.985363
Si Si7 0.124110 0.801898 0.873668
Si Si8 0.375879 0.192107 0.625665
O O1 0.561667 0.246629 0.856639
O O2 0.546980 0.000000 0.978002
O O3 0.500000 0.251805 0.000000
O O4 0.581927 0.248459 0.063823
O O5 0.800599 0.269246 0.635555
O O6 0.868984 0.228020 0.744379
O O7 0.801679 0.247817 0.859831
O O8 0.813765 0.000000 0.736588
O O9 0.500000 0.241617 0.500000
O O10 0.545376 0.500000 0.498305
O O11 0.560915 0.273556 0.639081
O O12 0.582044 0.241333 0.436745
O O13 0.750000 0.755192 0.471559
O O14 0.795927 0.500000 0.494417
O O15 0.835136 0.758112 0.442660
O O16 0.576952 0.000000 0.733874
O O17 0.750000 0.753691 0.024762
O O18 0.702664 0.000000 0.984795
O O19 0.665043 0.749552 0.058796
O O20 0.125176 0.745226 0.749325
O O21 0.124350 0.000000 0.873872
O O22 0.375604 0.000000 0.631801
#
# Coordination Sequence:
#
# PCOD9399758 Si02
#       8
#     8   8   8   8   8   8   8   8
#     4   9  17  30  51  81 116 148 177 223 284 336
#     4  10  18  32  56  87 116 142 181 234 284 331
#     4  11  25  42  59  81 115 156 194 236 287 342
#     4  11  24  40  58  81 114 156 195 234 285 343
#     4  10  19  33  59  89 115 144 184 236 285 332
#     4   9  16  28  49  78 113 147 176 219 280 335
#     4   9  18  32  49  78 114 143 179 225 278 336
#     4  11  23  38  60  87 115 148 191 243 286 332
#
# _framework density 19.638051999999998
#
# number of rings (size 3 to 8) (size 9 to 14) (size 15 to 20)
#    0.000    2.000    2.500    1.500    1.750    3.000 
#    0.000    1.250    0.000    3.375    0.000    1.750 
#    0.000    0.000    0.000    0.000    0.000    0.000 
#
# Total GULP energy -357373.116726 kJ/mol
# GULP energy per Si atom -5583.954949 kJ/mol
# Density = 1.959335 g / cm^3
# Si number density = 19.638052 Si / 1000 Ang^3
#
#
#
# Elastic Constant Matrix: (Units=GPa)
#
#
# Indices 1 2 3 4 5 6 
#
# 1 173.1533 29.3882 84.9270 0.0000 0.0000 0.0000
# 2 29.3882 8.7969 13.9304 0.0000 0.0000 0.0000
# 3 84.9270 13.9304 151.8630 0.0000 0.0000 0.0000
# 4 0.0000 0.0000 0.0000 -35.0923 0.0000 0.0000
# 5 0.0000 0.0000 0.0000 0.0000 37.5286 0.0000
# 6 0.0000 0.0000 0.0000 0.0000 0.0000 59.0255
#
#
#
# Elastic Compliance Matrix: (Units=1/GPa)
#
#
# Indices 1 2 3 4 5 6 
#
# 1 0.015718 -0.045149 -0.004649 0.000000 0.000000 0.000000
# 2 -0.045149 0.262684 0.001153 0.000000 0.000000 0.000000
# 3 -0.004649 0.001153 0.009079 0.000000 0.000000 0.000000
# 4 0.000000 0.000000 0.000000 -0.028496 0.000000 0.000000
# 5 0.000000 0.000000 0.000000 0.000000 0.026646 0.000000
# 6 0.000000 0.000000 0.000000 0.000000 0.000000 0.016942
#
#
# Mechanical properties :
#
#
# Convention : Reuss Voigt Hill
#
# Bulk Modulus (GPa) = 5.25787 65.58939 35.42363
# Shear Modulus (GPa) = 10.79310 25.99686 18.39498
#
# Velocity S-wave (km/s) = 2.34690 3.64235 3.06388
# Velocity P-wave (km/s) = 3.16656 7.15267 5.53117
#
# Compressibility (1/GPa) = 0.19019097
#
# Stress axis : x y z
#
# Youngs Moduli (GPa) = 63.62090 3.80686 110.14718
#
# Poissons Ratio (x) = 0.17188 0.51203
# Poissons Ratio (y) = 2.87243 -0.12699
# Poissons Ratio (z) = 0.29575 -0.00439
#
# Static dielectric constant tensor:
#      x y z
#    x 1.701450 0.000000 0.000000 
#    y 0.000000 1.677560 0.000000 
#    z 0.000000 0.000000 1.662440 
# 
# From -- ./inp_files/19442.got.cif
#   From: 2010.05.17/outbox.cif.g08.bks.cpg/sg51_10_cif.got.tgz:19442.got - 2010.06.03 11:52:47.
