data_PCOD9399793
_publ_section_title
;
Structure prediction by ZEFSAII (Michael W. Deem and Ramdas Pophale) SiO2 
 PCOD9399793
Probable space group: P M M A
;
_chemical_formula_sum "Si O2"
_cell_formula_units_Z 56
_cell_length_a 8.880590
_cell_length_b 20.782006
_cell_length_c 15.672646
_cell_angle_alpha 90.000000
_cell_angle_beta 90.000000
_cell_angle_gamma 90.000000
_cell_volume 2892.488294
_symmetry_space_group_name_H-M "P M M A"
_symmetry_group_IT_number 51
_symmetry_cell_setting 'orthorhombic'
loop_
_space_group_symop_operation_xyz
x,y,z
1/2-x,-y,z
1/2+x,-y,-z
-x,y,-z
-x,-y,-z
1/2+x,y,-z
1/2-x,y,z
x,-y,z
loop_
_atom_site_type_symbol
_atom_site_label
_atom_site_fract_x
_atom_site_fract_y
_atom_site_fract_z
Si Si1 0.067754 0.669444 0.910292
Si Si2 0.427335 0.426124 0.758090
Si Si3 0.068838 0.929794 0.222859
Si Si4 0.570364 0.105595 0.585712
Si Si5 0.929156 0.622058 0.587264
Si Si6 0.074166 0.201885 0.826186
Si Si7 0.573350 0.759376 0.371424
O O1 0.250000 0.669377 0.913979
O O2 0.024294 0.622407 0.832700
O O3 0.016602 0.742274 0.888429
O O4 0.000000 0.648548 0.000000
O O5 0.250000 0.412837 0.739845
O O6 0.440418 0.500000 0.786349
O O7 0.518398 0.415402 0.671443
O O8 0.250000 0.927251 0.220018
O O9 0.025303 0.924639 0.323257
O O10 0.006681 0.866779 0.176237
O O11 0.019542 0.000000 0.190364
O O12 0.500000 0.076896 0.500000
O O13 0.750000 0.103266 0.579580
O O14 0.511954 0.178799 0.592324
O O15 0.750000 0.623931 0.580672
O O16 0.000000 0.595344 0.500000
O O17 0.995842 0.693872 0.599906
O O18 0.250000 0.190716 0.843899
O O19 0.064379 0.232428 0.731079
O O20 0.750000 0.759933 0.395452
#
# Coordination Sequence:
#
# PCOD9399793 Si02
#       7
#     8   8   8   8   8   8   8
#     4  10  21  39  63  95 125 153 190 236 290 351
#     4  10  22  43  66  87 120 162 198 240 292 343
#     4   9  19  34  51  74 106 144 188 236 288 346
#     4  10  19  30  44  68 102 141 187 237 291 343
#     4  12  24  37  57  84 117 156 202 249 295 347
#     4   9  18  34  57  82 113 147 186 235 285 340
#     4  10  18  33  54  76 107 146 191 241 294 344
#
# _framework density 19.360492000000001
#
# number of rings (size 3 to 8) (size 9 to 14) (size 15 to 20)
#    0.000    2.000    1.429    2.571    0.000    3.714 
#    0.000    0.000    0.000    0.429    0.000    0.000 
#    0.000    0.000    0.000    0.000    0.000    0.000 
#
# Total GULP energy -312717.366961 kJ/mol
# GULP energy per Si atom -5584.238696 kJ/mol
# Density = 1.931643 g / cm^3
# Si number density = 19.360492 Si / 1000 Ang^3
#
#
#
# Elastic Constant Matrix: (Units=GPa)
#
#
# Indices 1 2 3 4 5 6 
#
# 1 48.1508 28.9557 23.3579 0.0000 0.0000 0.0000
# 2 28.9557 99.4300 38.6937 0.0000 0.0000 0.0000
# 3 23.3579 38.6937 79.7570 0.0000 0.0000 0.0000
# 4 0.0000 0.0000 0.0000 -10.7547 0.0000 0.0000
# 5 0.0000 0.0000 0.0000 0.0000 26.9184 0.0000
# 6 0.0000 0.0000 0.0000 0.0000 0.0000 18.1269
#
#
#
# Elastic Compliance Matrix: (Units=1/GPa)
#
#
# Indices 1 2 3 4 5 6 
#
# 1 0.026696 -0.005833 -0.004988 0.000000 0.000000 0.000000
# 2 -0.005833 0.013673 -0.004925 0.000000 0.000000 0.000000
# 3 -0.004988 -0.004925 0.016388 0.000000 0.000000 0.000000
# 4 0.000000 0.000000 0.000000 -0.092983 0.000000 0.000000
# 5 0.000000 0.000000 0.000000 0.000000 0.037149 0.000000
# 6 0.000000 0.000000 0.000000 0.000000 0.000000 0.055167
#
#
# Mechanical properties :
#
#
# Convention : Reuss Voigt Hill
#
# Bulk Modulus (GPa) = 39.58202 45.48363 42.53282
# Shear Modulus (GPa) = 52.08156 15.94682 34.01419
#
# Velocity S-wave (km/s) = 5.19224 2.87309 4.19607
# Velocity P-wave (km/s) = 7.51232 5.87794 6.74482
#
# Compressibility (1/GPa) = 0.02526400
#
# Stress axis : x y z
#
# Youngs Moduli (GPa) = 37.45938 73.13931 61.01927
#
# Poissons Ratio (x) = 0.42662 0.30438
# Poissons Ratio (y) = 0.21850 0.30051
# Poissons Ratio (z) = 0.18686 0.36020
#
# Static dielectric constant tensor:
#      x y z
#    x 1.648920 0.000000 0.000000 
#    y 0.000000 1.685310 0.000000 
#    z 0.000000 0.000000 1.686790 
# 
# From -- ./inp_files/21761.got.cif
#   From: 2010.05.17/outbox.cif.g08.bks.cpg/sg51_11_cif.got.tgz:21761.got - 2010.06.03 11:52:47.
