data_PCOD9399636
_publ_section_title
;
Structure prediction by ZEFSAII (Michael W. Deem and Ramdas Pophale) SiO2 
 PCOD9399636
Probable space group: P M M A
;
_chemical_formula_sum "Si O2"
_cell_formula_units_Z 52
_cell_length_a 8.719788
_cell_length_b 22.891152
_cell_length_c 15.761777
_cell_angle_alpha 90.000000
_cell_angle_beta 90.000000
_cell_angle_gamma 90.000000
_cell_volume 3146.145142
_symmetry_space_group_name_H-M "P M M A"
_symmetry_group_IT_number 51
_symmetry_cell_setting 'orthorhombic'
loop_
_space_group_symop_operation_xyz
x,y,z
1/2-x,-y,z
1/2+x,-y,-z
-x,y,-z
-x,-y,-z
1/2+x,y,-z
1/2-x,y,z
x,-y,z
loop_
_atom_site_type_symbol
_atom_site_label
_atom_site_fract_x
_atom_site_fract_y
_atom_site_fract_z
Si Si1 0.933279 0.286386 0.729488
Si Si2 0.074780 0.147111 0.913462
Si Si3 0.933012 0.932513 0.593948
Si Si4 0.434086 0.377700 0.595753
Si Si5 0.934272 0.500000 0.595751
Si Si6 0.427354 0.289275 0.910920
Si Si7 0.935316 0.156025 0.270502
O O1 0.750000 0.288216 0.722518
O O2 0.009748 0.327049 0.658376
O O3 0.984218 0.305263 0.824699
O O4 0.993484 0.220202 0.717523
O O5 0.250000 0.128254 0.915056
O O6 0.070338 0.218185 0.914196
O O7 0.009106 0.132008 0.821330
O O8 0.000000 0.126118 0.000000
O O9 0.750000 0.923543 0.593118
O O10 0.000000 0.924330 0.500000
O O11 0.012619 0.887654 0.657034
O O12 0.963098 0.000000 0.618573
O O13 0.500000 0.369345 0.500000
O O14 0.250000 0.380241 0.591075
O O15 0.500611 0.439248 0.630942
O O16 0.750000 0.500000 0.595546
O O17 0.000000 0.500000 0.500000
O O18 0.250000 0.307164 0.904769
O O19 0.500000 0.309581 0.000000
O O20 0.750000 0.161709 0.267530
#
# Coordination Sequence:
#
# PCOD9399636 Si02
#       7
#     8   8   8   8   4   8   8
#     4  11  21  33  49  74 105 136 168 206 252 301
#     4   8  15  26  43  67  95 125 157 192 233 282
#     4  10  21  37  56  76  96 123 162 205 247 294
#     4  11  21  35  52  73 101 134 170 209 250 296
#     4  10  18  32  52  74  97 128 169 208 246 292
#     4   9  16  28  45  68  97 131 167 205 246 292
#     4  10  20  34  51  74 102 131 163 202 248 297
#
# _framework density 16.528162999999999
#
# number of rings (size 3 to 8) (size 9 to 14) (size 15 to 20)
#    0.000    2.154    0.000    6.692    0.000    5.846 
#    0.000    3.077    0.000    0.462    0.000    0.538 
#    0.000    0.000    0.000    0.000    0.000    0.000 
#
# Total GULP energy -289873.859322 kJ/mol
# GULP energy per Si atom -5574.497295 kJ/mol
# Density = 1.649054 g / cm^3
# Si number density = 16.528163 Si / 1000 Ang^3
#
#
#
# Elastic Constant Matrix: (Units=GPa)
#
#
# Indices 1 2 3 4 5 6 
#
# 1 133.1441 44.7899 57.7933 0.0000 0.0000 0.0000
# 2 44.7899 67.1347 66.3637 0.0000 0.0000 0.0000
# 3 57.7933 66.3637 116.3812 0.0000 0.0000 0.0000
# 4 0.0000 0.0000 0.0000 -5.4918 0.0000 0.0000
# 5 0.0000 0.0000 0.0000 0.0000 30.8228 0.0000
# 6 0.0000 0.0000 0.0000 0.0000 0.0000 17.2377
#
#
#
# Elastic Compliance Matrix: (Units=1/GPa)
#
#
# Indices 1 2 3 4 5 6 
#
# 1 0.010034 -0.004054 -0.002671 0.000000 0.000000 0.000000
# 2 -0.004054 0.035776 -0.018388 0.000000 0.000000 0.000000
# 3 -0.002671 -0.018388 0.020404 0.000000 0.000000 0.000000
# 4 0.000000 0.000000 0.000000 -0.182089 0.000000 0.000000
# 5 0.000000 0.000000 0.000000 0.000000 0.032443 0.000000
# 6 0.000000 0.000000 0.000000 0.000000 0.000000 0.058012
#
#
# Mechanical properties :
#
#
# Convention : Reuss Voigt Hill
#
# Bulk Modulus (GPa) = 62.54206 72.72819 67.63512
# Shear Modulus (GPa) = 165.91387 18.36128 92.13757
#
# Velocity S-wave (km/s) = 10.02998 3.33665 7.47441
# Velocity P-wave (km/s) = 13.11700 7.67739 10.74705
#
# Compressibility (1/GPa) = 0.01598924
#
# Stress axis : x y z
#
# Youngs Moduli (GPa) = 99.66338 27.95133 49.01005
#
# Poissons Ratio (x) = 0.11331 0.13091
# Poissons Ratio (y) = 0.40402 0.90118
# Poissons Ratio (z) = 0.26620 0.51396
#
# Static dielectric constant tensor:
#      x y z
#    x 1.556490 0.000000 0.000000 
#    y 0.000000 1.546860 0.000000 
#    z 0.000000 0.000000 1.570630 
# 
# From -- ./inp_files/21523.got.cif
#   From: 2010.05.17/outbox.cif.g08.bks.cpg/sg51_11_cif.got.tgz:21523.got - 2010.06.03 11:52:47.
