data_PCOD9399871
_publ_section_title
;
Structure prediction by ZEFSAII (Michael W. Deem and Ramdas Pophale) SiO2 
 PCOD9399871
Probable space group: P M M A
;
_chemical_formula_sum "Si O2"
_cell_formula_units_Z 52
_cell_length_a 14.174308
_cell_length_b 18.479060
_cell_length_c 9.082649
_cell_angle_alpha 90.000000
_cell_angle_beta 90.000000
_cell_angle_gamma 90.000000
_cell_volume 2378.999070
_symmetry_space_group_name_H-M "P M M A"
_symmetry_group_IT_number 51
_symmetry_cell_setting 'orthorhombic'
loop_
_space_group_symop_operation_xyz
x,y,z
1/2-x,-y,z
1/2+x,-y,-z
-x,y,-z
-x,-y,-z
1/2+x,y,-z
1/2-x,y,z
x,-y,z
loop_
_atom_site_type_symbol
_atom_site_label
_atom_site_fract_x
_atom_site_fract_y
_atom_site_fract_z
Si Si1 0.634890 0.349512 0.718874
Si Si2 0.134926 0.355468 0.936391
Si Si3 0.365734 0.500000 0.773217
Si Si4 0.608309 0.081141 0.042196
Si Si5 0.855895 0.784449 0.224998
Si Si6 0.100648 0.204644 0.444917
Si Si7 0.750000 0.867169 0.780144
Si Si8 0.364937 0.500000 0.434702
O O1 0.750000 0.339624 0.704244
O O2 0.613851 0.352447 0.891634
O O3 0.588442 0.280131 0.642700
O O4 0.608084 0.425511 0.644948
O O5 0.250000 0.357540 0.924872
O O6 0.102028 0.428348 0.857587
O O7 0.097931 0.284121 0.854452
O O8 0.250000 0.500000 0.773252
O O9 0.395917 0.500000 0.603852
O O10 0.608896 0.137701 0.175868
O O11 0.641486 0.000000 0.079860
O O12 0.500000 0.076415 0.000000
O O13 0.668512 0.111366 0.904672
O O14 0.750000 0.784201 0.165259
O O15 0.853524 0.775541 0.398774
O O16 0.166855 0.156016 0.341468
O O17 0.000000 0.173759 0.500000
O O18 0.250000 0.500000 0.433247
#
# Coordination Sequence:
#
# PCOD9399871 Si02
#       8
#     8   8   4   8   8   8   4   4
#     4  10  18  34  55  87 128 179 240 309 369 438
#     4   9  18  29  55  87 126 176 234 293 356 421
#     4   9  15  27  43  81 128 169 227 295 353 423
#     4  11  25  46  75 108 140 183 240 295 358 438
#     4  11  21  39  64  96 132 178 230 288 353 429
#     4  12  25  41  66 102 141 188 241 297 367 448
#     4  12  23  46  74 103 148 190 232 297 366 426
#     4   9  17  27  52  83 126 180 241 301 380 451
#
# _framework density 21.857932000000002
#
# number of rings (size 3 to 8) (size 9 to 14) (size 15 to 20)
#    0.000    1.538    2.308    3.462    2.154    4.308 
#    0.000    1.923    0.000    4.154    0.000    3.769 
#    0.000    0.000    0.000    0.000    0.000    0.000 
#
# Total GULP energy -289487.280323 kJ/mol
# GULP energy per Si atom -5567.063083 kJ/mol
# Density = 2.180818 g / cm^3
# Si number density = 21.857932 Si / 1000 Ang^3
#
#
#
# Elastic Constant Matrix: (Units=GPa)
#
#
# Indices 1 2 3 4 5 6 
#
# 1 107.4356 12.9523 14.2907 0.0000 0.0000 0.0000
# 2 12.9523 109.0312 99.1505 0.0000 0.0000 0.0000
# 3 14.2907 99.1505 178.5736 0.0000 0.0000 0.0000
# 4 0.0000 0.0000 0.0000 -101.1556 0.0000 0.0000
# 5 0.0000 0.0000 0.0000 0.0000 25.7110 0.0000
# 6 0.0000 0.0000 0.0000 0.0000 0.0000 -37.4582
#
#
#
# Elastic Compliance Matrix: (Units=1/GPa)
#
#
# Indices 1 2 3 4 5 6 
#
# 1 0.009450 -0.000878 -0.000269 0.000000 0.000000 0.000000
# 2 -0.000878 0.018607 -0.010261 0.000000 0.000000 0.000000
# 3 -0.000269 -0.010261 0.011319 0.000000 0.000000 0.000000
# 4 0.000000 0.000000 0.000000 -0.009886 0.000000 0.000000
# 5 0.000000 0.000000 0.000000 0.000000 0.038894 0.000000
# 6 0.000000 0.000000 0.000000 0.000000 0.000000 -0.026696
#
#
# Mechanical properties :
#
#
# Convention : Reuss Voigt Hill
#
# Bulk Modulus (GPa) = 60.38821 71.98083 66.18452
# Shear Modulus (GPa) = 71.40488 -4.67078 33.36705
#
# Velocity S-wave (km/s) = 5.72177 -1.46339 3.91134
# Velocity P-wave (km/s) = 8.44625 5.49066 7.12343
#
# Compressibility (1/GPa) = 0.01655952
#
# Stress axis : x y z
#
# Youngs Moduli (GPa) = 105.82550 53.74234 88.34870
#
# Poissons Ratio (x) = 0.04721 0.02372
# Poissons Ratio (y) = 0.09295 0.90656
# Poissons Ratio (z) = 0.02842 0.55146
#
# Static dielectric constant tensor:
#      x y z
#    x 1.911230 0.000000 0.000000 
#    y 0.000000 1.822680 0.000000 
#    z 0.000000 0.000000 1.719230 
# 
# From -- ./inp_files/9887.got.cif
#   From: 2010.05.17/outbox.cif.g08.bks.cpg/sg51_5_cif.got.tgz:9887.got - 2010.06.03 11:52:47.
