data_PCOD9399493
_publ_section_title
;
Structure prediction by ZEFSAII (Michael W. Deem and Ramdas Pophale) SiO2 
 PCOD9399493
Probable space group: P M M A
;
_chemical_formula_sum "Si O2"
_cell_formula_units_Z 64
_cell_length_a 19.307523
_cell_length_b 7.880707
_cell_length_c 22.985638
_cell_angle_alpha 90.000000
_cell_angle_beta 90.000000
_cell_angle_gamma 90.000000
_cell_volume 3497.424150
_symmetry_space_group_name_H-M "P M M A"
_symmetry_group_IT_number 51
_symmetry_cell_setting 'orthorhombic'
loop_
_space_group_symop_operation_xyz
x,y,z
1/2-x,-y,z
1/2+x,-y,-z
-x,y,-z
-x,-y,-z
1/2+x,y,-z
1/2-x,y,z
x,-y,z
loop_
_atom_site_type_symbol
_atom_site_label
_atom_site_fract_x
_atom_site_fract_y
_atom_site_fract_z
Si Si1 0.171473 0.796889 0.002135
Si Si2 0.388912 0.193514 0.479920
Si Si3 0.464498 0.699780 0.058002
Si Si4 0.672284 0.296126 0.131442
Si Si5 0.468532 0.296672 0.299866
Si Si6 0.971189 0.708716 0.178564
Si Si7 0.972447 0.300251 0.418137
Si Si8 0.326510 0.794888 0.363095
O O1 0.250000 0.739584 0.013110
O O2 0.116558 0.721267 0.046506
O O3 0.168978 0.000000 0.005710
O O4 0.154475 0.745499 0.935689
O O5 0.404394 0.273198 0.542850
O O6 0.463761 0.202560 0.447973
O O7 0.340311 0.268872 0.429391
O O8 0.368146 0.000000 0.489915
O O9 0.482270 0.500000 0.058759
O O10 0.490492 0.767102 0.119640
O O11 0.500000 0.775757 0.000000
O O12 0.750000 0.229447 0.143135
O O13 0.675089 0.500000 0.135796
O O14 0.609079 0.238475 0.171738
O O15 0.470242 0.500000 0.296134
O O16 0.491570 0.230289 0.237111
O O17 0.523111 0.248458 0.350844
O O18 0.391586 0.251919 0.322604
O O19 0.972446 0.500000 0.179366
O O20 0.989670 0.500000 0.421921
O O21 0.250000 0.739965 0.343249
O O22 0.326832 0.000000 0.366329
#
# Coordination Sequence:
#
# PCOD9399493 Si02
#       8
#     8   8   8   8   8   8   8   8
#     4  10  20  32  46  68  98 125 149 186 239 295
#     4   9  15  24  42  65  86 111 144 184 228 266
#     4  10  18  31  51  72  92 120 157 201 245 284
#     4   9  16  29  51  73  91 116 151 190 233 283
#     4   9  18  31  47  67  94 128 160 194 235 282
#     4   9  17  31  49  71  96 120 156 201 238 279
#     4   9  15  24  40  63  90 116 142 177 224 270
#     4   9  18  32  48  67  93 124 161 204 240 272
#
# _framework density 18.299181000000001
#
# number of rings (size 3 to 8) (size 9 to 14) (size 15 to 20)
#    0.000    2.750    1.250    1.875    0.000    2.250 
#    0.000    1.875    0.000    4.500    0.000    1.750 
#    0.000    0.000    0.000    0.000    0.000    0.000 
#
# Total GULP energy -356292.634320 kJ/mol
# GULP energy per Si atom -5567.072411 kJ/mol
# Density = 1.825753 g / cm^3
# Si number density = 18.299181 Si / 1000 Ang^3
#
#
#
# Elastic Constant Matrix: (Units=GPa)
#
#
# Indices 1 2 3 4 5 6 
#
# 1 98.4573 -2.6970 79.1997 0.0000 0.0000 0.0000
# 2 -2.6970 18.0753 11.4449 0.0000 0.0000 0.0000
# 3 79.1997 11.4449 151.2276 0.0000 0.0000 0.0000
# 4 0.0000 0.0000 0.0000 56.1829 0.0000 0.0000
# 5 0.0000 0.0000 0.0000 0.0000 23.1133 0.0000
# 6 0.0000 0.0000 0.0000 0.0000 0.0000 13.4269
#
#
#
# Elastic Compliance Matrix: (Units=1/GPa)
#
#
# Indices 1 2 3 4 5 6 
#
# 1 0.019015 0.009603 -0.010685 0.000000 0.000000 0.000000
# 2 0.009603 0.062958 -0.009794 0.000000 0.000000 0.000000
# 3 -0.010685 -0.009794 0.012950 0.000000 0.000000 0.000000
# 4 0.000000 0.000000 0.000000 0.017799 0.000000 0.000000
# 5 0.000000 0.000000 0.000000 0.000000 0.043265 0.000000
# 6 0.000000 0.000000 0.000000 0.000000 0.000000 0.074477
#
#
# Mechanical properties :
#
#
# Convention : Reuss Voigt Hill
#
# Bulk Modulus (GPa) = 13.66673 49.29505 31.48089
# Shear Modulus (GPa) = 18.07624 30.53212 24.30418
#
# Velocity S-wave (km/s) = 3.14637 4.08916 3.64834
# Velocity P-wave (km/s) = 4.54799 7.02081 5.91506
#
# Compressibility (1/GPa) = 0.07317037
#
# Stress axis : x y z
#
# Youngs Moduli (GPa) = 52.59054 15.88360 77.22237
#
# Poissons Ratio (x) = -0.15253 0.82512
# Poissons Ratio (y) = -0.50501 0.75630
# Poissons Ratio (z) = 0.56193 0.15556
#
# Static dielectric constant tensor:
#      x y z
#    x 1.652760 0.000000 0.000000 
#    y 0.000000 1.660860 0.000000 
#    z 0.000000 0.000000 1.649270 
# 
# From -- ./inp_files/34088.got.cif
#   From: 2010.05.17/outbox.cif.g08.bks.cpg/sg51_18_cif.got.tgz:34088.got - 2010.06.03 11:52:47.
