data_PCOD9399203
_publ_section_title
;
Structure prediction by ZEFSAII (Michael W. Deem and Ramdas Pophale) SiO2 
 PCOD9399203
Probable space group: P M M A
;
_chemical_formula_sum "Si O2"
_cell_formula_units_Z 48
_cell_length_a 21.235920
_cell_length_b 8.724507
_cell_length_c 15.549443
_cell_angle_alpha 90.000000
_cell_angle_beta 90.000000
_cell_angle_gamma 90.000000
_cell_volume 2880.890906
_symmetry_space_group_name_H-M "P M M A"
_symmetry_group_IT_number 51
_symmetry_cell_setting 'orthorhombic'
loop_
_space_group_symop_operation_xyz
x,y,z
1/2-x,-y,z
1/2+x,-y,-z
-x,y,-z
-x,-y,-z
1/2+x,y,-z
1/2-x,y,z
x,-y,z
loop_
_atom_site_type_symbol
_atom_site_label
_atom_site_fract_x
_atom_site_fract_y
_atom_site_fract_z
Si Si1 0.181535 0.685046 0.620838
Si Si2 0.180636 0.682944 0.990051
Si Si3 0.554079 0.814523 0.932074
Si Si4 0.490901 0.178710 0.760641
Si Si5 0.654798 0.178479 0.193703
Si Si6 0.457511 0.684687 0.579156
O O1 0.250000 0.731977 0.584048
O O2 0.180067 0.500000 0.622140
O O3 0.178215 0.745807 0.718380
O O4 0.115894 0.737392 0.577311
O O5 0.250000 0.727739 0.023483
O O6 0.175032 0.500000 0.994577
O O7 0.176837 0.735174 0.890889
O O8 0.121965 0.758317 0.038078
O O9 0.536617 0.762504 0.835600
O O10 0.552903 0.000000 0.932001
O O11 0.500000 0.764309 0.000000
O O12 0.421045 0.185133 0.801632
O O13 0.486732 0.265245 0.670370
O O14 0.504961 0.000000 0.743272
O O15 0.673011 0.000000 0.190112
O O16 0.500000 0.740686 0.500000
O O17 0.456668 0.500000 0.576214
#
# Coordination Sequence:
#
# PCOD9399203 Si02
#       6
#     8   8   8   8   8   8
#     4   9  17  29  45  67  96 125 154 194 242 293
#     4  11  23  34  45  68 102 136 171 209 248 293
#     4  10  19  35  54  73  98 129 170 211 246 293
#     4   9  18  32  51  74  98 125 160 205 249 291
#     4  10  18  30  47  69  98 130 162 197 242 296
#     4   9  18  32  50  72  97 126 162 199 240 296
#
# _framework density 16.661514
#
# number of rings (size 3 to 8) (size 9 to 14) (size 15 to 20)
#    0.000    2.333    1.667    1.500    0.000    5.667 
#    0.000    0.000    0.000    1.000    0.000    2.333 
#    0.000    0.000    0.000    0.000    0.000    0.000 
#
# Total GULP energy -267559.854449 kJ/mol
# GULP energy per Si atom -5574.163634 kJ/mol
# Density = 1.662359 g / cm^3
# Si number density = 16.661514 Si / 1000 Ang^3
#
#
#
# Elastic Constant Matrix: (Units=GPa)
#
#
# Indices 1 2 3 4 5 6 
#
# 1 141.9364 19.0195 73.7707 0.0000 0.0000 0.0000
# 2 19.0195 6.6884 13.2571 0.0000 0.0000 0.0000
# 3 73.7707 13.2571 85.7288 0.0000 0.0000 0.0000
# 4 0.0000 0.0000 0.0000 18.6504 0.0000 0.0000
# 5 0.0000 0.0000 0.0000 0.0000 7.4640 0.0000
# 6 0.0000 0.0000 0.0000 0.0000 0.0000 16.6310
#
#
#
# Elastic Compliance Matrix: (Units=1/GPa)
#
#
# Indices 1 2 3 4 5 6 
#
# 1 0.015160 -0.024877 -0.009198 0.000000 0.000000 0.000000
# 2 -0.024877 0.256420 -0.018246 0.000000 0.000000 0.000000
# 3 -0.009198 -0.018246 0.022401 0.000000 0.000000 0.000000
# 4 0.000000 0.000000 0.000000 0.053618 0.000000 0.000000
# 5 0.000000 0.000000 0.000000 0.000000 0.133977 0.000000
# 6 0.000000 0.000000 0.000000 0.000000 0.000000 0.060129
#
#
# Mechanical properties :
#
#
# Convention : Reuss Voigt Hill
#
# Bulk Modulus (GPa) = 5.28153 49.60534 27.44343
# Shear Modulus (GPa) = 7.04762 17.10284 12.07523
#
# Velocity S-wave (km/s) = 2.05890 3.20736 2.69502
# Velocity P-wave (km/s) = 2.97134 6.59949 5.11772
#
# Compressibility (1/GPa) = 0.18933924
#
# Stress axis : x y z
#
# Youngs Moduli (GPa) = 65.96503 3.89985 44.64055
#
# Poissons Ratio (x) = 0.09702 0.41060
# Poissons Ratio (y) = 1.64103 0.81450
# Poissons Ratio (z) = 0.60674 0.07116
#
# Static dielectric constant tensor:
#      x y z
#    x 1.608220 0.000000 0.000000 
#    y 0.000000 1.561120 0.000000 
#    z 0.000000 0.000000 1.533380 
# 
# From -- ./inp_files/25437.got.cif
#   From: 2010.05.17/outbox.cif.g08.bks.cpg/sg51_13_cif.got.tgz:25437.got - 2010.06.03 11:52:47.
