data_PCOD9399129
_publ_section_title
;
Structure prediction by ZEFSAII (Michael W. Deem and Ramdas Pophale) SiO2 
 PCOD9399129
Probable space group: P M M A
;
_chemical_formula_sum "Si O2"
_cell_formula_units_Z 60
_cell_length_a 21.168165
_cell_length_b 26.695854
_cell_length_c 5.264960
_cell_angle_alpha 90.000000
_cell_angle_beta 90.000000
_cell_angle_gamma 90.000000
_cell_volume 2975.240702
_symmetry_space_group_name_H-M "P M M A"
_symmetry_group_IT_number 51
_symmetry_cell_setting 'orthorhombic'
loop_
_space_group_symop_operation_xyz
x,y,z
1/2-x,-y,z
1/2+x,-y,-z
-x,y,-z
-x,-y,-z
1/2+x,y,-z
1/2-x,y,z
x,-y,z
loop_
_atom_site_type_symbol
_atom_site_label
_atom_site_fract_x
_atom_site_fract_y
_atom_site_fract_z
Si Si1 0.392960 0.441671 0.516336
Si Si2 0.445710 0.643045 0.186768
Si Si3 0.818587 0.559207 0.992101
Si Si4 0.500000 0.267172 0.500000
Si Si5 0.823890 0.706092 0.892047
Si Si6 0.864166 0.767311 0.389757
Si Si7 0.672904 0.057884 0.905194
Si Si8 0.173781 0.882842 0.594580
O O1 0.415600 0.500000 0.516451
O O2 0.436970 0.398837 0.401715
O O3 0.369843 0.426387 0.795424
O O4 0.337316 0.439163 0.303705
O O5 0.474254 0.695010 0.287982
O O6 0.500000 0.623450 0.000000
O O7 0.375016 0.660719 0.101107
O O8 0.750000 0.582066 0.039430
O O9 0.813869 0.500000 0.047588
O O10 0.559921 0.237150 0.399754
O O11 0.750000 0.691746 0.892992
O O12 0.838400 0.740632 0.136291
O O13 0.837279 0.737415 0.634210
O O14 0.845529 0.825123 0.399978
O O15 0.750000 0.057560 0.904907
O O16 0.652314 0.087017 0.157043
O O17 0.652851 0.000000 0.901698
O O18 0.652159 0.088332 0.657476
O O19 0.250000 0.884001 0.594102
#
# Coordination Sequence:
#
# PCOD9399129 Si02
#       8
#     8   8   8   4   8   8   8   8
#     4  10  22  37  59  89 116 149 196 243 286 346
#     4  11  24  43  64  84 120 161 194 238 297 373
#     4   9  18  35  57  84 119 153 183 227 287 343
#     4  10  24  44  63  86 115 162 202 244 304 374
#     4  11  23  39  61  89 117 151 195 251 310 362
#     4  11  22  39  62  86 120 154 200 255 303 356
#     4   9  17  29  46  75 118 159 192 229 286 356
#     4  10  18  29  50  81 112 148 192 243 296 341
#
# _framework density 20.166433999999999
#
# number of rings (size 3 to 8) (size 9 to 14) (size 15 to 20)
#    0.000    1.867    1.333    2.800    1.867    5.600 
#    0.000    0.333    0.000    0.000    0.000    2.800 
#    0.000    0.000    0.000    0.000    0.000    0.000 
#
# Total GULP energy -334906.013913 kJ/mol
# GULP energy per Si atom -5581.766899 kJ/mol
# Density = 2.012053 g / cm^3
# Si number density = 20.166434 Si / 1000 Ang^3
#
#
#
# Elastic Constant Matrix: (Units=GPa)
#
#
# Indices 1 2 3 4 5 6 
#
# 1 113.6350 31.2451 30.0775 0.0000 0.0000 0.0000
# 2 31.2451 145.8821 64.2084 0.0000 0.0000 0.0000
# 3 30.0775 64.2084 122.6676 0.0000 0.0000 0.0000
# 4 0.0000 0.0000 0.0000 40.1078 0.0000 0.0000
# 5 0.0000 0.0000 0.0000 0.0000 10.1661 0.0000
# 6 0.0000 0.0000 0.0000 0.0000 0.0000 28.1833
#
#
#
# Elastic Compliance Matrix: (Units=1/GPa)
#
#
# Indices 1 2 3 4 5 6 
#
# 1 0.009604 -0.001326 -0.001661 0.000000 0.000000 0.000000
# 2 -0.001326 0.009090 -0.004433 0.000000 0.000000 0.000000
# 3 -0.001661 -0.004433 0.010880 0.000000 0.000000 0.000000
# 4 0.000000 0.000000 0.000000 0.024933 0.000000 0.000000
# 5 0.000000 0.000000 0.000000 0.000000 0.098366 0.000000
# 6 0.000000 0.000000 0.000000 0.000000 0.000000 0.035482
#
#
# Mechanical properties :
#
#
# Convention : Reuss Voigt Hill
#
# Bulk Modulus (GPa) = 67.86825 70.36076 69.11450
# Shear Modulus (GPa) = 24.02622 32.80167 28.41395
#
# Velocity S-wave (km/s) = 3.45541 4.03742 3.75770
# Velocity P-wave (km/s) = 7.04606 7.52995 7.29202
#
# Compressibility (1/GPa) = 0.01473443
#
# Stress axis : x y z
#
# Youngs Moduli (GPa) = 104.11987 110.01189 91.91488
#
# Poissons Ratio (x) = 0.14588 0.15265
# Poissons Ratio (y) = 0.13807 0.40744
# Poissons Ratio (z) = 0.17292 0.48766
#
# Static dielectric constant tensor:
#      x y z
#    x 1.833600 0.000000 0.000000 
#    y 0.000000 1.695490 0.000000 
#    z 0.000000 0.000000 1.715760 
# 
# From -- ./inp_files/2660.got.cif
#   From: 2010.05.17/outbox.cif.g08.bks.cpg/sg51_2_cif.got.tgz:2660.got - 2010.06.03 11:52:47.
