data_PCOD9399367
_publ_section_title
;
Structure prediction by ZEFSAII (Michael W. Deem and Ramdas Pophale) SiO2 
 PCOD9399367
Probable space group: P M M A
;
_chemical_formula_sum "Si O2"
_cell_formula_units_Z 40
_cell_length_a 8.501051
_cell_length_b 26.793043
_cell_length_c 9.216159
_cell_angle_alpha 90.000000
_cell_angle_beta 90.000000
_cell_angle_gamma 90.000000
_cell_volume 2099.155550
_symmetry_space_group_name_H-M "P M M A"
_symmetry_group_IT_number 51
_symmetry_cell_setting 'orthorhombic'
loop_
_space_group_symop_operation_xyz
x,y,z
1/2-x,-y,z
1/2+x,-y,-z
-x,y,-z
-x,-y,-z
1/2+x,y,-z
1/2-x,y,z
x,-y,z
loop_
_atom_site_type_symbol
_atom_site_label
_atom_site_fract_x
_atom_site_fract_y
_atom_site_fract_z
Si Si1 0.440137 0.598950 0.663949
Si Si2 0.940031 0.796466 0.336531
Si Si3 0.561226 0.104758 0.165052
Si Si4 0.440154 0.500000 0.836009
Si Si5 0.940174 0.302143 0.163831
Si Si6 0.937259 0.000000 0.834114
O O1 0.500000 0.598405 0.500000
O O2 0.250000 0.598913 0.661325
O O3 0.492218 0.549618 0.750672
O O4 0.492136 0.648875 0.747759
O O5 0.750000 0.796175 0.338206
O O6 0.990495 0.847548 0.257941
O O7 0.992795 0.748164 0.245352
O O8 0.000000 0.793896 0.500000
O O9 0.750000 0.102982 0.160447
O O10 0.499430 0.052201 0.228087
O O11 0.500000 0.109955 0.000000
O O12 0.250000 0.500000 0.838664
O O13 0.500000 0.500000 0.000000
O O14 0.750000 0.302127 0.161411
O O15 0.000000 0.303473 0.000000
O O16 0.750000 0.000000 0.835335
O O17 0.000000 0.000000 0.000000
#
# Coordination Sequence:
#
# PCOD9399367 Si02
#       6
#     8   8   8   4   8   4
#     4  10  21  36  55  80 111 143 181 223 268 320
#     4  10  22  37  54  77 106 138 175 216 262 314
#     4  10  19  33  53  78 105 135 172 215 259 309
#     4  10  21  36  54  80 110 144 185 228 268 316
#     4  10  21  37  56  81 108 138 177 221 265 316
#     4  10  18  30  51  78 105 136 172 212 258 308
#
# _framework density 19.055281999999998
#
# number of rings (size 3 to 8) (size 9 to 14) (size 15 to 20)
#    0.000    2.000    0.000    4.800    0.000    4.000 
#    0.000    0.500    0.000    0.000    0.000    0.000 
#    0.000    0.000    0.000    0.000    0.000    0.000 
#
# Total GULP energy -223425.458992 kJ/mol
# GULP energy per Si atom -5585.636475 kJ/mol
# Density = 1.901191 g / cm^3
# Si number density = 19.055282 Si / 1000 Ang^3
#
#
#
# Elastic Constant Matrix: (Units=GPa)
#
#
# Indices 1 2 3 4 5 6 
#
# 1 28.3367 37.7622 21.2173 0.0000 0.0000 0.0000
# 2 37.7622 239.7655 121.8090 0.0000 0.0000 0.0000
# 3 21.2173 121.8090 168.3664 0.0000 0.0000 0.0000
# 4 0.0000 0.0000 0.0000 -6.2094 0.0000 0.0000
# 5 0.0000 0.0000 0.0000 0.0000 35.4786 0.0000
# 6 0.0000 0.0000 0.0000 0.0000 0.0000 1.3350
#
#
#
# Elastic Compliance Matrix: (Units=1/GPa)
#
#
# Indices 1 2 3 4 5 6 
#
# 1 0.044742 -0.006613 -0.000854 0.000000 0.000000 0.000000
# 2 -0.006613 0.007572 -0.004645 0.000000 0.000000 0.000000
# 3 -0.000854 -0.004645 0.009407 0.000000 0.000000 0.000000
# 4 0.000000 0.000000 0.000000 -0.161047 0.000000 0.000000
# 5 0.000000 0.000000 0.000000 0.000000 0.028186 0.000000
# 6 0.000000 0.000000 0.000000 0.000000 0.000000 0.749049
#
#
# Mechanical properties :
#
#
# Convention : Reuss Voigt Hill
#
# Bulk Modulus (GPa) = 26.66823 88.67174 57.66998
# Shear Modulus (GPa) = 6.99661 23.16618 15.08140
#
# Velocity S-wave (km/s) = 1.91826 3.49052 2.81633
# Velocity P-wave (km/s) = 4.35108 7.92969 6.39577
#
# Compressibility (1/GPa) = 0.03749781
#
# Stress axis : x y z
#
# Youngs Moduli (GPa) = 22.35049 132.06685 106.29874
#
# Poissons Ratio (x) = 0.87332 0.09080
# Poissons Ratio (y) = 0.14780 0.49373
# Poissons Ratio (z) = 0.01909 0.61342
#
# Static dielectric constant tensor:
#      x y z
#    x 1.650920 0.000000 0.000000 
#    y 0.000000 1.685220 0.000000 
#    z 0.000000 0.000000 1.602660 
# 
# From -- ./inp_files/5590.got.cif
#   From: 2010.05.17/outbox.cif.g08.bks.cpg/sg51_3_cif.got.tgz:5590.got - 2010.06.03 11:52:47.
