data_PCOD9399026
_publ_section_title
;
Structure prediction by ZEFSAII (Michael W. Deem and Ramdas Pophale) SiO2 
 PCOD9399026
Probable space group: P M M A
;
_chemical_formula_sum "Si O2"
_cell_formula_units_Z 56
_cell_length_a 28.478299
_cell_length_b 9.328200
_cell_length_c 13.701977
_cell_angle_alpha 90.000000
_cell_angle_beta 90.000000
_cell_angle_gamma 90.000000
_cell_volume 3639.947574
_symmetry_space_group_name_H-M "P M M A"
_symmetry_group_IT_number 51
_symmetry_cell_setting 'orthorhombic'
loop_
_space_group_symop_operation_xyz
x,y,z
1/2-x,-y,z
1/2+x,-y,-z
-x,y,-z
-x,-y,-z
1/2+x,y,-z
1/2-x,y,z
x,-y,z
loop_
_atom_site_type_symbol
_atom_site_label
_atom_site_fract_x
_atom_site_fract_y
_atom_site_fract_z
Si Si1 0.108292 0.666557 0.195076
Si Si2 0.695726 0.828654 0.729811
Si Si3 0.033173 0.169912 0.700376
Si Si4 0.476481 0.828910 0.102730
Si Si5 0.048971 0.663704 0.394162
Si Si6 0.890549 0.669304 0.410113
Si Si7 0.695361 0.829244 0.499313
O O1 0.113688 0.500000 0.169598
O O2 0.157912 0.745169 0.206360
O O3 0.071563 0.745329 0.124356
O O4 0.083930 0.674249 0.302128
O O5 0.750000 0.794522 0.752966
O O6 0.688486 0.795306 0.614543
O O7 0.689461 0.000000 0.740288
O O8 0.080817 0.252445 0.675210
O O9 0.012226 0.200666 0.807802
O O10 0.993187 0.228103 0.626623
O O11 0.039266 0.000000 0.689670
O O12 0.467222 0.000000 0.103746
O O13 0.500000 0.790962 0.000000
O O14 0.030213 0.500000 0.396184
O O15 0.077876 0.689499 0.492147
O O16 0.886135 0.500000 0.392796
O O17 0.840850 0.741054 0.434553
O O18 0.750000 0.800557 0.476630
O O19 0.687272 0.000000 0.488304
#
# Coordination Sequence:
#
# PCOD9399026 Si02
#       7
#     8   8   8   8   8   8   8
#     4  10  18  29  46  70  97 126 158 192 233 279
#     4   9  17  29  45  66  94 128 163 196 229 268
#     4  10  20  31  46  68  89 116 155 194 229 273
#     4   9  19  36  54  70  91 120 155 196 242 290
#     4   9  18  30  41  60  93 128 156 184 222 266
#     4  11  20  30  44  64  94 129 158 188 227 272
#     4   9  18  31  46  65  91 125 165 203 231 261
#
# _framework density 15.384836999999999
#
# number of rings (size 3 to 8) (size 9 to 14) (size 15 to 20)
#    0.000    2.429    1.429    2.571    0.000    4.857 
#    0.000    1.429    0.000    0.000    0.000    1.000 
#    0.000    8.000    0.000    0.000    0.000    0.000 
#
# Total GULP energy -312315.793778 kJ/mol
# GULP energy per Si atom -5577.067746 kJ/mol
# Density = 1.534982 g / cm^3
# Si number density = 15.384837 Si / 1000 Ang^3
#
#
#
# Elastic Constant Matrix: (Units=GPa)
#
#
# Indices 1 2 3 4 5 6 
#
# 1 131.0868 81.8141 47.7604 0.0000 0.0000 0.0000
# 2 81.8141 76.0922 41.1353 0.0000 0.0000 0.0000
# 3 47.7604 41.1353 47.6566 0.0000 0.0000 0.0000
# 4 0.0000 0.0000 0.0000 15.0383 0.0000 0.0000
# 5 0.0000 0.0000 0.0000 0.0000 20.8504 0.0000
# 6 0.0000 0.0000 0.0000 0.0000 0.0000 -20.0254
#
#
#
# Elastic Compliance Matrix: (Units=1/GPa)
#
#
# Indices 1 2 3 4 5 6 
#
# 1 0.023458 -0.023460 -0.003259 0.000000 0.000000 0.000000
# 2 -0.023460 0.048101 -0.018008 0.000000 0.000000 0.000000
# 3 -0.003259 -0.018008 0.039794 0.000000 0.000000 0.000000
# 4 0.000000 0.000000 0.000000 0.066497 0.000000 0.000000
# 5 0.000000 0.000000 0.000000 0.000000 0.047961 0.000000
# 6 0.000000 0.000000 0.000000 0.000000 0.000000 -0.049937
#
#
# Mechanical properties :
#
#
# Convention : Reuss Voigt Hill
#
# Bulk Modulus (GPa) = 45.66577 66.25058 55.95818
# Shear Modulus (GPa) = 18.34007 8.78105 13.56056
#
# Velocity S-wave (km/s) = 3.45641 2.39165 2.97210
# Velocity P-wave (km/s) = 6.75839 7.12618 6.94472
#
# Compressibility (1/GPa) = 0.02189824
#
# Stress axis : x y z
#
# Youngs Moduli (GPa) = 42.62972 20.78962 25.12962
#
# Poissons Ratio (x) = 0.48772 0.08191
# Poissons Ratio (y) = 1.00008 0.45253
# Poissons Ratio (z) = 0.13894 0.37438
#
# Static dielectric constant tensor:
#      x y z
#    x 1.507400 0.000000 0.000000 
#    y 0.000000 1.512680 0.000000 
#    z 0.000000 0.000000 1.494480 
# 
# From -- ./inp_files/26478.got.cif
#   From: 2010.05.17/outbox.cif.g08.bks.cpg/sg51_14_cif.got.tgz:26478.got - 2010.06.03 11:52:47.
