data_PCOD9399121
_publ_section_title
;
Structure prediction by ZEFSAII (Michael W. Deem and Ramdas Pophale) SiO2 
 PCOD9399121
Probable space group: P M M A
;
_chemical_formula_sum "Si O2"
_cell_formula_units_Z 64
_cell_length_a 16.000606
_cell_length_b 8.980512
_cell_length_c 23.877508
_cell_angle_alpha 90.000000
_cell_angle_beta 90.000000
_cell_angle_gamma 90.000000
_cell_volume 3431.045900
_symmetry_space_group_name_H-M "P M M A"
_symmetry_group_IT_number 51
_symmetry_cell_setting 'orthorhombic'
loop_
_space_group_symop_operation_xyz
x,y,z
1/2-x,-y,z
1/2+x,-y,-z
-x,y,-z
-x,-y,-z
1/2+x,y,-z
1/2-x,y,z
x,-y,z
loop_
_atom_site_type_symbol
_atom_site_label
_atom_site_fract_x
_atom_site_fract_y
_atom_site_fract_z
Si Si1 0.013883 0.819234 0.138227
Si Si2 0.099046 0.669146 0.581619
Si Si3 0.089203 0.329976 0.370879
Si Si4 0.347557 0.832165 0.474020
Si Si5 0.843945 0.181188 0.079102
Si Si6 0.156036 0.177193 0.690753
Si Si7 0.155631 0.180977 0.050185
Si Si8 0.007919 0.321065 0.257358
O O1 0.921493 0.772452 0.117212
O O2 0.031388 0.748755 0.198261
O O3 0.083259 0.772644 0.092598
O O4 0.014940 0.000000 0.142040
O O5 0.130581 0.500000 0.585783
O O6 0.107629 0.727904 0.518981
O O7 0.146384 0.772882 0.626116
O O8 0.003051 0.669173 0.601222
O O9 0.120830 0.500000 0.371170
O O10 0.142433 0.226727 0.411115
O O11 0.072244 0.280366 0.307312
O O12 0.250000 0.831656 0.488882
O O13 0.380429 0.000000 0.478267
O O14 0.750000 0.229315 0.095641
O O15 0.843503 0.000000 0.079745
O O16 0.858862 0.226228 0.014372
O O17 0.250000 0.213468 0.710041
O O18 0.083036 0.259782 0.724400
O O19 0.144072 0.000000 0.695366
O O20 0.250000 0.227365 0.066196
O O21 0.154826 0.000000 0.050045
O O22 0.004778 0.500000 0.255397
#
# Coordination Sequence:
#
# PCOD9399121 Si02
#       8
#     8   8   8   8   8   8   8   8
#     4  10  18  29  50  77 102 132 172 216 259 302
#     4  10  20  34  54  79 105 133 165 199 242 304
#     4   9  20  38  55  70  92 128 172 210 247 297
#     4  11  23  35  50  77 106 128 158 204 255 304
#     4   8  14  25  44  74 109 138 166 205 252 302
#     4  10  20  34  53  77 104 133 168 211 254 297
#     4   8  14  26  46  74 105 134 168 213 262 308
#     4  10  22  38  53  71  99 135 174 212 252 304
#
# _framework density 18.653203999999999
#
# number of rings (size 3 to 8) (size 9 to 14) (size 15 to 20)
#    0.000    2.500    0.000    4.125    0.000   10.000 
#    0.000    1.875    0.000    4.125    0.000    1.750 
#    0.000    0.000    0.000    0.000    0.000    0.000 
#
# Total GULP energy -356988.032573 kJ/mol
# GULP energy per Si atom -5577.938009 kJ/mol
# Density = 1.861075 g / cm^3
# Si number density = 18.653204 Si / 1000 Ang^3
#
#
#
# Elastic Constant Matrix: (Units=GPa)
#
#
# Indices 1 2 3 4 5 6 
#
# 1 32.3827 5.5681 21.0911 0.0000 0.0000 0.0000
# 2 5.5681 26.1463 10.4730 0.0000 0.0000 0.0000
# 3 21.0911 10.4730 89.1618 0.0000 0.0000 0.0000
# 4 0.0000 0.0000 0.0000 -14.8193 0.0000 0.0000
# 5 0.0000 0.0000 0.0000 0.0000 11.3044 0.0000
# 6 0.0000 0.0000 0.0000 0.0000 0.0000 17.3673
#
#
#
# Elastic Compliance Matrix: (Units=1/GPa)
#
#
# Indices 1 2 3 4 5 6 
#
# 1 0.037023 -0.004593 -0.008218 0.000000 0.000000 0.000000
# 2 -0.004593 0.040704 -0.003695 0.000000 0.000000 0.000000
# 3 -0.008218 -0.003695 0.013594 0.000000 0.000000 0.000000
# 4 0.000000 0.000000 0.000000 -0.067480 0.000000 0.000000
# 5 0.000000 0.000000 0.000000 0.000000 0.088461 0.000000
# 6 0.000000 0.000000 0.000000 0.000000 0.000000 0.057580
#
#
# Mechanical properties :
#
#
# Convention : Reuss Voigt Hill
#
# Bulk Modulus (GPa) = 17.14981 24.66168 20.90574
# Shear Modulus (GPa) = 22.48911 10.14105 16.31508
#
# Velocity S-wave (km/s) = 3.47600 2.33419 2.96066
# Velocity P-wave (km/s) = 5.03231 4.52928 4.78741
#
# Compressibility (1/GPa) = 0.05830970
#
# Stress axis : x y z
#
# Youngs Moduli (GPa) = 27.01021 24.56738 73.56408
#
# Poissons Ratio (x) = 0.11283 0.60457
# Poissons Ratio (y) = 0.12405 0.27180
# Poissons Ratio (z) = 0.22198 0.09077
#
# Static dielectric constant tensor:
#      x y z
#    x 1.656130 0.000000 0.000000 
#    y 0.000000 1.631570 0.000000 
#    z 0.000000 0.000000 1.640540 
# 
# From -- ./inp_files/33923.got.cif
#   From: 2010.05.17/outbox.cif.g08.bks.cpg/sg51_17_cif.got.tgz:33923.got - 2010.06.03 11:52:47.
