data_PCOD9399708
_publ_section_title
;
Structure prediction by ZEFSAII (Michael W. Deem and Ramdas Pophale) SiO2 
 PCOD9399708
Probable space group: P M M A
;
_chemical_formula_sum "Si O2"
_cell_formula_units_Z 48
_cell_length_a 21.196998
_cell_length_b 7.558651
_cell_length_c 14.659123
_cell_angle_alpha 90.000000
_cell_angle_beta 90.000000
_cell_angle_gamma 90.000000
_cell_volume 2348.695097
_symmetry_space_group_name_H-M "P M M A"
_symmetry_group_IT_number 51
_symmetry_cell_setting 'orthorhombic'
loop_
_space_group_symop_operation_xyz
x,y,z
1/2-x,-y,z
1/2+x,-y,-z
-x,y,-z
-x,-y,-z
1/2+x,y,-z
1/2-x,y,z
x,-y,z
loop_
_atom_site_type_symbol
_atom_site_label
_atom_site_fract_x
_atom_site_fract_y
_atom_site_fract_z
Si Si1 0.124492 0.283205 0.216884
Si Si2 0.623835 0.214788 0.202537
Si Si3 0.994332 0.707902 0.897645
Si Si4 0.750000 0.287031 0.889813
Si Si5 0.822394 0.711864 0.595187
Si Si6 0.177713 0.211596 0.609465
Si Si7 0.250000 0.208839 0.897384
O O1 0.122786 0.500000 0.217988
O O2 0.186858 0.228364 0.161460
O O3 0.134720 0.224649 0.321339
O O4 0.062475 0.219349 0.164257
O O5 0.560098 0.276130 0.155111
O O6 0.634693 0.273523 0.307015
O O7 0.685600 0.277711 0.147139
O O8 0.622152 0.000000 0.200237
O O9 0.979585 0.500000 0.909361
O O10 0.000000 0.783858 0.000000
O O11 0.750000 0.500000 0.886054
O O12 0.750000 0.233994 0.994834
O O13 0.750000 0.779404 0.603910
O O14 0.818720 0.500000 0.603499
O O15 0.844681 0.750379 0.492829
O O16 0.250000 0.279866 0.618340
O O17 0.181526 0.000000 0.618396
O O18 0.250000 0.000000 0.876759
#
# Coordination Sequence:
#
# PCOD9399708 Si02
#       7
#     8   8   8   4   8   8   4
#     4   9  17  32  53  76 105 137 168 208 260 307
#     4  10  20  36  55  74 101 138 174 209 259 313
#     4  10  21  36  53  76 106 139 175 214 255 303
#     4  10  18  32  55  78 100 132 173 214 255 302
#     4   9  16  29  51  78 103 131 167 207 254 308
#     4   9  17  32  53  76 102 133 167 210 262 306
#     4  10  20  34  51  74 102 130 167 216 261 304
#
# _framework density 20.436881
#
# number of rings (size 3 to 8) (size 9 to 14) (size 15 to 20)
#    0.000    2.500    1.667    1.000    0.000    3.000 
#    0.000    3.333    0.000    5.000    0.000    0.000 
#    0.000    0.000    0.000    0.000    0.000    0.000 
#
# Total GULP energy -267894.992948 kJ/mol
# GULP energy per Si atom -5581.145686 kJ/mol
# Density = 2.039037 g / cm^3
# Si number density = 20.436881 Si / 1000 Ang^3
#
#
#
# Elastic Constant Matrix: (Units=GPa)
#
#
# Indices 1 2 3 4 5 6 
#
# 1 138.5244 -9.2847 93.7786 0.0000 0.0000 0.0000
# 2 -9.2847 41.1327 -9.5278 0.0000 0.0000 0.0000
# 3 93.7786 -9.5278 208.8747 0.0000 0.0000 0.0000
# 4 0.0000 0.0000 0.0000 21.6412 0.0000 0.0000
# 5 0.0000 0.0000 0.0000 0.0000 29.5314 0.0000
# 6 0.0000 0.0000 0.0000 0.0000 0.0000 7.6587
#
#
#
# Elastic Compliance Matrix: (Units=1/GPa)
#
#
# Indices 1 2 3 4 5 6 
#
# 1 0.010438 0.001284 -0.004628 0.000000 0.000000 0.000000
# 2 0.001284 0.024729 0.000551 0.000000 0.000000 0.000000
# 3 -0.004628 0.000551 0.006890 0.000000 0.000000 0.000000
# 4 0.000000 0.000000 0.000000 0.046208 0.000000 0.000000
# 5 0.000000 0.000000 0.000000 0.000000 0.033862 0.000000
# 6 0.000000 0.000000 0.000000 0.000000 0.000000 0.130570
#
#
# Mechanical properties :
#
#
# Convention : Reuss Voigt Hill
#
# Bulk Modulus (GPa) = 27.41731 59.82934 43.62333
# Shear Modulus (GPa) = 18.48837 32.67062 25.57950
#
# Velocity S-wave (km/s) = 3.01102 4.00260 3.54168
# Velocity P-wave (km/s) = 5.05302 7.12038 6.17385
#
# Compressibility (1/GPa) = 0.03647330
#
# Stress axis : x y z
#
# Youngs Moduli (GPa) = 95.80450 40.43804 145.12863
#
# Poissons Ratio (x) = -0.05193 0.67162
# Poissons Ratio (y) = -0.12303 -0.08003
# Poissons Ratio (z) = 0.44336 -0.02230
#
# Static dielectric constant tensor:
#      x y z
#    x 1.687570 0.000000 0.000000 
#    y 0.000000 1.637050 0.000000 
#    z 0.000000 0.000000 1.729890 
# 
# From -- ./inp_files/24993.got.cif
#   From: 2010.05.17/outbox.cif.g08.bks.cpg/sg51_13_cif.got.tgz:24993.got - 2010.06.03 11:52:47.
