data_PCOD9399359
_publ_section_title
;
Structure prediction by ZEFSAII (Michael W. Deem and Ramdas Pophale) SiO2 
 PCOD9399359
Probable space group: P M M A
;
_chemical_formula_sum "Si O2"
_cell_formula_units_Z 56
_cell_length_a 8.369620
_cell_length_b 15.905492
_cell_length_c 21.015834
_cell_angle_alpha 90.000000
_cell_angle_beta 90.000000
_cell_angle_gamma 90.000000
_cell_volume 2797.689271
_symmetry_space_group_name_H-M "P M M A"
_symmetry_group_IT_number 51
_symmetry_cell_setting 'orthorhombic'
loop_
_space_group_symop_operation_xyz
x,y,z
1/2-x,-y,z
1/2+x,-y,-z
-x,y,-z
-x,-y,-z
1/2+x,y,-z
1/2-x,y,z
x,-y,z
loop_
_atom_site_type_symbol
_atom_site_label
_atom_site_fract_x
_atom_site_fract_y
_atom_site_fract_z
Si Si1 0.438585 0.591134 0.100286
Si Si2 0.557169 0.408484 0.622716
Si Si3 0.438939 0.174687 0.797067
Si Si4 0.439807 0.774123 0.932400
Si Si5 0.556251 0.905989 0.329368
Si Si6 0.941201 0.768956 0.569722
Si Si7 0.437517 0.369959 0.763178
O O1 0.250000 0.596389 0.087631
O O2 0.499090 0.500000 0.077386
O O3 0.519189 0.674956 0.073536
O O4 0.469639 0.594689 0.176115
O O5 0.750000 0.407502 0.620718
O O6 0.502203 0.500000 0.598411
O O7 0.498560 0.325351 0.586436
O O8 0.503785 0.399557 0.695956
O O9 0.250000 0.155442 0.803645
O O10 0.506272 0.180639 0.868693
O O11 0.503261 0.114181 0.742293
O O12 0.451376 0.268956 0.768831
O O13 0.250000 0.781080 0.930736
O O14 0.500000 0.806145 0.000000
O O15 0.750000 0.902546 0.328191
O O16 0.498446 0.834865 0.377548
O O17 0.508103 0.000000 0.348599
O O18 0.750000 0.767355 0.570448
O O19 0.000000 0.793418 0.500000
O O20 0.250000 0.391263 0.769028
#
# Coordination Sequence:
#
# PCOD9399359 Si02
#       7
#     8   8   8   8   8   8   8
#     4  10  20  32  46  68 102 142 186 237 288 339
#     4  10  21  36  54  79 112 151 195 240 287 337
#     4   8  16  32  54  81 111 141 180 228 277 332
#     4  10  20  34  52  75 105 144 188 233 281 341
#     4  10  20  38  66  94 118 147 186 235 290 349
#     4  11  24  41  61  85 118 157 193 238 289 341
#     4  10  18  30  51  77 108 144 186 235 284 337
#
# _framework density 20.016518999999999
#
# number of rings (size 3 to 8) (size 9 to 14) (size 15 to 20)
#    0.000    2.143    1.429    3.000    0.000    4.857 
#    0.000    0.714    0.000    0.429    0.000    0.000 
#    0.000    0.000    0.000    0.000    0.000    0.571 
#
# Total GULP energy -312528.500849 kJ/mol
# GULP energy per Si atom -5580.866087 kJ/mol
# Density = 1.997096 g / cm^3
# Si number density = 20.016519 Si / 1000 Ang^3
#
#
#
# Elastic Constant Matrix: (Units=GPa)
#
#
# Indices 1 2 3 4 5 6 
#
# 1 22.3025 21.1413 7.6573 0.0000 0.0000 0.0000
# 2 21.1413 88.6053 54.2324 0.0000 0.0000 0.0000
# 3 7.6573 54.2324 123.0002 0.0000 0.0000 0.0000
# 4 0.0000 0.0000 0.0000 16.6504 0.0000 0.0000
# 5 0.0000 0.0000 0.0000 0.0000 22.6542 0.0000
# 6 0.0000 0.0000 0.0000 0.0000 0.0000 15.1489
#
#
#
# Elastic Compliance Matrix: (Units=1/GPa)
#
#
# Indices 1 2 3 4 5 6 
#
# 1 0.059006 -0.016203 0.003471 0.000000 0.000000 0.000000
# 2 -0.016203 0.019907 -0.007769 0.000000 0.000000 0.000000
# 3 0.003471 -0.007769 0.011339 0.000000 0.000000 0.000000
# 4 0.000000 0.000000 0.000000 0.060059 0.000000 0.000000
# 5 0.000000 0.000000 0.000000 0.000000 0.044142 0.000000
# 6 0.000000 0.000000 0.000000 0.000000 0.000000 0.066011
#
#
# Mechanical properties :
#
#
# Convention : Reuss Voigt Hill
#
# Bulk Modulus (GPa) = 20.30442 44.44112 32.37277
# Shear Modulus (GPa) = 15.72904 20.94914 18.33909
#
# Velocity S-wave (km/s) = 2.80626 3.23862 3.03016
# Velocity P-wave (km/s) = 4.54598 6.01958 5.33391
#
# Compressibility (1/GPa) = 0.04925037
#
# Stress axis : x y z
#
# Youngs Moduli (GPa) = 16.94740 50.23354 88.18928
#
# Poissons Ratio (x) = 0.81395 -0.30609
# Poissons Ratio (y) = 0.27460 0.68510
# Poissons Ratio (z) = -0.05882 0.39024
#
# Static dielectric constant tensor:
#      x y z
#    x 1.691750 0.000000 0.000000 
#    y 0.000000 1.728210 0.000000 
#    z 0.000000 0.000000 1.710070 
# 
# From -- ./inp_files/31913.got.cif
#   From: 2010.05.17/outbox.cif.g08.bks.cpg/sg51_16_cif.got.tgz:31913.got - 2010.06.03 11:52:47.
