data_PCOD9399399
_publ_section_title
;
Structure prediction by ZEFSAII (Michael W. Deem and Ramdas Pophale) SiO2 
 PCOD9399399
Probable space group: P M M A
;
_chemical_formula_sum "Si O2"
_cell_formula_units_Z 40
_cell_length_a 8.673170
_cell_length_b 26.764004
_cell_length_c 9.217411
_cell_angle_alpha 90.000000
_cell_angle_beta 90.000000
_cell_angle_gamma 90.000000
_cell_volume 2139.626154
_symmetry_space_group_name_H-M "P M M A"
_symmetry_group_IT_number 51
_symmetry_cell_setting 'orthorhombic'
loop_
_space_group_symop_operation_xyz
x,y,z
1/2-x,-y,z
1/2+x,-y,-z
-x,y,-z
-x,-y,-z
1/2+x,y,-z
1/2-x,y,z
x,-y,z
loop_
_atom_site_type_symbol
_atom_site_label
_atom_site_fract_x
_atom_site_fract_y
_atom_site_fract_z
Si Si1 0.565155 0.094002 0.162121
Si Si2 0.564553 0.598625 0.336712
Si Si3 0.565493 0.805447 0.337134
Si Si4 0.564325 0.500000 0.161020
Si Si5 0.565822 0.000000 0.662310
Si Si6 0.434105 0.701984 0.335406
O O1 0.750000 0.088423 0.158897
O O2 0.528526 0.146350 0.241031
O O3 0.493710 0.048724 0.253236
O O4 0.500000 0.093376 0.000000
O O5 0.500000 0.593622 0.500000
O O6 0.750000 0.601610 0.342995
O O7 0.517045 0.550037 0.246247
O O8 0.499066 0.650382 0.271710
O O9 0.500000 0.812542 0.500000
O O10 0.750000 0.799888 0.346966
O O11 0.494449 0.754337 0.273143
O O12 0.750000 0.500000 0.156323
O O13 0.500000 0.500000 0.000000
O O14 0.500000 0.000000 0.500000
O O15 0.750000 0.000000 0.657772
O O16 0.500000 0.702345 0.500000
O O17 0.250000 0.701041 0.338464
#
# Coordination Sequence:
#
# PCOD9399399 Si02
#       6
#     8   8   8   4   4   8
#     4  11  24  41  61  86 118 154 192 233 282 334
#     4  10  19  34  55  81 108 138 179 225 272 324
#     4  10  20  35  57  84 113 147 185 229 276 326
#     4  10  23  38  54  76 106 142 179 222 272 326
#     4  12  25  42  65  90 118 150 190 236 283 334
#     4  10  18  30  52  81 110 142 179 224 274 323
#
# _framework density 18.694855
#
# number of rings (size 3 to 8) (size 9 to 14) (size 15 to 20)
#    0.000    1.600    0.000    8.100    0.000    6.400 
#    0.000    1.000    0.000    0.000    0.000    0.000 
#    0.000    0.000    0.000    0.000    0.000    0.000 
#
# Total GULP energy -223473.087929 kJ/mol
# GULP energy per Si atom -5586.827198 kJ/mol
# Density = 1.865230 g / cm^3
# Si number density = 18.694855 Si / 1000 Ang^3
#
#
#
# Elastic Constant Matrix: (Units=GPa)
#
#
# Indices 1 2 3 4 5 6 
#
# 1 107.6222 93.8693 48.2912 0.0000 0.0000 0.0000
# 2 93.8693 230.8063 94.2078 0.0000 0.0000 0.0000
# 3 48.2912 94.2078 107.8853 0.0000 0.0000 0.0000
# 4 0.0000 0.0000 0.0000 -46.7862 0.0000 0.0000
# 5 0.0000 0.0000 0.0000 0.0000 28.9736 0.0000
# 6 0.0000 0.0000 0.0000 0.0000 0.0000 30.1767
#
#
#
# Elastic Compliance Matrix: (Units=1/GPa)
#
#
# Indices 1 2 3 4 5 6 
#
# 1 0.014703 -0.005118 -0.002113 0.000000 0.000000 0.000000
# 2 -0.005118 0.008513 -0.005143 0.000000 0.000000 0.000000
# 3 -0.002113 -0.005143 0.014706 0.000000 0.000000 0.000000
# 4 0.000000 0.000000 0.000000 -0.021374 0.000000 0.000000
# 5 0.000000 0.000000 0.000000 0.000000 0.034514 0.000000
# 6 0.000000 0.000000 0.000000 0.000000 0.000000 0.033138
#
#
# Mechanical properties :
#
#
# Convention : Reuss Voigt Hill
#
# Bulk Modulus (GPa) = 75.89810 102.11672 89.00741
# Shear Modulus (GPa) = 44.11508 16.46919 30.29214
#
# Velocity S-wave (km/s) = 4.86299 2.97130 4.02972
# Velocity P-wave (km/s) = 8.49812 8.15555 8.32860
#
# Compressibility (1/GPa) = 0.01317556
#
# Stress axis : x y z
#
# Youngs Moduli (GPa) = 68.01182 117.46379 67.99942
#
# Poissons Ratio (x) = 0.60112 0.14366
# Poissons Ratio (y) = 0.34805 0.34974
# Poissons Ratio (z) = 0.14369 0.60415
#
# Static dielectric constant tensor:
#      x y z
#    x 1.626730 0.000000 0.000000 
#    y 0.000000 1.679970 0.000000 
#    z 0.000000 0.000000 1.607550 
# 
# From -- ./inp_files/5577.got.cif
#   From: 2010.05.17/outbox.cif.g08.bks.cpg/sg51_3_cif.got.tgz:5577.got - 2010.06.03 11:52:47.
