data_PCOD9399902
_publ_section_title
;
Structure prediction by ZEFSAII (Michael W. Deem and Ramdas Pophale) SiO2 
 PCOD9399902
Probable space group: P M M A
;
_chemical_formula_sum "Si O2"
_cell_formula_units_Z 48
_cell_length_a 15.106014
_cell_length_b 7.784768
_cell_length_c 20.200604
_cell_angle_alpha 90.000000
_cell_angle_beta 90.000000
_cell_angle_gamma 90.000000
_cell_volume 2375.526679
_symmetry_space_group_name_H-M "P M M A"
_symmetry_group_IT_number 51
_symmetry_cell_setting 'orthorhombic'
loop_
_space_group_symop_operation_xyz
x,y,z
1/2-x,-y,z
1/2+x,-y,-z
-x,y,-z
-x,-y,-z
1/2+x,y,-z
1/2-x,y,z
x,-y,z
loop_
_atom_site_type_symbol
_atom_site_label
_atom_site_fract_x
_atom_site_fract_y
_atom_site_fract_z
Si Si1 0.435175 0.707375 0.685071
Si Si2 0.556396 0.710704 0.564488
Si Si3 0.750000 0.300046 0.532370
Si Si4 0.250000 0.201611 0.618770
Si Si5 0.350454 0.796857 0.099667
Si Si6 0.474648 0.297621 0.831336
Si Si7 0.647867 0.707866 0.050271
O O1 0.441958 0.500000 0.686535
O O2 0.506032 0.767467 0.630525
O O3 0.337663 0.751459 0.659310
O O4 0.453678 0.774212 0.758860
O O5 0.500000 0.762553 0.500000
O O6 0.557713 0.500000 0.563897
O O7 0.657129 0.773317 0.557919
O O8 0.750000 0.500000 0.552103
O O9 0.750000 0.291861 0.452632
O O10 0.250000 0.000000 0.605321
O O11 0.250000 0.728710 0.107355
O O12 0.423452 0.720575 0.148019
O O13 0.348274 0.000000 0.110621
O O14 0.377823 0.764943 0.023431
O O15 0.453384 0.500000 0.828271
O O16 0.414971 0.226264 0.891331
O O17 0.750000 0.759943 0.061378
O O18 0.644609 0.500000 0.049648
#
# Coordination Sequence:
#
# PCOD9399902 Si02
#       7
#     8   8   4   4   8   8   8
#     4  10  21  38  58  82 113 147 182 224 277 333
#     4   9  16  30  56  86 107 136 182 227 272 317
#     4  10  18  34  60  82 108 143 184 233 276 323
#     4  12  24  36  54  84 114 145 182 221 274 331
#     4  10  21  37  56  77 106 147 188 224 270 326
#     4  10  21  35  56  83 110 143 181 226 280 327
#     4   9  18  33  54  81 110 138 177 228 277 327
#
# _framework density 20.206046000000001
#
# number of rings (size 3 to 8) (size 9 to 14) (size 15 to 20)
#    0.000    2.167    1.667    1.750    1.167    4.333 
#    1.500    1.667    0.000    0.000    0.000    0.000 
#    0.000    0.000    0.000    0.000    0.000    0.000 
#
# Total GULP energy -268035.517401 kJ/mol
# GULP energy per Si atom -5584.073279 kJ/mol
# Density = 2.016006 g / cm^3
# Si number density = 20.206046 Si / 1000 Ang^3
#
#
#
# Elastic Constant Matrix: (Units=GPa)
#
#
# Indices 1 2 3 4 5 6 
#
# 1 149.3274 -13.0050 78.8421 0.0000 0.0000 0.0000
# 2 -13.0050 22.1764 -9.8911 0.0000 0.0000 0.0000
# 3 78.8421 -9.8911 97.5801 0.0000 0.0000 0.0000
# 4 0.0000 0.0000 0.0000 -41.1920 0.0000 0.0000
# 5 0.0000 0.0000 0.0000 0.0000 13.1938 0.0000
# 6 0.0000 0.0000 0.0000 0.0000 0.0000 -11.2076
#
#
#
# Elastic Compliance Matrix: (Units=1/GPa)
#
#
# Indices 1 2 3 4 5 6 
#
# 1 0.011843 0.002804 -0.009285 0.000000 0.000000 0.000000
# 2 0.002804 0.047892 0.002589 0.000000 0.000000 0.000000
# 3 -0.009285 0.002589 0.018012 0.000000 0.000000 0.000000
# 4 0.000000 0.000000 0.000000 -0.024277 0.000000 0.000000
# 5 0.000000 0.000000 0.000000 0.000000 0.075793 0.000000
# 6 0.000000 0.000000 0.000000 0.000000 0.000000 -0.089225
#
#
# Mechanical properties :
#
#
# Convention : Reuss Voigt Hill
#
# Bulk Modulus (GPa) = 14.29306 42.33064 28.31185
# Shear Modulus (GPa) = 70.28082 6.36805 38.32443
#
# Velocity S-wave (km/s) = 5.90403 1.77719 4.35982
# Velocity P-wave (km/s) = 7.31887 5.02057 6.27583
#
# Compressibility (1/GPa) = 0.06996402
#
# Stress axis : x y z
#
# Youngs Moduli (GPa) = 84.43818 20.88027 55.51821
#
# Poissons Ratio (x) = -0.05855 0.51546
# Poissons Ratio (y) = -0.23677 -0.14374
# Poissons Ratio (z) = 0.78397 -0.05406
#
# Static dielectric constant tensor:
#      x y z
#    x 1.709610 0.000000 0.000000 
#    y 0.000000 1.741190 0.000000 
#    z 0.000000 0.000000 1.693210 
# 
# From -- ./inp_files/29603.got.cif
#   From: 2010.05.17/outbox.cif.g08.bks.cpg/sg51_15_cif.got.tgz:29603.got - 2010.06.03 11:52:47.
