data_PCOD9399421
_publ_section_title
;
Structure prediction by ZEFSAII (Michael W. Deem and Ramdas Pophale) SiO2 
 PCOD9399421
Probable space group: P M M A
;
_chemical_formula_sum "Si O2"
_cell_formula_units_Z 44
_cell_length_a 8.628968
_cell_length_b 29.749461
_cell_length_c 9.217391
_cell_angle_alpha 90.000000
_cell_angle_beta 90.000000
_cell_angle_gamma 90.000000
_cell_volume 2366.170146
_symmetry_space_group_name_H-M "P M M A"
_symmetry_group_IT_number 51
_symmetry_cell_setting 'orthorhombic'
loop_
_space_group_symop_operation_xyz
x,y,z
1/2-x,-y,z
1/2+x,-y,-z
-x,y,-z
-x,-y,-z
1/2+x,y,-z
1/2-x,y,z
x,-y,z
loop_
_atom_site_type_symbol
_atom_site_label
_atom_site_fract_x
_atom_site_fract_y
_atom_site_fract_z
Si Si1 0.436928 0.951785 0.664533
Si Si2 0.935596 0.406721 0.163422
Si Si3 0.936873 0.853120 0.335320
Si Si4 0.565283 0.500000 0.835165
Si Si5 0.064002 0.316707 0.662292
Si Si6 0.434950 0.768238 0.162193
O O1 0.500000 0.951968 0.500000
O O2 0.250000 0.951835 0.659964
O O3 0.482645 0.902873 0.724233
O O4 0.486536 0.000000 0.731210
O O5 0.750000 0.410589 0.155437
O O6 0.977209 0.363202 0.257118
O O7 0.003313 0.453126 0.227670
O O8 0.000000 0.401185 0.000000
O O9 0.750000 0.850040 0.338474
O O10 0.000000 0.849463 0.500000
O O11 0.004966 0.813170 0.240541
O O12 0.750000 0.500000 0.838119
O O13 0.500000 0.500000 0.000000
O O14 0.250000 0.312891 0.660341
O O15 0.000000 0.316700 0.500000
O O16 0.995114 0.274741 0.749219
O O17 0.250000 0.768118 0.159544
O O18 0.500000 0.766173 0.000000
#
# Coordination Sequence:
#
# PCOD9399421 Si02
#       6
#     8   8   8   4   8   8
#     4   8  14  25  44  72 105 140 177 218 263 312
#     4  10  20  35  57  84 114 147 185 227 271 320
#     4  10  19  33  54  81 113 146 182 224 271 322
#     4  10  18  30  53  82 113 148 186 226 268 316
#     4  11  24  41  61  85 113 146 183 226 276 328
#     4  12  25  41  60  81 108 141 181 227 275 330
#
# _framework density 18.59545
#
# number of rings (size 3 to 8) (size 9 to 14) (size 15 to 20)
#    0.000    1.818    0.000    6.273    0.000    5.091 
#    0.000    0.455    0.000    0.545    0.000    0.000 
#    0.000    0.000    0.000    0.000    0.000    0.000 
#
# Total GULP energy -245568.894179 kJ/mol
# GULP energy per Si atom -5581.111231 kJ/mol
# Density = 1.855313 g / cm^3
# Si number density = 18.595450 Si / 1000 Ang^3
#
#
#
# Elastic Constant Matrix: (Units=GPa)
#
#
# Indices 1 2 3 4 5 6 
#
# 1 88.0343 81.0813 41.1030 0.0000 0.0000 0.0000
# 2 81.0813 245.8250 91.9597 0.0000 0.0000 0.0000
# 3 41.1030 91.9597 96.6338 0.0000 0.0000 0.0000
# 4 0.0000 0.0000 0.0000 -65.3172 0.0000 0.0000
# 5 0.0000 0.0000 0.0000 0.0000 26.7944 0.0000
# 6 0.0000 0.0000 0.0000 0.0000 0.0000 36.5711
#
#
#
# Elastic Compliance Matrix: (Units=1/GPa)
#
#
# Indices 1 2 3 4 5 6 
#
# 1 0.016828 -0.004461 -0.002913 0.000000 0.000000 0.000000
# 2 -0.004461 0.007499 -0.005239 0.000000 0.000000 0.000000
# 3 -0.002913 -0.005239 0.016573 0.000000 0.000000 0.000000
# 4 0.000000 0.000000 0.000000 -0.015310 0.000000 0.000000
# 5 0.000000 0.000000 0.000000 0.000000 0.037321 0.000000
# 6 0.000000 0.000000 0.000000 0.000000 0.000000 0.027344
#
#
# Mechanical properties :
#
#
# Convention : Reuss Voigt Hill
#
# Bulk Modulus (GPa) = 63.79680 95.42013 79.60846
# Shear Modulus (GPa) = 41.42362 14.03295 27.72829
#
# Velocity S-wave (km/s) = 4.72489 2.75006 3.86571
# Velocity P-wave (km/s) = 8.00926 7.84276 7.92645
#
# Compressibility (1/GPa) = 0.01567477
#
# Stress axis : x y z
#
# Youngs Moduli (GPa) = 59.42651 133.35024 60.33993
#
# Poissons Ratio (x) = 0.59484 0.17575
# Poissons Ratio (y) = 0.26508 0.31612
# Poissons Ratio (z) = 0.17309 0.69862
#
# Static dielectric constant tensor:
#      x y z
#    x 1.621380 0.000000 0.000000 
#    y 0.000000 1.690910 0.000000 
#    z 0.000000 0.000000 1.588950 
# 
# From -- ./inp_files/5812.got.cif
#   From: 2010.05.17/outbox.cif.g08.bks.cpg/sg51_3_cif.got.tgz:5812.got - 2010.06.03 11:52:47.
