data_PCOD9399491
_publ_section_title
;
Structure prediction by ZEFSAII (Michael W. Deem and Ramdas Pophale) SiO2 
 PCOD9399491
Probable space group: P M M A
;
_chemical_formula_sum "Si O2"
_cell_formula_units_Z 64
_cell_length_a 9.203252
_cell_length_b 14.678451
_cell_length_c 31.989100
_cell_angle_alpha 90.000000
_cell_angle_beta 90.000000
_cell_angle_gamma 90.000000
_cell_volume 4321.390997
_symmetry_space_group_name_H-M "P M M A"
_symmetry_group_IT_number 51
_symmetry_cell_setting 'orthorhombic'
loop_
_space_group_symop_operation_xyz
x,y,z
1/2-x,-y,z
1/2+x,-y,-z
-x,y,-z
-x,-y,-z
1/2+x,y,-z
1/2-x,y,z
x,-y,z
loop_
_atom_site_type_symbol
_atom_site_label
_atom_site_fract_x
_atom_site_fract_y
_atom_site_fract_z
Si Si1 0.575585 0.210772 0.542813
Si Si2 0.576958 0.604530 0.324977
Si Si3 0.582389 0.888940 0.957930
Si Si4 0.582790 0.110841 0.125808
Si Si5 0.425175 0.776920 0.292917
Si Si6 0.576878 0.397121 0.585422
Si Si7 0.923834 0.893206 0.789013
Si Si8 0.573259 0.895663 0.626465
O O1 0.500000 0.183055 0.500000
O O2 0.750000 0.203485 0.538644
O O3 0.539601 0.315794 0.554120
O O4 0.529954 0.151040 0.582910
O O5 0.750000 0.617597 0.326728
O O6 0.547907 0.500000 0.311983
O O7 0.502068 0.679772 0.296199
O O8 0.508755 0.615168 0.371304
O O9 0.750000 0.860569 0.958328
O O10 0.501944 0.858941 0.915694
O O11 0.580734 0.000000 0.957805
O O12 0.500000 0.859995 0.000000
O O13 0.750000 0.140077 0.124885
O O14 0.504493 0.136857 0.168863
O O15 0.581127 0.000000 0.125089
O O16 0.250000 0.765932 0.294638
O O17 0.461004 0.832763 0.251133
O O18 0.470428 0.835723 0.333629
O O19 0.750000 0.389271 0.594396
O O20 0.549199 0.500000 0.569865
O O21 0.750000 0.888038 0.795541
O O22 0.958417 0.000000 0.780975
O O23 0.750000 0.896519 0.626830
O O24 0.523769 0.000000 0.629598
#
# Coordination Sequence:
#
# PCOD9399491 Si02
#       8
#     8   8   8   8   8   8   8   8
#     4  10  20  33  48  68  90 115 142 170 207 250
#     4  10  20  32  48  71  95 115 135 166 210 254
#     4   9  15  22  33  49  70  99 140 189 235 275
#     4   9  16  25  36  51  76 110 145 182 225 269
#     4  10  18  31  51  71  88 112 145 177 211 254
#     4   9  17  32  52  70  88 111 140 170 202 248
#     4   9  17  28  43  64  87 112 145 184 222 259
#     4   9  17  31  50  69  88 112 143 177 211 248
#
# _framework density 14.810046
#
# number of rings (size 3 to 8) (size 9 to 14) (size 15 to 20)
#    0.000    2.625    1.250    1.500    0.000    6.750 
#    0.000    0.000    0.000    1.875    0.000    0.000 
#    0.000    0.000    0.000    0.000    0.000    0.625 
#
# Total GULP energy -356673.808690 kJ/mol
# GULP energy per Si atom -5573.028261 kJ/mol
# Density = 1.477634 g / cm^3
# Si number density = 14.810046 Si / 1000 Ang^3
#
#
#
# Elastic Constant Matrix: (Units=GPa)
#
#
# Indices 1 2 3 4 5 6 
#
# 1 47.4682 29.9990 57.0942 0.0000 0.0000 0.0000
# 2 29.9990 64.4503 47.5426 0.0000 0.0000 0.0000
# 3 57.0942 47.5426 135.5388 0.0000 0.0000 0.0000
# 4 0.0000 0.0000 0.0000 5.9773 0.0000 0.0000
# 5 0.0000 0.0000 0.0000 0.0000 24.0714 0.0000
# 6 0.0000 0.0000 0.0000 0.0000 0.0000 12.2688
#
#
#
# Elastic Compliance Matrix: (Units=1/GPa)
#
#
# Indices 1 2 3 4 5 6 
#
# 1 0.046868 -0.009783 -0.016311 0.000000 0.000000 0.000000
# 2 -0.009783 0.022974 -0.003937 0.000000 0.000000 0.000000
# 3 -0.016311 -0.003937 0.015630 0.000000 0.000000 0.000000
# 4 0.000000 0.000000 0.000000 0.167300 0.000000 0.000000
# 5 0.000000 0.000000 0.000000 0.000000 0.041543 0.000000
# 6 0.000000 0.000000 0.000000 0.000000 0.000000 0.081508
#
#
# Mechanical properties :
#
#
# Convention : Reuss Voigt Hill
#
# Bulk Modulus (GPa) = 39.35650 57.41431 48.38541
# Shear Modulus (GPa) = 11.25224 15.98493 13.61859
#
# Velocity S-wave (km/s) = 2.75938 3.28888 3.03570
# Velocity P-wave (km/s) = 6.06499 7.29888 6.71036
#
# Compressibility (1/GPa) = 0.02540876
#
# Stress axis : x y z
#
# Youngs Moduli (GPa) = 21.33633 43.52740 63.97959
#
# Poissons Ratio (x) = 0.42584 1.04358
# Poissons Ratio (y) = 0.20874 0.25192
# Poissons Ratio (z) = 0.34802 0.17139
#
# Static dielectric constant tensor:
#      x y z
#    x 1.495420 0.000000 0.000000 
#    y 0.000000 1.483680 0.000000 
#    z 0.000000 0.000000 1.474720 
# 
# From -- ./inp_files/37585.got.cif
#   From: 2010.05.17/outbox.cif.g08.bks.cpg/sg51_19_cif.got.tgz:37585.got - 2010.06.03 11:52:47.
