data_PCOD9399800
_publ_section_title
;
Structure prediction by ZEFSAII (Michael W. Deem and Ramdas Pophale) SiO2 
 PCOD9399800
Probable space group: P M M A
;
_chemical_formula_sum "Si O2"
_cell_formula_units_Z 64
_cell_length_a 25.431092
_cell_length_b 8.742789
_cell_length_c 15.342279
_cell_angle_alpha 90.000000
_cell_angle_beta 90.000000
_cell_angle_gamma 90.000000
_cell_volume 3411.181929
_symmetry_space_group_name_H-M "P M M A"
_symmetry_group_IT_number 51
_symmetry_cell_setting 'orthorhombic'
loop_
_space_group_symop_operation_xyz
x,y,z
1/2-x,-y,z
1/2+x,-y,-z
-x,y,-z
-x,-y,-z
1/2+x,y,-z
1/2-x,y,z
x,-y,z
loop_
_atom_site_type_symbol
_atom_site_label
_atom_site_fract_x
_atom_site_fract_y
_atom_site_fract_z
Si Si1 0.190362 0.685940 0.135432
Si Si2 0.642795 0.176348 0.530195
Si Si3 0.308493 0.683036 0.635097
Si Si4 0.510698 0.324195 0.248250
Si Si5 0.891272 0.314310 0.715842
Si Si6 0.552245 0.332993 0.444088
Si Si7 0.687953 0.316790 0.064002
Si Si8 0.117654 0.819629 0.784758
O O1 0.250000 0.737313 0.154994
O O2 0.191187 0.500000 0.136062
O O3 0.148624 0.732984 0.207769
O O4 0.176977 0.729246 0.036167
O O5 0.682575 0.260412 0.464087
O O6 0.629985 0.250422 0.623925
O O7 0.588788 0.198151 0.476235
O O8 0.657177 0.000000 0.540561
O O9 0.250000 0.732474 0.664376
O O10 0.310397 0.500000 0.638100
O O11 0.353196 0.744868 0.700564
O O12 0.508358 0.500000 0.216137
O O13 0.450800 0.265925 0.258081
O O14 0.533352 0.325622 0.346049
O O15 0.557382 0.234470 0.200602
O O16 0.892701 0.500000 0.708832
O O17 0.500000 0.332414 0.500000
O O18 0.579001 0.500000 0.458590
O O19 0.750000 0.289896 0.079973
O O20 0.679386 0.500000 0.072359
O O21 0.652234 0.230872 0.132853
O O22 0.118265 0.000000 0.771959
#
# Coordination Sequence:
#
# PCOD9399800 Si02
#       8
#     8   8   8   8   8   8   8   8
#     4   8  16  34  63  93 113 135 180 238 283 324
#     4  12  24  35  52  80 114 149 184 229 280 334
#     4  11  24  41  59  78 106 148 193 236 282 334
#     4  10  20  34  55  80 111 152 194 234 275 327
#     4  10  20  37  60  85 114 150 193 237 279 328
#     4  10  18  33  55  76 102 143 193 238 272 313
#     4   9  18  36  62  88 112 142 183 229 277 335
#     4  12  24  36  55  84 116 148 182 229 286 342
#
# _framework density 18.761825999999999
#
# number of rings (size 3 to 8) (size 9 to 14) (size 15 to 20)
#    0.000    1.750    2.500    3.750    0.000    4.000 
#    0.000    2.500    0.000    4.500    0.000    0.000 
#    0.000    0.000    0.000    0.000    0.000    0.000 
#
# Total GULP energy -356948.298505 kJ/mol
# GULP energy per Si atom -5577.317164 kJ/mol
# Density = 1.871912 g / cm^3
# Si number density = 18.761826 Si / 1000 Ang^3
#
#
#
# Elastic Constant Matrix: (Units=GPa)
#
#
# Indices 1 2 3 4 5 6 
#
# 1 112.3185 32.8220 67.7632 0.0000 0.0000 0.0000
# 2 32.8220 60.0076 32.1855 0.0000 0.0000 0.0000
# 3 67.7632 32.1855 98.9579 0.0000 0.0000 0.0000
# 4 0.0000 0.0000 0.0000 -1.9292 0.0000 0.0000
# 5 0.0000 0.0000 0.0000 0.0000 30.5658 0.0000
# 6 0.0000 0.0000 0.0000 0.0000 0.0000 166.8255
#
#
#
# Elastic Compliance Matrix: (Units=1/GPa)
#
#
# Indices 1 2 3 4 5 6 
#
# 1 0.015731 -0.003424 -0.009658 0.000000 0.000000 0.000000
# 2 -0.003424 0.020931 -0.004463 0.000000 0.000000 0.000000
# 3 -0.009658 -0.004463 0.018171 0.000000 0.000000 0.000000
# 4 0.000000 0.000000 0.000000 -0.518359 0.000000 0.000000
# 5 0.000000 0.000000 0.000000 0.000000 0.032716 0.000000
# 6 0.000000 0.000000 0.000000 0.000000 0.000000 0.005994
#
#
# Mechanical properties :
#
#
# Convention : Reuss Voigt Hill
#
# Bulk Modulus (GPa) = 50.65391 59.64724 55.15058
# Shear Modulus (GPa) = -13.04990 48.32664 17.63837
#
# Velocity S-wave (km/s) = -2.64020 5.08074 3.06946
# Velocity P-wave (km/s) = 4.21459 8.14121 6.48237
#
# Compressibility (1/GPa) = 0.01974181
#
# Stress axis : x y z
#
# Youngs Moduli (GPa) = 63.56962 47.77568 55.03372
#
# Poissons Ratio (x) = 0.16358 0.53154
# Poissons Ratio (y) = 0.21765 0.24563
# Poissons Ratio (z) = 0.61398 0.21323
#
# Static dielectric constant tensor:
#      x y z
#    x 1.676310 0.000000 0.000000 
#    y 0.000000 1.668260 0.000000 
#    z 0.000000 0.000000 1.643900 
# 
# From -- ./inp_files/26318.got.cif
#   From: 2010.05.17/outbox.cif.g08.bks.cpg/sg51_14_cif.got.tgz:26318.got - 2010.06.03 11:52:47.
