data_PCOD9399757
_publ_section_title
;
Structure prediction by ZEFSAII (Michael W. Deem and Ramdas Pophale) SiO2 
 PCOD9399757
Probable space group: P M M A
;
_chemical_formula_sum "Si O2"
_cell_formula_units_Z 40
_cell_length_a 20.826892
_cell_length_b 11.998216
_cell_length_c 7.211672
_cell_angle_alpha 90.000000
_cell_angle_beta 90.000000
_cell_angle_gamma 90.000000
_cell_volume 1802.092616
_symmetry_space_group_name_H-M "P M M A"
_symmetry_group_IT_number 51
_symmetry_cell_setting 'orthorhombic'
loop_
_space_group_symop_operation_xyz
x,y,z
1/2-x,-y,z
1/2+x,-y,-z
-x,y,-z
-x,-y,-z
1/2+x,y,-z
1/2-x,y,z
x,-y,z
loop_
_atom_site_type_symbol
_atom_site_label
_atom_site_fract_x
_atom_site_fract_y
_atom_site_fract_z
Si Si1 0.431543 0.000000 0.894598
Si Si2 0.372148 0.237742 0.264883
Si Si3 0.386117 0.367196 0.647870
Si Si4 0.325613 0.000000 0.210948
Si Si5 0.750000 0.629900 0.331649
Si Si6 0.012785 0.208668 0.719187
Si Si7 0.250000 0.630777 0.215314
O O1 0.438738 0.888963 0.774681
O O2 0.500000 0.000000 0.000000
O O3 0.370138 0.000000 0.027042
O O4 0.387153 0.315188 0.441874
O O5 0.443125 0.213221 0.182832
O O6 0.315105 0.303930 0.160530
O O7 0.344107 0.115414 0.312703
O O8 0.384768 0.500000 0.637297
O O9 0.318396 0.324512 0.730199
O O10 0.449081 0.322919 0.746750
O O11 0.250000 0.000000 0.172124
O O12 0.750000 0.500000 0.279939
O O13 0.750000 0.634833 0.557518
O O14 0.000000 0.190573 0.500000
O O15 0.250000 0.500000 0.163536
#
# Coordination Sequence:
#
# PCOD9399757 Si02
#       7
#     4   8   8   4   4   8   4
#     4  12  23  42  63  82 119 164 203 252 311 365
#     4  10  18  32  56  86 117 151 197 247 296 353
#     4   9  18  32  56  90 125 156 195 251 306 360
#     4  12  24  40  60  84 116 160 208 258 298 358
#     4   7  12  26  45  71 110 154 185 224 286 345
#     4  10  21  36  62  91 121 157 201 251 306 365
#     4   9  16  27  49  81 118 151 192 244 292 347
#
# _framework density 22.196415999999999
#
# number of rings (size 3 to 8) (size 9 to 14) (size 15 to 20)
#    0.000    2.200    3.000    2.100    0.000    6.800 
#    1.800    0.000    0.000    3.000    0.000    0.000 
#    0.000    0.000    0.000    0.000    0.000    0.000 
#
# Total GULP energy -222969.687808 kJ/mol
# GULP energy per Si atom -5574.242195 kJ/mol
# Density = 2.214590 g / cm^3
# Si number density = 22.196416 Si / 1000 Ang^3
#
#
#
# Elastic Constant Matrix: (Units=GPa)
#
#
# Indices 1 2 3 4 5 6 
#
# 1 159.9057 51.3600 8.3681 0.0000 0.0000 0.0000
# 2 51.3600 145.3370 10.3830 0.0000 0.0000 0.0000
# 3 8.3681 10.3830 57.0407 0.0000 0.0000 0.0000
# 4 0.0000 0.0000 0.0000 25.8525 0.0000 0.0000
# 5 0.0000 0.0000 0.0000 0.0000 6.8958 0.0000
# 6 0.0000 0.0000 0.0000 0.0000 0.0000 41.7287
#
#
#
# Elastic Compliance Matrix: (Units=1/GPa)
#
#
# Indices 1 2 3 4 5 6 
#
# 1 0.007074 -0.002458 -0.000590 0.000000 0.000000 0.000000
# 2 -0.002458 0.007825 -0.001064 0.000000 0.000000 0.000000
# 3 -0.000590 -0.001064 0.017812 0.000000 0.000000 0.000000
# 4 0.000000 0.000000 0.000000 0.038681 0.000000 0.000000
# 5 0.000000 0.000000 0.000000 0.000000 0.145016 0.000000
# 6 0.000000 0.000000 0.000000 0.000000 0.000000 0.023964
#
#
# Mechanical properties :
#
#
# Convention : Reuss Voigt Hill
#
# Bulk Modulus (GPa) = 40.83832 55.83395 48.33614
# Shear Modulus (GPa) = 19.47362 34.37356 26.92359
#
# Velocity S-wave (km/s) = 2.96519 3.93951 3.48655
# Velocity P-wave (km/s) = 5.49197 6.77510 6.16700
#
# Compressibility (1/GPa) = 0.02448680
#
# Stress axis : x y z
#
# Youngs Moduli (GPa) = 141.36362 127.79455 56.14321
#
# Poissons Ratio (x) = 0.31407 0.03315
# Poissons Ratio (y) = 0.34742 0.05973
# Poissons Ratio (z) = 0.08346 0.13595
#
# Static dielectric constant tensor:
#      x y z
#    x 1.918900 0.000000 0.000000 
#    y 0.000000 1.810450 0.000000 
#    z 0.000000 0.000000 1.881460 
# 
# From -- ./inp_files/10739.got.cif
#   From: 2010.05.17/outbox.cif.g08.bks.cpg/sg51_6_cif.got.tgz:10739.got - 2010.06.03 11:52:47.
