data_PCOD9399019
_publ_section_title
;
Structure prediction by ZEFSAII (Michael W. Deem and Ramdas Pophale) SiO2 
 PCOD9399019
Probable space group: P M M A
;
_chemical_formula_sum "Si O2"
_cell_formula_units_Z 64
_cell_length_a 14.223734
_cell_length_b 17.005299
_cell_length_c 14.283715
_cell_angle_alpha 90.000000
_cell_angle_beta 90.000000
_cell_angle_gamma 90.000000
_cell_volume 3454.928552
_symmetry_space_group_name_H-M "P M M A"
_symmetry_group_IT_number 51
_symmetry_cell_setting 'orthorhombic'
loop_
_space_group_symop_operation_xyz
x,y,z
1/2-x,-y,z
1/2+x,-y,-z
-x,y,-z
-x,-y,-z
1/2+x,y,-z
1/2-x,y,z
x,-y,z
loop_
_atom_site_type_symbol
_atom_site_label
_atom_site_fract_x
_atom_site_fract_y
_atom_site_fract_z
Si Si1 0.509871 0.264952 0.397486
Si Si2 0.497852 0.199081 0.788304
Si Si3 0.858076 0.374043 0.037398
Si Si4 0.361870 0.908871 0.136974
Si Si5 0.857696 0.815979 0.052048
Si Si6 0.963710 0.378711 0.847024
Si Si7 0.860378 0.413439 0.446235
Si Si8 0.640037 0.376863 0.661926
O O1 0.500000 0.229053 0.500000
O O2 0.547659 0.214177 0.312559
O O3 0.573428 0.343736 0.409787
O O4 0.407171 0.292839 0.361995
O O5 0.583727 0.139198 0.784161
O O6 0.423408 0.165525 0.861330
O O7 0.530471 0.284096 0.829558
O O8 0.750000 0.397498 0.052095
O O9 0.862298 0.278383 0.036201
O O10 0.931497 0.401043 0.117687
O O11 0.897287 0.397922 0.935391
O O12 0.250000 0.903935 0.149443
O O13 0.388672 0.000000 0.131886
O O14 0.385079 0.862823 0.040892
O O15 0.750000 0.835767 0.072635
O O16 0.920105 0.409043 0.749565
O O17 0.750000 0.398869 0.424962
O O18 0.886872 0.500000 0.410009
O O19 0.867811 0.416160 0.559635
O O20 0.750000 0.374071 0.687375
#
# Coordination Sequence:
#
# PCOD9399019 Si02
#       8
#     8   8   8   8   8   8   8   8
#     4   9  19  32  48  74 104 135 172 216 262 313
#     4  10  18  29  46  68  99 136 175 214 262 314
#     4   9  15  24  39  60  92 130 164 206 262 316
#     4  10  20  32  48  72 101 134 173 217 266 315
#     4   9  17  28  42  65  96 131 166 209 261 313
#     4   9  16  25  40  65  93 126 169 211 260 313
#     4   9  18  34  55  77 103 133 162 202 262 324
#     4   9  17  28  44  68  95 127 167 209 253 306
#
# _framework density 18.524260999999999
#
# number of rings (size 3 to 8) (size 9 to 14) (size 15 to 20)
#    0.000    2.750    1.250    0.750    0.000    5.750 
#    0.000    1.875    0.000    1.125    0.000    1.750 
#    0.000    6.000    0.000   18.125    0.000    0.000 
#
# Total GULP energy -356621.295933 kJ/mol
# GULP energy per Si atom -5572.207749 kJ/mol
# Density = 1.848210 g / cm^3
# Si number density = 18.524261 Si / 1000 Ang^3
#
#
#
# Elastic Constant Matrix: (Units=GPa)
#
#
# Indices 1 2 3 4 5 6 
#
# 1 103.7812 27.3399 54.5315 0.0000 0.0000 0.0000
# 2 27.3399 57.1613 22.3698 0.0000 0.0000 0.0000
# 3 54.5315 22.3698 103.1361 0.0000 0.0000 0.0000
# 4 0.0000 0.0000 0.0000 13.2641 0.0000 0.0000
# 5 0.0000 0.0000 0.0000 0.0000 23.5851 0.0000
# 6 0.0000 0.0000 0.0000 0.0000 0.0000 -22.1435
#
#
#
# Elastic Compliance Matrix: (Units=1/GPa)
#
#
# Indices 1 2 3 4 5 6 
#
# 1 0.014215 -0.004215 -0.006602 0.000000 0.000000 0.000000
# 2 -0.004215 0.020367 -0.002189 0.000000 0.000000 0.000000
# 3 -0.006602 -0.002189 0.013661 0.000000 0.000000 0.000000
# 4 0.000000 0.000000 0.000000 0.075391 0.000000 0.000000
# 5 0.000000 0.000000 0.000000 0.000000 0.042400 0.000000
# 6 0.000000 0.000000 0.000000 0.000000 0.000000 -0.045160
#
#
# Mechanical properties :
#
#
# Convention : Reuss Voigt Hill
#
# Bulk Modulus (GPa) = 44.98079 52.50680 48.74379
# Shear Modulus (GPa) = 32.40520 13.59698 23.00109
#
# Velocity S-wave (km/s) = 4.18705 2.71220 3.52756
# Velocity P-wave (km/s) = 6.90724 6.18178 6.55456
#
# Compressibility (1/GPa) = 0.02223171
#
# Stress axis : x y z
#
# Youngs Moduli (GPa) = 70.34845 49.09879 73.20028
#
# Poissons Ratio (x) = 0.20697 0.48324
# Poissons Ratio (y) = 0.29655 0.16021
# Poissons Ratio (z) = 0.46441 0.10746
#
# Static dielectric constant tensor:
#      x y z
#    x 1.672820 0.000000 0.000000 
#    y 0.000000 1.654230 0.000000 
#    z 0.000000 0.000000 1.671150 
# 
# From -- ./inp_files/24454.got.cif
#   From: 2010.05.17/outbox.cif.g08.bks.cpg/sg51_13_cif.got.tgz:24454.got - 2010.06.03 11:52:47.
