data_PCOD9399167
_publ_section_title
;
Structure prediction by ZEFSAII (Michael W. Deem and Ramdas Pophale) SiO2 
 PCOD9399167
Probable space group: P M M A
;
_chemical_formula_sum "Si O2"
_cell_formula_units_Z 64
_cell_length_a 29.212236
_cell_length_b 8.879099
_cell_length_c 15.912557
_cell_angle_alpha 90.000000
_cell_angle_beta 90.000000
_cell_angle_gamma 90.000000
_cell_volume 4127.372547
_symmetry_space_group_name_H-M "P M M A"
_symmetry_group_IT_number 51
_symmetry_cell_setting 'orthorhombic'
loop_
_space_group_symop_operation_xyz
x,y,z
1/2-x,-y,z
1/2+x,-y,-z
-x,y,-z
-x,-y,-z
1/2+x,y,-z
1/2-x,y,z
x,-y,z
loop_
_atom_site_type_symbol
_atom_site_label
_atom_site_fract_x
_atom_site_fract_y
_atom_site_fract_z
Si Si1 0.055825 0.820128 0.172114
Si Si2 0.448192 0.180121 0.820249
Si Si3 0.606374 0.318557 0.670071
Si Si4 0.947526 0.683076 0.501552
Si Si5 0.607262 0.319011 0.333893
Si Si6 0.302035 0.679638 0.418190
Si Si7 0.444508 0.326792 0.996236
Si Si8 0.802500 0.179942 0.397934
O O1 0.086075 0.758113 0.247916
O O2 0.070446 0.750041 0.082907
O O3 0.002246 0.779502 0.188073
O O4 0.058272 0.000000 0.167143
O O5 0.419369 0.255077 0.746163
O O6 0.444466 0.000000 0.816375
O O7 0.432202 0.238893 0.911418
O O8 0.602598 0.500000 0.678886
O O9 0.577463 0.272368 0.587471
O O10 0.658910 0.280696 0.648319
O O11 0.947877 0.500000 0.500784
O O12 0.919783 0.729692 0.418712
O O13 0.000000 0.735114 0.500000
O O14 0.607647 0.500000 0.331350
O O15 0.658637 0.257092 0.342213
O O16 0.250000 0.708560 0.390081
O O17 0.306602 0.500000 0.435221
O O18 0.309412 0.763999 0.506220
O O19 0.429518 0.500000 0.991824
O O20 0.500000 0.325132 0.000000
O O21 0.750000 0.219894 0.375070
O O22 0.807064 0.000000 0.394400
#
# Coordination Sequence:
#
# PCOD9399167 Si02
#       8
#     8   8   8   8   8   8   8   8
#     4  10  20  32  47  70 100 132 162 197 241 287
#     4  10  20  33  48  70 101 131 160 198 242 288
#     4  10  18  30  46  67  94 127 164 201 241 285
#     4   9  17  28  42  63  93 127 162 197 232 272
#     4  11  20  32  50  71  95 128 167 204 240 285
#     4   9  17  31  50  69  90 120 162 208 248 286
#     4   9  17  31  51  72  93 123 163 203 240 281
#     4  10  20  33  49  69  95 126 159 201 251 295
#
# _framework density 15.506232000000001
#
# number of rings (size 3 to 8) (size 9 to 14) (size 15 to 20)
#    0.000    2.250    1.250    2.625    0.000    5.250 
#    0.000    0.000    0.000    2.625    0.000    0.875 
#    0.000    5.000    0.000    0.000    0.000    0.000 
#
# Total GULP energy -356973.886122 kJ/mol
# GULP energy per Si atom -5577.716971 kJ/mol
# Density = 1.547094 g / cm^3
# Si number density = 15.506232 Si / 1000 Ang^3
#
#
#
# Elastic Constant Matrix: (Units=GPa)
#
#
# Indices 1 2 3 4 5 6 
#
# 1 91.7005 38.7165 52.8629 0.0000 0.0000 0.0000
# 2 38.7165 46.7791 39.5128 0.0000 0.0000 0.0000
# 3 52.8629 39.5128 113.8316 0.0000 0.0000 0.0000
# 4 0.0000 0.0000 0.0000 15.9032 0.0000 0.0000
# 5 0.0000 0.0000 0.0000 0.0000 9.3812 0.0000
# 6 0.0000 0.0000 0.0000 0.0000 0.0000 18.3162
#
#
#
# Elastic Compliance Matrix: (Units=1/GPa)
#
#
# Indices 1 2 3 4 5 6 
#
# 1 0.018313 -0.011281 -0.004589 0.000000 0.000000 0.000000
# 2 -0.011281 0.037194 -0.007672 0.000000 0.000000 0.000000
# 3 -0.004589 -0.007672 0.013579 0.000000 0.000000 0.000000
# 4 0.000000 0.000000 0.000000 0.062881 0.000000 0.000000
# 5 0.000000 0.000000 0.000000 0.000000 0.106597 0.000000
# 6 0.000000 0.000000 0.000000 0.000000 0.000000 0.054597
#
#
# Mechanical properties :
#
#
# Convention : Reuss Voigt Hill
#
# Bulk Modulus (GPa) = 45.44835 57.16617 51.30726
# Shear Modulus (GPa) = 14.38532 16.80137 15.59334
#
# Velocity S-wave (km/s) = 3.04914 3.29526 3.17459
# Velocity P-wave (km/s) = 6.46295 7.17112 6.82622
#
# Compressibility (1/GPa) = 0.02200300
#
# Stress axis : x y z
#
# Youngs Moduli (GPa) = 54.60532 26.88637 73.64354
#
# Poissons Ratio (x) = 0.30330 0.33794
# Poissons Ratio (y) = 0.61599 0.56497
# Poissons Ratio (z) = 0.25058 0.20626
#
# Static dielectric constant tensor:
#      x y z
#    x 1.518020 0.000000 0.000000 
#    y 0.000000 1.519590 0.000000 
#    z 0.000000 0.000000 1.488420 
# 
# From -- ./inp_files/26734.got.cif
#   From: 2010.05.17/outbox.cif.g08.bks.cpg/sg51_14_cif.got.tgz:26734.got - 2010.06.03 11:52:47.
