data_PCOD9399516
_publ_section_title
;
Structure prediction by ZEFSAII (Michael W. Deem and Ramdas Pophale) SiO2 
 PCOD9399516
Probable space group: P M M A
;
_chemical_formula_sum "Si O2"
_cell_formula_units_Z 64
_cell_length_a 7.652514
_cell_length_b 21.272339
_cell_length_c 20.501177
_cell_angle_alpha 90.000000
_cell_angle_beta 90.000000
_cell_angle_gamma 90.000000
_cell_volume 3337.322476
_symmetry_space_group_name_H-M "P M M A"
_symmetry_group_IT_number 51
_symmetry_cell_setting 'orthorhombic'
loop_
_space_group_symop_operation_xyz
x,y,z
1/2-x,-y,z
1/2+x,-y,-z
-x,y,-z
-x,-y,-z
1/2+x,y,-z
1/2-x,y,z
x,-y,z
loop_
_atom_site_type_symbol
_atom_site_label
_atom_site_fract_x
_atom_site_fract_y
_atom_site_fract_z
Si Si1 0.463142 0.747706 0.710413
Si Si2 0.458965 0.754070 0.569493
Si Si3 0.459615 0.898771 0.570714
Si Si4 0.955031 0.315092 0.159861
Si Si5 0.958886 0.805797 0.923678
Si Si6 0.044783 0.932558 0.143143
Si Si7 0.961295 0.895775 0.286745
Si Si8 0.460471 0.428796 0.925295
O O1 0.250000 0.746361 0.712669
O O2 0.519414 0.726023 0.638202
O O3 0.530294 0.707417 0.770902
O O4 0.508947 0.821560 0.716737
O O5 0.500000 0.723675 0.500000
O O6 0.250000 0.758247 0.573246
O O7 0.525529 0.826331 0.567652
O O8 0.500000 0.927797 0.500000
O O9 0.250000 0.898151 0.574429
O O10 0.519008 0.921841 0.642220
O O11 0.750000 0.328069 0.170946
O O12 0.029748 0.376469 0.124378
O O13 0.967839 0.255640 0.111733
O O14 0.750000 0.803414 0.914794
O O15 0.028494 0.869638 0.889874
O O16 0.000000 0.805925 0.000000
O O17 0.250000 0.933403 0.126417
O O18 0.029698 0.926836 0.221251
O O19 0.968430 0.000000 0.122700
O O20 0.750000 0.900148 0.284455
O O21 0.250000 0.430333 0.919728
O O22 0.525697 0.500000 0.914595
O O23 0.500000 0.410871 0.000000
#
# Coordination Sequence:
#
# PCOD9399516 Si02
#       8
#     8   8   8   8   8   8   8   8
#     4   8  14  25  43  65  90 119 150 185 228 271
#     4   8  13  22  35  55  85 118 148 179 218 265
#     4   8  14  23  38  62  89 116 145 181 221 267
#     4  10  18  31  52  73  97 128 157 190 231 274
#     4  11  23  37  53  73  95 118 149 190 232 279
#     4  10  22  38  52  68  91 117 147 189 240 285
#     4   9  16  29  48  68  90 116 152 190 227 277
#     4   9  18  31  47  69  96 127 161 192 225 268
#
# _framework density 19.177050999999999
#
# number of rings (size 3 to 8) (size 9 to 14) (size 15 to 20)
#    0.000    2.875    1.250    2.250    0.000    3.000 
#    0.000    2.500    0.000    0.375    0.000    0.000 
#    0.000    0.500    0.000    0.375    0.000    0.750 
#
# Total GULP energy -356674.607063 kJ/mol
# GULP energy per Si atom -5573.040735 kJ/mol
# Density = 1.913340 g / cm^3
# Si number density = 19.177051 Si / 1000 Ang^3
#
#
#
# Elastic Constant Matrix: (Units=GPa)
#
#
# Indices 1 2 3 4 5 6 
#
# 1 34.2593 0.3647 -9.2046 0.0000 0.0000 0.0000
# 2 0.3647 86.9150 64.4673 0.0000 0.0000 0.0000
# 3 -9.2046 64.4673 155.3876 0.0000 0.0000 0.0000
# 4 0.0000 0.0000 0.0000 42.9702 0.0000 0.0000
# 5 0.0000 0.0000 0.0000 0.0000 20.8863 0.0000
# 6 0.0000 0.0000 0.0000 0.0000 0.0000 17.8998
#
#
#
# Elastic Compliance Matrix: (Units=1/GPa)
#
#
# Indices 1 2 3 4 5 6 
#
# 1 0.029919 -0.002080 0.002635 0.000000 0.000000 0.000000
# 2 -0.002080 0.016765 -0.007079 0.000000 0.000000 0.000000
# 3 0.002635 -0.007079 0.009528 0.000000 0.000000 0.000000
# 4 0.000000 0.000000 0.000000 0.023272 0.000000 0.000000
# 5 0.000000 0.000000 0.000000 0.000000 0.047878 0.000000
# 6 0.000000 0.000000 0.000000 0.000000 0.000000 0.055867
#
#
# Mechanical properties :
#
#
# Convention : Reuss Voigt Hill
#
# Bulk Modulus (GPa) = 23.16665 43.09074 33.12869
# Shear Modulus (GPa) = 23.73442 31.08022 27.40732
#
# Velocity S-wave (km/s) = 3.52184 4.03016 3.78454
# Velocity P-wave (km/s) = 5.35205 6.64642 6.03404
#
# Compressibility (1/GPa) = 0.04316551
#
# Stress axis : x y z
#
# Youngs Moduli (GPa) = 33.42314 59.64963 104.94971
#
# Poissons Ratio (x) = 0.12409 -0.27658
# Poissons Ratio (y) = 0.06953 0.74289
# Poissons Ratio (z) = -0.08808 0.42223
#
# Static dielectric constant tensor:
#      x y z
#    x 1.726700 0.000000 0.000000 
#    y 0.000000 1.673820 0.000000 
#    z 0.000000 0.000000 1.709880 
# 
# From -- ./inp_files/32604.got.cif
#   From: 2010.05.17/outbox.cif.g08.bks.cpg/sg51_17_cif.got.tgz:32604.got - 2010.06.03 11:52:47.
