data_PCOD9399955
_publ_section_title
;
Structure prediction by ZEFSAII (Michael W. Deem and Ramdas Pophale) SiO2 
 PCOD9399955
Probable space group: P M M A
;
_chemical_formula_sum "Si O2"
_cell_formula_units_Z 56
_cell_length_a 15.499789
_cell_length_b 8.051603
_cell_length_c 22.153824
_cell_angle_alpha 90.000000
_cell_angle_beta 90.000000
_cell_angle_gamma 90.000000
_cell_volume 2764.756198
_symmetry_space_group_name_H-M "P M M A"
_symmetry_group_IT_number 51
_symmetry_cell_setting 'orthorhombic'
loop_
_space_group_symop_operation_xyz
x,y,z
1/2-x,-y,z
1/2+x,-y,-z
-x,y,-z
-x,-y,-z
1/2+x,y,-z
1/2-x,y,z
x,-y,z
loop_
_atom_site_type_symbol
_atom_site_label
_atom_site_fract_x
_atom_site_fract_y
_atom_site_fract_z
Si Si1 0.844669 0.700723 0.118337
Si Si2 0.941450 0.297029 0.557293
Si Si3 0.573693 0.305110 0.341072
Si Si4 0.012971 0.804408 0.788164
Si Si5 0.845132 0.801323 0.854664
Si Si6 0.099072 0.299999 0.012505
Si Si7 0.750000 0.306934 0.530775
Si Si8 0.750000 0.811127 0.397385
O O1 0.750000 0.743718 0.142167
O O2 0.854552 0.500000 0.120606
O O3 0.919537 0.779033 0.157694
O O4 0.851237 0.749442 0.048141
O O5 0.937705 0.500000 0.555977
O O6 0.842499 0.236236 0.552536
O O7 0.000000 0.246478 0.500000
O O8 0.994920 0.246172 0.616437
O O9 0.585794 0.500000 0.353497
O O10 0.548562 0.279719 0.271852
O O11 0.663616 0.220842 0.359215
O O12 0.921688 0.736118 0.812365
O O13 0.004641 0.000000 0.775573
O O14 0.750000 0.733814 0.841373
O O15 0.867354 0.769955 0.924713
O O16 0.843508 0.000000 0.846472
O O17 0.103549 0.500000 0.017609
O O18 0.000000 0.253543 0.000000
O O19 0.750000 0.500000 0.549385
O O20 0.750000 0.297797 0.458000
O O21 0.750000 0.000000 0.418798
#
# Coordination Sequence:
#
# PCOD9399955 Si02
#       8
#     8   8   8   8   8   8   4   4
#     4  10  21  37  57  83 115 150 188 234 296 360
#     4   9  17  33  61  92 117 150 195 240 287 340
#     4  11  23  41  63  87 118 160 201 242 295 350
#     4  11  24  41  59  82 116 155 197 246 292 347
#     4  10  22  40  61  83 112 156 202 242 296 361
#     4  10  19  34  59  87 115 145 187 247 301 348
#     4  10  18  36  64  92 124 158 195 242 293 346
#     4  12  24  38  60  94 126 156 195 236 287 354
#
# _framework density 20.254950999999998
#
# number of rings (size 3 to 8) (size 9 to 14) (size 15 to 20)
#    0.000    1.714    2.857    1.929    1.000    2.571 
#    1.286    2.143    0.000    0.000    0.000    0.000 
#    0.000    0.000    0.000    0.000    0.000    0.000 
#
# Total GULP energy -312771.637426 kJ/mol
# GULP energy per Si atom -5585.207811 kJ/mol
# Density = 2.020885 g / cm^3
# Si number density = 20.254951 Si / 1000 Ang^3
#
#
#
# Elastic Constant Matrix: (Units=GPa)
#
#
# Indices 1 2 3 4 5 6 
#
# 1 175.0176 9.6442 42.3637 0.0000 0.0000 0.0000
# 2 9.6442 17.4841 -6.9827 0.0000 0.0000 0.0000
# 3 42.3637 -6.9827 73.2255 0.0000 0.0000 0.0000
# 4 0.0000 0.0000 0.0000 -195.1080 0.0000 0.0000
# 5 0.0000 0.0000 0.0000 0.0000 4.9940 0.0000
# 6 0.0000 0.0000 0.0000 0.0000 0.0000 10.2284
#
#
#
# Elastic Compliance Matrix: (Units=1/GPa)
#
#
# Indices 1 2 3 4 5 6 
#
# 1 0.007175 -0.005838 -0.004708 0.000000 0.000000 0.000000
# 2 -0.005838 0.064209 0.009500 0.000000 0.000000 0.000000
# 3 -0.004708 0.009500 0.017286 0.000000 0.000000 0.000000
# 4 0.000000 0.000000 0.000000 -0.005125 0.000000 0.000000
# 5 0.000000 0.000000 0.000000 0.000000 0.200242 0.000000
# 6 0.000000 0.000000 0.000000 0.000000 0.000000 0.097767
#
#
# Mechanical properties :
#
#
# Convention : Reuss Voigt Hill
#
# Bulk Modulus (GPa) = 11.55009 39.53086 25.54048
# Shear Modulus (GPa) = 12.12112 -21.26366 -4.57127
#
# Velocity S-wave (km/s) = 2.44893 -3.24358 -1.50392
# Velocity P-wave (km/s) = 3.70285 2.35187 3.10180
#
# Compressibility (1/GPa) = 0.08657944
#
# Stress axis : x y z
#
# Youngs Moduli (GPa) = 139.37483 15.57416 57.85056
#
# Poissons Ratio (x) = 0.09092 0.27234
# Poissons Ratio (y) = 0.81364 -0.54959
# Poissons Ratio (z) = 0.65613 -0.14796
#
# Static dielectric constant tensor:
#      x y z
#    x 1.740150 0.000000 0.000000 
#    y 0.000000 1.731390 0.000000 
#    z 0.000000 0.000000 1.673430 
# 
# From -- ./inp_files/33529.got.cif
#   From: 2010.05.17/outbox.cif.g08.bks.cpg/sg51_17_cif.got.tgz:33529.got - 2010.06.03 11:52:47.
