data_PCOD9399313
_publ_section_title
;
Structure prediction by ZEFSAII (Michael W. Deem and Ramdas Pophale) SiO2 
 PCOD9399313
Probable space group: P M M A
;
_chemical_formula_sum "Si O2"
_cell_formula_units_Z 40
_cell_length_a 10.632052
_cell_length_b 7.918264
_cell_length_c 25.384027
_cell_angle_alpha 90.000000
_cell_angle_beta 90.000000
_cell_angle_gamma 90.000000
_cell_volume 2137.015098
_symmetry_space_group_name_H-M "P M M A"
_symmetry_group_IT_number 51
_symmetry_cell_setting 'orthorhombic'
loop_
_space_group_symop_operation_xyz
x,y,z
1/2-x,-y,z
1/2+x,-y,-z
-x,y,-z
-x,-y,-z
1/2+x,y,-z
1/2-x,y,z
x,-y,z
loop_
_atom_site_type_symbol
_atom_site_label
_atom_site_fract_x
_atom_site_fract_y
_atom_site_fract_z
Si Si1 0.402342 0.805285 0.341086
Si Si2 0.996700 0.799838 0.881523
Si Si3 0.750000 0.792840 0.942192
Si Si4 0.606356 0.301926 0.773717
Si Si5 0.896164 0.207018 0.542707
Si Si6 0.250000 0.792581 0.935548
O O1 0.250000 0.801249 0.341646
O O2 0.440302 0.723214 0.286024
O O3 0.436428 0.734930 0.398544
O O4 0.442768 0.000000 0.338878
O O5 0.873876 0.732474 0.911668
O O6 0.978171 0.774497 0.819444
O O7 0.125305 0.732149 0.905755
O O8 0.998008 0.000000 0.891468
O O9 0.750000 0.000000 0.940697
O O10 0.750000 0.743806 0.003230
O O11 0.750000 0.231312 0.777424
O O12 0.613507 0.500000 0.783740
O O13 0.750000 0.257565 0.532429
O O14 0.000000 0.258994 0.500000
O O15 0.894901 0.000000 0.544000
O O16 0.250000 0.000000 0.934537
#
# Coordination Sequence:
#
# PCOD9399313 Si02
#       6
#     8   8   4   8   8   4
#     4   8  14  25  43  66  90 118 153 190 228 271
#     4  10  18  30  50  73  95 121 152 187 229 275
#     4   9  16  28  49  75  97 119 148 185 230 273
#     4  10  19  30  46  68  93 120 157 201 235 268
#     4   8  13  22  39  64  91 116 143 179 224 270
#     4   9  18  30  47  73 101 121 146 187 228 275
#
# _framework density 18.717696
#
# number of rings (size 3 to 8) (size 9 to 14) (size 15 to 20)
#    0.000    3.000    1.000    2.400    0.000    3.200 
#    0.000    0.500    2.200    4.200    0.000    0.000 
#    0.000    0.000    0.000    0.000    0.000    0.000 
#
# Total GULP energy -222816.528927 kJ/mol
# GULP energy per Si atom -5570.413223 kJ/mol
# Density = 1.867509 g / cm^3
# Si number density = 18.717696 Si / 1000 Ang^3
#
#
#
# Elastic Constant Matrix: (Units=GPa)
#
#
# Indices 1 2 3 4 5 6 
#
# 1 113.9589 9.5686 85.2112 0.0000 0.0000 0.0000
# 2 9.5686 10.7018 -2.2384 0.0000 0.0000 0.0000
# 3 85.2112 -2.2384 160.0365 0.0000 0.0000 0.0000
# 4 0.0000 0.0000 0.0000 -29.1801 0.0000 0.0000
# 5 0.0000 0.0000 0.0000 0.0000 21.4330 0.0000
# 6 0.0000 0.0000 0.0000 0.0000 0.0000 1.8668
#
#
#
# Elastic Compliance Matrix: (Units=1/GPa)
#
#
# Indices 1 2 3 4 5 6 
#
# 1 0.017320 -0.017466 -0.009466 0.000000 0.000000 0.000000
# 2 -0.017466 0.111330 0.010857 0.000000 0.000000 0.000000
# 3 -0.009466 0.010857 0.011441 0.000000 0.000000 0.000000
# 4 0.000000 0.000000 0.000000 -0.034270 0.000000 0.000000
# 5 0.000000 0.000000 0.000000 0.000000 0.046657 0.000000
# 6 0.000000 0.000000 0.000000 0.000000 0.000000 0.535684
#
#
# Mechanical properties :
#
#
# Convention : Reuss Voigt Hill
#
# Bulk Modulus (GPa) = 9.26443 52.19778 30.73111
# Shear Modulus (GPa) = 6.61121 11.63433 9.12277
#
# Velocity S-wave (km/s) = 1.88142 2.49583 2.21008
# Velocity P-wave (km/s) = 3.11126 6.02104 4.79233
#
# Compressibility (1/GPa) = 0.10793977
#
# Stress axis : x y z
#
# Youngs Moduli (GPa) = 57.73719 8.98232 87.40722
#
# Poissons Ratio (x) = 0.15688 0.82742
# Poissons Ratio (y) = 1.00843 -0.94897
# Poissons Ratio (z) = 0.54655 -0.09752
#
# Static dielectric constant tensor:
#      x y z
#    x 1.636330 0.000000 0.000000 
#    y 0.000000 1.664540 0.000000 
#    z 0.000000 0.000000 1.655190 
# 
# From -- ./inp_files/36019.got.cif
#   From: 2010.05.17/outbox.cif.g08.bks.cpg/sg51_19_cif.got.tgz:36019.got - 2010.06.03 11:52:47.
