data_PCOD9399310
_publ_section_title
;
Structure prediction by ZEFSAII (Michael W. Deem and Ramdas Pophale) SiO2 
 PCOD9399310
Probable space group: P M M A
;
_chemical_formula_sum "Si O2"
_cell_formula_units_Z 64
_cell_length_a 20.141257
_cell_length_b 7.875875
_cell_length_c 20.915137
_cell_angle_alpha 90.000000
_cell_angle_beta 90.000000
_cell_angle_gamma 90.000000
_cell_volume 3317.768652
_symmetry_space_group_name_H-M "P M M A"
_symmetry_group_IT_number 51
_symmetry_cell_setting 'orthorhombic'
loop_
_space_group_symop_operation_xyz
x,y,z
1/2-x,-y,z
1/2+x,-y,-z
-x,y,-z
-x,-y,-z
1/2+x,y,-z
1/2-x,y,z
x,-y,z
loop_
_atom_site_type_symbol
_atom_site_label
_atom_site_fract_x
_atom_site_fract_y
_atom_site_fract_z
Si Si1 0.462325 0.292180 0.063599
Si Si2 0.823139 0.300782 0.235923
Si Si3 0.176017 0.296107 0.113874
Si Si4 0.457612 0.697113 0.558272
Si Si5 0.823987 0.199487 0.380345
Si Si6 0.541181 0.200758 0.679619
Si Si7 0.537332 0.706777 0.192674
Si Si8 0.824456 0.205364 0.737874
O O1 0.461330 0.500000 0.062383
O O2 0.386203 0.234111 0.072473
O O3 0.502365 0.241816 0.127117
O O4 0.500000 0.235164 0.000000
O O5 0.750000 0.225165 0.224089
O O6 0.819557 0.500000 0.219994
O O7 0.836360 0.287537 0.312014
O O8 0.886870 0.231347 0.199268
O O9 0.250000 0.229395 0.098693
O O10 0.178125 0.500000 0.107170
O O11 0.162864 0.258759 0.188752
O O12 0.500000 0.773870 0.500000
O O13 0.446550 0.500000 0.543815
O O14 0.384959 0.770635 0.572469
O O15 0.501305 0.714185 0.622316
O O16 0.750000 0.251177 0.403050
O O17 0.822196 0.000000 0.366294
O O18 0.502644 0.228775 0.745997
O O19 0.616023 0.264464 0.692503
O O20 0.543011 0.000000 0.665763
O O21 0.536852 0.500000 0.195463
O O22 0.750000 0.263030 0.720774
O O23 0.825195 0.000000 0.736754
#
# Coordination Sequence:
#
# PCOD9399310 Si02
#       8
#     8   8   8   8   8   8   8   8
#     4   9  17  29  45  69 102 138 174 215 264 310
#     4   9  17  29  47  73 103 135 173 218 264 310
#     4   9  16  27  46  71  96 127 170 215 257 306
#     4  11  24  40  57  79 109 145 181 217 259 311
#     4  10  20  34  55  83 110 138 175 218 264 314
#     4  11  21  33  54  80 105 133 170 217 265 313
#     4  10  18  30  50  73 100 136 175 216 262 313
#     4   9  18  32  50  75 105 134 166 209 263 317
#
# _framework density 19.290071999999999
#
# number of rings (size 3 to 8) (size 9 to 14) (size 15 to 20)
#    0.000    2.250    2.500    1.125    0.000    2.250 
#    0.000    1.250    0.000    7.500    0.000    0.000 
#    0.000    4.000    0.000    0.000    0.000    0.000 
#
# Total GULP energy -356966.461066 kJ/mol
# GULP energy per Si atom -5577.600954 kJ/mol
# Density = 1.924617 g / cm^3
# Si number density = 19.290072 Si / 1000 Ang^3
#
#
#
# Elastic Constant Matrix: (Units=GPa)
#
#
# Indices 1 2 3 4 5 6 
#
# 1 179.3339 2.9988 59.7827 0.0000 0.0000 0.0000
# 2 2.9988 21.2537 -8.4865 0.0000 0.0000 0.0000
# 3 59.7827 -8.4865 80.4953 0.0000 0.0000 0.0000
# 4 0.0000 0.0000 0.0000 246.6628 0.0000 0.0000
# 5 0.0000 0.0000 0.0000 0.0000 27.0546 0.0000
# 6 0.0000 0.0000 0.0000 0.0000 0.0000 15.6284
#
#
#
# Elastic Compliance Matrix: (Units=1/GPa)
#
#
# Indices 1 2 3 4 5 6 
#
# 1 0.007652 -0.003496 -0.006052 0.000000 0.000000 0.000000
# 2 -0.003496 0.050716 0.007943 0.000000 0.000000 0.000000
# 3 -0.006052 0.007943 0.017755 0.000000 0.000000 0.000000
# 4 0.000000 0.000000 0.000000 0.004054 0.000000 0.000000
# 5 0.000000 0.000000 0.000000 0.000000 0.036962 0.000000
# 6 0.000000 0.000000 0.000000 0.000000 0.000000 0.063986
#
#
# Mechanical properties :
#
#
# Convention : Reuss Voigt Hill
#
# Bulk Modulus (GPa) = 13.71481 43.29698 28.50589
# Shear Modulus (GPa) = 23.96492 72.98836 48.47664
#
# Velocity S-wave (km/s) = 3.52851 6.15787 5.01846
# Velocity P-wave (km/s) = 4.87091 8.54711 6.95625
#
# Compressibility (1/GPa) = 0.07291390
#
# Stress axis : x y z
#
# Youngs Moduli (GPa) = 130.68456 19.71781 56.32224
#
# Poissons Ratio (x) = 0.06893 0.34084
# Poissons Ratio (y) = 0.45688 -0.44739
# Poissons Ratio (z) = 0.79085 -0.15662
#
# Static dielectric constant tensor:
#      x y z
#    x 1.727530 0.000000 0.000000 
#    y 0.000000 1.689660 0.000000 
#    z 0.000000 0.000000 1.629290 
# 
# From -- ./inp_files/35928.got.cif
#   From: 2010.05.17/outbox.cif.g08.bks.cpg/sg51_18_cif.got.tgz:35928.got - 2010.06.03 11:52:47.
