data_PCOD9399435
_publ_section_title
;
Structure prediction by ZEFSAII (Michael W. Deem and Ramdas Pophale) SiO2 
 PCOD9399435
Probable space group: P M M A
;
_chemical_formula_sum "Si O2"
_cell_formula_units_Z 64
_cell_length_a 26.267523
_cell_length_b 9.003635
_cell_length_c 17.447621
_cell_angle_alpha 90.000000
_cell_angle_beta 90.000000
_cell_angle_gamma 90.000000
_cell_volume 4126.418015
_symmetry_space_group_name_H-M "P M M A"
_symmetry_group_IT_number 51
_symmetry_cell_setting 'orthorhombic'
loop_
_space_group_symop_operation_xyz
x,y,z
1/2-x,-y,z
1/2+x,-y,-z
-x,y,-z
-x,-y,-z
1/2+x,y,-z
1/2-x,y,z
x,-y,z
loop_
_atom_site_type_symbol
_atom_site_label
_atom_site_fract_x
_atom_site_fract_y
_atom_site_fract_z
Si Si1 0.438399 0.177553 0.654922
Si Si2 0.405410 0.678694 0.183986
Si Si3 0.002365 0.821790 0.090431
Si Si4 0.307383 0.319458 0.089168
Si Si5 0.191388 0.678789 0.912609
Si Si6 0.440440 0.176726 0.339022
Si Si7 0.399114 0.178813 0.819615
Si Si8 0.438162 0.671102 0.497227
O O1 0.498693 0.207276 0.667728
O O2 0.409005 0.223465 0.731623
O O3 0.421224 0.257564 0.577345
O O4 0.433580 0.000000 0.645056
O O5 0.407049 0.500000 0.186329
O O6 0.451348 0.739103 0.131540
O O7 0.352161 0.727472 0.145641
O O8 0.413094 0.744073 0.268510
O O9 0.949268 0.780797 0.131186
O O10 0.009309 0.000000 0.100122
O O11 0.000000 0.789575 0.000000
O O12 0.250000 0.270048 0.109091
O O13 0.306770 0.500000 0.089582
O O14 0.318341 0.275505 0.001126
O O15 0.250000 0.718086 0.894524
O O16 0.187311 0.500000 0.909281
O O17 0.150462 0.750717 0.857075
O O18 0.423308 0.238506 0.421472
O O19 0.433754 0.000000 0.335016
O O20 0.395165 0.000000 0.821577
O O21 0.500000 0.675644 0.500000
O O22 0.422560 0.500000 0.490977
#
# Coordination Sequence:
#
# PCOD9399435 Si02
#       8
#     8   8   8   8   8   8   8   8
#     4   9  17  30  45  63  92 129 161 185 225 284
#     4  11  20  29  47  72  95 121 160 202 238 278
#     4  10  20  33  46  63  94 132 161 188 232 288
#     4   8  16  32  50  67  91 123 159 201 246 286
#     4   9  18  33  51  69  90 120 160 204 247 284
#     4  10  18  31  47  64  95 132 159 185 229 285
#     4  10  19  31  46  68  95 126 161 193 230 282
#     4   9  17  28  44  68  94 119 156 197 231 267
#
# _framework density 15.509819999999999
#
# number of rings (size 3 to 8) (size 9 to 14) (size 15 to 20)
#    0.000    2.500    1.250    2.625    0.000    3.500 
#    0.000    0.625    0.000    3.000    0.000    0.875 
#    0.000    5.000    0.000    0.000    0.000    0.000 
#
# Total GULP energy -356839.581494 kJ/mol
# GULP energy per Si atom -5575.618461 kJ/mol
# Density = 1.547452 g / cm^3
# Si number density = 15.509820 Si / 1000 Ang^3
#
#
#
# Elastic Constant Matrix: (Units=GPa)
#
#
# Indices 1 2 3 4 5 6 
#
# 1 93.6253 39.3677 82.5011 0.0000 0.0000 0.0000
# 2 39.3677 37.3651 55.5437 0.0000 0.0000 0.0000
# 3 82.5011 55.5437 158.2891 0.0000 0.0000 0.0000
# 4 0.0000 0.0000 0.0000 28.8941 0.0000 0.0000
# 5 0.0000 0.0000 0.0000 0.0000 17.5531 0.0000
# 6 0.0000 0.0000 0.0000 0.0000 0.0000 17.2979
#
#
#
# Elastic Compliance Matrix: (Units=1/GPa)
#
#
# Indices 1 2 3 4 5 6 
#
# 1 0.022445 -0.013082 -0.007108 0.000000 0.000000 0.000000
# 2 -0.013082 0.063569 -0.015488 0.000000 0.000000 0.000000
# 3 -0.007108 -0.015488 0.015457 0.000000 0.000000 0.000000
# 4 0.000000 0.000000 0.000000 0.034609 0.000000 0.000000
# 5 0.000000 0.000000 0.000000 0.000000 0.056970 0.000000
# 6 0.000000 0.000000 0.000000 0.000000 0.000000 0.057810
#
#
# Mechanical properties :
#
#
# Convention : Reuss Voigt Hill
#
# Bulk Modulus (GPa) = 33.20570 71.56714 52.38642
# Shear Modulus (GPa) = 15.04868 20.20682 17.62775
#
# Velocity S-wave (km/s) = 3.11829 3.61340 3.37494
# Velocity P-wave (km/s) = 5.86694 7.97823 7.00261
#
# Compressibility (1/GPa) = 0.03011531
#
# Stress axis : x y z
#
# Youngs Moduli (GPa) = 44.55336 15.73095 64.69511
#
# Poissons Ratio (x) = 0.20579 0.45986
# Poissons Ratio (y) = 0.58283 1.00201
# Poissons Ratio (z) = 0.31669 0.24364
#
# Static dielectric constant tensor:
#      x y z
#    x 1.493690 0.000000 0.000000 
#    y 0.000000 1.520700 0.000000 
#    z 0.000000 0.000000 1.511290 
# 
# From -- ./inp_files/30796.got.cif
#   From: 2010.05.17/outbox.cif.g08.bks.cpg/sg51_16_cif.got.tgz:30796.got - 2010.06.03 11:52:47.
