data_PCOD9399323
_publ_section_title
;
Structure prediction by ZEFSAII (Michael W. Deem and Ramdas Pophale) SiO2 
 PCOD9399323
Probable space group: P M M A
;
_chemical_formula_sum "Si O2"
_cell_formula_units_Z 40
_cell_length_a 26.576784
_cell_length_b 8.375187
_cell_length_c 9.998494
_cell_angle_alpha 90.000000
_cell_angle_beta 90.000000
_cell_angle_gamma 90.000000
_cell_volume 2225.520145
_symmetry_space_group_name_H-M "P M M A"
_symmetry_group_IT_number 51
_symmetry_cell_setting 'orthorhombic'
loop_
_space_group_symop_operation_xyz
x,y,z
1/2-x,-y,z
1/2+x,-y,-z
-x,y,-z
-x,-y,-z
1/2+x,y,-z
1/2-x,y,z
x,-y,z
loop_
_atom_site_type_symbol
_atom_site_label
_atom_site_fract_x
_atom_site_fract_y
_atom_site_fract_z
Si Si1 0.609048 0.805532 0.457009
Si Si2 0.916435 0.193293 0.753316
Si Si3 0.032057 0.193032 0.771337
Si Si4 0.116505 0.310804 0.968515
Si Si5 0.307261 0.192841 0.748896
O O1 0.603511 0.751358 0.609053
O O2 0.561554 0.759670 0.364169
O O3 0.658807 0.753057 0.377121
O O4 0.609423 0.000000 0.459421
O O5 0.885049 0.251278 0.879871
O O6 0.974481 0.246367 0.770728
O O7 0.916472 0.000000 0.753310
O O8 0.032432 0.000000 0.777318
O O9 0.065436 0.253958 0.894256
O O10 0.118624 0.500000 0.964734
O O11 0.162335 0.242452 0.881014
O O12 0.250000 0.251078 0.746092
O O13 0.306384 0.000000 0.745166
#
# Coordination Sequence:
#
# PCOD9399323 Si02
#       5
#     8   8   8   8   8
#     4   8  15  29  51  78 101 122 158 207 253 293
#     4  10  18  30  50  75 105 136 164 201 246 290
#     4   9  17  31  51  73  99 135 174 205 237 284
#     4  11  22  33  47  71 104 137 168 203 242 288
#     4   9  18  36  60  78  92 118 161 209 252 298
#
# _framework density 17.973326
#
# number of rings (size 3 to 8) (size 9 to 14) (size 15 to 20)
#    0.000    2.600    0.000    4.200    0.000    6.000 
#    0.000    5.000    0.000    9.600    0.000    0.000 
#    0.000    0.000    0.000    0.000    0.000    0.000 
#
# Total GULP energy -223142.347975 kJ/mol
# GULP energy per Si atom -5578.558699 kJ/mol
# Density = 1.793242 g / cm^3
# Si number density = 17.973326 Si / 1000 Ang^3
#
#
#
# Elastic Constant Matrix: (Units=GPa)
#
#
# Indices 1 2 3 4 5 6 
#
# 1 112.4695 13.1347 45.7974 0.0000 0.0000 0.0000
# 2 13.1347 12.5061 9.4063 0.0000 0.0000 0.0000
# 3 45.7974 9.4063 137.8843 0.0000 0.0000 0.0000
# 4 0.0000 0.0000 0.0000 -23.3077 0.0000 0.0000
# 5 0.0000 0.0000 0.0000 0.0000 5.2989 0.0000
# 6 0.0000 0.0000 0.0000 0.0000 0.0000 0.5179
#
#
#
# Elastic Compliance Matrix: (Units=1/GPa)
#
#
# Indices 1 2 3 4 5 6 
#
# 1 0.011260 -0.009500 -0.003092 0.000000 0.000000 0.000000
# 2 -0.009500 0.092301 -0.003141 0.000000 0.000000 0.000000
# 3 -0.003092 -0.003141 0.008494 0.000000 0.000000 0.000000
# 4 0.000000 0.000000 0.000000 -0.042904 0.000000 0.000000
# 5 0.000000 0.000000 0.000000 0.000000 0.188718 0.000000
# 6 0.000000 0.000000 0.000000 0.000000 0.000000 1.930864
#
#
# Mechanical properties :
#
#
# Convention : Reuss Voigt Hill
#
# Bulk Modulus (GPa) = 12.40876 44.39297 28.40086
# Shear Modulus (GPa) = 2.22513 9.46991 5.84752
#
# Velocity S-wave (km/s) = 1.11387 2.29789 1.80569
# Velocity P-wave (km/s) = 2.92801 5.63856 4.49258
#
# Compressibility (1/GPa) = 0.08058826
#
# Stress axis : x y z
#
# Youngs Moduli (GPa) = 88.81198 10.83407 117.73496
#
# Poissons Ratio (x) = 0.10293 0.36401
# Poissons Ratio (y) = 0.84374 0.36983
# Poissons Ratio (z) = 0.27458 0.03403
#
# Static dielectric constant tensor:
#      x y z
#    x 1.605200 0.000000 0.000000 
#    y 0.000000 1.610140 0.000000 
#    z 0.000000 0.000000 1.609950 
# 
# From -- ./inp_files/12086.got.cif
#   From: 2010.05.17/outbox.cif.g08.bks.cpg/sg51_7_cif.got.tgz:12086.got - 2010.06.03 11:52:47.
