data_PCOD9399768
_publ_section_title
;
Structure prediction by ZEFSAII (Michael W. Deem and Ramdas Pophale) SiO2 
 PCOD9399768
Probable space group: P M M A
;
_chemical_formula_sum "Si O2"
_cell_formula_units_Z 64
_cell_length_a 14.742525
_cell_length_b 23.792844
_cell_length_c 9.533731
_cell_angle_alpha 90.000000
_cell_angle_beta 90.000000
_cell_angle_gamma 90.000000
_cell_volume 3344.114384
_symmetry_space_group_name_H-M "P M M A"
_symmetry_group_IT_number 51
_symmetry_cell_setting 'orthorhombic'
loop_
_space_group_symop_operation_xyz
x,y,z
1/2-x,-y,z
1/2+x,-y,-z
-x,y,-z
-x,-y,-z
1/2+x,y,-z
1/2-x,y,z
x,-y,z
loop_
_atom_site_type_symbol
_atom_site_label
_atom_site_fract_x
_atom_site_fract_y
_atom_site_fract_z
Si Si1 0.852442 0.936698 0.142252
Si Si2 0.468530 0.142838 0.652830
Si Si3 0.024298 0.371099 0.646017
Si Si4 0.640966 0.359527 0.848625
Si Si5 0.856901 0.566642 0.119828
Si Si6 0.916378 0.131680 0.915272
Si Si7 0.141790 0.739754 0.655069
Si Si8 0.646247 0.750341 0.014448
O O1 0.750000 0.939118 0.195401
O O2 0.903958 0.897563 0.255460
O O3 0.889921 0.000000 0.137474
O O4 0.845040 0.909945 0.984914
O O5 0.500000 0.122956 0.500000
O O6 0.557442 0.143639 0.755259
O O7 0.414477 0.202171 0.630197
O O8 0.084553 0.404850 0.758310
O O9 0.081905 0.314177 0.608854
O O10 0.000000 0.400758 0.500000
O O11 0.926840 0.362798 0.719627
O O12 0.750000 0.359699 0.817767
O O13 0.614072 0.301360 0.923514
O O14 0.623534 0.406888 0.966888
O O15 0.750000 0.578372 0.146569
O O16 0.871014 0.500000 0.117208
O O17 0.902655 0.192204 0.984585
O O18 0.000000 0.105155 0.000000
O O19 0.250000 0.740929 0.610112
O O20 0.143412 0.734658 0.823646
O O21 0.750000 0.760627 0.974343
#
# Coordination Sequence:
#
# PCOD9399768 Si02
#       8
#     8   8   8   8   8   8   8   8
#     4  10  21  39  61  82 108 149 200 251 300 350
#     4  11  23  37  56  87 121 156 189 235 296 363
#     4  12  25  38  59  89 126 162 194 236 295 363
#     4  10  22  38  60  89 118 153 199 250 295 344
#     4  10  22  42  66  89 113 150 204 256 299 346
#     4  10  19  32  57  83 110 142 189 239 285 341
#     4  11  21  37  61  87 120 159 199 240 291 352
#     4  10  18  32  57  85 110 142 193 243 287 334
#
# _framework density 19.138100000000001
#
# number of rings (size 3 to 8) (size 9 to 14) (size 15 to 20)
#    0.000    1.500    3.750    2.625    0.000    4.750 
#    0.000    3.750    0.000    3.000    0.000    0.000 
#    0.000    0.000    0.000    0.000    0.000    0.000 
#
# Total GULP energy -356271.005625 kJ/mol
# GULP energy per Si atom -5566.734463 kJ/mol
# Density = 1.909454 g / cm^3
# Si number density = 19.138100 Si / 1000 Ang^3
#
#
#
# Elastic Constant Matrix: (Units=GPa)
#
#
# Indices 1 2 3 4 5 6 
#
# 1 73.4318 32.2814 37.4182 0.0000 0.0000 0.0000
# 2 32.2814 72.5823 11.7550 0.0000 0.0000 0.0000
# 3 37.4182 11.7550 83.1907 0.0000 0.0000 0.0000
# 4 0.0000 0.0000 0.0000 15.7230 0.0000 0.0000
# 5 0.0000 0.0000 0.0000 0.0000 15.3203 0.0000
# 6 0.0000 0.0000 0.0000 0.0000 0.0000 10.8735
#
#
#
# Elastic Compliance Matrix: (Units=1/GPa)
#
#
# Indices 1 2 3 4 5 6 
#
# 1 0.021586 -0.008216 -0.008548 0.000000 0.000000 0.000000
# 2 -0.008216 0.017227 0.001261 0.000000 0.000000 0.000000
# 3 -0.008548 0.001261 0.015687 0.000000 0.000000 0.000000
# 4 0.000000 0.000000 0.000000 0.063601 0.000000 0.000000
# 5 0.000000 0.000000 0.000000 0.000000 0.065273 0.000000
# 6 0.000000 0.000000 0.000000 0.000000 0.000000 0.091967
#
#
# Mechanical properties :
#
#
# Convention : Reuss Voigt Hill
#
# Bulk Modulus (GPa) = 42.56312 43.56822 43.06567
# Shear Modulus (GPa) = 15.91456 18.23339 17.07398
#
# Velocity S-wave (km/s) = 2.88681 3.08998 2.99012
# Velocity P-wave (km/s) = 5.77926 5.96198 5.87133
#
# Compressibility (1/GPa) = 0.02349452
#
# Stress axis : x y z
#
# Youngs Moduli (GPa) = 46.32695 58.04739 63.74628
#
# Poissons Ratio (x) = 0.47692 0.54491
# Poissons Ratio (y) = 0.38062 -0.08040
# Poissons Ratio (z) = 0.39601 -0.07321
#
# Static dielectric constant tensor:
#      x y z
#    x 1.810750 0.000000 0.000000 
#    y 0.000000 1.683080 0.000000 
#    z 0.000000 0.000000 1.633050 
# 
# From -- ./inp_files/8749.got.cif
#   From: 2010.05.17/outbox.cif.g08.bks.cpg/sg51_5_cif.got.tgz:8749.got - 2010.06.03 11:52:47.
