data_PCOD9399556
_publ_section_title
;
Structure prediction by ZEFSAII (Michael W. Deem and Ramdas Pophale) SiO2 
 PCOD9399556
Probable space group: P M M A
;
_chemical_formula_sum "Si O2"
_cell_formula_units_Z 48
_cell_length_a 8.693219
_cell_length_b 31.598855
_cell_length_c 9.599498
_cell_angle_alpha 90.000000
_cell_angle_beta 90.000000
_cell_angle_gamma 90.000000
_cell_volume 2636.941463
_symmetry_space_group_name_H-M "P M M A"
_symmetry_group_IT_number 51
_symmetry_cell_setting 'orthorhombic'
loop_
_space_group_symop_operation_xyz
x,y,z
1/2-x,-y,z
1/2+x,-y,-z
-x,y,-z
-x,-y,-z
1/2+x,y,-z
1/2-x,y,z
x,-y,z
loop_
_atom_site_type_symbol
_atom_site_label
_atom_site_fract_x
_atom_site_fract_y
_atom_site_fract_z
Si Si1 0.433621 0.377405 0.156346
Si Si2 0.434019 0.710087 0.842209
Si Si3 0.565866 0.049222 0.151753
Si Si4 0.565921 0.548574 0.344520
Si Si5 0.565372 0.201989 0.843667
Si Si6 0.434066 0.878766 0.345437
O O1 0.250000 0.374574 0.149989
O O2 0.501166 0.333597 0.219036
O O3 0.488020 0.417312 0.245152
O O4 0.500000 0.381577 0.000000
O O5 0.250000 0.709470 0.844559
O O6 0.495819 0.754361 0.783265
O O7 0.500000 0.710295 0.000000
O O8 0.750000 0.052510 0.148333
O O9 0.499108 0.080072 0.267714
O O10 0.524408 0.000000 0.176975
O O11 0.500000 0.061114 0.000000
O O12 0.500000 0.553473 0.500000
O O13 0.750000 0.554479 0.345618
O O14 0.534206 0.500000 0.300376
O O15 0.750000 0.205929 0.852742
O O16 0.525120 0.162196 0.747642
O O17 0.500000 0.195810 0.000000
O O18 0.500000 0.875123 0.500000
O O19 0.250000 0.881426 0.351275
#
# Coordination Sequence:
#
# PCOD9399556 Si02
#       6
#     8   8   8   8   8   8
#     4  11  21  35  56  82 113 145 181 227 276 326
#     4  10  18  31  53  80 109 141 178 222 273 325
#     4  10  21  38  61  87 114 145 184 229 274 324
#     4  10  21  38  58  80 108 143 183 225 271 326
#     4  10  20  35  56  82 108 140 182 224 270 323
#     4  11  24  39  57  81 113 150 186 228 277 329
#
# _framework density 18.202907
#
# number of rings (size 3 to 8) (size 9 to 14) (size 15 to 20)
#    0.000    1.667    0.000    7.500    0.000    6.667 
#    0.000    0.833    0.000    2.000    0.000    0.000 
#    0.000    0.000    0.000    0.000    0.000    0.000 
#
# Total GULP energy -268114.692388 kJ/mol
# GULP energy per Si atom -5585.722758 kJ/mol
# Density = 1.816148 g / cm^3
# Si number density = 18.202907 Si / 1000 Ang^3
#
#
#
# Elastic Constant Matrix: (Units=GPa)
#
#
# Indices 1 2 3 4 5 6 
#
# 1 115.8657 73.0231 48.4175 0.0000 0.0000 0.0000
# 2 73.0231 147.9313 85.6678 0.0000 0.0000 0.0000
# 3 48.4175 85.6678 91.5309 0.0000 0.0000 0.0000
# 4 0.0000 0.0000 0.0000 -13.6692 0.0000 0.0000
# 5 0.0000 0.0000 0.0000 0.0000 30.1062 0.0000
# 6 0.0000 0.0000 0.0000 0.0000 0.0000 -78.0862
#
#
#
# Elastic Compliance Matrix: (Units=1/GPa)
#
#
# Indices 1 2 3 4 5 6 
#
# 1 0.012671 -0.005182 -0.001853 0.000000 0.000000 0.000000
# 2 -0.005182 0.016879 -0.013057 0.000000 0.000000 0.000000
# 3 -0.001853 -0.013057 0.024126 0.000000 0.000000 0.000000
# 4 0.000000 0.000000 0.000000 -0.073157 0.000000 0.000000
# 5 0.000000 0.000000 0.000000 0.000000 0.033216 0.000000
# 6 0.000000 0.000000 0.000000 0.000000 0.000000 -0.012806
#
#
# Mechanical properties :
#
#
# Convention : Reuss Voigt Hill
#
# Bulk Modulus (GPa) = 74.11250 85.50494 79.80872
# Shear Modulus (GPa) = 109.63244 -2.44851 53.59197
#
# Velocity S-wave (km/s) = 7.76909 -1.16105 5.43188
# Velocity P-wave (km/s) = 11.01278 6.72888 9.12577
#
# Compressibility (1/GPa) = 0.01349300
#
# Stress axis : x y z
#
# Youngs Moduli (GPa) = 78.92322 59.24539 41.44963
#
# Poissons Ratio (x) = 0.30699 0.07679
# Poissons Ratio (y) = 0.40895 0.54120
# Poissons Ratio (z) = 0.14622 0.77355
#
# Static dielectric constant tensor:
#      x y z
#    x 1.606910 0.000000 0.000000 
#    y 0.000000 1.653280 0.000000 
#    z 0.000000 0.000000 1.592540 
# 
# From -- ./inp_files/5985.got.cif
#   From: 2010.05.17/outbox.cif.g08.bks.cpg/sg51_3_cif.got.tgz:5985.got - 2010.06.03 11:52:47.
