data_PCOD9399488
_publ_section_title
;
Structure prediction by ZEFSAII (Michael W. Deem and Ramdas Pophale) SiO2 
 PCOD9399488
Probable space group: P M M A
;
_chemical_formula_sum "Si O2"
_cell_formula_units_Z 48
_cell_length_a 8.719576
_cell_length_b 16.565989
_cell_length_c 18.792393
_cell_angle_alpha 90.000000
_cell_angle_beta 90.000000
_cell_angle_gamma 90.000000
_cell_volume 2714.531103
_symmetry_space_group_name_H-M "P M M A"
_symmetry_group_IT_number 51
_symmetry_cell_setting 'orthorhombic'
loop_
_space_group_symop_operation_xyz
x,y,z
1/2-x,-y,z
1/2+x,-y,-z
-x,y,-z
-x,-y,-z
1/2+x,y,-z
1/2-x,y,z
x,-y,z
loop_
_atom_site_type_symbol
_atom_site_label
_atom_site_fract_x
_atom_site_fract_y
_atom_site_fract_z
Si Si1 0.066972 0.407411 0.215445
Si Si2 0.067927 0.166275 0.420852
Si Si3 0.066493 0.669959 0.922573
Si Si4 0.932479 0.000000 0.919857
Si Si5 0.933151 0.000000 0.419841
Si Si6 0.066714 0.745124 0.707151
Si Si7 0.933559 0.160132 0.151069
O O1 0.250000 0.395589 0.220238
O O2 0.031494 0.500000 0.233269
O O3 0.011272 0.386960 0.135862
O O4 0.981940 0.342326 0.264395
O O5 0.250000 0.158585 0.426476
O O6 0.000000 0.178497 0.500000
O O7 0.017136 0.234250 0.365919
O O8 0.996968 0.083160 0.389439
O O9 0.250000 0.659762 0.920469
O O10 0.033163 0.762610 0.899155
O O11 0.000000 0.654673 0.000000
O O12 0.987214 0.920052 0.877862
O O13 0.750000 0.000000 0.925097
O O14 0.000000 0.000000 0.000000
O O15 0.000000 0.000000 0.500000
O O16 0.750000 0.000000 0.420540
O O17 0.250000 0.749405 0.698333
O O18 0.023345 0.809048 0.769721
O O19 0.750000 0.147223 0.150551
#
# Coordination Sequence:
#
# PCOD9399488 Si02
#       7
#     8   8   8   4   4   8   8
#     4  10  21  37  57  81 108 139 175 216 265 323
#     4  11  21  35  56  83 115 149 186 226 269 319
#     4  10  20  34  54  78 104 137 175 219 271 322
#     4  12  24  35  52  75 103 141 185 229 270 313
#     4  10  18  31  50  75 108 143 179 217 259 305
#     4  10  21  38  59  82 108 141 179 221 271 324
#     4   9  20  37  54  73 101 137 178 222 267 315
#
# _framework density 17.682611999999999
#
# number of rings (size 3 to 8) (size 9 to 14) (size 15 to 20)
#    0.000    1.833    0.000    7.000    0.000    7.667 
#    0.000    0.833    0.000    0.500    0.000    0.000 
#    0.000    0.000    0.000    0.000    0.000    0.000 
#
# Total GULP energy -268035.215694 kJ/mol
# GULP energy per Si atom -5584.066994 kJ/mol
# Density = 1.764237 g / cm^3
# Si number density = 17.682612 Si / 1000 Ang^3
#
#
#
# Elastic Constant Matrix: (Units=GPa)
#
#
# Indices 1 2 3 4 5 6 
#
# 1 103.0266 43.8688 40.0655 0.0000 0.0000 0.0000
# 2 43.8688 88.6640 42.2771 0.0000 0.0000 0.0000
# 3 40.0655 42.2771 93.4991 0.0000 0.0000 0.0000
# 4 0.0000 0.0000 0.0000 10.0081 0.0000 0.0000
# 5 0.0000 0.0000 0.0000 0.0000 28.2121 0.0000
# 6 0.0000 0.0000 0.0000 0.0000 0.0000 29.0471
#
#
#
# Elastic Compliance Matrix: (Units=1/GPa)
#
#
# Indices 1 2 3 4 5 6 
#
# 1 0.013102 -0.004852 -0.003421 0.000000 0.000000 0.000000
# 2 -0.004852 0.016175 -0.005235 0.000000 0.000000 0.000000
# 3 -0.003421 -0.005235 0.014528 0.000000 0.000000 0.000000
# 4 0.000000 0.000000 0.000000 0.099919 0.000000 0.000000
# 5 0.000000 0.000000 0.000000 0.000000 0.035446 0.000000
# 6 0.000000 0.000000 0.000000 0.000000 0.000000 0.034427
#
#
# Mechanical properties :
#
#
# Convention : Reuss Voigt Hill
#
# Bulk Modulus (GPa) = 59.55533 59.73472 59.64503
# Shear Modulus (GPa) = 20.30798 24.05202 22.18000
#
# Velocity S-wave (km/s) = 3.39259 3.69210 3.54551
# Velocity P-wave (km/s) = 7.00710 7.21321 7.11090
#
# Compressibility (1/GPa) = 0.01679111
#
# Stress axis : x y z
#
# Youngs Moduli (GPa) = 76.32226 61.82339 68.83176
#
# Poissons Ratio (x) = 0.29994 0.23546
# Poissons Ratio (y) = 0.37029 0.36033
# Poissons Ratio (z) = 0.26108 0.32364
#
# Static dielectric constant tensor:
#      x y z
#    x 1.583410 0.000000 0.000000 
#    y 0.000000 1.614650 0.000000 
#    z 0.000000 0.000000 1.564390 
# 
# From -- ./inp_files/27681.got.cif
#   From: 2010.05.17/outbox.cif.g08.bks.cpg/sg51_14_cif.got.tgz:27681.got - 2010.06.03 11:52:47.
