data_PCOD9399856
_publ_section_title
;
Structure prediction by ZEFSAII (Michael W. Deem and Ramdas Pophale) SiO2 
 PCOD9399856
Probable space group: P M M A
;
_chemical_formula_sum "Si O2"
_cell_formula_units_Z 40
_cell_length_a 23.338813
_cell_length_b 7.547577
_cell_length_c 10.160910
_cell_angle_alpha 90.000000
_cell_angle_beta 90.000000
_cell_angle_gamma 90.000000
_cell_volume 1789.859418
_symmetry_space_group_name_H-M "P M M A"
_symmetry_group_IT_number 51
_symmetry_cell_setting 'orthorhombic'
loop_
_space_group_symop_operation_xyz
x,y,z
1/2-x,-y,z
1/2+x,-y,-z
-x,y,-z
-x,-y,-z
1/2+x,y,-z
1/2-x,y,z
x,-y,z
loop_
_atom_site_type_symbol
_atom_site_label
_atom_site_fract_x
_atom_site_fract_y
_atom_site_fract_z
Si Si1 0.250000 0.784770 0.907852
Si Si2 0.124776 0.716979 0.550237
Si Si3 0.250000 0.708167 0.598358
Si Si4 0.063403 0.296838 0.292952
Si Si5 0.864746 0.795412 0.946765
Si Si6 0.556802 0.285443 0.187303
O O1 0.250000 0.724257 0.756864
O O2 0.192737 0.725143 0.983692
O O3 0.250000 0.000000 0.904316
O O4 0.125692 0.500000 0.544928
O O5 0.190137 0.781484 0.545059
O O6 0.086151 0.781263 0.429213
O O7 0.097446 0.762641 0.690353
O O8 0.250000 0.500000 0.566014
O O9 0.047473 0.500000 0.324251
O O10 0.006604 0.220430 0.225071
O O11 0.113802 0.294799 0.185924
O O12 0.915394 0.783281 0.053960
O O13 0.854331 0.000000 0.913924
O O14 0.555619 0.500000 0.173423
#
# Coordination Sequence:
#
# PCOD9399856 Si02
#       6
#     4   8   4   8   8   8
#     4  10  22  39  56  76 106 144 184 225 274 326
#     4   9  18  33  56  85 112 139 176 225 273 318
#     4  10  18  33  60  86 106 134 182 231 270 320
#     4  10  21  36  55  83 117 147 178 220 274 330
#     4  11  23  38  56  79 110 146 186 230 272 320
#     4  10  19  35  59  83 110 147 185 221 269 327
#
# _framework density 22.348125
#
# number of rings (size 3 to 8) (size 9 to 14) (size 15 to 20)
#    0.000    2.000    2.000    1.800    0.000    7.200 
#    0.000    3.000    0.000    2.400    0.000    0.000 
#    0.000    0.000    0.000    0.000    0.000    0.000 
#
# Total GULP energy -223546.469950 kJ/mol
# GULP energy per Si atom -5588.661749 kJ/mol
# Density = 2.229726 g / cm^3
# Si number density = 22.348125 Si / 1000 Ang^3
#
#
#
# Elastic Constant Matrix: (Units=GPa)
#
#
# Indices 1 2 3 4 5 6 
#
# 1 80.9487 -3.2603 -17.7583 0.0000 0.0000 0.0000
# 2 -3.2603 53.9802 -10.7320 0.0000 0.0000 0.0000
# 3 -17.7583 -10.7320 53.5545 0.0000 0.0000 0.0000
# 4 0.0000 0.0000 0.0000 41.2874 0.0000 0.0000
# 5 0.0000 0.0000 0.0000 0.0000 4.6377 0.0000
# 6 0.0000 0.0000 0.0000 0.0000 0.0000 17.7921
#
#
#
# Elastic Compliance Matrix: (Units=1/GPa)
#
#
# Indices 1 2 3 4 5 6 
#
# 1 0.013484 0.001774 0.004827 0.000000 0.000000 0.000000
# 2 0.001774 0.019527 0.004501 0.000000 0.000000 0.000000
# 3 0.004827 0.004501 0.021175 0.000000 0.000000 0.000000
# 4 0.000000 0.000000 0.000000 0.024220 0.000000 0.000000
# 5 0.000000 0.000000 0.000000 0.000000 0.215625 0.000000
# 6 0.000000 0.000000 0.000000 0.000000 0.000000 0.056205
#
#
# Mechanical properties :
#
#
# Convention : Reuss Voigt Hill
#
# Bulk Modulus (GPa) = 13.09064 13.88691 13.48877
# Shear Modulus (GPa) = 14.14444 27.42569 20.78507
#
# Velocity S-wave (km/s) = 2.51851 3.50695 3.05299
# Velocity P-wave (km/s) = 3.78517 4.75664 4.29844
#
# Compressibility (1/GPa) = 0.07639046
#
# Stress axis : x y z
#
# Youngs Moduli (GPa) = 74.16308 51.21005 47.22524
#
# Poissons Ratio (x) = -0.09085 -0.22794
# Poissons Ratio (y) = -0.13157 -0.21258
# Poissons Ratio (z) = -0.35796 -0.23052
#
# Static dielectric constant tensor:
#      x y z
#    x 1.833390 0.000000 0.000000 
#    y 0.000000 1.879870 0.000000 
#    z 0.000000 0.000000 1.753620 
# 
# From -- ./inp_files/17930.got.cif
#   From: 2010.05.17/outbox.cif.g08.bks.cpg/sg51_9_cif.got.tgz:17930.got - 2010.06.03 11:52:47.
