data_PCOD9399101
_publ_section_title
;
Structure prediction by ZEFSAII (Michael W. Deem and Ramdas Pophale) SiO2 
 PCOD9399101
Probable space group: P M M A
;
_chemical_formula_sum "Si O2"
_cell_formula_units_Z 56
_cell_length_a 7.650751
_cell_length_b 16.251355
_cell_length_c 20.751107
_cell_angle_alpha 90.000000
_cell_angle_beta 90.000000
_cell_angle_gamma 90.000000
_cell_volume 2580.090352
_symmetry_space_group_name_H-M "P M M A"
_symmetry_group_IT_number 51
_symmetry_cell_setting 'orthorhombic'
loop_
_space_group_symop_operation_xyz
x,y,z
1/2-x,-y,z
1/2+x,-y,-z
-x,y,-z
-x,-y,-z
1/2+x,y,-z
1/2-x,y,z
x,-y,z
loop_
_atom_site_type_symbol
_atom_site_label
_atom_site_fract_x
_atom_site_fract_y
_atom_site_fract_z
Si Si1 0.961544 0.088439 0.107372
Si Si2 0.040073 0.267708 0.427515
Si Si3 0.548484 0.270862 0.928979
Si Si4 0.962338 0.309354 0.789542
Si Si5 0.454705 0.127041 0.748500
Si Si6 0.036350 0.408369 0.329638
Si Si7 0.547928 0.088612 0.606525
O O1 0.750000 0.091096 0.106081
O O2 0.016758 0.093349 0.182481
O O3 0.024170 0.171925 0.074601
O O4 0.019197 0.000000 0.080617
O O5 0.250000 0.262612 0.418277
O O6 0.975707 0.336200 0.377419
O O7 0.968560 0.174959 0.417060
O O8 0.000000 0.293557 0.500000
O O9 0.750000 0.289351 0.923018
O O10 0.467497 0.306495 0.862869
O O11 0.500000 0.299992 0.000000
O O12 0.750000 0.307087 0.790648
O O13 0.014321 0.383427 0.743079
O O14 0.020546 0.224874 0.755397
O O15 0.250000 0.107128 0.742674
O O16 0.544208 0.095206 0.684280
O O17 0.250000 0.408451 0.331980
O O18 0.977510 0.500000 0.346788
O O19 0.750000 0.087475 0.585281
O O20 0.468957 0.000000 0.587817
#
# Coordination Sequence:
#
# PCOD9399101 Si02
#       7
#     8   8   8   8   8   8   8
#     4   9  18  31  45  65  97 133 171 218 266 312
#     4  10  21  37  55  78 110 144 179 218 263 315
#     4  10  20  32  49  71  98 134 174 214 258 312
#     4   9  17  33  55  78 104 136 176 216 258 315
#     4  10  18  29  49  76 105 136 173 220 272 315
#     4   9  17  33  60  87 108 134 172 218 265 316
#     4  10  20  34  52  73 102 143 185 224 263 307
#
# _framework density 21.704666
#
# number of rings (size 3 to 8) (size 9 to 14) (size 15 to 20)
#    0.000    2.429    1.429    1.286    0.000    3.714 
#    0.000    0.000    0.000    1.714    0.000    0.000 
#    0.000    0.000    0.000    0.000    0.000    0.429 
#
# Total GULP energy -312485.089329 kJ/mol
# GULP energy per Si atom -5580.090881 kJ/mol
# Density = 2.165526 g / cm^3
# Si number density = 21.704666 Si / 1000 Ang^3
#
#
#
# Elastic Constant Matrix: (Units=GPa)
#
#
# Indices 1 2 3 4 5 6 
#
# 1 38.8737 4.9191 -1.9237 0.0000 0.0000 0.0000
# 2 4.9191 131.8856 56.6728 0.0000 0.0000 0.0000
# 3 -1.9237 56.6728 120.5530 0.0000 0.0000 0.0000
# 4 0.0000 0.0000 0.0000 9.1469 0.0000 0.0000
# 5 0.0000 0.0000 0.0000 0.0000 21.0331 0.0000
# 6 0.0000 0.0000 0.0000 0.0000 0.0000 -6.0607
#
#
#
# Elastic Compliance Matrix: (Units=1/GPa)
#
#
# Indices 1 2 3 4 5 6 
#
# 1 0.025960 -0.001436 0.001090 0.000000 0.000000 0.000000
# 2 -0.001436 0.009581 -0.004527 0.000000 0.000000 0.000000
# 3 0.001090 -0.004527 0.010441 0.000000 0.000000 0.000000
# 4 0.000000 0.000000 0.000000 0.109326 0.000000 0.000000
# 5 0.000000 0.000000 0.000000 0.000000 0.047544 0.000000
# 6 0.000000 0.000000 0.000000 0.000000 0.000000 -0.164999
#
#
# Mechanical properties :
#
#
# Convention : Reuss Voigt Hill
#
# Bulk Modulus (GPa) = 27.59843 45.62764 36.61303
# Shear Modulus (GPa) = 83.78078 20.26682 52.02380
#
# Velocity S-wave (km/s) = 6.21966 3.05905 4.90112
# Velocity P-wave (km/s) = 8.02009 5.79178 6.99524
#
# Compressibility (1/GPa) = 0.03623394
#
# Stress axis : x y z
#
# Youngs Moduli (GPa) = 38.52073 104.37026 95.77865
#
# Poissons Ratio (x) = 0.14992 -0.10436
# Poissons Ratio (y) = 0.05533 0.43360
# Poissons Ratio (z) = -0.04197 0.47250
#
# Static dielectric constant tensor:
#      x y z
#    x 1.790190 0.000000 0.000000 
#    y 0.000000 1.790560 0.000000 
#    z 0.000000 0.000000 1.813670 
# 
# From -- ./inp_files/31924.got.cif
#   From: 2010.05.17/outbox.cif.g08.bks.cpg/sg51_16_cif.got.tgz:31924.got - 2010.06.03 11:52:47.
