data_PCOD9399465
_publ_section_title
;
Structure prediction by ZEFSAII (Michael W. Deem and Ramdas Pophale) SiO2 
 PCOD9399465
Probable space group: P M M A
;
_chemical_formula_sum "Si O2"
_cell_formula_units_Z 48
_cell_length_a 21.786981
_cell_length_b 8.837588
_cell_length_c 15.678098
_cell_angle_alpha 90.000000
_cell_angle_beta 90.000000
_cell_angle_gamma 90.000000
_cell_volume 3018.729374
_symmetry_space_group_name_H-M "P M M A"
_symmetry_group_IT_number 51
_symmetry_cell_setting 'orthorhombic'
loop_
_space_group_symop_operation_xyz
x,y,z
1/2-x,-y,z
1/2+x,-y,-z
-x,y,-z
-x,-y,-z
1/2+x,y,-z
1/2-x,y,z
x,-y,z
loop_
_atom_site_type_symbol
_atom_site_label
_atom_site_fract_x
_atom_site_fract_y
_atom_site_fract_z
Si Si1 0.427842 0.178024 0.521861
Si Si2 0.544785 0.682376 0.114180
Si Si3 0.042976 0.318507 0.693472
Si Si4 0.677840 0.318084 0.812799
Si Si5 0.414970 0.819176 0.055739
Si Si6 0.097385 0.681646 0.348811
O O1 0.500000 0.205272 0.500000
O O2 0.419532 0.248112 0.615334
O O3 0.392305 0.250634 0.442474
O O4 0.417293 0.000000 0.524216
O O5 0.543822 0.500000 0.105875
O O6 0.562841 0.722078 0.210895
O O7 0.476175 0.744904 0.096914
O O8 0.586082 0.755546 0.040566
O O9 0.045118 0.500000 0.685743
O O10 0.971142 0.273191 0.682487
O O11 0.750000 0.286444 0.812284
O O12 0.669176 0.500000 0.822527
O O13 0.642262 0.234764 0.888485
O O14 0.645882 0.273826 0.723392
O O15 0.420961 0.000000 0.055341
O O16 0.097794 0.500000 0.355723
#
# Coordination Sequence:
#
# PCOD9399465 Si02
#       6
#     8   8   8   8   8   8
#     4   9  17  26  39  63  93 123 150 181 226 278
#     4  10  18  31  50  69  94 127 164 197 238 291
#     4   9  16  27  45  67  91 122 155 190 230 276
#     4  10  20  35  53  70  91 126 169 205 237 279
#     4  11  21  31  45  69  99 127 157 197 248 293
#     4   9  16  29  45  64  90 121 157 194 231 273
#
# _framework density 15.900729999999999
#
# number of rings (size 3 to 8) (size 9 to 14) (size 15 to 20)
#    0.000    2.333    1.667    3.500    0.000    4.333 
#    0.000    0.000    0.000    0.000    0.000    1.167 
#    0.000    4.000    0.000    0.000    0.000    0.000 
#
# Total GULP energy -267559.895062 kJ/mol
# GULP energy per Si atom -5574.164480 kJ/mol
# Density = 1.586454 g / cm^3
# Si number density = 15.900730 Si / 1000 Ang^3
#
#
#
# Elastic Constant Matrix: (Units=GPa)
#
#
# Indices 1 2 3 4 5 6 
#
# 1 52.0244 26.8631 48.9132 0.0000 0.0000 0.0000
# 2 26.8631 38.8717 54.9847 0.0000 0.0000 0.0000
# 3 48.9132 54.9847 181.3745 0.0000 0.0000 0.0000
# 4 0.0000 0.0000 0.0000 -11.6606 0.0000 0.0000
# 5 0.0000 0.0000 0.0000 0.0000 14.9786 0.0000
# 6 0.0000 0.0000 0.0000 0.0000 0.0000 6.4535
#
#
#
# Elastic Compliance Matrix: (Units=1/GPa)
#
#
# Indices 1 2 3 4 5 6 
#
# 1 0.030950 -0.016776 -0.003261 0.000000 0.000000 0.000000
# 2 -0.016776 0.054133 -0.011886 0.000000 0.000000 0.000000
# 3 -0.003261 -0.011886 0.009996 0.000000 0.000000 0.000000
# 4 0.000000 0.000000 0.000000 -0.085759 0.000000 0.000000
# 5 0.000000 0.000000 0.000000 0.000000 0.066762 0.000000
# 6 0.000000 0.000000 0.000000 0.000000 0.000000 0.154955
#
#
# Mechanical properties :
#
#
# Convention : Reuss Voigt Hill
#
# Bulk Modulus (GPa) = 32.01830 59.31029 45.66430
# Shear Modulus (GPa) = 16.37762 11.38827 13.88294
#
# Velocity S-wave (km/s) = 3.21283 2.67911 2.95803
# Velocity P-wave (km/s) = 5.82607 6.85212 6.35982
#
# Compressibility (1/GPa) = 0.03123214
#
# Stress axis : x y z
#
# Youngs Moduli (GPa) = 32.31008 18.47314 100.03740
#
# Poissons Ratio (x) = 0.30991 0.32621
# Poissons Ratio (y) = 0.54204 1.18908
# Poissons Ratio (z) = 0.10536 0.21958
#
# Static dielectric constant tensor:
#      x y z
#    x 1.500320 0.000000 0.000000 
#    y 0.000000 1.527940 0.000000 
#    z 0.000000 0.000000 1.555740 
# 
# From -- ./inp_files/25463.got.cif
#   From: 2010.05.17/outbox.cif.g08.bks.cpg/sg51_13_cif.got.tgz:25463.got - 2010.06.03 11:52:47.
