data_PCOD9399091
_publ_section_title
;
Structure prediction by ZEFSAII (Michael W. Deem and Ramdas Pophale) SiO2 
 PCOD9399091
Probable space group: P M M A
;
_chemical_formula_sum "Si O2"
_cell_formula_units_Z 64
_cell_length_a 28.273274
_cell_length_b 7.635028
_cell_length_c 15.271906
_cell_angle_alpha 90.000000
_cell_angle_beta 90.000000
_cell_angle_gamma 90.000000
_cell_volume 3296.704177
_symmetry_space_group_name_H-M "P M M A"
_symmetry_group_IT_number 51
_symmetry_cell_setting 'orthorhombic'
loop_
_space_group_symop_operation_xyz
x,y,z
1/2-x,-y,z
1/2+x,-y,-z
-x,y,-z
-x,-y,-z
1/2+x,y,-z
1/2-x,y,z
x,-y,z
loop_
_atom_site_type_symbol
_atom_site_label
_atom_site_fract_x
_atom_site_fract_y
_atom_site_fract_z
Si Si1 0.889627 0.204338 0.535388
Si Si2 0.891206 0.707200 0.969580
Si Si3 0.967773 0.712428 0.830597
Si Si4 0.586891 0.299000 0.347186
Si Si5 0.521062 0.797015 0.635550
Si Si6 0.803622 0.788869 0.851913
Si Si7 0.077254 0.713716 0.845103
Si Si8 0.304081 0.785908 0.346930
O O1 0.888619 0.215462 0.431066
O O2 0.939441 0.278951 0.570766
O O3 0.843717 0.276267 0.585104
O O4 0.891992 0.000000 0.560515
O O5 0.900842 0.500000 0.976460
O O6 0.931105 0.776950 0.903141
O O7 0.841126 0.730791 0.923333
O O8 0.895903 0.775792 0.068314
O O9 0.965158 0.500000 0.825171
O O10 0.958191 0.784383 0.733721
O O11 0.021761 0.758378 0.854184
O O12 0.602029 0.500000 0.346324
O O13 0.530087 0.291838 0.361889
O O14 0.594433 0.222192 0.250018
O O15 0.511340 0.000000 0.613063
O O16 0.750000 0.729785 0.869490
O O17 0.816430 0.732903 0.752778
O O18 0.803523 0.000000 0.851404
O O19 0.079462 0.500000 0.840426
O O20 0.250000 0.729980 0.365266
O O21 0.303312 0.000000 0.348606
#
# Coordination Sequence:
#
# PCOD9399091 Si02
#       8
#     8   8   8   8   8   8   8   8
#     4  10  19  30  47  70  93 119 154 192 229 273
#     4  10  18  29  49  72  93 121 158 195 229 271
#     4   9  17  29  46  69  96 125 156 190 228 273
#     4  10  20  33  48  65  90 125 161 195 231 272
#     4  10  19  30  45  67  97 128 156 190 230 274
#     4   9  18  33  51  71  97 125 151 184 229 279
#     4   8  16  31  47  64  90 125 160 189 222 268
#     4   8  15  30  51  71  92 121 152 180 220 278
#
# _framework density 19.413329000000001
#
# number of rings (size 3 to 8) (size 9 to 14) (size 15 to 20)
#    0.000    2.750    0.000    3.750    0.000    5.750 
#    0.000    3.750    0.000    5.625    0.000    3.500 
#    0.000    0.000    0.000    0.000    0.000    0.000 
#
# Total GULP energy -357022.697261 kJ/mol
# GULP energy per Si atom -5578.479645 kJ/mol
# Density = 1.936914 g / cm^3
# Si number density = 19.413329 Si / 1000 Ang^3
#
#
#
# Elastic Constant Matrix: (Units=GPa)
#
#
# Indices 1 2 3 4 5 6 
#
# 1 55.8620 -7.0471 70.9047 0.0000 0.0000 0.0000
# 2 -7.0471 34.5627 -5.7196 0.0000 0.0000 0.0000
# 3 70.9047 -5.7196 162.5338 0.0000 0.0000 0.0000
# 4 0.0000 0.0000 0.0000 20.5488 0.0000 0.0000
# 5 0.0000 0.0000 0.0000 0.0000 28.8820 0.0000
# 6 0.0000 0.0000 0.0000 0.0000 0.0000 14.1373
#
#
#
# Elastic Compliance Matrix: (Units=1/GPa)
#
#
# Indices 1 2 3 4 5 6 
#
# 1 0.041106 0.005445 -0.017741 0.000000 0.000000 0.000000
# 2 0.005445 0.029824 -0.001326 0.000000 0.000000 0.000000
# 3 -0.017741 -0.001326 0.013845 0.000000 0.000000 0.000000
# 4 0.000000 0.000000 0.000000 0.048665 0.000000 0.000000
# 5 0.000000 0.000000 0.000000 0.000000 0.034624 0.000000
# 6 0.000000 0.000000 0.000000 0.000000 0.000000 0.070735
#
#
# Mechanical properties :
#
#
# Convention : Reuss Voigt Hill
#
# Bulk Modulus (GPa) = 17.38146 41.02605 29.20376
# Shear Modulus (GPa) = 17.53038 25.70165 21.61602
#
# Velocity S-wave (km/s) = 3.00827 3.64252 3.34048
# Velocity P-wave (km/s) = 4.58683 6.23453 5.47304
#
# Compressibility (1/GPa) = 0.05753257
#
# Stress axis : x y z
#
# Youngs Moduli (GPa) = 24.32716 33.53027 72.22688
#
# Poissons Ratio (x) = -0.18259 1.28136
# Poissons Ratio (y) = -0.13247 0.09578
# Poissons Ratio (z) = 0.43158 0.04446
#
# Static dielectric constant tensor:
#      x y z
#    x 1.658760 0.000000 0.000000 
#    y 0.000000 1.729020 0.000000 
#    z 0.000000 0.000000 1.695590 
# 
# From -- ./inp_files/26619.got.cif
#   From: 2010.05.17/outbox.cif.g08.bks.cpg/sg51_14_cif.got.tgz:26619.got - 2010.06.03 11:52:47.
