data_PCOD9399105
_publ_section_title
;
Structure prediction by ZEFSAII (Michael W. Deem and Ramdas Pophale) SiO2 
 PCOD9399105
Probable space group: P M M A
;
_chemical_formula_sum "Si O2"
_cell_formula_units_Z 64
_cell_length_a 17.985467
_cell_length_b 15.879607
_cell_length_c 11.752195
_cell_angle_alpha 90.000000
_cell_angle_beta 90.000000
_cell_angle_gamma 90.000000
_cell_volume 3356.452132
_symmetry_space_group_name_H-M "P M M A"
_symmetry_group_IT_number 51
_symmetry_cell_setting 'orthorhombic'
loop_
_space_group_symop_operation_xyz
x,y,z
1/2-x,-y,z
1/2+x,-y,-z
-x,y,-z
-x,-y,-z
1/2+x,y,-z
1/2-x,y,z
x,-y,z
loop_
_atom_site_type_symbol
_atom_site_label
_atom_site_fract_x
_atom_site_fract_y
_atom_site_fract_z
Si Si1 0.577280 0.406355 0.567936
Si Si2 0.954470 0.878249 0.162367
Si Si3 0.662295 0.278333 0.419500
Si Si4 0.594377 0.693958 0.172538
Si Si5 0.387632 0.091145 0.086842
Si Si6 0.952140 0.404503 0.836545
Si Si7 0.832755 0.277514 0.941005
Si Si8 0.663213 0.092215 0.360819
O O1 0.500000 0.401233 0.500000
O O2 0.609432 0.500000 0.546217
O O3 0.628133 0.332515 0.520405
O O4 0.560327 0.399290 0.700855
O O5 0.956367 0.777341 0.165453
O O6 0.896232 0.905292 0.258632
O O7 0.039443 0.907093 0.167327
O O8 0.920629 0.905657 0.041556
O O9 0.750000 0.290968 0.414010
O O10 0.627171 0.308550 0.299291
O O11 0.648607 0.177673 0.430451
O O12 0.538525 0.618640 0.143245
O O13 0.656468 0.711336 0.077281
O O14 0.344623 0.179681 0.094471
O O15 0.349413 0.000000 0.101820
O O16 0.936368 0.500000 0.873746
O O17 0.896646 0.336865 0.890634
O O18 0.750000 0.304003 0.907299
O O19 0.750000 0.098892 0.320453
O O20 0.656657 0.000000 0.417323
#
# Coordination Sequence:
#
# PCOD9399105 Si02
#       8
#     8   8   8   8   8   8   8   8
#     4  10  21  39  62  86 109 140 185 237 290 347
#     4   9  16  28  47  77 111 147 188 232 276 326
#     4  10  20  34  58  91 120 148 186 238 294 336
#     4  10  19  36  59  86 117 151 186 232 286 341
#     4  10  18  29  49  76 108 150 194 234 275 323
#     4  11  23  41  65  84 107 150 196 234 283 350
#     4  11  24  39  55  83 121 156 193 235 281 339
#     4   9  17  29  48  78 116 153 187 227 279 339
#
# _framework density 19.067751999999999
#
# number of rings (size 3 to 8) (size 9 to 14) (size 15 to 20)
#    0.000    2.000    2.500    2.250    0.000    5.250 
#    0.000    1.250    0.000    3.375    0.000    1.750 
#    0.000    0.000    0.000    0.000    0.000    0.000 
#
# Total GULP energy -356754.093873 kJ/mol
# GULP energy per Si atom -5574.282717 kJ/mol
# Density = 1.902435 g / cm^3
# Si number density = 19.067752 Si / 1000 Ang^3
#
#
#
# Elastic Constant Matrix: (Units=GPa)
#
#
# Indices 1 2 3 4 5 6 
#
# 1 69.0043 39.3020 8.1186 0.0000 0.0000 0.0000
# 2 39.3020 119.0105 21.2628 0.0000 0.0000 0.0000
# 3 8.1186 21.2628 30.8163 0.0000 0.0000 0.0000
# 4 0.0000 0.0000 0.0000 309.8902 0.0000 0.0000
# 5 0.0000 0.0000 0.0000 0.0000 17.3391 0.0000
# 6 0.0000 0.0000 0.0000 0.0000 0.0000 369.3095
#
#
#
# Elastic Compliance Matrix: (Units=1/GPa)
#
#
# Indices 1 2 3 4 5 6 
#
# 1 0.017863 -0.005770 -0.000725 0.000000 0.000000 0.000000
# 2 -0.005770 0.011448 -0.006379 0.000000 0.000000 0.000000
# 3 -0.000725 -0.006379 0.037043 0.000000 0.000000 0.000000
# 4 0.000000 0.000000 0.000000 0.003227 0.000000 0.000000
# 5 0.000000 0.000000 0.000000 0.000000 0.057673 0.000000
# 6 0.000000 0.000000 0.000000 0.000000 0.000000 0.002708
#
#
# Mechanical properties :
#
#
# Convention : Reuss Voigt Hill
#
# Bulk Modulus (GPa) = 24.62650 39.57756 32.10203
# Shear Modulus (GPa) = 29.54315 149.31760 89.43038
#
# Velocity S-wave (km/s) = 3.94048 8.85884 6.85589
# Velocity P-wave (km/s) = 5.80056 11.20000 8.91870
#
# Compressibility (1/GPa) = 0.04060667
#
# Stress axis : x y z
#
# Youngs Moduli (GPa) = 55.98071 87.35443 26.99590
#
# Poissons Ratio (x) = 0.50400 0.01958
# Poissons Ratio (y) = 0.32299 0.17220
# Poissons Ratio (z) = 0.04059 0.55721
#
# Static dielectric constant tensor:
#      x y z
#    x 1.642680 0.000000 0.000000 
#    y 0.000000 1.711300 0.000000 
#    z 0.000000 0.000000 1.647820 
# 
# From -- ./inp_files/17623.got.cif
#   From: 2010.05.17/outbox.cif.g08.bks.cpg/sg51_9_cif.got.tgz:17623.got - 2010.06.03 11:52:47.
