data_PCOD9399672
_publ_section_title
;
Structure prediction by ZEFSAII (Michael W. Deem and Ramdas Pophale) SiO2 
 PCOD9399672
Probable space group: P M M A
;
_chemical_formula_sum "Si O2"
_cell_formula_units_Z 48
_cell_length_a 8.634696
_cell_length_b 31.875158
_cell_length_c 9.644614
_cell_angle_alpha 90.000000
_cell_angle_beta 90.000000
_cell_angle_gamma 90.000000
_cell_volume 2654.509287
_symmetry_space_group_name_H-M "P M M A"
_symmetry_group_IT_number 51
_symmetry_cell_setting 'orthorhombic'
loop_
_space_group_symop_operation_xyz
x,y,z
1/2-x,-y,z
1/2+x,-y,-z
-x,y,-z
-x,-y,-z
1/2+x,y,-z
1/2-x,y,z
x,-y,z
loop_
_atom_site_type_symbol
_atom_site_label
_atom_site_fract_x
_atom_site_fract_y
_atom_site_fract_z
Si Si1 0.064344 0.840035 0.653928
Si Si2 0.064656 0.256962 0.654120
Si Si3 0.937299 0.591853 0.656678
Si Si4 0.434578 0.087027 0.155857
Si Si5 0.564059 0.329950 0.844862
Si Si6 0.564981 0.000000 0.157643
Si Si7 0.063423 0.500000 0.343586
O O1 0.250000 0.844547 0.655384
O O2 0.026768 0.791521 0.688850
O O3 0.000000 0.847600 0.500000
O O4 0.988857 0.873129 0.757068
O O5 0.250000 0.261222 0.651339
O O6 0.000000 0.265727 0.500000
O O7 0.993974 0.289006 0.763509
O O8 0.750000 0.592822 0.648983
O O9 0.987951 0.629432 0.756037
O O10 0.984965 0.545585 0.713030
O O11 0.000000 0.596941 0.500000
O O12 0.250000 0.084073 0.150387
O O13 0.502324 0.043610 0.218382
O O14 0.500000 0.091010 0.000000
O O15 0.750000 0.329818 0.849000
O O16 0.500000 0.331245 0.000000
O O17 0.750000 0.000000 0.155310
O O18 0.500000 0.000000 0.000000
O O19 0.250000 0.500000 0.345489
O O20 0.000000 0.500000 0.500000
#
# Coordination Sequence:
#
# PCOD9399672 Si02
#       7
#     8   8   8   8   8   4   4
#     4  10  21  38  58  82 110 141 176 217 267 321
#     4  10  21  38  60  82 106 138 177 218 263 318
#     4   9  18  32  53  78 103 135 173 216 262 314
#     4  11  21  35  56  82 111 145 184 225 268 316
#     4  11  23  37  53  76 107 141 178 220 269 318
#     4  10  18  32  53  78 109 144 183 226 268 314
#     4   8  14  28  49  74 102 130 168 214 259 306
#
# _framework density 18.082436999999999
#
# number of rings (size 3 to 8) (size 9 to 14) (size 15 to 20)
#    0.000    2.000    0.000    5.250    0.000    5.333 
#    0.000    0.833    0.000    0.000    0.000    0.000 
#    0.000    0.000    0.000    0.000    0.000    0.000 
#
# Total GULP energy -267871.595617 kJ/mol
# GULP energy per Si atom -5580.658242 kJ/mol
# Density = 1.804128 g / cm^3
# Si number density = 18.082437 Si / 1000 Ang^3
#
#
#
# Elastic Constant Matrix: (Units=GPa)
#
#
# Indices 1 2 3 4 5 6 
#
# 1 88.9455 65.8015 42.3083 0.0000 0.0000 0.0000
# 2 65.8015 172.4572 103.6607 0.0000 0.0000 0.0000
# 3 42.3083 103.6607 97.8246 0.0000 0.0000 0.0000
# 4 0.0000 0.0000 0.0000 -441.9186 0.0000 0.0000
# 5 0.0000 0.0000 0.0000 0.0000 30.2991 0.0000
# 6 0.0000 0.0000 0.0000 0.0000 0.0000 28.6836
#
#
#
# Elastic Compliance Matrix: (Units=1/GPa)
#
#
# Indices 1 2 3 4 5 6 
#
# 1 0.015717 -0.005264 -0.001220 0.000000 0.000000 0.000000
# 2 -0.005264 0.017734 -0.016516 0.000000 0.000000 0.000000
# 3 -0.001220 -0.016516 0.028251 0.000000 0.000000 0.000000
# 4 0.000000 0.000000 0.000000 -0.002263 0.000000 0.000000
# 5 0.000000 0.000000 0.000000 0.000000 0.033004 0.000000
# 6 0.000000 0.000000 0.000000 0.000000 0.000000 0.034863
#
#
# Mechanical properties :
#
#
# Convention : Reuss Voigt Hill
#
# Bulk Modulus (GPa) = 63.67853 86.97425 75.32639
# Shear Modulus (GPa) = 28.00503 -66.75670 -19.37584
#
# Velocity S-wave (km/s) = 3.93968 -6.08261 -3.27697
# Velocity P-wave (km/s) = 7.48244 1.06192 5.23733
#
# Compressibility (1/GPa) = 0.01570388
#
# Stress axis : x y z
#
# Youngs Moduli (GPa) = 63.62485 56.38836 35.39721
#
# Poissons Ratio (x) = 0.29681 0.04318
# Poissons Ratio (y) = 0.33491 0.58461
# Poissons Ratio (z) = 0.07761 0.93129
#
# Static dielectric constant tensor:
#      x y z
#    x 1.610060 0.000000 0.000000 
#    y 0.000000 1.658030 0.000000 
#    z 0.000000 0.000000 1.555790 
# 
# From -- ./inp_files/6235.got.cif
#   From: 2010.05.17/outbox.cif.g08.bks.cpg/sg51_4_cif.got.tgz:6235.got - 2010.06.03 11:52:47.
