data_PCOD9399073
_publ_section_title
;
Structure prediction by ZEFSAII (Michael W. Deem and Ramdas Pophale) SiO2 
 PCOD9399073
Probable space group: P M M A
;
_chemical_formula_sum "Si O2"
_cell_formula_units_Z 44
_cell_length_a 9.925605
_cell_length_b 13.385094
_cell_length_c 18.694583
_cell_angle_alpha 90.000000
_cell_angle_beta 90.000000
_cell_angle_gamma 90.000000
_cell_volume 2483.671740
_symmetry_space_group_name_H-M "P M M A"
_symmetry_group_IT_number 51
_symmetry_cell_setting 'orthorhombic'
loop_
_space_group_symop_operation_xyz
x,y,z
1/2-x,-y,z
1/2+x,-y,-z
-x,y,-z
-x,-y,-z
1/2+x,y,-z
1/2-x,y,z
x,-y,z
loop_
_atom_site_type_symbol
_atom_site_label
_atom_site_fract_x
_atom_site_fract_y
_atom_site_fract_z
Si Si1 0.099922 0.000000 0.215505
Si Si2 0.905552 0.698596 0.832970
Si Si3 0.095409 0.200695 0.309781
Si Si4 0.608467 0.000000 0.090186
Si Si5 0.593311 0.500000 0.928561
Si Si6 0.590105 0.117959 0.428521
Si Si7 0.599107 0.219788 0.058827
O O1 0.085077 0.098865 0.263299
O O2 0.250000 0.000000 0.186304
O O3 0.005348 0.000000 0.148129
O O4 0.750000 0.731532 0.848443
O O5 0.919960 0.709116 0.747444
O O6 0.924713 0.594522 0.874907
O O7 0.021371 0.766682 0.867166
O O8 0.250000 0.204115 0.338456
O O9 0.982104 0.187781 0.369774
O O10 0.609085 0.101485 0.045934
O O11 0.750000 0.000000 0.132068
O O12 0.750000 0.500000 0.952165
O O13 0.500000 0.500000 0.000000
O O14 0.500000 0.127776 0.500000
O O15 0.750000 0.138808 0.438642
O O16 0.580207 0.000000 0.407112
O O17 0.750000 0.261749 0.057780
O O18 0.500000 0.264993 0.000000
#
# Coordination Sequence:
#
# PCOD9399073 Si02
#       7
#     4   8   8   4   4   8   8
#     4  10  18  29  48  71  99 135 171 209 252 305
#     4  10  21  37  56  77 100 130 169 215 268 324
#     4  10  19  32  51  75 104 138 174 212 256 307
#     4  10  21  33  45  65  95 129 166 207 248 297
#     4  10  22  40  60  80 103 132 171 222 281 334
#     4  10  20  32  49  75 110 150 186 217 249 292
#     4  11  22  34  48  68  95 128 166 208 253 306
#
# _framework density 17.715706999999998
#
# number of rings (size 3 to 8) (size 9 to 14) (size 15 to 20)
#    0.000    1.818    2.727    1.909    0.000    5.091 
#    0.000    0.000    0.000    0.000    0.000    0.636 
#    0.000    0.000    0.000    0.000    0.000    0.000 
#
# Total GULP energy -245066.268263 kJ/mol
# GULP energy per Si atom -5569.687915 kJ/mol
# Density = 1.767538 g / cm^3
# Si number density = 17.715707 Si / 1000 Ang^3
#
#
#
# Elastic Constant Matrix: (Units=GPa)
#
#
# Indices 1 2 3 4 5 6 
#
# 1 160.1574 22.8280 77.5189 0.0000 0.0000 0.0000
# 2 22.8280 64.2496 20.8255 0.0000 0.0000 0.0000
# 3 77.5189 20.8255 77.8432 0.0000 0.0000 0.0000
# 4 0.0000 0.0000 0.0000 21.6546 0.0000 0.0000
# 5 0.0000 0.0000 0.0000 0.0000 27.9404 0.0000
# 6 0.0000 0.0000 0.0000 0.0000 0.0000 10.3321
#
#
#
# Elastic Compliance Matrix: (Units=1/GPa)
#
#
# Indices 1 2 3 4 5 6 
#
# 1 0.012065 -0.000430 -0.011899 0.000000 0.000000 0.000000
# 2 -0.000430 0.017057 -0.004136 0.000000 0.000000 0.000000
# 3 -0.011899 -0.004136 0.025803 0.000000 0.000000 0.000000
# 4 0.000000 0.000000 0.000000 0.046180 0.000000 0.000000
# 5 0.000000 0.000000 0.000000 0.000000 0.035790 0.000000
# 6 0.000000 0.000000 0.000000 0.000000 0.000000 0.096786
#
#
# Mechanical properties :
#
#
# Convention : Reuss Voigt Hill
#
# Bulk Modulus (GPa) = 45.46407 60.51057 52.98732
# Shear Modulus (GPa) = 18.25206 24.05727 21.15466
#
# Velocity S-wave (km/s) = 3.21327 3.68905 3.45935
# Velocity P-wave (km/s) = 6.28376 7.23713 6.77723
#
# Compressibility (1/GPa) = 0.02199539
#
# Stress axis : x y z
#
# Youngs Moduli (GPa) = 82.88708 58.62549 38.75578
#
# Poissons Ratio (x) = 0.02518 0.46117
# Poissons Ratio (y) = 0.03560 0.16028
# Poissons Ratio (z) = 0.98631 0.24245
#
# Static dielectric constant tensor:
#      x y z
#    x 1.637900 0.000000 0.000000 
#    y 0.000000 1.658290 0.000000 
#    z 0.000000 0.000000 1.609750 
# 
# From -- ./inp_files/27471.got.cif
#   From: 2010.05.17/outbox.cif.g08.bks.cpg/sg51_14_cif.got.tgz:27471.got - 2010.06.03 11:52:47.
