data_PCOD9399424
_publ_section_title
;
Structure prediction by ZEFSAII (Michael W. Deem and Ramdas Pophale) SiO2 
 PCOD9399424
Probable space group: P M M A
;
_chemical_formula_sum "Si O2"
_cell_formula_units_Z 44
_cell_length_a 9.687246
_cell_length_b 27.885953
_cell_length_c 8.920536
_cell_angle_alpha 90.000000
_cell_angle_beta 90.000000
_cell_angle_gamma 90.000000
_cell_volume 2409.776527
_symmetry_space_group_name_H-M "P M M A"
_symmetry_group_IT_number 51
_symmetry_cell_setting 'orthorhombic'
loop_
_space_group_symop_operation_xyz
x,y,z
1/2-x,-y,z
1/2+x,-y,-z
-x,y,-z
-x,-y,-z
1/2+x,y,-z
1/2-x,y,z
x,-y,z
loop_
_atom_site_type_symbol
_atom_site_label
_atom_site_fract_x
_atom_site_fract_y
_atom_site_fract_z
Si Si1 0.078165 0.000000 0.335635
Si Si2 0.750000 0.444455 0.802299
Si Si3 0.590082 0.812818 0.147950
Si Si4 0.083768 0.280925 0.653616
Si Si5 0.250000 0.446391 0.833941
Si Si6 0.582955 0.091347 0.344014
Si Si7 0.502930 0.378058 0.180793
O O1 0.006790 0.952014 0.269872
O O2 0.000000 0.000000 0.500000
O O3 0.750000 0.000000 0.660498
O O4 0.750000 0.500000 0.747046
O O5 0.624725 0.409553 0.765008
O O6 0.750000 0.448979 0.984347
O O7 0.750000 0.808556 0.104040
O O8 0.556520 0.766490 0.248238
O O9 0.575070 0.861031 0.245212
O O10 0.500000 0.814634 0.000000
O O11 0.250000 0.284548 0.630684
O O12 0.029641 0.327764 0.740652
O O13 0.000000 0.277138 0.500000
O O14 0.250000 0.500000 0.775563
O O15 0.376727 0.415001 0.786390
O O16 0.500000 0.100473 0.500000
O O17 0.750000 0.080187 0.366200
O O18 0.500000 0.370437 0.000000
#
# Coordination Sequence:
#
# PCOD9399424 Si02
#       7
#     4   4   8   8   4   8   8
#     4  10  18  30  53  84 119 158 200 240 282 334
#     4   9  18  30  53  87 115 141 183 228 277 332
#     4  10  23  41  61  86 116 148 189 237 288 342
#     4  11  24  41  59  83 112 147 188 232 283 340
#     4   9  16  30  53  83 113 147 181 228 277 324
#     4  10  19  34  57  86 120 156 197 240 284 335
#     4  10  19  34  57  83 115 145 185 232 277 330
#
# _framework density 18.258955
#
# number of rings (size 3 to 8) (size 9 to 14) (size 15 to 20)
#    0.000    2.000    0.909    4.091    1.273    4.364 
#    0.000    0.455    0.000    3.273    0.000    0.000 
#    0.000    0.000    0.000    0.000    0.000    0.000 
#
# Total GULP energy -245002.223605 kJ/mol
# GULP energy per Si atom -5568.232355 kJ/mol
# Density = 1.821740 g / cm^3
# Si number density = 18.258955 Si / 1000 Ang^3
#
#
#
# Elastic Constant Matrix: (Units=GPa)
#
#
# Indices 1 2 3 4 5 6 
#
# 1 172.1403 94.5766 60.8911 0.0000 0.0000 0.0000
# 2 94.5766 187.2489 61.0564 0.0000 0.0000 0.0000
# 3 60.8911 61.0564 72.5338 0.0000 0.0000 0.0000
# 4 0.0000 0.0000 0.0000 25.0231 0.0000 0.0000
# 5 0.0000 0.0000 0.0000 0.0000 27.9737 0.0000
# 6 0.0000 0.0000 0.0000 0.0000 0.0000 31.7370
#
#
#
# Elastic Compliance Matrix: (Units=1/GPa)
#
#
# Indices 1 2 3 4 5 6 
#
# 1 0.009328 -0.002974 -0.005327 0.000000 0.000000 0.000000
# 2 -0.002974 0.008309 -0.004498 0.000000 0.000000 0.000000
# 3 -0.005327 -0.004498 0.022044 0.000000 0.000000 0.000000
# 4 0.000000 0.000000 0.000000 0.039963 0.000000 0.000000
# 5 0.000000 0.000000 0.000000 0.000000 0.035748 0.000000
# 6 0.000000 0.000000 0.000000 0.000000 0.000000 0.031509
#
#
# Mechanical properties :
#
#
# Convention : Reuss Voigt Hill
#
# Bulk Modulus (GPa) = 71.00277 96.10789 83.55533
# Shear Modulus (GPa) = 28.21785 31.30668 29.76226
#
# Velocity S-wave (km/s) = 3.93545 4.14526 4.04172
# Velocity P-wave (km/s) = 7.72149 8.69834 8.22443
#
# Compressibility (1/GPa) = 0.01408396
#
# Stress axis : x y z
#
# Youngs Moduli (GPa) = 107.20921 120.34703 45.36340
#
# Poissons Ratio (x) = 0.35795 0.24164
# Poissons Ratio (y) = 0.31888 0.20402
# Poissons Ratio (z) = 0.57107 0.54127
#
# Static dielectric constant tensor:
#      x y z
#    x 1.577120 0.000000 0.000000 
#    y 0.000000 1.635820 0.000000 
#    z 0.000000 0.000000 1.624440 
# 
# From -- ./inp_files/5920.got.cif
#   From: 2010.05.17/outbox.cif.g08.bks.cpg/sg51_3_cif.got.tgz:5920.got - 2010.06.03 11:52:47.
