data_PCOD9399627
_publ_section_title
;
Structure prediction by ZEFSAII (Michael W. Deem and Ramdas Pophale) SiO2 
 PCOD9399627
Probable space group: P M M A
;
_chemical_formula_sum "Si O2"
_cell_formula_units_Z 52
_cell_length_a 9.056053
_cell_length_b 19.100564
_cell_length_c 15.926603
_cell_angle_alpha 90.000000
_cell_angle_beta 90.000000
_cell_angle_gamma 90.000000
_cell_volume 2754.915620
_symmetry_space_group_name_H-M "P M M A"
_symmetry_group_IT_number 51
_symmetry_cell_setting 'orthorhombic'
loop_
_space_group_symop_operation_xyz
x,y,z
1/2-x,-y,z
1/2+x,-y,-z
-x,y,-z
-x,-y,-z
1/2+x,y,-z
1/2-x,y,z
x,-y,z
loop_
_atom_site_type_symbol
_atom_site_label
_atom_site_fract_x
_atom_site_fract_y
_atom_site_fract_z
Si Si1 0.080847 0.891160 0.415506
Si Si2 0.412635 0.917210 0.078393
Si Si3 0.928825 0.644386 0.906992
Si Si4 0.070230 0.500000 0.906615
Si Si5 0.421232 0.720291 0.413480
Si Si6 0.420062 0.278089 0.758411
Si Si7 0.917271 0.109542 0.248056
O O1 0.250000 0.913081 0.415444
O O2 0.077779 0.805684 0.414395
O O3 0.000000 0.913689 0.500000
O O4 0.999105 0.914625 0.331686
O O5 0.250000 0.885764 0.085816
O O6 0.499097 0.911269 0.164381
O O7 0.396932 0.000000 0.061606
O O8 0.500000 0.885467 0.000000
O O9 0.750000 0.639989 0.913501
O O10 0.001331 0.571845 0.872271
O O11 0.982707 0.700825 0.838908
O O12 0.000000 0.656617 0.000000
O O13 0.250000 0.500000 0.907453
O O14 0.000000 0.500000 0.000000
O O15 0.500000 0.697969 0.500000
O O16 0.250000 0.698634 0.411273
O O17 0.506722 0.697314 0.329264
O O18 0.250000 0.302653 0.767427
O O19 0.415532 0.194028 0.751866
O O20 0.750000 0.084439 0.246638
#
# Coordination Sequence:
#
# PCOD9399627 Si02
#       7
#     8   8   8   4   8   8   8
#     4   9  16  27  45  69  98 129 162 197 237 287
#     4  10  21  37  56  75  95 123 162 205 246 291
#     4  11  21  34  51  72  99 132 168 205 245 291
#     4  10  18  32  52  72  95 126 165 206 244 286
#     4   9  16  27  44  67  95 129 164 201 242 286
#     4  10  20  33  48  72 103 133 165 202 246 294
#     4  10  20  33  51  74 101 131 163 201 246 294
#
# _framework density 18.875350999999998
#
# number of rings (size 3 to 8) (size 9 to 14) (size 15 to 20)
#    0.000    2.154    0.000    5.308    0.000    7.077 
#    0.000    0.000    0.000    0.462    0.000    0.538 
#    0.000    0.000    0.000    0.000    0.000    0.000 
#
# Total GULP energy -290116.319400 kJ/mol
# GULP energy per Si atom -5579.159988 kJ/mol
# Density = 1.883239 g / cm^3
# Si number density = 18.875351 Si / 1000 Ang^3
#
#
#
# Elastic Constant Matrix: (Units=GPa)
#
#
# Indices 1 2 3 4 5 6 
#
# 1 222.0173 16.3390 105.9198 0.0000 0.0000 0.0000
# 2 16.3390 29.6691 10.5102 0.0000 0.0000 0.0000
# 3 105.9198 10.5102 167.5479 0.0000 0.0000 0.0000
# 4 0.0000 0.0000 0.0000 16.6480 0.0000 0.0000
# 5 0.0000 0.0000 0.0000 0.0000 38.1563 0.0000
# 6 0.0000 0.0000 0.0000 0.0000 0.0000 11.0985
#
#
#
# Elastic Compliance Matrix: (Units=1/GPa)
#
#
# Indices 1 2 3 4 5 6 
#
# 1 0.006587 -0.002201 -0.004026 0.000000 0.000000 0.000000
# 2 -0.002201 0.035207 -0.000817 0.000000 0.000000 0.000000
# 3 -0.004026 -0.000817 0.008565 0.000000 0.000000 0.000000
# 4 0.000000 0.000000 0.000000 0.060067 0.000000 0.000000
# 5 0.000000 0.000000 0.000000 0.000000 0.026208 0.000000
# 6 0.000000 0.000000 0.000000 0.000000 0.000000 0.090102
#
#
# Mechanical properties :
#
#
# Convention : Reuss Voigt Hill
#
# Bulk Modulus (GPa) = 27.57090 76.08580 51.82835
# Shear Modulus (GPa) = 19.76954 32.27823 26.02388
#
# Velocity S-wave (km/s) = 3.23983 4.13979 3.71714
# Velocity P-wave (km/s) = 5.35106 7.95284 6.77796
#
# Compressibility (1/GPa) = 0.03627012
#
# Stress axis : x y z
#
# Youngs Moduli (GPa) = 151.81737 28.40367 116.75671
#
# Poissons Ratio (x) = 0.06252 0.47006
# Poissons Ratio (y) = 0.33419 0.09538
# Poissons Ratio (z) = 0.61121 0.02320
#
# Static dielectric constant tensor:
#      x y z
#    x 1.660070 0.000000 0.000000 
#    y 0.000000 1.713030 0.000000 
#    z 0.000000 0.000000 1.625380 
# 
# From -- ./inp_files/21557.got.cif
#   From: 2010.05.17/outbox.cif.g08.bks.cpg/sg51_11_cif.got.tgz:21557.got - 2010.06.03 11:52:47.
