data_PCOD9399677
_publ_section_title
;
Structure prediction by ZEFSAII (Michael W. Deem and Ramdas Pophale) SiO2 
 PCOD9399677
Probable space group: P M M A
;
_chemical_formula_sum "Si O2"
_cell_formula_units_Z 64
_cell_length_a 21.984476
_cell_length_b 7.537215
_cell_length_c 17.440542
_cell_angle_alpha 90.000000
_cell_angle_beta 90.000000
_cell_angle_gamma 90.000000
_cell_volume 2889.927847
_symmetry_space_group_name_H-M "P M M A"
_symmetry_group_IT_number 51
_symmetry_cell_setting 'orthorhombic'
loop_
_space_group_symop_operation_xyz
x,y,z
1/2-x,-y,z
1/2+x,-y,-z
-x,y,-z
-x,-y,-z
1/2+x,y,-z
1/2-x,y,z
x,-y,z
loop_
_atom_site_type_symbol
_atom_site_label
_atom_site_fract_x
_atom_site_fract_y
_atom_site_fract_z
Si Si1 0.115197 0.288017 0.273992
Si Si2 0.566182 0.217479 0.399845
Si Si3 0.929603 0.792200 0.568286
Si Si4 0.380145 0.797698 0.757412
Si Si5 0.420109 0.801569 0.020696
Si Si6 0.318816 0.218472 0.904658
Si Si7 0.504159 0.289811 0.835250
Si Si8 0.684142 0.714849 0.865959
O O1 0.110849 0.500000 0.275514
O O2 0.114928 0.228214 0.360838
O O3 0.056880 0.226552 0.223646
O O4 0.172836 0.241152 0.222587
O O5 0.589382 0.273557 0.484261
O O6 0.495397 0.277315 0.402838
O O7 0.601925 0.282852 0.324949
O O8 0.566639 0.000000 0.393604
O O9 0.939929 0.000000 0.556322
O O10 0.331251 0.723283 0.817088
O O11 0.442605 0.798381 0.806817
O O12 0.360861 0.000000 0.742617
O O13 0.476057 0.734884 0.075259
O O14 0.367795 0.803107 0.085490
O O15 0.434287 0.000000 0.995345
O O16 0.377720 0.715290 0.953934
O O17 0.250000 0.271308 0.928597
O O18 0.320522 0.000000 0.908286
O O19 0.497451 0.500000 0.825067
O O20 0.750000 0.769438 0.892169
O O21 0.677826 0.500000 0.874074
#
# Coordination Sequence:
#
# PCOD9399677 Si02
#       8
#     8   8   8   8   8   8   8   8
#     4   9  17  28  43  66  95 125 156 193 235 282
#     4   8  15  26  44  70  95 123 157 192 235 286
#     4   9  15  26  44  67  96 125 155 193 235 284
#     4  10  18  32  54  73  95 129 166 198 240 298
#     4  10  19  32  51  73  98 126 160 202 244 289
#     4   9  19  34  52  75  98 122 161 212 249 277
#     4  10  20  33  48  72 105 131 156 194 244 295
#     4   9  18  32  48  67  95 130 165 201 242 287
#
# _framework density 22.145883000000001
#
# number of rings (size 3 to 8) (size 9 to 14) (size 15 to 20)
#    0.000    2.750    1.250    2.625    0.000    3.250 
#    0.000    5.625    0.000    2.625    0.000    1.750 
#    0.000    0.000    0.000    0.000    0.000    0.000 
#
# Total GULP energy -356557.621976 kJ/mol
# GULP energy per Si atom -5571.212843 kJ/mol
# Density = 2.209548 g / cm^3
# Si number density = 22.145883 Si / 1000 Ang^3
#
#
#
# Elastic Constant Matrix: (Units=GPa)
#
#
# Indices 1 2 3 4 5 6 
#
# 1 37.7190 -4.6584 17.7690 0.0000 0.0000 0.0000
# 2 -4.6584 51.0465 -6.3560 0.0000 0.0000 0.0000
# 3 17.7690 -6.3560 183.3629 0.0000 0.0000 0.0000
# 4 0.0000 0.0000 0.0000 25.5854 0.0000 0.0000
# 5 0.0000 0.0000 0.0000 0.0000 17.3381 0.0000
# 6 0.0000 0.0000 0.0000 0.0000 0.0000 0.4980
#
#
#
# Elastic Compliance Matrix: (Units=1/GPa)
#
#
# Indices 1 2 3 4 5 6 
#
# 1 0.028030 0.002229 -0.002639 0.000000 0.000000 0.000000
# 2 0.002229 0.019852 0.000472 0.000000 0.000000 0.000000
# 3 -0.002639 0.000472 0.005726 0.000000 0.000000 0.000000
# 4 0.000000 0.000000 0.000000 0.039085 0.000000 0.000000
# 5 0.000000 0.000000 0.000000 0.000000 0.057676 0.000000
# 6 0.000000 0.000000 0.000000 0.000000 0.000000 2.008088
#
#
# Mechanical properties :
#
#
# Convention : Reuss Voigt Hill
#
# Bulk Modulus (GPa) = 18.61041 31.73750 25.17396
# Shear Modulus (GPa) = 2.29754 26.37590 14.33672
#
# Velocity S-wave (km/s) = 1.01966 3.45484 2.54712
# Velocity P-wave (km/s) = 3.13178 5.50243 4.47688
#
# Compressibility (1/GPa) = 0.05373337
#
# Stress axis : x y z
#
# Youngs Moduli (GPa) = 35.67553 50.37221 174.64904
#
# Poissons Ratio (x) = -0.11230 0.46091
# Poissons Ratio (y) = -0.07954 -0.08245
# Poissons Ratio (z) = 0.09415 -0.02378
#
# Static dielectric constant tensor:
#      x y z
#    x 1.825390 0.000000 0.000000 
#    y 0.000000 1.850910 0.000000 
#    z 0.000000 0.000000 1.883470 
# 
# From -- ./inp_files/30901.got.cif
#   From: 2010.05.17/outbox.cif.g08.bks.cpg/sg51_16_cif.got.tgz:30901.got - 2010.06.03 11:52:47.
