data_PCOD9399027
_publ_section_title
;
Structure prediction by ZEFSAII (Michael W. Deem and Ramdas Pophale) SiO2 
 PCOD9399027
Probable space group: P M M A
;
_chemical_formula_sum "Si O2"
_cell_formula_units_Z 64
_cell_length_a 16.617886
_cell_length_b 14.650603
_cell_length_c 15.737157
_cell_angle_alpha 90.000000
_cell_angle_beta 90.000000
_cell_angle_gamma 90.000000
_cell_volume 3831.400512
_symmetry_space_group_name_H-M "P M M A"
_symmetry_group_IT_number 51
_symmetry_cell_setting 'orthorhombic'
loop_
_space_group_symop_operation_xyz
x,y,z
1/2-x,-y,z
1/2+x,-y,-z
-x,y,-z
-x,-y,-z
1/2+x,y,-z
1/2-x,y,z
x,-y,z
loop_
_atom_site_type_symbol
_atom_site_label
_atom_site_fract_x
_atom_site_fract_y
_atom_site_fract_z
Si Si1 0.153450 0.272223 0.638919
Si Si2 0.389091 0.606839 0.802015
Si Si3 0.916445 0.106186 0.450062
Si Si4 0.339715 0.609927 0.987283
Si Si5 0.844194 0.099722 0.627569
Si Si6 0.347870 0.603837 0.477576
Si Si7 0.077514 0.394115 0.155170
Si Si8 0.847259 0.289464 0.690560
O O1 0.250000 0.256520 0.636472
O O2 0.132721 0.328334 0.723771
O O3 0.106177 0.177771 0.622603
O O4 0.130153 0.335909 0.558659
O O5 0.365350 0.500000 0.785389
O O6 0.350861 0.640930 0.890628
O O7 0.484138 0.607684 0.820986
O O8 0.852193 0.116548 0.526739
O O9 0.000000 0.124815 0.500000
O O10 0.917067 0.000000 0.422924
O O11 0.250000 0.632792 0.017920
O O12 0.346297 0.500000 0.980469
O O13 0.403504 0.637161 0.059048
O O14 0.750000 0.095046 0.648261
O O15 0.878291 0.186579 0.676413
O O16 0.881241 0.000000 0.644733
O O17 0.250000 0.601682 0.475654
O O18 0.376666 0.500000 0.484311
O O19 0.374917 0.650525 0.390080
O O20 0.104874 0.500000 0.161752
O O21 0.124273 0.333890 0.222917
O O22 0.750000 0.287896 0.688055
#
# Coordination Sequence:
#
# PCOD9399027 Si02
#       8
#     8   8   8   8   8   8   8   8
#     4  11  21  33  51  74  99 135 175 209 248 300
#     4  10  21  34  49  72 104 138 171 211 255 303
#     4  10  21  35  52  73  99 132 170 214 260 299
#     4   9  17  32  53  73  95 127 169 215 257 301
#     4   9  17  31  50  69  92 124 164 210 255 298
#     4   9  17  28  42  63  94 129 165 202 238 282
#     4  10  20  32  48  72 102 135 168 207 256 305
#     4  10  18  29  46  70  97 130 169 210 255 302
#
# _framework density 16.704073999999999
#
# number of rings (size 3 to 8) (size 9 to 14) (size 15 to 20)
#    0.000    2.250    1.250    2.250    1.750    4.750 
#    0.000    0.000    0.000    3.000    0.000    0.875 
#    0.000    5.000    0.000    0.000    0.000    0.000 
#
# Total GULP energy -356797.942527 kJ/mol
# GULP energy per Si atom -5574.967852 kJ/mol
# Density = 1.666605 g / cm^3
# Si number density = 16.704074 Si / 1000 Ang^3
#
#
#
# Elastic Constant Matrix: (Units=GPa)
#
#
# Indices 1 2 3 4 5 6 
#
# 1 31.8143 27.3201 23.9469 0.0000 0.0000 0.0000
# 2 27.3201 98.3918 52.2109 0.0000 0.0000 0.0000
# 3 23.9469 52.2109 107.0172 0.0000 0.0000 0.0000
# 4 0.0000 0.0000 0.0000 7.7964 0.0000 0.0000
# 5 0.0000 0.0000 0.0000 0.0000 -23.0400 0.0000
# 6 0.0000 0.0000 0.0000 0.0000 0.0000 13.6644
#
#
#
# Elastic Compliance Matrix: (Units=1/GPa)
#
#
# Indices 1 2 3 4 5 6 
#
# 1 0.043285 -0.009282 -0.005157 0.000000 0.000000 0.000000
# 2 -0.009282 0.015704 -0.005585 0.000000 0.000000 0.000000
# 3 -0.005157 -0.005585 0.013223 0.000000 0.000000 0.000000
# 4 0.000000 0.000000 0.000000 0.128265 0.000000 0.000000
# 5 0.000000 0.000000 0.000000 0.000000 -0.043403 0.000000
# 6 0.000000 0.000000 0.000000 0.000000 0.000000 0.073183
#
#
# Mechanical properties :
#
#
# Convention : Reuss Voigt Hill
#
# Bulk Modulus (GPa) = 31.09043 49.35325 40.22184
# Shear Modulus (GPa) = 17.79188 8.60051 13.19619
#
# Velocity S-wave (km/s) = 3.26716 2.27155 2.81374
# Velocity P-wave (km/s) = 5.73457 6.04067 5.88961
#
# Compressibility (1/GPa) = 0.03216424
#
# Stress axis : x y z
#
# Youngs Moduli (GPa) = 23.10251 63.67690 75.62626
#
# Poissons Ratio (x) = 0.59106 0.39002
# Poissons Ratio (y) = 0.21444 0.42235
# Poissons Ratio (z) = 0.11915 0.35561
#
# Static dielectric constant tensor:
#      x y z
#    x 1.616630 0.000000 0.000000 
#    y 0.000000 1.575260 0.000000 
#    z 0.000000 0.000000 1.547750 
# 
# From -- ./inp_files/25337.got.cif
#   From: 2010.05.17/outbox.cif.g08.bks.cpg/sg51_13_cif.got.tgz:25337.got - 2010.06.03 11:52:47.
