data_PCOD9399317
_publ_section_title
;
Structure prediction by ZEFSAII (Michael W. Deem and Ramdas Pophale) SiO2 
 PCOD9399317
Probable space group: P M M A
;
_chemical_formula_sum "Si O2"
_cell_formula_units_Z 48
_cell_length_a 14.444844
_cell_length_b 12.133490
_cell_length_c 14.632504
_cell_angle_alpha 90.000000
_cell_angle_beta 90.000000
_cell_angle_gamma 90.000000
_cell_volume 2564.585863
_symmetry_space_group_name_H-M "P M M A"
_symmetry_group_IT_number 51
_symmetry_cell_setting 'orthorhombic'
loop_
_space_group_symop_operation_xyz
x,y,z
1/2-x,-y,z
1/2+x,-y,-z
-x,y,-z
-x,-y,-z
1/2+x,y,-z
1/2-x,y,z
x,-y,z
loop_
_atom_site_type_symbol
_atom_site_label
_atom_site_fract_x
_atom_site_fract_y
_atom_site_fract_z
Si Si1 0.518926 0.371000 0.102768
Si Si2 0.362614 0.247920 0.746419
Si Si3 0.139699 0.622864 0.245429
Si Si4 0.403413 0.372379 0.556936
Si Si5 0.353178 0.780996 0.400756
Si Si6 0.135549 0.000000 0.486426
Si Si7 0.637876 0.000000 0.301834
O O1 0.548267 0.500000 0.098753
O O2 0.591135 0.303800 0.164815
O O3 0.420953 0.367918 0.155570
O O4 0.500000 0.331475 0.000000
O O5 0.250000 0.255193 0.748347
O O6 0.396781 0.313096 0.655241
O O7 0.389930 0.118256 0.740024
O O8 0.250000 0.632561 0.230057
O O9 0.123685 0.500000 0.285344
O O10 0.106146 0.713039 0.317398
O O11 0.500000 0.371333 0.500000
O O12 0.375510 0.500000 0.566754
O O13 0.344899 0.299235 0.487108
O O14 0.250000 0.812011 0.369755
O O15 0.399368 0.891652 0.435344
O O16 0.110220 0.000000 0.592007
O O17 0.250000 0.000000 0.486379
O O18 0.750000 0.000000 0.299020
#
# Coordination Sequence:
#
# PCOD9399317 Si02
#       7
#     8   8   8   8   8   4   4
#     4  10  22  40  60  84 114 144 183 243 304 354
#     4  11  22  38  61  86 115 154 199 243 291 349
#     4   9  18  34  56  80 109 148 188 227 283 350
#     4  11  22  33  47  73 113 152 184 225 273 326
#     4  10  18  30  50  74 103 139 178 217 260 317
#     4   9  16  30  50  74 107 146 183 221 263 311
#     4   9  18  36  57  80 115 156 196 239 284 334
#
# _framework density 18.716472
#
# number of rings (size 3 to 8) (size 9 to 14) (size 15 to 20)
#    0.000    2.000    1.667    2.500    0.000    6.333 
#    0.000    6.250    0.000    0.000    0.000    3.500 
#    0.000    0.000    0.000    0.000    0.000    0.000 
#
# Total GULP energy -267683.872713 kJ/mol
# GULP energy per Si atom -5576.747348 kJ/mol
# Density = 1.867387 g / cm^3
# Si number density = 18.716472 Si / 1000 Ang^3
#
#
#
# Elastic Constant Matrix: (Units=GPa)
#
#
# Indices 1 2 3 4 5 6 
#
# 1 66.2046 35.1914 27.1137 0.0000 0.0000 0.0000
# 2 35.1914 149.7683 71.2678 0.0000 0.0000 0.0000
# 3 27.1137 71.2678 137.0944 0.0000 0.0000 0.0000
# 4 0.0000 0.0000 0.0000 -20.8434 0.0000 0.0000
# 5 0.0000 0.0000 0.0000 0.0000 18.8209 0.0000
# 6 0.0000 0.0000 0.0000 0.0000 0.0000 -13.8733
#
#
#
# Elastic Compliance Matrix: (Units=1/GPa)
#
#
# Indices 1 2 3 4 5 6 
#
# 1 0.017577 -0.003290 -0.001766 0.000000 0.000000 0.000000
# 2 -0.003290 0.009487 -0.004281 0.000000 0.000000 0.000000
# 3 -0.001766 -0.004281 0.009869 0.000000 0.000000 0.000000
# 4 0.000000 0.000000 0.000000 -0.047977 0.000000 0.000000
# 5 0.000000 0.000000 0.000000 0.000000 0.053132 0.000000
# 6 0.000000 0.000000 0.000000 0.000000 0.000000 -0.072081
#
#
# Mechanical properties :
#
#
# Convention : Reuss Voigt Hill
#
# Bulk Modulus (GPa) = 54.76764 68.91256 61.84010
# Shear Modulus (GPa) = -955.59668 11.45382 -472.07143
#
# Velocity S-wave (km/s) = -22.62019 2.47648 -15.89874
# Velocity P-wave (km/s) = 25.55201 6.71389 17.43314
#
# Compressibility (1/GPa) = 0.01825896
#
# Stress axis : x y z
#
# Youngs Moduli (GPa) = 56.89385 105.40517 101.32606
#
# Poissons Ratio (x) = 0.34674 0.17895
# Poissons Ratio (y) = 0.18716 0.43380
# Poissons Ratio (z) = 0.10048 0.45127
#
# Static dielectric constant tensor:
#      x y z
#    x 1.723070 0.000000 0.000000 
#    y 0.000000 1.676730 0.000000 
#    z 0.000000 0.000000 1.603580 
# 
# From -- ./inp_files/24078.got.cif
#   From: 2010.05.17/outbox.cif.g08.bks.cpg/sg51_13_cif.got.tgz:24078.got - 2010.06.03 11:52:47.
