data_PCOD9399872
_publ_section_title
;
Structure prediction by ZEFSAII (Michael W. Deem and Ramdas Pophale) SiO2 
 PCOD9399872
Probable space group: P M M A
;
_chemical_formula_sum "Si O2"
_cell_formula_units_Z 64
_cell_length_a 19.408620
_cell_length_b 7.527007
_cell_length_c 20.692247
_cell_angle_alpha 90.000000
_cell_angle_beta 90.000000
_cell_angle_gamma 90.000000
_cell_volume 3022.905918
_symmetry_space_group_name_H-M "P M M A"
_symmetry_group_IT_number 51
_symmetry_cell_setting 'orthorhombic'
loop_
_space_group_symop_operation_xyz
x,y,z
1/2-x,-y,z
1/2+x,-y,-z
-x,y,-z
-x,-y,-z
1/2+x,y,-z
1/2-x,y,z
x,-y,z
loop_
_atom_site_type_symbol
_atom_site_label
_atom_site_fract_x
_atom_site_fract_y
_atom_site_fract_z
Si Si1 0.570723 0.295111 0.160778
Si Si2 0.937052 0.217478 0.637280
Si Si3 0.829229 0.218204 0.896607
Si Si4 0.423127 0.212354 0.985805
Si Si5 0.926095 0.796701 0.783218
Si Si6 0.411835 0.782913 0.596474
Si Si7 0.670699 0.782977 0.530953
Si Si8 0.828369 0.785665 0.276868
O O1 0.551719 0.500000 0.161310
O O2 0.593585 0.246936 0.088703
O O3 0.500961 0.199195 0.183156
O O4 0.630097 0.262605 0.212763
O O5 0.932951 0.280716 0.711380
O O6 0.871979 0.270720 0.594256
O O7 0.008952 0.273334 0.604314
O O8 0.939196 0.000000 0.638134
O O9 0.750000 0.272806 0.895407
O O10 0.872155 0.280869 0.834213
O O11 0.830465 0.000000 0.896397
O O12 0.868799 0.277554 0.961372
O O13 0.425983 0.000000 0.993990
O O14 0.500000 0.282249 0.000000
O O15 0.903458 0.000000 0.772981
O O16 0.372286 0.725876 0.532085
O O17 0.370022 0.725513 0.660006
O O18 0.412000 0.000000 0.595585
O O19 0.750000 0.724137 0.529703
O O20 0.671749 0.000000 0.530023
O O21 0.750000 0.720928 0.276545
O O22 0.826543 0.000000 0.279984
#
# Coordination Sequence:
#
# PCOD9399872 Si02
#       8
#     8   8   8   8   8   8   8   8
#     4  12  24  36  54  80 111 141 176 222 273 323
#     4   9  16  25  44  69  98 136 176 216 257 315
#     4   9  18  32  54  83 108 133 174 225 269 309
#     4  10  19  35  59  81 105 140 180 219 263 319
#     4  10  18  34  56  78 106 143 184 222 264 319
#     4   9  15  26  45  69 100 136 175 216 262 319
#     4   9  16  24  36  66 110 142 164 207 276 331
#     4  10  20  35  56  79 103 138 182 222 264 319
#
# _framework density 21.171679999999999
#
# number of rings (size 3 to 8) (size 9 to 14) (size 15 to 20)
#    0.000    2.250    2.500    1.875    0.000    4.500 
#    0.000    3.750    0.000    1.125    0.000    1.750 
#    0.000    1.000    0.000    0.000    0.000    0.000 
#
# Total GULP energy -357507.937046 kJ/mol
# GULP energy per Si atom -5586.061516 kJ/mol
# Density = 2.112349 g / cm^3
# Si number density = 21.171680 Si / 1000 Ang^3
#
#
#
# Elastic Constant Matrix: (Units=GPa)
#
#
# Indices 1 2 3 4 5 6 
#
# 1 162.4635 11.4309 121.0073 0.0000 0.0000 0.0000
# 2 11.4309 50.5195 -2.1615 0.0000 0.0000 0.0000
# 3 121.0073 -2.1615 179.3845 0.0000 0.0000 0.0000
# 4 0.0000 0.0000 0.0000 -40.5401 0.0000 0.0000
# 5 0.0000 0.0000 0.0000 0.0000 32.2084 0.0000
# 6 0.0000 0.0000 0.0000 0.0000 0.0000 -20.4831
#
#
#
# Elastic Compliance Matrix: (Units=1/GPa)
#
#
# Indices 1 2 3 4 5 6 
#
# 1 0.012896 -0.003292 -0.008739 0.000000 0.000000 0.000000
# 2 -0.003292 0.020645 0.002469 0.000000 0.000000 0.000000
# 3 -0.008739 0.002469 0.011499 0.000000 0.000000 0.000000
# 4 0.000000 0.000000 0.000000 -0.024667 0.000000 0.000000
# 5 0.000000 0.000000 0.000000 0.000000 0.031048 0.000000
# 6 0.000000 0.000000 0.000000 0.000000 0.000000 -0.048821
#
#
# Mechanical properties :
#
#
# Convention : Reuss Voigt Hill
#
# Bulk Modulus (GPa) = 38.58416 72.54676 55.56546
# Shear Modulus (GPa) = 164.68404 11.70975 88.19690
#
# Velocity S-wave (km/s) = 8.82915 2.35433 6.46130
# Velocity P-wave (km/s) = 11.05453 6.45994 9.05355
#
# Compressibility (1/GPa) = 0.02591737
#
# Stress axis : x y z
#
# Youngs Moduli (GPa) = 77.54567 48.43831 86.96261
#
# Poissons Ratio (x) = 0.15945 0.75994
# Poissons Ratio (y) = 0.25526 -0.21473
# Poissons Ratio (z) = 0.67764 -0.11961
#
# Static dielectric constant tensor:
#      x y z
#    x 1.717050 0.000000 0.000000 
#    y 0.000000 1.788840 0.000000 
#    z 0.000000 0.000000 1.739470 
# 
# From -- ./inp_files/30638.got.cif
#   From: 2010.05.17/outbox.cif.g08.bks.cpg/sg51_16_cif.got.tgz:30638.got - 2010.06.03 11:52:47.
