data_PCOD9399479
_publ_section_title
;
Structure prediction by ZEFSAII (Michael W. Deem and Ramdas Pophale) SiO2 
 PCOD9399479
Probable space group: P M M A
;
_chemical_formula_sum "Si O2"
_cell_formula_units_Z 64
_cell_length_a 20.136646
_cell_length_b 8.918688
_cell_length_c 20.165264
_cell_angle_alpha 90.000000
_cell_angle_beta 90.000000
_cell_angle_gamma 90.000000
_cell_volume 3621.529430
_symmetry_space_group_name_H-M "P M M A"
_symmetry_group_IT_number 51
_symmetry_cell_setting 'orthorhombic'
loop_
_space_group_symop_operation_xyz
x,y,z
1/2-x,-y,z
1/2+x,-y,-z
-x,y,-z
-x,-y,-z
1/2+x,y,-z
1/2-x,y,z
x,-y,z
loop_
_atom_site_type_symbol
_atom_site_label
_atom_site_fract_x
_atom_site_fract_y
_atom_site_fract_z
Si Si1 0.672811 0.179801 0.037610
Si Si2 0.676418 0.679374 0.268172
Si Si3 0.422689 0.674240 0.476902
Si Si4 0.920453 0.319135 0.149290
Si Si5 0.613456 0.821693 0.391437
Si Si6 0.827388 0.678526 0.892351
Si Si7 0.057443 0.180622 0.193201
Si Si8 0.963358 0.820536 0.653767
O O1 0.750000 0.212553 0.056182
O O2 0.621471 0.255194 0.087970
O O3 0.664577 0.000000 0.037052
O O4 0.662387 0.246461 0.964294
O O5 0.750000 0.717354 0.242996
O O6 0.672299 0.500000 0.275537
O O7 0.620978 0.724907 0.215213
O O8 0.664033 0.753584 0.338958
O O9 0.500000 0.687630 0.500000
O O10 0.405595 0.500000 0.474862
O O11 0.382284 0.756514 0.534681
O O12 0.420064 0.745374 0.404028
O O13 0.924009 0.500000 0.145699
O O14 0.993205 0.249009 0.156501
O O15 0.540155 0.782303 0.362428
O O16 0.618707 0.000000 0.393568
O O17 0.750000 0.701609 0.874388
O O18 0.839303 0.500000 0.896621
O O19 0.877033 0.753904 0.840629
O O20 0.053353 0.223011 0.271114
O O21 0.055870 0.000000 0.188776
O O22 0.957163 0.000000 0.648014
#
# Coordination Sequence:
#
# PCOD9399479 Si02
#       8
#     8   8   8   8   8   8   8   8
#     4  10  21  38  60  84 112 148 189 232 277 328
#     4  10  21  35  51  74 108 150 191 230 275 328
#     4   9  17  28  47  74 102 135 176 220 268 319
#     4  11  22  36  56  82 115 150 188 232 279 329
#     4  10  18  31  50  73 104 140 181 226 272 321
#     4  10  22  41  63  86 111 141 181 226 277 339
#     4  11  22  37  58  85 117 148 183 228 280 332
#     4   9  18  32  50  76 109 141 174 220 274 323
#
# _framework density 17.672091000000002
#
# number of rings (size 3 to 8) (size 9 to 14) (size 15 to 20)
#    0.000    2.000    1.250    2.625    0.000    6.250 
#    0.000    2.500    0.000    0.750    0.000    3.500 
#    0.000    0.000    0.000    0.000    0.000    0.000 
#
# Total GULP energy -357236.982986 kJ/mol
# GULP energy per Si atom -5581.827859 kJ/mol
# Density = 1.763187 g / cm^3
# Si number density = 17.672091 Si / 1000 Ang^3
#
#
#
# Elastic Constant Matrix: (Units=GPa)
#
#
# Indices 1 2 3 4 5 6 
#
# 1 73.6183 43.0493 60.2229 0.0000 0.0000 0.0000
# 2 43.0493 51.6966 48.9970 0.0000 0.0000 0.0000
# 3 60.2229 48.9970 120.1184 0.0000 0.0000 0.0000
# 4 0.0000 0.0000 0.0000 32.8445 0.0000 0.0000
# 5 0.0000 0.0000 0.0000 0.0000 22.2451 0.0000
# 6 0.0000 0.0000 0.0000 0.0000 0.0000 20.5540
#
#
#
# Elastic Compliance Matrix: (Units=1/GPa)
#
#
# Indices 1 2 3 4 5 6 
#
# 1 0.030627 -0.017853 -0.008073 0.000000 0.000000 0.000000
# 2 -0.017853 0.041942 -0.008158 0.000000 0.000000 0.000000
# 3 -0.008073 -0.008158 0.015700 0.000000 0.000000 0.000000
# 4 0.000000 0.000000 0.000000 0.030447 0.000000 0.000000
# 5 0.000000 0.000000 0.000000 0.000000 0.044954 0.000000
# 6 0.000000 0.000000 0.000000 0.000000 0.000000 0.048652
#
#
# Mechanical properties :
#
#
# Convention : Reuss Voigt Hill
#
# Bulk Modulus (GPa) = 49.74545 61.10797 55.42671
# Shear Modulus (GPa) = 17.41009 21.33965 19.37487
#
# Velocity S-wave (km/s) = 3.14215 3.47873 3.31472
# Velocity P-wave (km/s) = 6.43230 7.12666 6.78836
#
# Compressibility (1/GPa) = 0.02010234
#
# Stress axis : x y z
#
# Youngs Moduli (GPa) = 32.65045 23.84263 63.69323
#
# Poissons Ratio (x) = 0.42566 0.51421
# Poissons Ratio (y) = 0.58290 0.51958
# Poissons Ratio (z) = 0.26360 0.19450
#
# Static dielectric constant tensor:
#      x y z
#    x 1.593540 0.000000 0.000000 
#    y 0.000000 1.586700 0.000000 
#    z 0.000000 0.000000 1.589840 
# 
# From -- ./inp_files/30534.got.cif
#   From: 2010.05.17/outbox.cif.g08.bks.cpg/sg51_16_cif.got.tgz:30534.got - 2010.06.03 11:52:47.
