data_PCOD9399628
_publ_section_title
;
Structure prediction by ZEFSAII (Michael W. Deem and Ramdas Pophale) SiO2 
 PCOD9399628
Probable space group: P M M A
;
_chemical_formula_sum "Si O2"
_cell_formula_units_Z 36
_cell_length_a 8.576987
_cell_length_b 15.978363
_cell_length_c 14.686213
_cell_angle_alpha 90.000000
_cell_angle_beta 90.000000
_cell_angle_gamma 90.000000
_cell_volume 2012.689856
_symmetry_space_group_name_H-M "P M M A"
_symmetry_group_IT_number 51
_symmetry_cell_setting 'orthorhombic'
loop_
_space_group_symop_operation_xyz
x,y,z
1/2-x,-y,z
1/2+x,-y,-z
-x,y,-z
-x,-y,-z
1/2+x,y,-z
1/2-x,y,z
x,-y,z
loop_
_atom_site_type_symbol
_atom_site_label
_atom_site_fract_x
_atom_site_fract_y
_atom_site_fract_z
Si Si1 0.061939 0.095211 0.399628
Si Si2 0.935886 0.500000 0.896732
Si Si3 0.938815 0.751504 0.725864
Si Si4 0.565094 0.675579 0.102040
Si Si5 0.561637 0.405918 0.602635
O O1 0.250000 0.096228 0.402874
O O2 0.013088 0.164857 0.327291
O O3 0.000000 0.116314 0.500000
O O4 0.011808 0.000000 0.378071
O O5 0.750000 0.500000 0.894843
O O6 0.997787 0.412550 0.859614
O O7 0.000000 0.500000 0.000000
O O8 0.750000 0.749733 0.732535
O O9 0.988957 0.670627 0.666303
O O10 0.009798 0.744073 0.826041
O O11 0.750000 0.669659 0.096520
O O12 0.500000 0.688125 0.000000
O O13 0.500000 0.394426 0.500000
O O14 0.750000 0.404461 0.600532
O O15 0.514326 0.500000 0.633188
#
# Coordination Sequence:
#
# PCOD9399628 Si02
#       5
#     8   4   8   8   8
#     4   9  18  33  54  80 109 139 174 218 268 318
#     4  10  18  32  52  72  99 134 173 216 260 304
#     4  10  20  33  51  75 103 138 176 217 265 316
#     4  11  22  36  53  76 104 137 178 222 267 312
#     4   9  18  31  46  67  97 134 170 206 249 300
#
# _framework density 17.886510999999999
#
# number of rings (size 3 to 8) (size 9 to 14) (size 15 to 20)
#    0.000    2.222    0.000    5.000    1.556    1.778 
#    0.000    0.000    0.000    0.667    0.000    0.000 
#    0.000    0.000    0.000    0.000    0.000    0.000 
#
# Total GULP energy -200910.964816 kJ/mol
# GULP energy per Si atom -5580.860134 kJ/mol
# Density = 1.784580 g / cm^3
# Si number density = 17.886511 Si / 1000 Ang^3
#
#
#
# Elastic Constant Matrix: (Units=GPa)
#
#
# Indices 1 2 3 4 5 6 
#
# 1 59.9462 38.8445 33.5557 0.0000 0.0000 0.0000
# 2 38.8445 110.0283 88.0371 0.0000 0.0000 0.0000
# 3 33.5557 88.0371 117.3630 0.0000 0.0000 0.0000
# 4 0.0000 0.0000 0.0000 28.3034 0.0000 0.0000
# 5 0.0000 0.0000 0.0000 0.0000 27.1215 0.0000
# 6 0.0000 0.0000 0.0000 0.0000 0.0000 13.2453
#
#
#
# Elastic Compliance Matrix: (Units=1/GPa)
#
#
# Indices 1 2 3 4 5 6 
#
# 1 0.021691 -0.006742 -0.001144 0.000000 0.000000 0.000000
# 2 -0.006742 0.024829 -0.016697 0.000000 0.000000 0.000000
# 3 -0.001144 -0.016697 0.021372 0.000000 0.000000 0.000000
# 4 0.000000 0.000000 0.000000 0.035331 0.000000 0.000000
# 5 0.000000 0.000000 0.000000 0.000000 0.036871 0.000000
# 6 0.000000 0.000000 0.000000 0.000000 0.000000 0.075499
#
#
# Mechanical properties :
#
#
# Convention : Reuss Voigt Hill
#
# Bulk Modulus (GPa) = 53.40349 67.57914 60.49132
# Shear Modulus (GPa) = 18.45007 22.19404 20.32206
#
# Velocity S-wave (km/s) = 3.21519 3.52636 3.37436
# Velocity P-wave (km/s) = 6.61097 7.37865 7.00533
#
# Compressibility (1/GPa) = 0.01872537
#
# Stress axis : x y z
#
# Youngs Moduli (GPa) = 46.10194 40.27628 46.78934
#
# Poissons Ratio (x) = 0.27156 0.05353
# Poissons Ratio (y) = 0.31084 0.78123
# Poissons Ratio (z) = 0.05275 0.67248
#
# Static dielectric constant tensor:
#      x y z
#    x 1.596840 0.000000 0.000000 
#    y 0.000000 1.641020 0.000000 
#    z 0.000000 0.000000 1.597030 
# 
# From -- ./inp_files/20307.got.cif
#   From: 2010.05.17/outbox.cif.g08.bks.cpg/sg51_11_cif.got.tgz:20307.got - 2010.06.03 11:52:47.
