data_PCOD9399600
_publ_section_title
;
Structure prediction by ZEFSAII (Michael W. Deem and Ramdas Pophale) SiO2 
 PCOD9399600
Probable space group: P M M A
;
_chemical_formula_sum "Si O2"
_cell_formula_units_Z 64
_cell_length_a 17.422629
_cell_length_b 17.761292
_cell_length_c 12.020162
_cell_angle_alpha 90.000000
_cell_angle_beta 90.000000
_cell_angle_gamma 90.000000
_cell_volume 3719.619912
_symmetry_space_group_name_H-M "P M M A"
_symmetry_group_IT_number 51
_symmetry_cell_setting 'orthorhombic'
loop_
_space_group_symop_operation_xyz
x,y,z
1/2-x,-y,z
1/2+x,-y,-z
-x,y,-z
-x,-y,-z
1/2+x,y,-z
1/2-x,y,z
x,-y,z
loop_
_atom_site_type_symbol
_atom_site_label
_atom_site_fract_x
_atom_site_fract_y
_atom_site_fract_z
Si Si1 0.437335 0.732071 0.249210
Si Si2 0.838462 0.801902 0.560527
Si Si3 0.391629 0.212732 0.798931
Si Si4 0.834963 0.669778 0.380557
Si Si5 0.079220 0.415105 0.941950
Si Si6 0.839119 0.725376 0.975301
Si Si7 0.978046 0.585195 0.311150
Si Si8 0.657175 0.913208 0.365563
O O1 0.394422 0.783843 0.338625
O O2 0.519760 0.765827 0.216954
O O3 0.456695 0.649357 0.301279
O O4 0.386395 0.728135 0.138646
O O5 0.750000 0.815654 0.596108
O O6 0.837741 0.727804 0.482668
O O7 0.864363 0.869310 0.479023
O O8 0.346073 0.276461 0.727667
O O9 0.368534 0.218966 0.927481
O O10 0.373912 0.134401 0.738424
O O11 0.750000 0.634375 0.375950
O O12 0.907638 0.614504 0.386474
O O13 0.095400 0.500000 0.980454
O O14 0.144601 0.357229 0.973512
O O15 0.060206 0.416653 0.811922
O O16 0.000000 0.389408 0.000000
O O17 0.750000 0.737800 0.954584
O O18 0.003123 0.500000 0.338085
O O19 0.750000 0.909735 0.360480
O O20 0.633438 0.000000 0.365557
#
# Coordination Sequence:
#
# PCOD9399600 Si02
#       8
#     8   8   8   8   8   8   8   8
#     4  11  21  35  52  73 105 147 182 219 262 310
#     4   9  19  36  55  77 104 138 178 215 255 314
#     4  10  19  32  53  80 108 133 171 214 264 312
#     4   9  17  31  50  72 101 131 170 224 270 308
#     4  10  18  32  49  70 103 137 170 218 276 322
#     4  12  21  32  52  77 104 138 180 222 265 318
#     4  10  20  31  50  73  99 136 177 224 277 323
#     4   9  18  35  61  89 114 138 165 208 263 312
#
# _framework density 17.206057999999999
#
# number of rings (size 3 to 8) (size 9 to 14) (size 15 to 20)
#    0.000    2.000    3.750    2.625    0.000    5.000 
#    0.000    3.750    0.000    4.125    0.000    1.750 
#    0.000    0.000    0.000    0.000    0.000    0.000 
#
# Total GULP energy -356902.143946 kJ/mol
# GULP energy per Si atom -5576.595999 kJ/mol
# Density = 1.716690 g / cm^3
# Si number density = 17.206058 Si / 1000 Ang^3
#
#
#
# Elastic Constant Matrix: (Units=GPa)
#
#
# Indices 1 2 3 4 5 6 
#
# 1 87.8804 40.3262 40.4039 0.0000 0.0000 0.0000
# 2 40.3262 112.5482 35.1852 0.0000 0.0000 0.0000
# 3 40.4039 35.1852 53.4292 0.0000 0.0000 0.0000
# 4 0.0000 0.0000 0.0000 11.3887 0.0000 0.0000
# 5 0.0000 0.0000 0.0000 0.0000 25.0490 0.0000
# 6 0.0000 0.0000 0.0000 0.0000 0.0000 17.2049
#
#
#
# Elastic Compliance Matrix: (Units=1/GPa)
#
#
# Indices 1 2 3 4 5 6 
#
# 1 0.018109 -0.002780 -0.011864 0.000000 0.000000 0.000000
# 2 -0.002780 0.011615 -0.005547 0.000000 0.000000 0.000000
# 3 -0.011864 -0.005547 0.031341 0.000000 0.000000 0.000000
# 4 0.000000 0.000000 0.000000 0.087806 0.000000 0.000000
# 5 0.000000 0.000000 0.000000 0.000000 0.039922 0.000000
# 6 0.000000 0.000000 0.000000 0.000000 0.000000 0.058123
#
#
# Mechanical properties :
#
#
# Convention : Reuss Voigt Hill
#
# Bulk Modulus (GPa) = 48.34626 53.96539 51.15582
# Shear Modulus (GPa) = 16.99569 19.92467 18.46018
#
# Velocity S-wave (km/s) = 3.14630 3.40664 3.27905
# Velocity P-wave (km/s) = 6.43104 6.84878 6.64320
#
# Compressibility (1/GPa) = 0.02068412
#
# Stress axis : x y z
#
# Youngs Moduli (GPa) = 55.22078 86.09436 31.90713
#
# Poissons Ratio (x) = 0.23931 0.37854
# Poissons Ratio (y) = 0.15349 0.17699
# Poissons Ratio (z) = 0.65513 0.47757
#
# Static dielectric constant tensor:
#      x y z
#    x 1.590550 0.000000 0.000000 
#    y 0.000000 1.590390 0.000000 
#    z 0.000000 0.000000 1.601810 
# 
# From -- ./inp_files/16830.got.cif
#   From: 2010.05.17/outbox.cif.g08.bks.cpg/sg51_9_cif.got.tgz:16830.got - 2010.06.03 11:52:47.
