data_PCOD9399278
_publ_section_title
;
Structure prediction by ZEFSAII (Michael W. Deem and Ramdas Pophale) SiO2 
 PCOD9399278
Probable space group: P M M A
;
_chemical_formula_sum "Si O2"
_cell_formula_units_Z 56
_cell_length_a 9.190349
_cell_length_b 21.803056
_cell_length_c 15.081994
_cell_angle_alpha 90.000000
_cell_angle_beta 90.000000
_cell_angle_gamma 90.000000
_cell_volume 3022.095177
_symmetry_space_group_name_H-M "P M M A"
_symmetry_group_IT_number 51
_symmetry_cell_setting 'orthorhombic'
loop_
_space_group_symop_operation_xyz
x,y,z
1/2-x,-y,z
1/2+x,-y,-z
-x,y,-z
-x,-y,-z
1/2+x,y,-z
1/2-x,y,z
x,-y,z
loop_
_atom_site_type_symbol
_atom_site_label
_atom_site_fract_x
_atom_site_fract_y
_atom_site_fract_z
Si Si1 0.582320 0.157815 0.232247
Si Si2 0.085417 0.255157 0.922268
Si Si3 0.078558 0.632913 0.154511
Si Si4 0.580819 0.926793 0.906114
Si Si5 0.080105 0.500000 0.171179
Si Si6 0.074532 0.228623 0.591096
Si Si7 0.423724 0.500000 0.640798
Si Si8 0.073695 0.365651 0.653497
O O1 0.750000 0.136351 0.241899
O O2 0.584787 0.216358 0.167077
O O3 0.490404 0.108289 0.177235
O O4 0.530481 0.184852 0.326523
O O5 0.250000 0.266274 0.949623
O O6 0.001952 0.317487 0.903391
O O7 0.000000 0.221244 0.000000
O O8 0.250000 0.645858 0.160401
O O9 0.058140 0.563439 0.121082
O O10 0.006627 0.635367 0.251942
O O11 0.750000 0.908877 0.915120
O O12 0.573066 0.000000 0.890645
O O13 0.500000 0.915729 0.000000
O O14 0.250000 0.500000 0.202494
O O15 0.977103 0.500000 0.257157
O O16 0.250000 0.225587 0.585325
O O17 0.037255 0.300686 0.608197
O O18 0.000000 0.209340 0.500000
O O19 0.250000 0.500000 0.634496
O O20 0.469315 0.568593 0.608474
O O21 0.250000 0.366292 0.665866
#
# Coordination Sequence:
#
# PCOD9399278 Si02
#       8
#     8   8   8   8   4   8   4   8
#     4  10  21  38  59  82 114 151 187 229 275 324
#     4  11  22  36  52  76 108 139 177 223 270 324
#     4  10  18  30  49  72  98 132 173 219 274 331
#     4  10  21  37  60  93 129 160 191 225 263 315
#     4   8  16  28  43  66  95 125 166 219 269 325
#     4  10  21  37  55  79 111 146 188 238 286 335
#     4   8  14  24  47  72  92 129 174 219 280 345
#     4   9  16  31  50  72 102 135 177 229 283 341
#
# _framework density 18.530190000000001
#
# number of rings (size 3 to 8) (size 9 to 14) (size 15 to 20)
#    0.000    2.286    1.429    1.714    0.000    4.857 
#    0.000    0.714    0.000    0.429    0.000    0.000 
#    0.000    0.000    0.000    0.000    0.000    0.000 
#
# Total GULP energy -312067.985025 kJ/mol
# GULP energy per Si atom -5572.642590 kJ/mol
# Density = 1.848801 g / cm^3
# Si number density = 18.530190 Si / 1000 Ang^3
#
#
#
# Elastic Constant Matrix: (Units=GPa)
#
#
# Indices 1 2 3 4 5 6 
#
# 1 67.6129 46.8455 44.3683 0.0000 0.0000 0.0000
# 2 46.8455 91.9789 46.7924 0.0000 0.0000 0.0000
# 3 44.3683 46.7924 113.7529 0.0000 0.0000 0.0000
# 4 0.0000 0.0000 0.0000 -0.5162 0.0000 0.0000
# 5 0.0000 0.0000 0.0000 0.0000 25.3055 0.0000
# 6 0.0000 0.0000 0.0000 0.0000 0.0000 25.1601
#
#
#
# Elastic Compliance Matrix: (Units=1/GPa)
#
#
# Indices 1 2 3 4 5 6 
#
# 1 0.025598 -0.010064 -0.005844 0.000000 0.000000 0.000000
# 2 -0.010064 0.017706 -0.003358 0.000000 0.000000 0.000000
# 3 -0.005844 -0.003358 0.012452 0.000000 0.000000 0.000000
# 4 0.000000 0.000000 0.000000 -1.937420 0.000000 0.000000
# 5 0.000000 0.000000 0.000000 0.000000 0.039517 0.000000
# 6 0.000000 0.000000 0.000000 0.000000 0.000000 0.039745
#
#
# Mechanical properties :
#
#
# Convention : Reuss Voigt Hill
#
# Bulk Modulus (GPa) = 58.06182 61.03969 59.55076
# Shear Modulus (GPa) = -2.84394 19.01246 8.08426
#
# Velocity S-wave (km/s) = -1.24020 3.20664 2.09099
# Velocity P-wave (km/s) = 5.41764 6.83537 6.16738
#
# Compressibility (1/GPa) = 0.01722302
#
# Stress axis : x y z
#
# Youngs Moduli (GPa) = 39.06529 56.47769 80.30912
#
# Poissons Ratio (x) = 0.56840 0.46936
# Poissons Ratio (y) = 0.39316 0.26968
# Poissons Ratio (z) = 0.22832 0.18965
#
# Static dielectric constant tensor:
#      x y z
#    x 1.626290 0.000000 0.000000 
#    y 0.000000 1.681250 0.000000 
#    z 0.000000 0.000000 1.678570 
# 
# From -- ./inp_files/21870.got.cif
#   From: 2010.05.17/outbox.cif.g08.bks.cpg/sg51_11_cif.got.tgz:21870.got - 2010.06.03 11:52:47.
