data_PCOD9399561
_publ_section_title
;
Structure prediction by ZEFSAII (Michael W. Deem and Ramdas Pophale) SiO2 
 PCOD9399561
Probable space group: P M M A
;
_chemical_formula_sum "Si O2"
_cell_formula_units_Z 40
_cell_length_a 20.877854
_cell_length_b 8.933925
_cell_length_c 11.649235
_cell_angle_alpha 90.000000
_cell_angle_beta 90.000000
_cell_angle_gamma 90.000000
_cell_volume 2172.829079
_symmetry_space_group_name_H-M "P M M A"
_symmetry_group_IT_number 51
_symmetry_cell_setting 'orthorhombic'
loop_
_space_group_symop_operation_xyz
x,y,z
1/2-x,-y,z
1/2+x,-y,-z
-x,y,-z
-x,-y,-z
1/2+x,y,-z
1/2-x,y,z
x,-y,z
loop_
_atom_site_type_symbol
_atom_site_label
_atom_site_fract_x
_atom_site_fract_y
_atom_site_fract_z
Si Si1 0.359887 0.173508 0.739896
Si Si2 0.250000 0.678877 0.888518
Si Si3 0.677178 0.837074 0.518451
Si Si4 0.750000 0.681975 0.843961
Si Si5 0.378406 0.326275 0.288136
Si Si6 0.004956 0.180279 0.636685
O O1 0.314235 0.259546 0.827525
O O2 0.324567 0.174072 0.617197
O O3 0.430225 0.231129 0.702141
O O4 0.365717 0.000000 0.777615
O O5 0.250000 0.500000 0.880345
O O6 0.250000 0.721436 0.022465
O O7 0.750000 0.840134 0.557110
O O8 0.643994 0.700744 0.580911
O O9 0.646677 0.000000 0.548377
O O10 0.750000 0.500000 0.831914
O O11 0.817332 0.730797 0.785694
O O12 0.388876 0.500000 0.262051
O O13 0.444794 0.237297 0.289291
O O14 0.000000 0.225799 0.500000
O O15 0.007397 0.000000 0.634936
#
# Coordination Sequence:
#
# PCOD9399561 Si02
#       6
#     8   4   8   4   8   8
#     4  10  20  37  58  81 115 149 181 224 276 335
#     4  11  23  40  61  80 106 145 196 239 278 327
#     4  10  18  31  53  81 113 146 178 218 281 343
#     4   9  22  42  57  76 110 153 188 233 288 325
#     4  11  21  35  56  82 115 146 186 233 273 326
#     4  10  20  36  56  82 119 156 179 211 279 348
#
# _framework density 18.409179999999999
#
# number of rings (size 3 to 8) (size 9 to 14) (size 15 to 20)
#    0.000    1.800    4.000    0.900    0.000    2.000 
#    0.000    5.000    0.000    6.000    0.000    0.000 
#    0.000    0.000    0.000    0.000    0.000    0.000 
#
# Total GULP energy -222710.328259 kJ/mol
# GULP energy per Si atom -5567.758206 kJ/mol
# Density = 1.836728 g / cm^3
# Si number density = 18.409180 Si / 1000 Ang^3
#
#
#
# Elastic Constant Matrix: (Units=GPa)
#
#
# Indices 1 2 3 4 5 6 
#
# 1 168.7655 32.6037 61.5202 0.0000 0.0000 0.0000
# 2 32.6037 25.5020 25.5084 0.0000 0.0000 0.0000
# 3 61.5202 25.5084 90.2918 0.0000 0.0000 0.0000
# 4 0.0000 0.0000 0.0000 34.7175 0.0000 0.0000
# 5 0.0000 0.0000 0.0000 0.0000 14.7446 0.0000
# 6 0.0000 0.0000 0.0000 0.0000 0.0000 27.5100
#
#
#
# Elastic Compliance Matrix: (Units=1/GPa)
#
#
# Indices 1 2 3 4 5 6 
#
# 1 0.008758 -0.007287 -0.003908 0.000000 0.000000 0.000000
# 2 -0.007287 0.060722 -0.012189 0.000000 0.000000 0.000000
# 3 -0.003908 -0.012189 0.017182 0.000000 0.000000 0.000000
# 4 0.000000 0.000000 0.000000 0.028804 0.000000 0.000000
# 5 0.000000 0.000000 0.000000 0.000000 0.067822 0.000000
# 6 0.000000 0.000000 0.000000 0.000000 0.000000 0.036350
#
#
# Mechanical properties :
#
#
# Convention : Reuss Voigt Hill
#
# Bulk Modulus (GPa) = 25.06817 58.20263 41.63540
# Shear Modulus (GPa) = 17.87600 26.38955 22.13277
#
# Velocity S-wave (km/s) = 3.11953 3.79027 3.47114
# Velocity P-wave (km/s) = 5.15966 7.13019 6.22341
#
# Compressibility (1/GPa) = 0.03989122
#
# Stress axis : x y z
#
# Youngs Moduli (GPa) = 114.18146 16.46860 58.20110
#
# Poissons Ratio (x) = 0.12001 0.22748
# Poissons Ratio (y) = 0.83209 0.70943
# Poissons Ratio (z) = 0.44627 0.20074
#
# Static dielectric constant tensor:
#      x y z
#    x 1.716140 0.000000 0.000000 
#    y 0.000000 1.656910 0.000000 
#    z 0.000000 0.000000 1.610800 
# 
# From -- ./inp_files/17949.got.cif
#   From: 2010.05.17/outbox.cif.g08.bks.cpg/sg51_9_cif.got.tgz:17949.got - 2010.06.03 11:52:47.
