data_PCOD9399799
_publ_section_title
;
Structure prediction by ZEFSAII (Michael W. Deem and Ramdas Pophale) SiO2 
 PCOD9399799
Probable space group: P M M A
;
_chemical_formula_sum "Si O2"
_cell_formula_units_Z 48
_cell_length_a 31.931306
_cell_length_b 8.155202
_cell_length_c 9.829941
_cell_angle_alpha 90.000000
_cell_angle_beta 90.000000
_cell_angle_gamma 90.000000
_cell_volume 2559.778079
_symmetry_space_group_name_H-M "P M M A"
_symmetry_group_IT_number 51
_symmetry_cell_setting 'orthorhombic'
loop_
_space_group_symop_operation_xyz
x,y,z
1/2-x,-y,z
1/2+x,-y,-z
-x,y,-z
-x,-y,-z
1/2+x,y,-z
1/2-x,y,z
x,-y,z
loop_
_atom_site_type_symbol
_atom_site_label
_atom_site_fract_x
_atom_site_fract_y
_atom_site_fract_z
Si Si1 0.067462 0.692001 0.803470
Si Si2 0.365406 0.807076 0.595444
Si Si3 0.297504 0.800236 0.808202
Si Si4 0.013186 0.299697 0.347765
Si Si5 0.632799 0.806805 0.979706
Si Si6 0.108452 0.306929 0.312663
O O1 0.064470 0.500000 0.837847
O O2 0.096645 0.713405 0.669871
O O3 0.021750 0.754864 0.760582
O O4 0.092152 0.777900 0.925413
O O5 0.322652 0.756416 0.670908
O O6 0.366871 0.776684 0.435785
O O7 0.371727 0.000000 0.623903
O O8 0.250000 0.740131 0.813790
O O9 0.296188 0.000000 0.812996
O O10 0.327444 0.746537 0.932108
O O11 0.012214 0.500000 0.345999
O O12 0.060245 0.246506 0.315546
O O13 0.000000 0.248519 0.500000
O O14 0.627356 0.723054 0.835083
O O15 0.637770 0.000000 0.957487
O O16 0.107640 0.500000 0.341813
#
# Coordination Sequence:
#
# PCOD9399799 Si02
#       6
#     8   8   8   8   8   8
#     4  10  18  33  55  75 101 140 184 217 251 303
#     4  10  19  32  53  81 108 131 167 218 264 303
#     4   8  16  34  59  80  99 131 172 209 252 317
#     4   9  17  31  51  75 100 137 187 223 244 296
#     4  10  21  36  53  78 110 136 171 221 269 310
#     4  11  21  35  54  75 105 144 181 213 257 311
#
# _framework density 18.751625000000001
#
# number of rings (size 3 to 8) (size 9 to 14) (size 15 to 20)
#    0.000    2.333    1.667    3.000    0.000    0.667 
#    0.000    8.333    0.000   23.000    0.000    0.000 
#    0.000    0.000    0.000    0.000    0.000    0.000 
#
# Total GULP energy -267833.824823 kJ/mol
# GULP energy per Si atom -5579.871350 kJ/mol
# Density = 1.870895 g / cm^3
# Si number density = 18.751625 Si / 1000 Ang^3
#
#
#
# Elastic Constant Matrix: (Units=GPa)
#
#
# Indices 1 2 3 4 5 6 
#
# 1 133.1572 6.2066 55.7044 0.0000 0.0000 0.0000
# 2 6.2066 18.0331 -7.6598 0.0000 0.0000 0.0000
# 3 55.7044 -7.6598 106.5507 0.0000 0.0000 0.0000
# 4 0.0000 0.0000 0.0000 28.8616 0.0000 0.0000
# 5 0.0000 0.0000 0.0000 0.0000 14.9965 0.0000
# 6 0.0000 0.0000 0.0000 0.0000 0.0000 18.5291
#
#
#
# Elastic Compliance Matrix: (Units=1/GPa)
#
#
# Indices 1 2 3 4 5 6 
#
# 1 0.010197 -0.005956 -0.005759 0.000000 0.000000 0.000000
# 2 -0.005956 0.060679 0.007476 0.000000 0.000000 0.000000
# 3 -0.005759 0.007476 0.012933 0.000000 0.000000 0.000000
# 4 0.000000 0.000000 0.000000 0.034648 0.000000 0.000000
# 5 0.000000 0.000000 0.000000 0.000000 0.066682 0.000000
# 6 0.000000 0.000000 0.000000 0.000000 0.000000 0.053969
#
#
# Mechanical properties :
#
#
# Convention : Reuss Voigt Hill
#
# Bulk Modulus (GPa) = 13.27476 40.69374 26.98425
# Shear Modulus (GPa) = 18.33542 26.04342 22.18942
#
# Velocity S-wave (km/s) = 3.13038 3.73079 3.44369
# Velocity P-wave (km/s) = 4.49002 6.34877 5.49851
#
# Compressibility (1/GPa) = 0.07533093
#
# Stress axis : x y z
#
# Youngs Moduli (GPa) = 98.07097 16.48026 77.31923
#
# Poissons Ratio (x) = 0.09815 0.44528
# Poissons Ratio (y) = 0.58408 -0.57802
# Poissons Ratio (z) = 0.56479 -0.12320
#
# Static dielectric constant tensor:
#      x y z
#    x 1.646660 0.000000 0.000000 
#    y 0.000000 1.661880 0.000000 
#    z 0.000000 0.000000 1.626820 
# 
# From -- ./inp_files/12851.got.cif
#   From: 2010.05.17/outbox.cif.g08.bks.cpg/sg51_7_cif.got.tgz:12851.got - 2010.06.03 11:52:47.
