data_PCOD9399766
_publ_section_title
;
Structure prediction by ZEFSAII (Michael W. Deem and Ramdas Pophale) SiO2 
 PCOD9399766
Probable space group: P M M A
;
_chemical_formula_sum "Si O2"
_cell_formula_units_Z 48
_cell_length_a 14.689638
_cell_length_b 11.781541
_cell_length_c 14.611142
_cell_angle_alpha 90.000000
_cell_angle_beta 90.000000
_cell_angle_gamma 90.000000
_cell_volume 2528.700264
_symmetry_space_group_name_H-M "P M M A"
_symmetry_group_IT_number 51
_symmetry_cell_setting 'orthorhombic'
loop_
_space_group_symop_operation_xyz
x,y,z
1/2-x,-y,z
1/2+x,-y,-z
-x,y,-z
-x,-y,-z
1/2+x,y,-z
1/2-x,y,z
x,-y,z
loop_
_atom_site_type_symbol
_atom_site_label
_atom_site_fract_x
_atom_site_fract_y
_atom_site_fract_z
Si Si1 0.852841 0.364356 0.740057
Si Si2 0.987821 0.249513 0.608008
Si Si3 0.139211 0.000000 0.777658
Si Si4 0.138248 0.367860 0.057533
Si Si5 0.857019 0.629783 0.291342
Si Si6 0.502868 0.000000 0.388150
Si Si7 0.141534 0.771305 0.884907
O O1 0.750000 0.320213 0.729638
O O2 0.848270 0.500000 0.743855
O O3 0.914955 0.328803 0.656379
O O4 0.890494 0.331078 0.840244
O O5 0.000000 0.261068 0.500000
O O6 0.084870 0.284066 0.649313
O O7 0.960121 0.121353 0.633884
O O8 0.093893 0.000000 0.676195
O O9 0.110122 0.887739 0.835738
O O10 0.250000 0.000000 0.768608
O O11 0.250000 0.368928 0.058361
O O12 0.111455 0.500000 0.040203
O O13 0.107221 0.278715 0.980886
O O14 0.750000 0.637460 0.312364
O O15 0.886920 0.500000 0.304886
O O16 0.869549 0.669161 0.187294
O O17 0.500000 0.000000 0.500000
O O18 0.250000 0.789422 0.897193
#
# Coordination Sequence:
#
# PCOD9399766 Si02
#       7
#     8   8   4   8   8   4   8
#     4   9  19  37  60  84 112 149 189 228 276 339
#     4  11  23  39  58  79 108 146 189 239 288 334
#     4  10  18  32  57  83 109 147 192 234 282 335
#     4   8  14  28  52  80 111 146 181 220 270 331
#     4  10  20  33  53  83 114 142 175 222 283 344
#     4  10  22  40  57  75 103 149 195 232 282 335
#     4   9  16  28  50  80 111 142 178 222 272 326
#
# _framework density 18.982082999999999
#
# number of rings (size 3 to 8) (size 9 to 14) (size 15 to 20)
#    0.000    2.500    1.667    2.000    0.000    4.000 
#    0.000    6.250    0.000    6.000    0.000    0.000 
#    0.000    0.000    0.000    0.000    0.000    0.000 
#
# Total GULP energy -267334.329356 kJ/mol
# GULP energy per Si atom -5569.465195 kJ/mol
# Density = 1.893888 g / cm^3
# Si number density = 18.982083 Si / 1000 Ang^3
#
#
#
# Elastic Constant Matrix: (Units=GPa)
#
#
# Indices 1 2 3 4 5 6 
#
# 1 36.9839 8.1471 41.1389 0.0000 0.0000 0.0000
# 2 8.1471 68.2071 40.3550 0.0000 0.0000 0.0000
# 3 41.1389 40.3550 118.0704 0.0000 0.0000 0.0000
# 4 0.0000 0.0000 0.0000 19.6534 0.0000 0.0000
# 5 0.0000 0.0000 0.0000 0.0000 25.3106 0.0000
# 6 0.0000 0.0000 0.0000 0.0000 0.0000 12.1665
#
#
#
# Elastic Compliance Matrix: (Units=1/GPa)
#
#
# Indices 1 2 3 4 5 6 
#
# 1 0.045439 0.004938 -0.017520 0.000000 0.000000 0.000000
# 2 0.004938 0.018914 -0.008185 0.000000 0.000000 0.000000
# 3 -0.017520 -0.008185 0.017372 0.000000 0.000000 0.000000
# 4 0.000000 0.000000 0.000000 0.050882 0.000000 0.000000
# 5 0.000000 0.000000 0.000000 0.000000 0.039509 0.000000
# 6 0.000000 0.000000 0.000000 0.000000 0.000000 0.082193
#
#
# Mechanical properties :
#
#
# Convention : Reuss Voigt Hill
#
# Bulk Modulus (GPa) = 24.88120 44.72704 34.80412
# Shear Modulus (GPa) = 16.16866 20.33414 18.25140
#
# Velocity S-wave (km/s) = 2.92170 3.27651 3.10418
# Velocity P-wave (km/s) = 4.95156 6.15857 5.58775
#
# Compressibility (1/GPa) = 0.04019099
#
# Stress axis : x y z
#
# Youngs Moduli (GPa) = 22.00729 52.87032 57.56512
#
# Poissons Ratio (x) = -0.26109 1.00855
# Poissons Ratio (y) = -0.10868 0.47119
# Poissons Ratio (z) = 0.38557 0.43276
#
# Static dielectric constant tensor:
#      x y z
#    x 1.689220 0.000000 0.000000 
#    y 0.000000 1.661830 0.000000 
#    z 0.000000 0.000000 1.683080 
# 
# From -- ./inp_files/24109.got.cif
#   From: 2010.05.17/outbox.cif.g08.bks.cpg/sg51_13_cif.got.tgz:24109.got - 2010.06.03 11:52:47.
