data_PCOD9399898
_publ_section_title
;
Structure prediction by ZEFSAII (Michael W. Deem and Ramdas Pophale) SiO2 
 PCOD9399898
Probable space group: P M M A
;
_chemical_formula_sum "Si O2"
_cell_formula_units_Z 48
_cell_length_a 19.502767
_cell_length_b 7.695239
_cell_length_c 15.639201
_cell_angle_alpha 90.000000
_cell_angle_beta 90.000000
_cell_angle_gamma 90.000000
_cell_volume 2347.107096
_symmetry_space_group_name_H-M "P M M A"
_symmetry_group_IT_number 51
_symmetry_cell_setting 'orthorhombic'
loop_
_space_group_symop_operation_xyz
x,y,z
1/2-x,-y,z
1/2+x,-y,-z
-x,y,-z
-x,-y,-z
1/2+x,y,-z
1/2-x,y,z
x,-y,z
loop_
_atom_site_type_symbol
_atom_site_label
_atom_site_fract_x
_atom_site_fract_y
_atom_site_fract_z
Si Si1 0.327798 0.709248 0.624563
Si Si2 0.074447 0.289789 0.965567
Si Si3 0.423865 0.286798 0.470381
Si Si4 0.415298 0.700303 0.279316
Si Si5 0.671055 0.713098 0.881235
Si Si6 0.065175 0.200232 0.770409
O O1 0.250000 0.774897 0.629812
O O2 0.324870 0.500000 0.619212
O O3 0.368506 0.769958 0.540330
O O4 0.373541 0.752131 0.706895
O O5 0.074121 0.500000 0.964624
O O6 0.084535 0.230899 0.868727
O O7 0.131644 0.231656 0.032992
O O8 0.000000 0.232846 0.000000
O O9 0.500000 0.234317 0.500000
O O10 0.424165 0.500000 0.468993
O O11 0.409391 0.223973 0.374329
O O12 0.392771 0.500000 0.286995
O O13 0.370605 0.775614 0.202051
O O14 0.495115 0.700970 0.252571
O O15 0.750000 0.765974 0.879531
O O16 0.669051 0.500000 0.881149
O O17 0.048039 0.000000 0.757617
#
# Coordination Sequence:
#
# PCOD9399898 Si02
#       6
#     8   8   8   8   8   8
#     4  10  21  38  59  84 114 149 190 235 286 338
#     4  10  19  35  59  83 108 144 189 233 283 341
#     4   9  16  29  56  86 110 136 178 233 277 321
#     4  10  18  34  59  84 113 148 186 228 281 341
#     4   9  18  32  54  85 113 137 176 232 286 337
#     4  12  24  36  55  83 115 149 192 236 279 334
#
# _framework density 20.450707999999999
#
# number of rings (size 3 to 8) (size 9 to 14) (size 15 to 20)
#    0.000    2.000    3.333    1.500    0.000    2.000 
#    0.000    6.667    0.000    1.500    0.000    0.000 
#    0.000    0.000    0.000    0.000    0.000    0.000 
#
# Total GULP energy -268105.916543 kJ/mol
# GULP energy per Si atom -5585.539928 kJ/mol
# Density = 2.040416 g / cm^3
# Si number density = 20.450708 Si / 1000 Ang^3
#
#
#
# Elastic Constant Matrix: (Units=GPa)
#
#
# Indices 1 2 3 4 5 6 
#
# 1 163.0455 -2.7579 108.0159 0.0000 0.0000 0.0000
# 2 -2.7579 37.2694 -1.7118 0.0000 0.0000 0.0000
# 3 108.0159 -1.7118 223.9805 0.0000 0.0000 0.0000
# 4 0.0000 0.0000 0.0000 -66.0260 0.0000 0.0000
# 5 0.0000 0.0000 0.0000 0.0000 35.1521 0.0000
# 6 0.0000 0.0000 0.0000 0.0000 0.0000 -12.7786
#
#
#
# Elastic Compliance Matrix: (Units=1/GPa)
#
#
# Indices 1 2 3 4 5 6 
#
# 1 0.009021 0.000468 -0.004347 0.000000 0.000000 0.000000
# 2 0.000468 0.026865 -0.000020 0.000000 0.000000 0.000000
# 3 -0.004347 -0.000020 0.006561 0.000000 0.000000 0.000000
# 4 0.000000 0.000000 0.000000 -0.015146 0.000000 0.000000
# 5 0.000000 0.000000 0.000000 0.000000 0.028448 0.000000
# 6 0.000000 0.000000 0.000000 0.000000 0.000000 -0.078256
#
#
# Mechanical properties :
#
#
# Convention : Reuss Voigt Hill
#
# Bulk Modulus (GPa) = 28.86122 70.15422 49.50772
# Shear Modulus (GPa) = -1582.86316 12.65278 -785.10519
#
# Velocity S-wave (km/s) = -27.85085 2.49006 -19.61465
# Velocity P-wave (km/s) = 31.93874 6.53037 22.10698
#
# Compressibility (1/GPa) = 0.03464858
#
# Stress axis : x y z
#
# Youngs Moduli (GPa) = 110.85400 37.22263 152.42074
#
# Poissons Ratio (x) = -0.01742 0.66254
# Poissons Ratio (y) = -0.05187 0.00310
# Poissons Ratio (z) = 0.48186 0.00076
#
# Static dielectric constant tensor:
#      x y z
#    x 1.698970 0.000000 0.000000 
#    y 0.000000 1.748540 0.000000 
#    z 0.000000 0.000000 1.704890 
# 
# From -- ./inp_files/24757.got.cif
#   From: 2010.05.17/outbox.cif.g08.bks.cpg/sg51_13_cif.got.tgz:24757.got - 2010.06.03 11:52:47.
