data_PCOD9399563
_publ_section_title
;
Structure prediction by ZEFSAII (Michael W. Deem and Ramdas Pophale) SiO2 
 PCOD9399563
Probable space group: P M M A
;
_chemical_formula_sum "Si O2"
_cell_formula_units_Z 48
_cell_length_a 14.682979
_cell_length_b 16.448107
_cell_length_c 9.837563
_cell_angle_alpha 90.000000
_cell_angle_beta 90.000000
_cell_angle_gamma 90.000000
_cell_volume 2375.842390
_symmetry_space_group_name_H-M "P M M A"
_symmetry_group_IT_number 51
_symmetry_cell_setting 'orthorhombic'
loop_
_space_group_symop_operation_xyz
x,y,z
1/2-x,-y,z
1/2+x,-y,-z
-x,y,-z
-x,-y,-z
1/2+x,y,-z
1/2-x,y,z
x,-y,z
loop_
_atom_site_type_symbol
_atom_site_label
_atom_site_fract_x
_atom_site_fract_y
_atom_site_fract_z
Si Si1 0.392319 0.406578 0.521527
Si Si2 0.052203 0.089835 0.790617
Si Si3 0.400692 0.722940 0.019473
Si Si4 0.146196 0.592084 0.214820
Si Si5 0.353922 0.888245 0.086847
Si Si6 0.146613 0.254003 0.716974
O O1 0.500000 0.410917 0.500000
O O2 0.362090 0.500000 0.558828
O O3 0.354079 0.385133 0.372653
O O4 0.373001 0.331782 0.621947
O O5 0.082263 0.173099 0.712921
O O6 0.943267 0.089501 0.824031
O O7 0.072320 0.000000 0.729269
O O8 0.111711 0.093590 0.931823
O O9 0.360552 0.711816 0.870958
O O10 0.500000 0.760219 0.000000
O O11 0.411810 0.646300 0.114969
O O12 0.346617 0.791175 0.098462
O O13 0.250000 0.596379 0.164142
O O14 0.113298 0.500000 0.210545
O O15 0.250000 0.917741 0.110015
O O16 0.250000 0.226320 0.692382
#
# Coordination Sequence:
#
# PCOD9399563 Si02
#       6
#     8   8   8   8   8   8
#     4  10  22  40  62  86 116 156 202 251 302 362
#     4  10  20  34  53  84 122 157 199 250 300 358
#     4  11  19  34  55  82 120 153 194 248 300 359
#     4  10  21  36  54  80 112 150 195 242 296 357
#     4  10  18  31  53  81 115 156 198 243 300 360
#     4  11  22  37  59  90 124 162 204 249 304 359
#
# _framework density 20.20336
#
# number of rings (size 3 to 8) (size 9 to 14) (size 15 to 20)
#    0.000    1.667    3.333    5.500    0.000    4.333 
#    0.000    0.000    0.000    0.500    0.000    0.000 
#    0.000    0.000    0.000    0.000    0.000    0.000 
#
# Total GULP energy -267222.105201 kJ/mol
# GULP energy per Si atom -5567.127192 kJ/mol
# Density = 2.015738 g / cm^3
# Si number density = 20.203360 Si / 1000 Ang^3
#
#
#
# Elastic Constant Matrix: (Units=GPa)
#
#
# Indices 1 2 3 4 5 6 
#
# 1 140.9337 29.9059 7.4024 0.0000 0.0000 0.0000
# 2 29.9059 151.5365 74.0527 0.0000 0.0000 0.0000
# 3 7.4024 74.0527 42.9354 0.0000 0.0000 0.0000
# 4 0.0000 0.0000 0.0000 5.4352 0.0000 0.0000
# 5 0.0000 0.0000 0.0000 0.0000 15.2711 0.0000
# 6 0.0000 0.0000 0.0000 0.0000 0.0000 -1.7798
#
#
#
# Elastic Compliance Matrix: (Units=1/GPa)
#
#
# Indices 1 2 3 4 5 6 
#
# 1 0.007854 -0.005652 0.008395 0.000000 0.000000 0.000000
# 2 -0.005652 0.046059 -0.078466 0.000000 0.000000 0.000000
# 3 0.008395 -0.078466 0.157178 0.000000 0.000000 0.000000
# 4 0.000000 0.000000 0.000000 0.183985 0.000000 0.000000
# 5 0.000000 0.000000 0.000000 0.000000 0.065483 0.000000
# 6 0.000000 0.000000 0.000000 0.000000 0.000000 -0.561856
#
#
# Mechanical properties :
#
#
# Convention : Reuss Voigt Hill
#
# Bulk Modulus (GPa) = 16.76627 62.01418 39.39022
# Shear Modulus (GPa) = 71.39599 18.72160 45.05879
#
# Velocity S-wave (km/s) = 5.95108 3.04741 4.72769
# Velocity P-wave (km/s) = 7.45233 6.56840 7.02429
#
# Compressibility (1/GPa) = 0.05964356
#
# Stress axis : x y z
#
# Youngs Moduli (GPa) = 127.32319 21.71110 6.36222
#
# Poissons Ratio (x) = 0.12272 -0.05341
# Poissons Ratio (y) = 0.71968 0.49922
# Poissons Ratio (z) = -1.06885 1.70359
#
# Static dielectric constant tensor:
#      x y z
#    x 1.714800 0.000000 0.000000 
#    y 0.000000 1.764270 0.000000 
#    z 0.000000 0.000000 1.709560 
# 
# From -- ./inp_files/16454.got.cif
#   From: 2010.05.17/outbox.cif.g08.bks.cpg/sg51_9_cif.got.tgz:16454.got - 2010.06.03 11:52:47.
