data_PCOD9399830
_publ_section_title
;
Structure prediction by ZEFSAII (Michael W. Deem and Ramdas Pophale) SiO2 
 PCOD9399830
Probable space group: P M M A
;
_chemical_formula_sum "Si O2"
_cell_formula_units_Z 64
_cell_length_a 17.731300
_cell_length_b 19.412481
_cell_length_c 9.610885
_cell_angle_alpha 90.000000
_cell_angle_beta 90.000000
_cell_angle_gamma 90.000000
_cell_volume 3308.148544
_symmetry_space_group_name_H-M "P M M A"
_symmetry_group_IT_number 51
_symmetry_cell_setting 'orthorhombic'
loop_
_space_group_symop_operation_xyz
x,y,z
1/2-x,-y,z
1/2+x,-y,-z
-x,y,-z
-x,-y,-z
1/2+x,y,-z
1/2-x,y,z
x,-y,z
loop_
_atom_site_type_symbol
_atom_site_label
_atom_site_fract_x
_atom_site_fract_y
_atom_site_fract_z
Si Si1 0.833843 0.720134 0.025612
Si Si2 0.341220 0.077441 0.737841
Si Si3 0.160187 0.081291 0.060169
Si Si4 0.505644 0.578102 0.830811
Si Si5 0.161617 0.205509 0.545186
Si Si6 0.332071 0.422787 0.100980
Si Si7 0.605663 0.798216 0.762978
Si Si8 0.447270 0.278271 0.733856
O O1 0.750000 0.742750 0.067650
O O2 0.835188 0.637389 0.012254
O O3 0.853002 0.748165 0.873178
O O4 0.896780 0.742599 0.133026
O O5 0.250000 0.074565 0.735194
O O6 0.362370 0.136495 0.629438
O O7 0.368815 0.000000 0.704349
O O8 0.360399 0.093573 0.898342
O O9 0.250000 0.097884 0.077934
O O10 0.110402 0.128291 0.160201
O O11 0.151820 0.000000 0.086781
O O12 0.480778 0.500000 0.798284
O O13 0.595326 0.583960 0.802689
O O14 0.466817 0.641506 0.755193
O O15 0.500000 0.586580 0.000000
O O16 0.250000 0.219119 0.574191
O O17 0.149008 0.196857 0.381983
O O18 0.105558 0.263794 0.602426
O O19 0.250000 0.416184 0.170319
O O20 0.336701 0.500000 0.040211
O O21 0.523063 0.766905 0.735650
#
# Coordination Sequence:
#
# PCOD9399830 Si02
#       8
#     8   8   8   8   8   8   8   8
#     4  11  21  35  59  87 116 153 197 243 292 351
#     4   8  16  34  60  88 115 147 190 239 293 351
#     4   9  18  35  61  91 120 151 192 243 297 357
#     4  10  18  33  56  85 118 149 188 241 300 352
#     4  11  24  40  59  82 116 162 205 246 292 350
#     4   9  17  30  52  86 121 149 185 239 298 351
#     4  12  23  38  58  87 121 152 197 247 297 347
#     4  12  23  39  57  87 120 158 195 243 301 360
#
# _framework density 19.346169
#
# number of rings (size 3 to 8) (size 9 to 14) (size 15 to 20)
#    0.000    1.750    2.500    3.750    0.000    1.500 
#    0.000    1.875    0.000    7.875    0.000    0.000 
#    0.000    0.000    0.000    0.000    0.000    0.000 
#
# Total GULP energy -357125.839378 kJ/mol
# GULP energy per Si atom -5580.091240 kJ/mol
# Density = 1.930214 g / cm^3
# Si number density = 19.346169 Si / 1000 Ang^3
#
#
#
# Elastic Constant Matrix: (Units=GPa)
#
#
# Indices 1 2 3 4 5 6 
#
# 1 97.7823 34.9907 20.5757 0.0000 0.0000 0.0000
# 2 34.9907 102.2859 26.8695 0.0000 0.0000 0.0000
# 3 20.5757 26.8695 73.5345 0.0000 0.0000 0.0000
# 4 0.0000 0.0000 0.0000 1.9850 0.0000 0.0000
# 5 0.0000 0.0000 0.0000 0.0000 19.5550 0.0000
# 6 0.0000 0.0000 0.0000 0.0000 0.0000 22.6181
#
#
#
# Elastic Compliance Matrix: (Units=1/GPa)
#
#
# Indices 1 2 3 4 5 6 
#
# 1 0.011924 -0.003543 -0.002042 0.000000 0.000000 0.000000
# 2 -0.003543 0.011867 -0.003345 0.000000 0.000000 0.000000
# 3 -0.002042 -0.003345 0.015393 0.000000 0.000000 0.000000
# 4 0.000000 0.000000 0.000000 0.503773 0.000000 0.000000
# 5 0.000000 0.000000 0.000000 0.000000 0.051138 0.000000
# 6 0.000000 0.000000 0.000000 0.000000 0.000000 0.044212
#
#
# Mechanical properties :
#
#
# Convention : Reuss Voigt Hill
#
# Bulk Modulus (GPa) = 46.89406 48.71939 47.80672
# Shear Modulus (GPa) = 7.53836 21.57607 14.55721
#
# Velocity S-wave (km/s) = 1.97611 3.34318 2.74608
# Velocity P-wave (km/s) = 5.43128 6.33562 5.90080
#
# Compressibility (1/GPa) = 0.02132466
#
# Stress axis : x y z
#
# Youngs Moduli (GPa) = 83.86298 84.26651 64.96592
#
# Poissons Ratio (x) = 0.29853 0.13266
# Poissons Ratio (y) = 0.29710 0.21731
# Poissons Ratio (z) = 0.17125 0.28187
#
# Static dielectric constant tensor:
#      x y z
#    x 1.716870 0.000000 0.000000 
#    y 0.000000 1.730370 0.000000 
#    z 0.000000 0.000000 1.647210 
# 
# From -- ./inp_files/10043.got.cif
#   From: 2010.05.17/outbox.cif.g08.bks.cpg/sg51_6_cif.got.tgz:10043.got - 2010.06.03 11:52:47.
