data_PCOD9399633
_publ_section_title
;
Structure prediction by ZEFSAII (Michael W. Deem and Ramdas Pophale) SiO2 
 PCOD9399633
Probable space group: P M M A
;
_chemical_formula_sum "Si O2"
_cell_formula_units_Z 36
_cell_length_a 8.636047
_cell_length_b 15.697178
_cell_length_c 14.661982
_cell_angle_alpha 90.000000
_cell_angle_beta 90.000000
_cell_angle_gamma 90.000000
_cell_volume 1987.601255
_symmetry_space_group_name_H-M "P M M A"
_symmetry_group_IT_number 51
_symmetry_cell_setting 'orthorhombic'
loop_
_space_group_symop_operation_xyz
x,y,z
1/2-x,-y,z
1/2+x,-y,-z
-x,y,-z
-x,-y,-z
1/2+x,y,-z
1/2-x,y,z
x,-y,z
loop_
_atom_site_type_symbol
_atom_site_label
_atom_site_fract_x
_atom_site_fract_y
_atom_site_fract_z
Si Si1 0.935487 0.755280 0.227131
Si Si2 0.565108 0.500000 0.396830
Si Si3 0.435016 0.099889 0.100208
Si Si4 0.563014 0.404096 0.102352
Si Si5 0.433840 0.678006 0.398119
O O1 0.750000 0.751985 0.236222
O O2 0.987045 0.673328 0.166766
O O3 0.987083 0.839021 0.173558
O O4 0.012341 0.748120 0.326226
O O5 0.750000 0.500000 0.395261
O O6 0.500000 0.500000 0.500000
O O7 0.502763 0.588823 0.359541
O O8 0.250000 0.111459 0.100782
O O9 0.468687 0.000000 0.116812
O O10 0.500000 0.121404 0.000000
O O11 0.750000 0.402451 0.099421
O O12 0.516736 0.500000 0.132859
O O13 0.500000 0.392066 0.000000
O O14 0.500000 0.691028 0.500000
O O15 0.250000 0.671238 0.404054
#
# Coordination Sequence:
#
# PCOD9399633 Si02
#       5
#     8   4   8   8   8
#     4  11  22  35  56  83 111 147 188 233 282 337
#     4  10  18  32  52  74 103 140 185 234 282 328
#     4  10  21  38  60  86 116 148 184 232 286 340
#     4   9  19  34  50  72 105 145 182 220 266 319
#     4  11  22  37  55  79 110 147 191 237 286 336
#
# _framework density 18.112283999999999
#
# number of rings (size 3 to 8) (size 9 to 14) (size 15 to 20)
#    0.000    1.778    0.000    6.333    1.556    4.889 
#    0.000    0.000    0.000    0.667    0.000    0.000 
#    0.000    0.000    0.000    0.000    0.000    0.000 
#
# Total GULP energy -201100.084790 kJ/mol
# GULP energy per Si atom -5586.113466 kJ/mol
# Density = 1.807106 g / cm^3
# Si number density = 18.112284 Si / 1000 Ang^3
#
#
#
# Elastic Constant Matrix: (Units=GPa)
#
#
# Indices 1 2 3 4 5 6 
#
# 1 106.3060 41.9952 45.7536 0.0000 0.0000 0.0000
# 2 41.9952 66.3076 60.8897 0.0000 0.0000 0.0000
# 3 45.7536 60.8897 105.9978 0.0000 0.0000 0.0000
# 4 0.0000 0.0000 0.0000 22.0820 0.0000 0.0000
# 5 0.0000 0.0000 0.0000 0.0000 28.5268 0.0000
# 6 0.0000 0.0000 0.0000 0.0000 0.0000 28.7877
#
#
#
# Elastic Compliance Matrix: (Units=1/GPa)
#
#
# Indices 1 2 3 4 5 6 
#
# 1 0.012710 -0.006374 -0.001825 0.000000 0.000000 0.000000
# 2 -0.006374 0.035115 -0.017420 0.000000 0.000000 0.000000
# 3 -0.001825 -0.017420 0.020229 0.000000 0.000000 0.000000
# 4 0.000000 0.000000 0.000000 0.045286 0.000000 0.000000
# 5 0.000000 0.000000 0.000000 0.000000 0.035055 0.000000
# 6 0.000000 0.000000 0.000000 0.000000 0.000000 0.034737
#
#
# Mechanical properties :
#
#
# Convention : Reuss Voigt Hill
#
# Bulk Modulus (GPa) = 59.46817 63.98760 61.72788
# Shear Modulus (GPa) = 20.83544 24.54414 22.68979
#
# Velocity S-wave (km/s) = 3.39536 3.68518 3.54323
# Velocity P-wave (km/s) = 6.94807 7.31521 7.13400
#
# Compressibility (1/GPa) = 0.01681572
#
# Stress axis : x y z
#
# Youngs Moduli (GPa) = 78.67666 28.47763 49.43468
#
# Poissons Ratio (x) = 0.18153 0.09020
# Poissons Ratio (y) = 0.50151 0.86117
# Poissons Ratio (z) = 0.14355 0.49609
#
# Static dielectric constant tensor:
#      x y z
#    x 1.604010 0.000000 0.000000 
#    y 0.000000 1.643340 0.000000 
#    z 0.000000 0.000000 1.608790 
# 
# From -- ./inp_files/20358.got.cif
#   From: 2010.05.17/outbox.cif.g08.bks.cpg/sg51_11_cif.got.tgz:20358.got - 2010.06.03 11:52:47.
