data_PCOD9399100
_publ_section_title
;
Structure prediction by ZEFSAII (Michael W. Deem and Ramdas Pophale) SiO2 
 PCOD9399100
Probable space group: P M M A
;
_chemical_formula_sum "Si O2"
_cell_formula_units_Z 48
_cell_length_a 26.052381
_cell_length_b 7.523808
_cell_length_c 12.294613
_cell_angle_alpha 90.000000
_cell_angle_beta 90.000000
_cell_angle_gamma 90.000000
_cell_volume 2409.905362
_symmetry_space_group_name_H-M "P M M A"
_symmetry_group_IT_number 51
_symmetry_cell_setting 'orthorhombic'
loop_
_space_group_symop_operation_xyz
x,y,z
1/2-x,-y,z
1/2+x,-y,-z
-x,y,-z
-x,-y,-z
1/2+x,y,-z
1/2-x,y,z
x,-y,z
loop_
_atom_site_type_symbol
_atom_site_label
_atom_site_fract_x
_atom_site_fract_y
_atom_site_fract_z
Si Si1 0.440016 0.717159 0.498487
Si Si2 0.903540 0.288754 0.268848
Si Si3 0.192053 0.788502 0.877299
Si Si4 0.998408 0.717343 0.124441
Si Si5 0.807932 0.289394 0.876265
Si Si6 0.097556 0.282484 0.264010
O O1 0.500000 0.769421 0.500000
O O2 0.439680 0.500000 0.496836
O O3 0.412535 0.778570 0.608981
O O4 0.412658 0.774988 0.387478
O O5 0.911587 0.500000 0.275554
O O6 0.848493 0.261110 0.214564
O O7 0.947866 0.220539 0.188195
O O8 0.250000 0.718213 0.859856
O O9 0.194787 0.000000 0.879221
O O10 0.174926 0.731594 0.998272
O O11 0.997542 0.500000 0.123004
O O12 0.048951 0.769917 0.190678
O O13 0.000000 0.776692 0.000000
O O14 0.750000 0.215377 0.867171
O O15 0.804489 0.500000 0.856496
O O16 0.850237 0.219134 0.792932
O O17 0.098505 0.500000 0.263966
#
# Coordination Sequence:
#
# PCOD9399100 Si02
#       6
#     8   8   8   8   8   8
#     4   9  15  26  44  72 104 133 163 197 238 285
#     4  10  18  29  49  75  99 126 165 205 239 281
#     4  10  21  36  52  69  94 129 163 198 247 301
#     4   9  15  22  38  68  99 124 154 193 236 282
#     4   9  17  30  50  74  97 123 159 203 246 287
#     4   9  15  25  43  70 103 131 158 195 240 288
#
# _framework density 19.917794000000001
#
# number of rings (size 3 to 8) (size 9 to 14) (size 15 to 20)
#    0.000    2.667    1.667    1.500    0.000    3.667 
#    0.000    0.833    0.000    9.000    0.000    2.333 
#    0.000    0.000    0.000    0.000    0.000    0.000 
#
# Total GULP energy -267903.055813 kJ/mol
# GULP energy per Si atom -5581.313663 kJ/mol
# Density = 1.987246 g / cm^3
# Si number density = 19.917794 Si / 1000 Ang^3
#
#
#
# Elastic Constant Matrix: (Units=GPa)
#
#
# Indices 1 2 3 4 5 6 
#
# 1 130.5917 -0.0031 119.2173 0.0000 0.0000 0.0000
# 2 -0.0031 48.0824 4.8042 0.0000 0.0000 0.0000
# 3 119.2173 4.8042 220.1721 0.0000 0.0000 0.0000
# 4 0.0000 0.0000 0.0000 -61.3119 0.0000 0.0000
# 5 0.0000 0.0000 0.0000 0.0000 31.6439 0.0000
# 6 0.0000 0.0000 0.0000 0.0000 0.0000 -20.3615
#
#
#
# Elastic Compliance Matrix: (Units=1/GPa)
#
#
# Indices 1 2 3 4 5 6 
#
# 1 0.015175 0.000824 -0.008235 0.000000 0.000000 0.000000
# 2 0.000824 0.020888 -0.000902 0.000000 0.000000 0.000000
# 3 -0.008235 -0.000902 0.009021 0.000000 0.000000 0.000000
# 4 0.000000 0.000000 0.000000 -0.016310 0.000000 0.000000
# 5 0.000000 0.000000 0.000000 0.000000 0.031602 0.000000
# 6 0.000000 0.000000 0.000000 0.000000 0.000000 -0.049112
#
#
# Mechanical properties :
#
#
# Convention : Reuss Voigt Hill
#
# Bulk Modulus (GPa) = 35.14005 71.87590 53.50798
# Shear Modulus (GPa) = 133.78062 8.31595 71.04829
#
# Velocity S-wave (km/s) = 8.20440 2.04553 5.97898
# Velocity P-wave (km/s) = 10.36487 6.46092 8.63638
#
# Compressibility (1/GPa) = 0.02845756
#
# Stress axis : x y z
#
# Youngs Moduli (GPa) = 65.89736 47.87485 110.85790
#
# Poissons Ratio (x) = -0.03944 0.91290
# Poissons Ratio (y) = -0.05428 0.09997
# Poissons Ratio (z) = 0.54266 0.04317
#
# Static dielectric constant tensor:
#      x y z
#    x 1.676990 0.000000 0.000000 
#    y 0.000000 1.749810 0.000000 
#    z 0.000000 0.000000 1.681210 
# 
# From -- ./inp_files/18594.got.cif
#   From: 2010.05.17/outbox.cif.g08.bks.cpg/sg51_10_cif.got.tgz:18594.got - 2010.06.03 11:52:47.
