data_PCOD9399962
_publ_section_title
;
Structure prediction by ZEFSAII (Michael W. Deem and Ramdas Pophale) SiO2 
 PCOD9399962
Probable space group: P M M A
;
_chemical_formula_sum "Si O2"
_cell_formula_units_Z 56
_cell_length_a 13.778871
_cell_length_b 13.660506
_cell_length_c 15.195417
_cell_angle_alpha 90.000000
_cell_angle_beta 90.000000
_cell_angle_gamma 90.000000
_cell_volume 2860.177878
_symmetry_space_group_name_H-M "P M M A"
_symmetry_group_IT_number 51
_symmetry_cell_setting 'orthorhombic'
loop_
_space_group_symop_operation_xyz
x,y,z
1/2-x,-y,z
1/2+x,-y,-z
-x,y,-z
-x,-y,-z
1/2+x,y,-z
1/2-x,y,z
x,-y,z
loop_
_atom_site_type_symbol
_atom_site_label
_atom_site_fract_x
_atom_site_fract_y
_atom_site_fract_z
Si Si1 0.630885 0.386100 0.359355
Si Si2 0.863465 0.275535 0.188692
Si Si3 0.138799 0.381884 0.447644
Si Si4 0.130638 0.386566 0.249160
Si Si5 0.887513 0.394191 0.023934
Si Si6 0.143332 0.228805 0.109855
Si Si7 0.630700 0.111648 0.050487
O O1 0.750000 0.387463 0.360526
O O2 0.601626 0.500000 0.343949
O O3 0.600109 0.311905 0.282890
O O4 0.597686 0.353616 0.456991
O O5 0.750000 0.252126 0.201676
O O6 0.902196 0.186451 0.127895
O O7 0.871403 0.369556 0.125043
O O8 0.250000 0.345061 0.445769
O O9 0.142142 0.500000 0.453199
O O10 0.100116 0.364219 0.349630
O O11 0.250000 0.386944 0.245702
O O12 0.102246 0.500000 0.225899
O O13 0.097417 0.297841 0.185531
O O14 0.850716 0.500000 0.000027
O O15 0.844142 0.309132 0.966584
O O16 0.000000 0.391863 0.000000
O O17 0.250000 0.195865 0.142197
O O18 0.098578 0.143486 0.048760
O O19 0.750000 0.117201 0.047668
O O20 0.604742 0.000000 0.069183
#
# Coordination Sequence:
#
# PCOD9399962 Si02
#       7
#     8   8   8   8   8   8   8
#     4   8  12  18  30  50  73  92 112 141 174 206
#     4   9  16  25  39  55  68  90 125 155 175 203
#     4   7  10  16  26  44  72  96 108 131 175 211
#     4   8  12  18  30  50  73  92 112 141 174 206
#     4  10  19  27  34  49  76 103 119 138 176 218
#     4   9  16  25  39  55  68  90 125 155 175 203
#     4   8  14  24  36  51  70  89 115 154 192 218
#
# _framework density 19.579203
#
# number of rings (size 3 to 8) (size 9 to 14) (size 15 to 20)
#    0.000    3.571    0.000    3.857    0.000    2.286 
#    0.000    0.000    0.000    6.857    0.000    2.000 
#    0.000   13.714    0.000    0.000    0.000   11.429 
#
# Total GULP energy -311823.090009 kJ/mol
# GULP energy per Si atom -5568.269464 kJ/mol
# Density = 1.953464 g / cm^3
# Si number density = 19.579203 Si / 1000 Ang^3
#
#
#
# Elastic Constant Matrix: (Units=GPa)
#
#
# Indices 1 2 3 4 5 6 
#
# 1 66.2952 9.0970 16.2313 0.0000 0.0000 0.0000
# 2 9.0970 87.7560 49.0352 0.0000 0.0000 0.0000
# 3 16.2313 49.0352 169.5467 0.0000 0.0000 0.0000
# 4 0.0000 0.0000 0.0000 23.7765 0.0000 0.0000
# 5 0.0000 0.0000 0.0000 0.0000 23.5027 0.0000
# 6 0.0000 0.0000 0.0000 0.0000 0.0000 -10.0312
#
#
#
# Elastic Compliance Matrix: (Units=1/GPa)
#
#
# Indices 1 2 3 4 5 6 
#
# 1 0.015509 -0.000928 -0.001216 0.000000 0.000000 0.000000
# 2 -0.000928 0.013647 -0.003858 0.000000 0.000000 0.000000
# 3 -0.001216 -0.003858 0.007130 0.000000 0.000000 0.000000
# 4 0.000000 0.000000 0.000000 0.042058 0.000000 0.000000
# 5 0.000000 0.000000 0.000000 0.000000 0.042548 0.000000
# 6 0.000000 0.000000 0.000000 0.000000 0.000000 -0.099689
#
#
# Mechanical properties :
#
#
# Convention : Reuss Voigt Hill
#
# Bulk Modulus (GPa) = 41.18323 52.48055 46.83189
# Shear Modulus (GPa) = 121.05597 24.06524 72.56061
#
# Velocity S-wave (km/s) = 7.87166 3.50969 6.09430
# Velocity P-wave (km/s) = 10.18319 6.57923 8.57274
#
# Compressibility (1/GPa) = 0.02428173
#
# Stress axis : x y z
#
# Youngs Moduli (GPa) = 64.47788 73.27496 140.24571
#
# Poissons Ratio (x) = 0.06800 0.17059
# Poissons Ratio (y) = 0.05984 0.54108
# Poissons Ratio (z) = 0.07843 0.28270
#
# Static dielectric constant tensor:
#      x y z
#    x 1.809200 0.000000 0.000000 
#    y 0.000000 1.676850 0.000000 
#    z 0.000000 0.000000 1.737330 
# 
# From -- ./inp_files/24269.got.cif
#   From: 2010.05.17/outbox.cif.g08.bks.cpg/sg51_13_cif.got.tgz:24269.got - 2010.06.03 11:52:47.
