data_PCOD9399350
_publ_section_title
;
Structure prediction by ZEFSAII (Michael W. Deem and Ramdas Pophale) SiO2 
 PCOD9399350
Probable space group: P M M A
;
_chemical_formula_sum "Si O2"
_cell_formula_units_Z 40
_cell_length_a 26.736482
_cell_length_b 9.006611
_cell_length_c 9.730889
_cell_angle_alpha 90.000000
_cell_angle_beta 90.000000
_cell_angle_gamma 90.000000
_cell_volume 2343.247629
_symmetry_space_group_name_H-M "P M M A"
_symmetry_group_IT_number 51
_symmetry_cell_setting 'orthorhombic'
loop_
_space_group_symop_operation_xyz
x,y,z
1/2-x,-y,z
1/2+x,-y,-z
-x,y,-z
-x,-y,-z
1/2+x,y,-z
1/2-x,y,z
x,-y,z
loop_
_atom_site_type_symbol
_atom_site_label
_atom_site_fract_x
_atom_site_fract_y
_atom_site_fract_z
Si Si1 0.055048 0.177930 0.662959
Si Si2 0.558514 0.820680 0.658455
Si Si3 0.750000 0.321637 0.137716
Si Si4 0.250000 0.823021 0.162254
Si Si5 0.140265 0.676171 0.843540
Si Si6 0.646938 0.322387 0.831066
O O1 0.063997 0.216654 0.503077
O O2 0.097158 0.243660 0.760293
O O3 0.998168 0.222801 0.699475
O O4 0.056449 0.000000 0.671239
O O5 0.600314 0.740566 0.747330
O O6 0.562870 0.000000 0.672033
O O7 0.750000 0.500000 0.103894
O O8 0.696885 0.289740 0.207985
O O9 0.750000 0.229580 0.996897
O O10 0.198568 0.753362 0.218278
O O11 0.250000 0.000000 0.174051
O O12 0.132964 0.500000 0.830708
O O13 0.139602 0.712072 0.006382
O O14 0.651110 0.500000 0.818555
#
# Coordination Sequence:
#
# PCOD9399350 Si02
#       6
#     8   8   4   4   8   8
#     4   9  19  35  53  72  99 132 168 210 255 298
#     4   9  19  36  53  71  98 134 171 209 252 298
#     4   8  16  32  49  70 103 136 162 198 246 296
#     4  10  18  30  51  76 101 132 166 202 246 296
#     4   9  18  32  51  74 101 131 166 204 246 297
#     4  10  20  34  52  76 104 133 165 205 248 295
#
# _framework density 17.070326000000001
#
# number of rings (size 3 to 8) (size 9 to 14) (size 15 to 20)
#    0.000    2.800    0.000    3.900    0.000    6.400 
#    0.000    7.000    0.000    4.800    0.000    0.000 
#    0.000    0.000    0.000    0.000    0.000    0.000 
#
# Total GULP energy -222880.337145 kJ/mol
# GULP energy per Si atom -5572.008429 kJ/mol
# Density = 1.703147 g / cm^3
# Si number density = 17.070326 Si / 1000 Ang^3
#
#
#
# Elastic Constant Matrix: (Units=GPa)
#
#
# Indices 1 2 3 4 5 6 
#
# 1 210.4456 72.3621 85.6107 0.0000 0.0000 0.0000
# 2 72.3621 48.4547 37.1501 0.0000 0.0000 0.0000
# 3 85.6107 37.1501 49.8013 0.0000 0.0000 0.0000
# 4 0.0000 0.0000 0.0000 16.3106 0.0000 0.0000
# 5 0.0000 0.0000 0.0000 0.0000 -73.0151 0.0000
# 6 0.0000 0.0000 0.0000 0.0000 0.0000 42.8699
#
#
#
# Elastic Compliance Matrix: (Units=1/GPa)
#
#
# Indices 1 2 3 4 5 6 
#
# 1 0.016724 -0.006853 -0.023637 0.000000 0.000000 0.000000
# 2 -0.006853 0.051019 -0.026278 0.000000 0.000000 0.000000
# 3 -0.023637 -0.026278 0.080316 0.000000 0.000000 0.000000
# 4 0.000000 0.000000 0.000000 0.061310 0.000000 0.000000
# 5 0.000000 0.000000 0.000000 0.000000 -0.013696 0.000000
# 6 0.000000 0.000000 0.000000 0.000000 0.000000 0.023326
#
#
# Mechanical properties :
#
#
# Convention : Reuss Voigt Hill
#
# Bulk Modulus (GPa) = 28.96658 77.66083 53.31370
# Shear Modulus (GPa) = 14.53305 4.80500 9.66902
#
# Velocity S-wave (km/s) = 2.92098 1.67956 2.38255
# Velocity P-wave (km/s) = 5.32747 7.02529 6.23444
#
# Compressibility (1/GPa) = 0.03452255
#
# Stress axis : x y z
#
# Youngs Moduli (GPa) = 59.79430 19.60035 12.45089
#
# Poissons Ratio (x) = 0.13432 0.29430
# Poissons Ratio (y) = 0.40978 0.32718
# Poissons Ratio (z) = 1.41337 0.51506
#
# Static dielectric constant tensor:
#      x y z
#    x 1.595330 0.000000 0.000000 
#    y 0.000000 1.566070 0.000000 
#    z 0.000000 0.000000 1.560760 
# 
# From -- ./inp_files/12198.got.cif
#   From: 2010.05.17/outbox.cif.g08.bks.cpg/sg51_7_cif.got.tgz:12198.got - 2010.06.03 11:52:47.
