data_PCOD9399266
_publ_section_title
;
Structure prediction by ZEFSAII (Michael W. Deem and Ramdas Pophale) SiO2 
 PCOD9399266
Probable space group: P M M A
;
_chemical_formula_sum "Si O2"
_cell_formula_units_Z 48
_cell_length_a 8.459714
_cell_length_b 32.910439
_cell_length_c 9.641388
_cell_angle_alpha 90.000000
_cell_angle_beta 90.000000
_cell_angle_gamma 90.000000
_cell_volume 2684.286808
_symmetry_space_group_name_H-M "P M M A"
_symmetry_group_IT_number 51
_symmetry_cell_setting 'orthorhombic'
loop_
_space_group_symop_operation_xyz
x,y,z
1/2-x,-y,z
1/2+x,-y,-z
-x,y,-z
-x,-y,-z
1/2+x,y,-z
1/2-x,y,z
x,-y,z
loop_
_atom_site_type_symbol
_atom_site_label
_atom_site_fract_x
_atom_site_fract_y
_atom_site_fract_z
Si Si1 0.939727 0.791752 0.842146
Si Si2 0.938110 0.706138 0.158867
Si Si3 0.939700 0.620705 0.842365
Si Si4 0.059086 0.545434 0.343610
Si Si5 0.441274 0.867623 0.342036
Si Si6 0.558992 0.043627 0.659083
O O1 0.750000 0.790849 0.845021
O O2 0.994683 0.830075 0.751721
O O3 0.999534 0.748680 0.781954
O O4 0.000000 0.795576 0.000000
O O5 0.750000 0.706160 0.158239
O O6 0.000202 0.663638 0.218775
O O7 0.000000 0.706092 0.000000
O O8 0.750000 0.621713 0.844704
O O9 0.994966 0.581925 0.754568
O O10 0.000000 0.617251 0.000000
O O11 0.250000 0.545994 0.344306
O O12 0.008518 0.500000 0.298341
O O13 0.000000 0.551405 0.500000
O O14 0.500000 0.863641 0.500000
O O15 0.250000 0.867041 0.344218
O O16 0.492149 0.912239 0.285371
O O17 0.500000 0.043519 0.500000
O O18 0.750000 0.043528 0.659602
O O19 0.506379 0.000000 0.721039
#
# Coordination Sequence:
#
# PCOD9399266 Si02
#       6
#     8   8   8   8   8   8
#     4  10  19  32  49  69  93 123 159 193 230 278
#     4  10  18  30  49  71  94 122 157 194 235 279
#     4  10  19  32  51  75 101 126 156 196 238 277
#     4   9  19  35  53  73  99 131 164 196 232 277
#     4   9  18  30  46  69  95 121 151 191 235 277
#     4   8  13  23  40  62  87 115 147 183 225 272
#
# _framework density 17.881844000000001
#
# number of rings (size 3 to 8) (size 9 to 14) (size 15 to 20)
#    0.000    2.667    0.000    4.500    0.000    3.000 
#    0.000    0.833    0.000    0.500    0.000    0.000 
#    0.000    0.000    0.000    0.000    0.000    0.667 
#
# Total GULP energy -267305.233461 kJ/mol
# GULP energy per Si atom -5568.859030 kJ/mol
# Density = 1.784114 g / cm^3
# Si number density = 17.881844 Si / 1000 Ang^3
#
#
#
# Elastic Constant Matrix: (Units=GPa)
#
#
# Indices 1 2 3 4 5 6 
#
# 1 45.1301 35.1926 9.2734 0.0000 0.0000 0.0000
# 2 35.1926 239.0514 68.9341 0.0000 0.0000 0.0000
# 3 9.2734 68.9341 37.5435 0.0000 0.0000 0.0000
# 4 0.0000 0.0000 0.0000 67.5590 0.0000 0.0000
# 5 0.0000 0.0000 0.0000 0.0000 18.6862 0.0000
# 6 0.0000 0.0000 0.0000 0.0000 0.0000 27.7925
#
#
#
# Elastic Compliance Matrix: (Units=1/GPa)
#
#
# Indices 1 2 3 4 5 6 
#
# 1 0.025059 -0.004047 0.001241 0.000000 0.000000 0.000000
# 2 -0.004047 0.009544 -0.016524 0.000000 0.000000 0.000000
# 3 0.001241 -0.016524 0.056669 0.000000 0.000000 0.000000
# 4 0.000000 0.000000 0.000000 0.014802 0.000000 0.000000
# 5 0.000000 0.000000 0.000000 0.000000 0.053515 0.000000
# 6 0.000000 0.000000 0.000000 0.000000 0.000000 0.035981
#
#
# Mechanical properties :
#
#
# Convention : Reuss Voigt Hill
#
# Bulk Modulus (GPa) = 19.00702 60.94725 39.97714
# Shear Modulus (GPa) = 19.85953 36.69586 28.27770
#
# Velocity S-wave (km/s) = 3.33618 4.53496 3.98095
# Velocity P-wave (km/s) = 5.04900 7.84719 6.59814
#
# Compressibility (1/GPa) = 0.05261214
#
# Stress axis : x y z
#
# Youngs Moduli (GPa) = 39.90584 104.77801 17.64621
#
# Poissons Ratio (x) = 0.42404 -0.02190
# Poissons Ratio (y) = 0.16150 0.29159
# Poissons Ratio (z) = -0.04953 1.73137
#
# Static dielectric constant tensor:
#      x y z
#    x 1.603020 0.000000 0.000000 
#    y 0.000000 1.693480 0.000000 
#    z 0.000000 0.000000 1.573050 
# 
# From -- ./inp_files/14549.got.cif
#   From: 2010.05.17/outbox.cif.g08.bks.cpg/sg51_8_cif.got.tgz:14549.got - 2010.06.03 11:52:47.
