data_PCOD9399009
_publ_section_title
;
Structure prediction by ZEFSAII (Michael W. Deem and Ramdas Pophale) SiO2 
 PCOD9399009
Probable space group: P M M A
;
_chemical_formula_sum "Si O2"
_cell_formula_units_Z 64
_cell_length_a 7.523920
_cell_length_b 20.791787
_cell_length_c 21.007080
_cell_angle_alpha 90.000000
_cell_angle_beta 90.000000
_cell_angle_gamma 90.000000
_cell_volume 3286.258148
_symmetry_space_group_name_H-M "P M M A"
_symmetry_group_IT_number 51
_symmetry_cell_setting 'orthorhombic'
loop_
_space_group_symop_operation_xyz
x,y,z
1/2-x,-y,z
1/2+x,-y,-z
-x,y,-z
-x,-y,-z
1/2+x,y,-z
1/2-x,y,z
x,-y,z
loop_
_atom_site_type_symbol
_atom_site_label
_atom_site_fract_x
_atom_site_fract_y
_atom_site_fract_z
Si Si1 0.956383 0.206988 0.260829
Si Si2 0.537108 0.427075 0.426695
Si Si3 0.042097 0.795296 0.113208
Si Si4 0.532053 0.658208 0.310430
Si Si5 0.033703 0.069229 0.758256
Si Si6 0.032735 0.573670 0.810944
Si Si7 0.043951 0.069351 0.091710
Si Si8 0.960316 0.656142 0.069725
O O1 0.750000 0.204628 0.279374
O O2 0.032615 0.269759 0.294961
O O3 0.030626 0.135496 0.272912
O O4 0.963132 0.215367 0.183891
O O5 0.500000 0.410702 0.500000
O O6 0.750000 0.429920 0.419256
O O7 0.469316 0.500000 0.414900
O O8 0.472513 0.375085 0.375732
O O9 0.250000 0.808209 0.123730
O O10 0.967484 0.859437 0.078429
O O11 0.026467 0.729137 0.075743
O O12 0.750000 0.660276 0.310539
O O13 0.480197 0.612404 0.251891
O O14 0.250000 0.071698 0.761377
O O15 0.967227 0.069157 0.831131
O O16 0.983664 0.000000 0.729772
O O17 0.250000 0.573006 0.811927
O O18 0.974022 0.500000 0.810057
O O19 0.970356 0.612072 0.873189
O O20 0.250000 0.068247 0.071251
O O21 0.963976 0.000000 0.071812
O O22 0.750000 0.659961 0.077617
O O23 0.000000 0.629754 0.000000
#
# Coordination Sequence:
#
# PCOD9399009 Si02
#       8
#     8   8   8   8   8   8   8   8
#     4   9  15  25  42  64  89 118 151 185 222 263
#     4   9  17  29  46  67  92 122 154 186 221 264
#     4  10  18  29  46  67  91 118 148 183 225 272
#     4   9  15  26  46  71  93 118 152 187 219 260
#     4   8  13  20  32  54  85 116 143 175 217 262
#     4   9  17  30  50  73  91 111 145 186 225 267
#     4   8  14  24  39  60  85 113 144 177 214 259
#     4  11  22  36  52  69  89 115 148 188 231 277
#
# _framework density 19.475037
#
# number of rings (size 3 to 8) (size 9 to 14) (size 15 to 20)
#    0.000    2.875    1.250    1.125    0.000    2.250 
#    0.000    0.625    0.000    1.500    0.000    0.000 
#    0.000    0.500    0.000    0.375    0.000    1.000 
#
# Total GULP energy -356750.619513 kJ/mol
# GULP energy per Si atom -5574.228430 kJ/mol
# Density = 1.943071 g / cm^3
# Si number density = 19.475037 Si / 1000 Ang^3
#
#
#
# Elastic Constant Matrix: (Units=GPa)
#
#
# Indices 1 2 3 4 5 6 
#
# 1 54.5636 6.4948 -2.5252 0.0000 0.0000 0.0000
# 2 6.4948 197.7187 83.8091 0.0000 0.0000 0.0000
# 3 -2.5252 83.8091 98.4127 0.0000 0.0000 0.0000
# 4 0.0000 0.0000 0.0000********** 0.0000 0.0000
# 5 0.0000 0.0000 0.0000 0.0000 12.6997 0.0000
# 6 0.0000 0.0000 0.0000 0.0000 0.0000 4.0067
#
#
#
# Elastic Compliance Matrix: (Units=1/GPa)
#
#
# Indices 1 2 3 4 5 6 
#
# 1 0.018550 -0.001269 0.001557 0.000000 0.000000 0.000000
# 2 -0.001269 0.008002 -0.006847 0.000000 0.000000 0.000000
# 3 0.001557 -0.006847 0.016032 0.000000 0.000000 0.000000
# 4 0.000000 0.000000 0.000000 0.000004 0.000000 0.000000
# 5 0.000000 0.000000 0.000000 0.000000 0.078742 0.000000
# 6 0.000000 0.000000 0.000000 0.000000 0.000000 0.249583
#
#
# Mechanical properties :
#
#
# Convention : Reuss Voigt Hill
#
# Bulk Modulus (GPa) = 33.93782 58.47251 46.20517
# Shear Modulus (GPa) = 12.69506 45196.77640 22604.73573
#
# Velocity S-wave (km/s) = 2.55593 152.50549 107.85281
# Velocity P-wave (km/s) = 5.11610 176.18358 124.63312
#
# Compressibility (1/GPa) = 0.02946565
#
# Stress axis : x y z
#
# Youngs Moduli (GPa) = 53.90729 124.97474 62.37509
#
# Poissons Ratio (x) = 0.15863 -0.09711
# Poissons Ratio (y) = 0.06842 0.42707
# Poissons Ratio (z) = -0.08393 0.85568
#
# Static dielectric constant tensor:
#      x y z
#    x 1.766350 0.000000 0.000000 
#    y 0.000000 1.751490 0.000000 
#    z 0.000000 0.000000 1.636920 
# 
# From -- ./inp_files/32632.got.cif
#   From: 2010.05.17/outbox.cif.g08.bks.cpg/sg51_17_cif.got.tgz:32632.got - 2010.06.03 11:52:47.
