data_PCOD9399501
_publ_section_title
;
Structure prediction by ZEFSAII (Michael W. Deem and Ramdas Pophale) SiO2 
 PCOD9399501
Probable space group: P M M A
;
_chemical_formula_sum "Si O2"
_cell_formula_units_Z 56
_cell_length_a 8.074314
_cell_length_b 19.111702
_cell_length_c 19.790636
_cell_angle_alpha 90.000000
_cell_angle_beta 90.000000
_cell_angle_gamma 90.000000
_cell_volume 3053.969889
_symmetry_space_group_name_H-M "P M M A"
_symmetry_group_IT_number 51
_symmetry_cell_setting 'orthorhombic'
loop_
_space_group_symop_operation_xyz
x,y,z
1/2-x,-y,z
1/2+x,-y,-z
-x,y,-z
-x,-y,-z
1/2+x,y,-z
1/2-x,y,z
x,-y,z
loop_
_atom_site_type_symbol
_atom_site_label
_atom_site_fract_x
_atom_site_fract_y
_atom_site_fract_z
Si Si1 0.949808 0.184103 0.573675
Si Si2 0.549457 0.579270 0.709388
Si Si3 0.550897 0.215908 0.075563
Si Si4 0.446909 0.077330 0.852825
Si Si5 0.449252 0.654405 0.426615
Si Si6 0.555383 0.148714 0.717882
Si Si7 0.447674 0.712100 0.789085
O O1 0.750000 0.185590 0.576614
O O2 0.009708 0.265024 0.578259
O O3 0.007660 0.144039 0.640926
O O4 0.000000 0.156769 0.500000
O O5 0.750000 0.579106 0.708878
O O6 0.492598 0.500000 0.720456
O O7 0.492440 0.608877 0.636580
O O8 0.492312 0.635218 0.764536
O O9 0.750000 0.213333 0.077179
O O10 0.486443 0.139562 0.099747
O O11 0.499522 0.269619 0.134437
O O12 0.500000 0.233071 0.000000
O O13 0.250000 0.074113 0.864488
O O14 0.472296 0.101990 0.775552
O O15 0.517358 0.000000 0.864239
O O16 0.500000 0.626813 0.500000
O O17 0.250000 0.656498 0.423910
O O18 0.750000 0.132440 0.718838
O O19 0.530718 0.229329 0.741317
O O20 0.250000 0.722508 0.784107
#
# Coordination Sequence:
#
# PCOD9399501 Si02
#       7
#     8   8   8   8   8   8   8
#     4   9  17  28  44  67  95 125 162 211 258 297
#     4  10  20  34  51  71  99 134 170 211 258 302
#     4   9  19  34  53  79 105 133 163 197 240 287
#     4   9  19  35  52  75 109 141 166 196 239 290
#     4   9  17  30  44  65  96 130 166 206 254 301
#     4  10  18  31  51  74  99 129 170 213 251 293
#     4  10  20  34  52  74 101 130 166 207 248 296
#
# _framework density 18.336787000000001
#
# number of rings (size 3 to 8) (size 9 to 14) (size 15 to 20)
#    0.000    2.571    1.429    1.714    0.000    5.714 
#    0.000    0.000    0.000    0.857    0.000    0.000 
#    0.000    0.000    0.000    0.000    0.000    0.000 
#
# Total GULP energy -312225.729952 kJ/mol
# GULP energy per Si atom -5575.459463 kJ/mol
# Density = 1.829505 g / cm^3
# Si number density = 18.336787 Si / 1000 Ang^3
#
#
#
# Elastic Constant Matrix: (Units=GPa)
#
#
# Indices 1 2 3 4 5 6 
#
# 1 8.0289 -0.8730 -1.6349 0.0000 0.0000 0.0000
# 2 -0.8730 51.4831 29.4427 0.0000 0.0000 0.0000
# 3 -1.6349 29.4427 136.8630 0.0000 0.0000 0.0000
# 4 0.0000 0.0000 0.0000 11.8534 0.0000 0.0000
# 5 0.0000 0.0000 0.0000 0.0000 27.1276 0.0000
# 6 0.0000 0.0000 0.0000 0.0000 0.0000 18.8346
#
#
#
# Elastic Compliance Matrix: (Units=1/GPa)
#
#
# Indices 1 2 3 4 5 6 
#
# 1 0.124948 0.001443 0.001182 0.000000 0.000000 0.000000
# 2 0.001443 0.022165 -0.004751 0.000000 0.000000 0.000000
# 3 0.001182 -0.004751 0.008343 0.000000 0.000000 0.000000
# 4 0.000000 0.000000 0.000000 0.084364 0.000000 0.000000
# 5 0.000000 0.000000 0.000000 0.000000 0.036863 0.000000
# 6 0.000000 0.000000 0.000000 0.000000 0.000000 0.053094
#
#
# Mechanical properties :
#
#
# Convention : Reuss Voigt Hill
#
# Bulk Modulus (GPa) = 6.61360 27.80497 17.20928
# Shear Modulus (GPa) = 13.00626 22.85913 17.93270
#
# Velocity S-wave (km/s) = 2.66616 3.53459 3.13063
# Velocity P-wave (km/s) = 3.61834 5.64395 4.74060
#
# Compressibility (1/GPa) = 0.15120354
#
# Stress axis : x y z
#
# Youngs Moduli (GPa) = 8.00334 45.11529 119.86407
#
# Poissons Ratio (x) = -0.06509 -0.14170
# Poissons Ratio (y) = -0.01155 0.56949
# Poissons Ratio (z) = -0.00946 0.21435
#
# Static dielectric constant tensor:
#      x y z
#    x 1.657380 0.000000 0.000000 
#    y 0.000000 1.629670 0.000000 
#    z 0.000000 0.000000 1.639570 
# 
# From -- ./inp_files/28213.got.cif
#   From: 2010.05.17/outbox.cif.g08.bks.cpg/sg51_15_cif.got.tgz:28213.got - 2010.06.03 11:52:47.
