data_PCOD9399929
_publ_section_title
;
Structure prediction by ZEFSAII (Michael W. Deem and Ramdas Pophale) SiO2 
 PCOD9399929
Probable space group: P M M A
;
_chemical_formula_sum "Si O2"
_cell_formula_units_Z 64
_cell_length_a 7.890127
_cell_length_b 24.666171
_cell_length_c 15.920707
_cell_angle_alpha 90.000000
_cell_angle_beta 90.000000
_cell_angle_gamma 90.000000
_cell_volume 3098.475607
_symmetry_space_group_name_H-M "P M M A"
_symmetry_group_IT_number 51
_symmetry_cell_setting 'orthorhombic'
loop_
_space_group_symop_operation_xyz
x,y,z
1/2-x,-y,z
1/2+x,-y,-z
-x,y,-z
-x,-y,-z
1/2+x,y,-z
1/2-x,y,z
x,-y,z
loop_
_atom_site_type_symbol
_atom_site_label
_atom_site_fract_x
_atom_site_fract_y
_atom_site_fract_z
Si Si1 0.455042 0.746337 0.848083
Si Si2 0.052968 0.372171 0.094169
Si Si3 0.453827 0.132200 0.593460
Si Si4 0.950482 0.439139 0.254510
Si Si5 0.546238 0.863425 0.093148
Si Si6 0.542272 0.062254 0.247650
Si Si7 0.545712 0.634032 0.407283
Si Si8 0.043269 0.249560 0.651661
O O1 0.250000 0.745078 0.851470
O O2 0.517720 0.691454 0.890475
O O3 0.515522 0.801927 0.890873
O O4 0.503588 0.747840 0.749884
O O5 0.250000 0.382169 0.103040
O O6 0.967624 0.406570 0.167851
O O7 0.000000 0.386827 0.000000
O O8 0.500000 0.114630 0.500000
O O9 0.250000 0.133844 0.599255
O O10 0.513189 0.092612 0.667499
O O11 0.516894 0.193455 0.611014
O O12 0.750000 0.443874 0.270402
O O13 0.021577 0.500000 0.249442
O O14 0.020215 0.403759 0.332004
O O15 0.750000 0.861609 0.099497
O O16 0.486212 0.903092 0.166935
O O17 0.500000 0.881656 0.000000
O O18 0.750000 0.062378 0.247390
O O19 0.487404 0.000000 0.244405
O O20 0.500000 0.614621 0.500000
O O21 0.750000 0.635916 0.401038
O O22 0.483600 0.695717 0.393263
O O23 0.250000 0.248961 0.649014
#
# Coordination Sequence:
#
# PCOD9399929 Si02
#       8
#     8   8   8   8   8   8   8   8
#     4  10  18  35  60  83 112 148 186 229 280 341
#     4  12  25  40  61  89 119 151 187 232 286 342
#     4  10  19  33  54  80 108 144 184 228 279 333
#     4  10  22  42  65  86 113 154 199 239 281 329
#     4  10  20  34  56  82 109 143 183 228 280 335
#     4   9  18  34  55  77 104 145 194 232 271 334
#     4  10  20  35  57  84 115 149 185 229 280 335
#     4   9  16  31  56  80 108 146 184 224 279 337
#
# _framework density 20.655317
#
# number of rings (size 3 to 8) (size 9 to 14) (size 15 to 20)
#    0.000    2.000    2.500    1.875    0.000    3.250 
#    0.000    1.250    0.000    0.750    0.000    0.000 
#    0.000    0.000    0.000    0.000    0.000    0.000 
#
# Total GULP energy -357530.066616 kJ/mol
# GULP energy per Si atom -5586.407291 kJ/mol
# Density = 2.060830 g / cm^3
# Si number density = 20.655317 Si / 1000 Ang^3
#
#
#
# Elastic Constant Matrix: (Units=GPa)
#
#
# Indices 1 2 3 4 5 6 
#
# 1 17.1099 1.1047 -9.8954 0.0000 0.0000 0.0000
# 2 1.1047 156.5242 78.8839 0.0000 0.0000 0.0000
# 3 -9.8954 78.8839 175.2954 0.0000 0.0000 0.0000
# 4 0.0000 0.0000 0.0000 0.7070 0.0000 0.0000
# 5 0.0000 0.0000 0.0000 0.0000 21.5749 0.0000
# 6 0.0000 0.0000 0.0000 0.0000 0.0000 1.1803
#
#
#
# Elastic Compliance Matrix: (Units=1/GPa)
#
#
# Indices 1 2 3 4 5 6 
#
# 1 0.061365 -0.002818 0.004732 0.000000 0.000000 0.000000
# 2 -0.002818 0.008392 -0.003936 0.000000 0.000000 0.000000
# 3 0.004732 -0.003936 0.007743 0.000000 0.000000 0.000000
# 4 0.000000 0.000000 0.000000 1.414475 0.000000 0.000000
# 5 0.000000 0.000000 0.000000 0.000000 0.046350 0.000000
# 6 0.000000 0.000000 0.000000 0.000000 0.000000 0.847232
#
#
# Mechanical properties :
#
#
# Convention : Reuss Voigt Hill
#
# Bulk Modulus (GPa) = 13.61347 54.34621 33.97984
# Shear Modulus (GPa) = 2.07118 23.28152 12.67635
#
# Velocity S-wave (km/s) = 1.00245 3.36094 2.48000
# Velocity P-wave (km/s) = 2.81868 6.43656 4.96862
#
# Compressibility (1/GPa) = 0.07345666
#
# Stress axis : x y z
#
# Youngs Moduli (GPa) = 16.29605 119.15981 129.15201
#
# Poissons Ratio (x) = 0.33579 -0.61117
# Poissons Ratio (y) = 0.04592 0.50829
# Poissons Ratio (z) = -0.07712 0.46896
#
# Static dielectric constant tensor:
#      x y z
#    x 1.747170 0.000000 0.000000 
#    y 0.000000 1.729650 0.000000 
#    z 0.000000 0.000000 1.667300 
# 
# From -- ./inp_files/22241.got.cif
#   From: 2010.05.17/outbox.cif.g08.bks.cpg/sg51_12_cif.got.tgz:22241.got - 2010.06.03 11:52:47.
