data_PCOD9399965
_publ_section_title
;
Structure prediction by ZEFSAII (Michael W. Deem and Ramdas Pophale) SiO2 
 PCOD9399965
Probable space group: P M M A
;
_chemical_formula_sum "Si O2"
_cell_formula_units_Z 64
_cell_length_a 9.286456
_cell_length_b 18.751048
_cell_length_c 26.537257
_cell_angle_alpha 90.000000
_cell_angle_beta 90.000000
_cell_angle_gamma 90.000000
_cell_volume 4620.953319
_symmetry_space_group_name_H-M "P M M A"
_symmetry_group_IT_number 51
_symmetry_cell_setting 'orthorhombic'
loop_
_space_group_symop_operation_xyz
x,y,z
1/2-x,-y,z
1/2+x,-y,-z
-x,y,-z
-x,-y,-z
1/2+x,y,-z
1/2-x,y,z
x,-y,z
loop_
_atom_site_type_symbol
_atom_site_label
_atom_site_fract_x
_atom_site_fract_y
_atom_site_fract_z
Si Si1 0.420772 0.853535 0.550056
Si Si2 0.580162 0.350976 0.753027
Si Si3 0.921577 0.916416 0.340833
Si Si4 0.078291 0.711944 0.603779
Si Si5 0.079234 0.788626 0.302855
Si Si6 0.921853 0.416579 0.642908
Si Si7 0.918915 0.414206 0.151721
Si Si8 0.916111 0.413169 0.949835
O O1 0.500000 0.878242 0.500000
O O2 0.250000 0.863046 0.544136
O O3 0.462567 0.894072 0.601730
O O4 0.448765 0.769040 0.559571
O O5 0.750000 0.364058 0.762457
O O6 0.559842 0.266488 0.743023
O O7 0.544312 0.391349 0.700323
O O8 0.487378 0.379297 0.798944
O O9 0.750000 0.901733 0.336133
O O10 0.009856 0.866651 0.302572
O O11 0.945855 0.000000 0.333523
O O12 0.250000 0.706716 0.610482
O O13 0.004368 0.750168 0.651528
O O14 0.006748 0.634258 0.604308
O O15 0.250000 0.792006 0.313284
O O16 0.750000 0.405749 0.636609
O O17 0.954199 0.500000 0.637201
O O18 0.750000 0.397982 0.147301
O O19 0.933718 0.500000 0.156183
O O20 0.002778 0.391646 0.101194
O O21 0.750000 0.390258 0.950151
O O22 0.916597 0.500000 0.950444
O O23 0.000000 0.389790 0.000000
#
# Coordination Sequence:
#
# PCOD9399965 Si02
#       8
#     8   8   8   8   8   8   8   8
#     4   9  18  30  44  62  82 104 128 155 188 226
#     4   9  17  28  40  55  78 105 130 160 199 238
#     4   9  18  32  47  64  87 109 128 154 188 225
#     4   9  17  29  43  59  79 102 128 157 191 232
#     4   9  17  29  44  61  80 104 134 162 189 228
#     4   9  17  28  42  60  80 101 127 161 200 240
#     4  10  19  27  36  54  78 103 136 176 212 246
#     4   9  16  26  39  52  69  97 133 173 215 254
#
# _framework density 13.849956000000001
#
# number of rings (size 3 to 8) (size 9 to 14) (size 15 to 20)
#    0.000    2.875    0.000    3.375    0.000    8.500 
#    0.000    0.000    0.000    0.375    0.000    0.000 
#    0.000    0.000    0.000    0.000    0.000    0.625 
#
# Total GULP energy -356294.266335 kJ/mol
# GULP energy per Si atom -5567.097911 kJ/mol
# Density = 1.381843 g / cm^3
# Si number density = 13.849956 Si / 1000 Ang^3
#
#
#
# Elastic Constant Matrix: (Units=GPa)
#
#
# Indices 1 2 3 4 5 6 
#
# 1 56.7857 27.1827 23.2631 0.0000 0.0000 0.0000
# 2 27.1827 60.4411 -0.3779 0.0000 0.0000 0.0000
# 3 23.2631 -0.3779 19.6872 0.0000 0.0000 0.0000
# 4 0.0000 0.0000 0.0000 9.9979 0.0000 0.0000
# 5 0.0000 0.0000 0.0000 0.0000 23.0412 0.0000
# 6 0.0000 0.0000 0.0000 0.0000 0.0000 20.5934
#
#
#
# Elastic Compliance Matrix: (Units=1/GPa)
#
#
# Indices 1 2 3 4 5 6 
#
# 1 0.060004 -0.027433 -0.071429 0.000000 0.000000 0.000000
# 2 -0.027433 0.029089 0.032974 0.000000 0.000000 0.000000
# 3 -0.071429 0.032974 0.135831 0.000000 0.000000 0.000000
# 4 0.000000 0.000000 0.000000 0.100021 0.000000 0.000000
# 5 0.000000 0.000000 0.000000 0.000000 0.043400 0.000000
# 6 0.000000 0.000000 0.000000 0.000000 0.000000 0.048559
#
#
# Mechanical properties :
#
#
# Convention : Reuss Voigt Hill
#
# Bulk Modulus (GPa) = 10.73570 26.33885 18.53727
# Shear Modulus (GPa) = 8.62470 16.51623 12.57046
#
# Velocity S-wave (km/s) = 2.49815 3.45702 3.01594
# Velocity P-wave (km/s) = 4.01114 5.91551 5.05384
#
# Compressibility (1/GPa) = 0.09314719
#
# Stress axis : x y z
#
# Youngs Moduli (GPa) = 16.66557 34.37755 7.36208
#
# Poissons Ratio (x) = 0.94307 0.52587
# Poissons Ratio (y) = 0.45718 -0.24276
# Poissons Ratio (z) = 1.19041 -1.13356
#
# Static dielectric constant tensor:
#      x y z
#    x 1.461130 0.000000 0.000000 
#    y 0.000000 1.478730 0.000000 
#    z 0.000000 0.000000 1.434520 
# 
# From -- ./inp_files/36431.got.cif
#   From: 2010.05.17/outbox.cif.g08.bks.cpg/sg51_19_cif.got.tgz:36431.got - 2010.06.03 11:52:47.
