data_PCOD9399299
_publ_section_title
;
Structure prediction by ZEFSAII (Michael W. Deem and Ramdas Pophale) SiO2 
 PCOD9399299
Probable space group: P M M A
;
_chemical_formula_sum "Si O2"
_cell_formula_units_Z 56
_cell_length_a 9.005757
_cell_length_b 15.643679
_cell_length_c 30.740915
_cell_angle_alpha 90.000000
_cell_angle_beta 90.000000
_cell_angle_gamma 90.000000
_cell_volume 4330.877605
_symmetry_space_group_name_H-M "P M M A"
_symmetry_group_IT_number 51
_symmetry_cell_setting 'orthorhombic'
loop_
_space_group_symop_operation_xyz
x,y,z
1/2-x,-y,z
1/2+x,-y,-z
-x,y,-z
-x,-y,-z
1/2+x,y,-z
1/2-x,y,z
x,-y,z
loop_
_atom_site_type_symbol
_atom_site_label
_atom_site_fract_x
_atom_site_fract_y
_atom_site_fract_z
Si Si1 0.425538 0.653843 0.100385
Si Si2 0.421420 0.604195 0.633546
Si Si3 0.426655 0.171984 0.047441
Si Si4 0.425944 0.602643 0.812275
Si Si5 0.579397 0.396072 0.722215
Si Si6 0.072212 0.500000 0.952460
Si Si7 0.571457 0.000000 0.048494
Si Si8 0.578622 0.395843 0.544503
O O1 0.250000 0.633295 0.099828
O O2 0.445747 0.745331 0.077519
O O3 0.487131 0.649324 0.149228
O O4 0.514536 0.582819 0.073256
O O5 0.250000 0.629908 0.635220
O O6 0.424948 0.500000 0.633549
O O7 0.507295 0.632536 0.676832
O O8 0.496760 0.631977 0.588516
O O9 0.250000 0.155888 0.041786
O O10 0.506859 0.088299 0.067174
O O11 0.500000 0.188269 0.000000
O O12 0.250000 0.617142 0.815512
O O13 0.450984 0.500000 0.817402
O O14 0.486463 0.627971 0.764859
O O15 0.750000 0.368517 0.725860
O O16 0.578826 0.500000 0.721169
O O17 0.250000 0.500000 0.955060
O O18 0.000000 0.500000 0.000000
O O19 0.250000 0.000000 0.952808
O O20 0.500000 0.000000 0.000000
O O21 0.500000 0.367886 0.500000
O O22 0.750000 0.370055 0.545048
O O23 0.574953 0.500000 0.544455
#
# Coordination Sequence:
#
# PCOD9399299 Si02
#       8
#     8   8   8   8   8   4   4   8
#     4  11  22  34  48  64  83 107 133 160 190 225
#     4   9  15  22  31  43  58  75  99 132 168 209
#     4  10  20  33  49  68  87 107 129 156 186 222
#     4  10  19  30  43  58  75  98 125 155 189 222
#     4   9  16  25  37  50  64  84 110 143 178 214
#     4  12  24  36  48  62  82 108 134 162 189 220
#     4  10  18  30  50  70  88 108 126 152 184 220
#     4   9  15  21  28  38  53  73  96 123 160 207
#
# _framework density 12.930405
#
# number of rings (size 3 to 8) (size 9 to 14) (size 15 to 20)
#    0.000    2.143    0.714    5.143    0.000    9.143 
#    0.000    0.000    0.000    0.000    0.000    0.000 
#    0.000    0.000    0.000    0.000    0.000    0.000 
#
# Total GULP energy -312183.913012 kJ/mol
# GULP energy per Si atom -5574.712732 kJ/mol
# Density = 1.290097 g / cm^3
# Si number density = 12.930405 Si / 1000 Ang^3
#
#
#
# Elastic Constant Matrix: (Units=GPa)
#
#
# Indices 1 2 3 4 5 6 
#
# 1 120.6024 37.5200 57.8229 0.0000 0.0000 0.0000
# 2 37.5200 42.1888 24.4632 0.0000 0.0000 0.0000
# 3 57.8229 24.4632 107.6695 0.0000 0.0000 0.0000
# 4 0.0000 0.0000 0.0000 0.9871 0.0000 0.0000
# 5 0.0000 0.0000 0.0000 0.0000 26.8608 0.0000
# 6 0.0000 0.0000 0.0000 0.0000 0.0000 10.8210
#
#
#
# Elastic Compliance Matrix: (Units=1/GPa)
#
#
# Indices 1 2 3 4 5 6 
#
# 1 0.013639 -0.009078 -0.005262 0.000000 0.000000 0.000000
# 2 -0.009078 0.033342 -0.002700 0.000000 0.000000 0.000000
# 3 -0.005262 -0.002700 0.012727 0.000000 0.000000 0.000000
# 4 0.000000 0.000000 0.000000 1.013078 0.000000 0.000000
# 5 0.000000 0.000000 0.000000 0.000000 0.037229 0.000000
# 6 0.000000 0.000000 0.000000 0.000000 0.000000 0.092413
#
#
# Mechanical properties :
#
#
# Convention : Reuss Voigt Hill
#
# Bulk Modulus (GPa) = 39.02087 56.67477 47.84782
# Shear Modulus (GPa) = 4.01590 17.77742 10.89666
#
# Velocity S-wave (km/s) = 1.76423 3.71192 2.90611
# Velocity P-wave (km/s) = 5.86457 7.89284 6.95306
#
# Compressibility (1/GPa) = 0.02562731
#
# Stress axis : x y z
#
# Youngs Moduli (GPa) = 73.31967 29.99188 78.57271
#
# Poissons Ratio (x) = 0.27228 0.41345
# Poissons Ratio (y) = 0.66562 0.21216
# Poissons Ratio (z) = 0.38581 0.08098
#
# Static dielectric constant tensor:
#      x y z
#    x 1.432510 0.000000 0.000000 
#    y 0.000000 1.404750 0.000000 
#    z 0.000000 0.000000 1.422170 
# 
# From -- ./inp_files/37511.got.cif
#   From: 2010.05.17/outbox.cif.g08.bks.cpg/sg51_19_cif.got.tgz:37511.got - 2010.06.03 11:52:47.
