data_PCOD9399580
_publ_section_title
;
Structure prediction by ZEFSAII (Michael W. Deem and Ramdas Pophale) SiO2 
 PCOD9399580
Probable space group: P M M A
;
_chemical_formula_sum "Si O2"
_cell_formula_units_Z 56
_cell_length_a 19.496181
_cell_length_b 14.305244
_cell_length_c 9.243339
_cell_angle_alpha 90.000000
_cell_angle_beta 90.000000
_cell_angle_gamma 90.000000
_cell_volume 2577.945306
_symmetry_space_group_name_H-M "P M M A"
_symmetry_group_IT_number 51
_symmetry_cell_setting 'orthorhombic'
loop_
_space_group_symop_operation_xyz
x,y,z
1/2-x,-y,z
1/2+x,-y,-z
-x,y,-z
-x,-y,-z
1/2+x,y,-z
1/2-x,y,z
x,-y,z
loop_
_atom_site_type_symbol
_atom_site_label
_atom_site_fract_x
_atom_site_fract_y
_atom_site_fract_z
Si Si1 0.672071 0.816425 0.193990
Si Si2 0.348759 0.396620 0.849123
Si Si3 0.332907 0.104960 0.111736
Si Si4 0.058370 0.819002 0.602530
Si Si5 0.996545 0.323861 0.162206
Si Si6 0.172621 0.225216 0.382108
Si Si7 0.852006 0.396876 0.813365
O O1 0.750000 0.851331 0.212194
O O2 0.673106 0.703365 0.217906
O O3 0.615378 0.867038 0.293720
O O4 0.649844 0.832786 0.027408
O O5 0.326998 0.500000 0.795472
O O6 0.431058 0.391326 0.839361
O O7 0.329867 0.390658 0.019037
O O8 0.250000 0.102861 0.114596
O O9 0.351751 0.147564 0.265956
O O10 0.358813 0.000000 0.092737
O O11 0.018011 0.751477 0.713295
O O12 0.112298 0.765886 0.497634
O O13 0.000000 0.864403 0.500000
O O14 0.066496 0.378341 0.187542
O O15 0.000000 0.281270 0.000000
O O16 0.250000 0.202955 0.438188
O O17 0.177982 0.317789 0.287002
O O18 0.836030 0.500000 0.760352
#
# Coordination Sequence:
#
# PCOD9399580 Si02
#       7
#     8   8   8   8   8   8   8
#     4  10  20  36  59  89 118 151 197 251 298 342
#     4   9  17  29  52  87 119 151 195 246 295 342
#     4   9  19  39  67  93 117 151 197 244 292 354
#     4  11  22  37  60  87 117 163 198 238 293 356
#     4   9  18  34  55  83 114 153 209 249 278 333
#     4  11  22  38  58  89 124 157 193 237 294 354
#     4  10  18  31  54  85 120 159 199 240 287 344
#
# _framework density 21.722726999999999
#
# number of rings (size 3 to 8) (size 9 to 14) (size 15 to 20)
#    0.000    2.143    2.857    0.857    0.000    2.286 
#    0.000    6.429    0.000    9.429    0.000    0.000 
#    0.000    0.000    0.000    0.000    0.000    0.000 
#
# Total GULP energy -312101.061894 kJ/mol
# GULP energy per Si atom -5573.233248 kJ/mol
# Density = 2.167329 g / cm^3
# Si number density = 21.722727 Si / 1000 Ang^3
#
#
#
# Elastic Constant Matrix: (Units=GPa)
#
#
# Indices 1 2 3 4 5 6 
#
# 1 126.0556 1.9261 21.5829 0.0000 0.0000 0.0000
# 2 1.9261 67.9688 15.9641 0.0000 0.0000 0.0000
# 3 21.5829 15.9641 80.3201 0.0000 0.0000 0.0000
# 4 0.0000 0.0000 0.0000 -5.2183 0.0000 0.0000
# 5 0.0000 0.0000 0.0000 0.0000 14.9762 0.0000
# 6 0.0000 0.0000 0.0000 0.0000 0.0000 6.6273
#
#
#
# Elastic Compliance Matrix: (Units=1/GPa)
#
#
# Indices 1 2 3 4 5 6 
#
# 1 0.008322 0.000304 -0.002296 0.000000 0.000000 0.000000
# 2 0.000304 0.015444 -0.003151 0.000000 0.000000 0.000000
# 3 -0.002296 -0.003151 0.013694 0.000000 0.000000 0.000000
# 4 0.000000 0.000000 0.000000 -0.191632 0.000000 0.000000
# 5 0.000000 0.000000 0.000000 0.000000 0.066773 0.000000
# 6 0.000000 0.000000 0.000000 0.000000 0.000000 0.150892
#
#
# Mechanical properties :
#
#
# Convention : Reuss Voigt Hill
#
# Bulk Modulus (GPa) = 36.80371 39.25452 38.02912
# Shear Modulus (GPa) = 60.35960 18.93511 39.64735
#
# Velocity S-wave (km/s) = 5.27700 2.95561 4.27682
# Velocity P-wave (km/s) = 7.35583 5.45504 6.47556
#
# Compressibility (1/GPa) = 0.02717117
#
# Stress axis : x y z
#
# Youngs Moduli (GPa) = 120.16982 64.74938 73.02691
#
# Poissons Ratio (x) = -0.01965 0.16770
# Poissons Ratio (y) = -0.03648 0.23012
# Poissons Ratio (z) = 0.27596 0.20404
#
# Static dielectric constant tensor:
#      x y z
#    x 1.857020 0.000000 0.000000 
#    y 0.000000 1.780000 0.000000 
#    z 0.000000 0.000000 1.821880 
# 
# From -- ./inp_files/11044.got.cif
#   From: 2010.05.17/outbox.cif.g08.bks.cpg/sg51_6_cif.got.tgz:11044.got - 2010.06.03 11:52:47.
