data_PCOD9399183
_publ_section_title
;
Structure prediction by ZEFSAII (Michael W. Deem and Ramdas Pophale) SiO2 
 PCOD9399183
Probable space group: P M M A
;
_chemical_formula_sum "Si O2"
_cell_formula_units_Z 64
_cell_length_a 8.892370
_cell_length_b 19.543028
_cell_length_c 24.374067
_cell_angle_alpha 90.000000
_cell_angle_beta 90.000000
_cell_angle_gamma 90.000000
_cell_volume 4235.818860
_symmetry_space_group_name_H-M "P M M A"
_symmetry_group_IT_number 51
_symmetry_cell_setting 'orthorhombic'
loop_
_space_group_symop_operation_xyz
x,y,z
1/2-x,-y,z
1/2+x,-y,-z
-x,y,-z
-x,-y,-z
1/2+x,y,-z
1/2-x,y,z
x,-y,z
loop_
_atom_site_type_symbol
_atom_site_label
_atom_site_fract_x
_atom_site_fract_y
_atom_site_fract_z
Si Si1 0.070298 0.077634 0.739550
Si Si2 0.431251 0.214264 0.441401
Si Si3 0.068961 0.421687 0.724987
Si Si4 0.430725 0.298161 0.334896
Si Si5 0.931388 0.662053 0.165795
Si Si6 0.570294 0.786625 0.774654
Si Si7 0.068750 0.579341 0.941272
Si Si8 0.430429 0.076965 0.381441
O O1 0.250000 0.084282 0.739152
O O2 0.998283 0.137836 0.775155
O O3 0.008447 0.085291 0.677493
O O4 0.031625 0.000000 0.757166
O O5 0.500000 0.230907 0.500000
O O6 0.250000 0.216191 0.444827
O O7 0.478152 0.265191 0.392410
O O8 0.475431 0.137721 0.421965
O O9 0.250000 0.420555 0.721263
O O10 0.018245 0.500000 0.720416
O O11 0.028837 0.389473 0.784273
O O12 0.001520 0.370951 0.679806
O O13 0.250000 0.303840 0.335034
O O14 0.470530 0.247274 0.284549
O O15 0.750000 0.669072 0.165819
O O16 0.978395 0.628287 0.108467
O O17 0.004944 0.734514 0.180484
O O18 0.750000 0.789504 0.778065
O O19 0.250000 0.581758 0.944641
O O20 0.026979 0.500000 0.929567
O O21 0.000000 0.598060 0.000000
O O22 0.250000 0.082556 0.372786
O O23 0.462939 0.000000 0.401687
#
# Coordination Sequence:
#
# PCOD9399183 Si02
#       8
#     8   8   8   8   8   8   8   8
#     4  10  19  29  44  67  92 118 150 185 221 267
#     4  10  20  33  46  64  86 112 145 182 220 266
#     4   9  17  29  47  70  91 112 142 180 223 271
#     4   9  18  32  46  63  88 113 141 176 220 271
#     4   9  17  29  45  67  95 125 155 191 230 265
#     4  10  18  30  47  66  90 120 151 186 228 273
#     4   9  17  29  45  65  94 133 170 200 230 265
#     4   9  17  31  48  63  85 117 147 178 218 262
#
# _framework density 15.10924
#
# number of rings (size 3 to 8) (size 9 to 14) (size 15 to 20)
#    0.000    2.625    1.250    1.125    0.000    4.750 
#    0.000    0.000    0.000    2.625    0.000    0.000 
#    0.000    0.500    0.000    1.625    0.000    2.000 
#
# Total GULP energy -356739.307570 kJ/mol
# GULP energy per Si atom -5574.051681 kJ/mol
# Density = 1.507485 g / cm^3
# Si number density = 15.109240 Si / 1000 Ang^3
#
#
#
# Elastic Constant Matrix: (Units=GPa)
#
#
# Indices 1 2 3 4 5 6 
#
# 1 13.9860 32.8039 27.0339 0.0000 0.0000 0.0000
# 2 32.8039 125.0633 68.4286 0.0000 0.0000 0.0000
# 3 27.0339 68.4286 107.0210 0.0000 0.0000 0.0000
# 4 0.0000 0.0000 0.0000 25.8149 0.0000 0.0000
# 5 0.0000 0.0000 0.0000 0.0000 22.5473 0.0000
# 6 0.0000 0.0000 0.0000 0.0000 0.0000 23.3589
#
#
#
# Elastic Compliance Matrix: (Units=1/GPa)
#
#
# Indices 1 2 3 4 5 6 
#
# 1 0.238358 -0.045492 -0.031123 0.000000 0.000000 0.000000
# 2 -0.045492 0.020981 -0.001924 0.000000 0.000000 0.000000
# 3 -0.031123 -0.001924 0.018436 0.000000 0.000000 0.000000
# 4 0.000000 0.000000 0.000000 0.038737 0.000000 0.000000
# 5 0.000000 0.000000 0.000000 0.000000 0.044351 0.000000
# 6 0.000000 0.000000 0.000000 0.000000 0.000000 0.042810
#
#
# Mechanical properties :
#
#
# Convention : Reuss Voigt Hill
#
# Bulk Modulus (GPa) = 8.28516 55.84479 32.06497
# Shear Modulus (GPa) = 8.31970 22.19782 15.25876
#
# Velocity S-wave (km/s) = 2.34911 3.83711 3.18133
# Velocity P-wave (km/s) = 3.58513 7.52809 5.89599
#
# Compressibility (1/GPa) = 0.12069771
#
# Stress axis : x y z
#
# Youngs Moduli (GPa) = 4.19537 47.66232 54.24267
#
# Poissons Ratio (x) = 2.16825 1.68819
# Poissons Ratio (y) = 0.19086 0.10434
# Poissons Ratio (z) = 0.13057 0.09168
#
# Static dielectric constant tensor:
#      x y z
#    x 1.507460 0.000000 0.000000 
#    y 0.000000 1.509820 0.000000 
#    z 0.000000 0.000000 1.474550 
# 
# From -- ./inp_files/35087.got.cif
#   From: 2010.05.17/outbox.cif.g08.bks.cpg/sg51_18_cif.got.tgz:35087.got - 2010.06.03 11:52:47.
