data_PCOD9399722
_publ_section_title
;
Structure prediction by ZEFSAII (Michael W. Deem and Ramdas Pophale) SiO2 
 PCOD9399722
Probable space group: P M M A
;
_chemical_formula_sum "Si O2"
_cell_formula_units_Z 48
_cell_length_a 13.803973
_cell_length_b 14.045257
_cell_length_c 11.749771
_cell_angle_alpha 90.000000
_cell_angle_beta 90.000000
_cell_angle_gamma 90.000000
_cell_volume 2278.049695
_symmetry_space_group_name_H-M "P M M A"
_symmetry_group_IT_number 51
_symmetry_cell_setting 'orthorhombic'
loop_
_space_group_symop_operation_xyz
x,y,z
1/2-x,-y,z
1/2+x,-y,-z
-x,y,-z
-x,-y,-z
1/2+x,y,-z
1/2-x,y,z
x,-y,z
loop_
_atom_site_type_symbol
_atom_site_label
_atom_site_fract_x
_atom_site_fract_y
_atom_site_fract_z
Si Si1 0.362530 0.749114 0.834421
Si Si2 0.138602 0.679413 0.477606
Si Si3 0.639796 0.103474 0.540556
Si Si4 0.021958 0.610417 0.690035
Si Si5 0.991034 0.894485 0.253638
Si Si6 0.138290 0.112411 0.050946
O O1 0.250000 0.723122 0.822003
O O2 0.432639 0.661861 0.800707
O O3 0.399309 0.827197 0.744458
O O4 0.373402 0.808894 0.951911
O O5 0.250000 0.656253 0.455559
O O6 0.131089 0.791100 0.509163
O O7 0.097996 0.621741 0.585395
O O8 0.073015 0.659188 0.366220
O O9 0.750000 0.102004 0.588564
O O10 0.557038 0.103750 0.635450
O O11 0.630383 0.000000 0.478638
O O12 0.002847 0.500000 0.711433
O O13 0.956994 0.000000 0.228703
O O14 0.063800 0.866379 0.151571
O O15 0.250000 0.118058 0.089945
O O16 0.123552 0.000000 0.017190
#
# Coordination Sequence:
#
# PCOD9399722 Si02
#       6
#     8   8   8   8   8   8
#     4  11  22  35  51  78 113 147 187 231 280 330
#     4  10  20  38  63  88 112 141 183 231 279 332
#     4   9  17  31  54  86 120 148 175 211 265 334
#     4  11  24  41  60  83 107 139 190 241 291 338
#     4  10  18  32  55  82 115 152 185 220 265 323
#     4   9  18  33  56  86 117 149 187 227 269 328
#
# _framework density 21.070654999999999
#
# number of rings (size 3 to 8) (size 9 to 14) (size 15 to 20)
#    0.000    2.000    1.667    3.000    0.000    6.667 
#    0.000    3.333    0.000    8.000    0.000    0.000 
#    0.000    0.000    0.000    0.000    0.000    0.000 
#
# Total GULP energy -267758.802622 kJ/mol
# GULP energy per Si atom -5578.308388 kJ/mol
# Density = 2.102270 g / cm^3
# Si number density = 21.070655 Si / 1000 Ang^3
#
#
#
# Elastic Constant Matrix: (Units=GPa)
#
#
# Indices 1 2 3 4 5 6 
#
# 1 84.5227 11.8372 22.0213 0.0000 0.0000 0.0000
# 2 11.8372 112.4847 12.2612 0.0000 0.0000 0.0000
# 3 22.0213 12.2612 57.8707 0.0000 0.0000 0.0000
# 4 0.0000 0.0000 0.0000 28.0867 0.0000 0.0000
# 5 0.0000 0.0000 0.0000 0.0000 16.0098 0.0000
# 6 0.0000 0.0000 0.0000 0.0000 0.0000 11.9683
#
#
#
# Elastic Compliance Matrix: (Units=1/GPa)
#
#
# Indices 1 2 3 4 5 6 
#
# 1 0.013214 -0.000862 -0.004846 0.000000 0.000000 0.000000
# 2 -0.000862 0.009157 -0.001612 0.000000 0.000000 0.000000
# 3 -0.004846 -0.001612 0.019465 0.000000 0.000000 0.000000
# 4 0.000000 0.000000 0.000000 0.035604 0.000000 0.000000
# 5 0.000000 0.000000 0.000000 0.000000 0.062462 0.000000
# 6 0.000000 0.000000 0.000000 0.000000 0.000000 0.083554
#
#
# Mechanical properties :
#
#
# Convention : Reuss Voigt Hill
#
# Bulk Modulus (GPa) = 36.76963 38.56862 37.66912
# Shear Modulus (GPa) = 20.22969 25.13019 22.67994
#
# Velocity S-wave (km/s) = 3.10189 3.45724 3.28438
# Velocity P-wave (km/s) = 5.50613 5.85499 5.68324
#
# Compressibility (1/GPa) = 0.02719636
#
# Stress axis : x y z
#
# Youngs Moduli (GPa) = 75.67491 109.21150 51.37336
#
# Poissons Ratio (x) = 0.09419 0.24894
# Poissons Ratio (y) = 0.06526 0.08281
# Poissons Ratio (z) = 0.36670 0.17603
#
# Static dielectric constant tensor:
#      x y z
#    x 1.761100 0.000000 0.000000 
#    y 0.000000 1.771950 0.000000 
#    z 0.000000 0.000000 1.801840 
# 
# From -- ./inp_files/24020.got.cif
#   From: 2010.05.17/outbox.cif.g08.bks.cpg/sg51_13_cif.got.tgz:24020.got - 2010.06.03 11:52:47.
