data_PCOD9399836
_publ_section_title
;
Structure prediction by ZEFSAII (Michael W. Deem and Ramdas Pophale) SiO2 
 PCOD9399836
Probable space group: P M M A
;
_chemical_formula_sum "Si O2"
_cell_formula_units_Z 48
_cell_length_a 19.817960
_cell_length_b 8.324064
_cell_length_c 15.564935
_cell_angle_alpha 90.000000
_cell_angle_beta 90.000000
_cell_angle_gamma 90.000000
_cell_volume 2567.684560
_symmetry_space_group_name_H-M "P M M A"
_symmetry_group_IT_number 51
_symmetry_cell_setting 'orthorhombic'
loop_
_space_group_symop_operation_xyz
x,y,z
1/2-x,-y,z
1/2+x,-y,-z
-x,y,-z
-x,-y,-z
1/2+x,y,-z
1/2-x,y,z
x,-y,z
loop_
_atom_site_type_symbol
_atom_site_label
_atom_site_fract_x
_atom_site_fract_y
_atom_site_fract_z
Si Si1 0.327513 0.805851 0.369204
Si Si2 0.172457 0.195906 0.564305
Si Si3 0.327446 0.803599 0.892327
Si Si4 0.071590 0.194056 0.039910
Si Si5 0.586946 0.805843 0.273923
Si Si6 0.437133 0.690063 0.233369
O O1 0.250000 0.756888 0.351492
O O2 0.344295 0.754020 0.466981
O O3 0.379875 0.743717 0.299895
O O4 0.329175 0.000000 0.368022
O O5 0.250000 0.242949 0.583186
O O6 0.121648 0.251393 0.637968
O O7 0.171556 0.000000 0.564812
O O8 0.250000 0.750125 0.891112
O O9 0.368662 0.752466 0.807864
O O10 0.326957 0.000000 0.891768
O O11 0.368449 0.752643 0.976884
O O12 0.078132 0.248529 0.137502
O O13 0.070838 0.000000 0.039448
O O14 0.000000 0.248157 0.000000
O O15 0.510011 0.755268 0.262232
O O16 0.588692 0.000000 0.274373
O O17 0.440437 0.500000 0.231359
#
# Coordination Sequence:
#
# PCOD9399836 Si02
#       6
#     8   8   8   8   8   8
#     4   9  19  38  61  83 108 141 185 234 280 327
#     4   8  15  30  57  89 113 137 178 234 285 324
#     4   9  17  30  54  86 111 134 173 226 277 328
#     4  10  19  36  58  80 106 140 183 228 278 332
#     4  10  18  33  57  84 113 143 179 223 276 334
#     4  12  25  37  53  79 113 151 189 226 272 329
#
# _framework density 18.693885000000002
#
# number of rings (size 3 to 8) (size 9 to 14) (size 15 to 20)
#    0.000    2.333    1.667    3.000    0.000    4.000 
#    0.000    5.833    0.000    4.000    0.000    0.000 
#    0.000    0.000    0.000    0.000    0.000    0.000 
#
# Total GULP energy -267897.700088 kJ/mol
# GULP energy per Si atom -5581.202085 kJ/mol
# Density = 1.865134 g / cm^3
# Si number density = 18.693885 Si / 1000 Ang^3
#
#
#
# Elastic Constant Matrix: (Units=GPa)
#
#
# Indices 1 2 3 4 5 6 
#
# 1 170.6474 19.3400 132.7867 0.0000 0.0000 0.0000
# 2 19.3400 9.9499 21.4203 0.0000 0.0000 0.0000
# 3 132.7867 21.4203 198.5181 0.0000 0.0000 0.0000
# 4 0.0000 0.0000 0.0000 -15.5635 0.0000 0.0000
# 5 0.0000 0.0000 0.0000 0.0000 41.9187 0.0000
# 6 0.0000 0.0000 0.0000 0.0000 0.0000 -13.1948
#
#
#
# Elastic Compliance Matrix: (Units=1/GPa)
#
#
# Indices 1 2 3 4 5 6 
#
# 1 0.012733 -0.008355 -0.007615 0.000000 0.000000 0.000000
# 2 -0.008355 0.136396 -0.009129 0.000000 0.000000 0.000000
# 3 -0.007615 -0.009129 0.011116 0.000000 0.000000 0.000000
# 4 0.000000 0.000000 0.000000 -0.064253 0.000000 0.000000
# 5 0.000000 0.000000 0.000000 0.000000 0.023856 0.000000
# 6 0.000000 0.000000 0.000000 0.000000 0.000000 -0.075787
#
#
# Mechanical properties :
#
#
# Convention : Reuss Voigt Hill
#
# Bulk Modulus (GPa) = 9.08701 80.68993 44.88847
# Shear Modulus (GPa) = 38.18541 16.33664 27.26102
#
# Velocity S-wave (km/s) = 4.52449 2.95939 3.82289
# Velocity P-wave (km/s) = 5.67153 7.41180 6.59928
#
# Compressibility (1/GPa) = 0.11004721
#
# Stress axis : x y z
#
# Youngs Moduli (GPa) = 78.53889 7.33159 89.95994
#
# Poissons Ratio (x) = 0.06125 0.68506
# Poissons Ratio (y) = 0.65617 0.82123
# Poissons Ratio (z) = 0.59809 0.06693
#
# Static dielectric constant tensor:
#      x y z
#    x 1.624590 0.000000 0.000000 
#    y 0.000000 1.637410 0.000000 
#    z 0.000000 0.000000 1.636530 
# 
# From -- ./inp_files/24770.got.cif
#   From: 2010.05.17/outbox.cif.g08.bks.cpg/sg51_13_cif.got.tgz:24770.got - 2010.06.03 11:52:47.
