data_PCOD9399412
_publ_section_title
;
Structure prediction by ZEFSAII (Michael W. Deem and Ramdas Pophale) SiO2 
 PCOD9399412
Probable space group: P M M A
;
_chemical_formula_sum "Si O2"
_cell_formula_units_Z 40
_cell_length_a 8.695955
_cell_length_b 26.225826
_cell_length_c 9.631196
_cell_angle_alpha 90.000000
_cell_angle_beta 90.000000
_cell_angle_gamma 90.000000
_cell_volume 2196.477102
_symmetry_space_group_name_H-M "P M M A"
_symmetry_group_IT_number 51
_symmetry_cell_setting 'orthorhombic'
loop_
_space_group_symop_operation_xyz
x,y,z
1/2-x,-y,z
1/2+x,-y,-z
-x,y,-z
-x,-y,-z
1/2+x,y,-z
1/2-x,y,z
x,-y,z
loop_
_atom_site_type_symbol
_atom_site_label
_atom_site_fract_x
_atom_site_fract_y
_atom_site_fract_z
Si Si1 0.566203 0.500000 0.156984
Si Si2 0.064859 0.092096 0.848672
Si Si3 0.565789 0.296922 0.654539
Si Si4 0.934671 0.790720 0.152879
Si Si5 0.935902 0.000000 0.346344
Si Si6 0.565560 0.394095 0.844090
O O1 0.750000 0.500000 0.154811
O O2 0.503042 0.446864 0.215816
O O3 0.500000 0.500000 0.000000
O O4 0.250000 0.090650 0.855591
O O5 0.020332 0.150514 0.816304
O O6 0.013918 0.050397 0.737391
O O7 0.000000 0.079199 0.000000
O O8 0.500000 0.300777 0.500000
O O9 0.750000 0.293456 0.648650
O O10 0.499904 0.247887 0.734231
O O11 0.525651 0.346553 0.746692
O O12 0.750000 0.787485 0.149053
O O13 0.000000 0.778056 0.000000
O O14 0.000000 0.000000 0.500000
O O15 0.750000 0.000000 0.350538
O O16 0.750000 0.398638 0.853977
O O17 0.500000 0.386444 0.000000
#
# Coordination Sequence:
#
# PCOD9399412 Si02
#       6
#     4   8   8   8   4   8
#     4  10  18  30  53  82 109 138 174 218 266 312
#     4   9  19  35  56  81 107 138 177 222 268 317
#     4  11  24  39  56  79 109 146 183 223 272 324
#     4  10  20  36  58  83 110 140 179 225 272 323
#     4  10  21  36  52  76 110 144 181 220 264 318
#     4  10  20  35  56  81 108 139 177 220 266 316
#
# _framework density 18.210979999999999
#
# number of rings (size 3 to 8) (size 9 to 14) (size 15 to 20)
#    0.000    2.000    0.000    4.800    0.000    7.200 
#    0.000    2.500    0.000    0.000    0.000    0.000 
#    0.000    0.000    0.000    0.000    0.000    0.000 
#
# Total GULP energy -223360.112636 kJ/mol
# GULP energy per Si atom -5584.002816 kJ/mol
# Density = 1.816953 g / cm^3
# Si number density = 18.210980 Si / 1000 Ang^3
#
#
#
# Elastic Constant Matrix: (Units=GPa)
#
#
# Indices 1 2 3 4 5 6 
#
# 1 52.1084 53.1387 47.5004 0.0000 0.0000 0.0000
# 2 53.1387 151.1549 117.3282 0.0000 0.0000 0.0000
# 3 47.5004 117.3282 142.2981 0.0000 0.0000 0.0000
# 4 0.0000 0.0000 0.0000 -4.2005 0.0000 0.0000
# 5 0.0000 0.0000 0.0000 0.0000 33.3358 0.0000
# 6 0.0000 0.0000 0.0000 0.0000 0.0000 24.4830
#
#
#
# Elastic Compliance Matrix: (Units=1/GPa)
#
#
# Indices 1 2 3 4 5 6 
#
# 1 0.030615 -0.007862 -0.003737 0.000000 0.000000 0.000000
# 2 -0.007862 0.020396 -0.014193 0.000000 0.000000 0.000000
# 3 -0.003737 -0.014193 0.019977 0.000000 0.000000 0.000000
# 4 0.000000 0.000000 0.000000 -0.238065 0.000000 0.000000
# 5 0.000000 0.000000 0.000000 0.000000 0.029998 0.000000
# 6 0.000000 0.000000 0.000000 0.000000 0.000000 0.040845
#
#
# Mechanical properties :
#
#
# Convention : Reuss Voigt Hill
#
# Bulk Modulus (GPa) = 51.53415 86.83288 69.18352
# Shear Modulus (GPa) = -130.94878 19.22993 -55.85943
#
# Velocity S-wave (km/s) = -8.48897 3.25307 -5.54437
# Velocity P-wave (km/s) = 8.22944 7.86734 1.70713
#
# Compressibility (1/GPa) = 0.01940461
#
# Stress axis : x y z
#
# Youngs Moduli (GPa) = 32.66398 49.02892 50.05679
#
# Poissons Ratio (x) = 0.38545 0.18708
# Poissons Ratio (y) = 0.25680 0.71044
# Poissons Ratio (z) = 0.12207 0.69586
#
# Static dielectric constant tensor:
#      x y z
#    x 1.613180 0.000000 0.000000 
#    y 0.000000 1.650700 0.000000 
#    z 0.000000 0.000000 1.582660 
# 
# From -- ./inp_files/5617.got.cif
#   From: 2010.05.17/outbox.cif.g08.bks.cpg/sg51_3_cif.got.tgz:5617.got - 2010.06.03 11:52:47.
