data_PCOD9399831
_publ_section_title
;
Structure prediction by ZEFSAII (Michael W. Deem and Ramdas Pophale) SiO2 
 PCOD9399831
Probable space group: P M M A
;
_chemical_formula_sum "Si O2"
_cell_formula_units_Z 38
_cell_length_a 7.484022
_cell_length_b 10.289231
_cell_length_c 24.554562
_cell_angle_alpha 90.000000
_cell_angle_beta 90.000000
_cell_angle_gamma 90.000000
_cell_volume 1890.819901
_symmetry_space_group_name_H-M "P M M A"
_symmetry_group_IT_number 51
_symmetry_cell_setting 'orthorhombic'
loop_
_space_group_symop_operation_xyz
x,y,z
1/2-x,-y,z
1/2+x,-y,-z
-x,y,-z
-x,-y,-z
1/2+x,y,-z
1/2-x,y,z
x,-y,z
loop_
_atom_site_type_symbol
_atom_site_label
_atom_site_fract_x
_atom_site_fract_y
_atom_site_fract_z
Si Si1 0.537730 0.000000 0.436239
Si Si2 0.462470 0.350061 0.273717
Si Si3 0.964336 0.648583 0.151258
Si Si4 0.750000 0.500000 0.588373
Si Si5 0.964172 0.147390 0.062549
Si Si6 0.543552 0.274388 0.390268
O O1 0.500000 0.000000 0.500000
O O2 0.475084 0.135115 0.410725
O O3 0.750000 0.000000 0.427076
O O4 0.250000 0.353155 0.282642
O O5 0.526962 0.500000 0.276101
O O6 0.497221 0.303736 0.212532
O O7 0.543955 0.275576 0.324355
O O8 0.750000 0.641876 0.145729
O O9 0.032835 0.500000 0.146143
O O10 0.032799 0.747347 0.105593
O O11 0.591764 0.386639 0.591299
O O12 0.750000 0.142106 0.069026
O O13 0.032695 0.000000 0.070820
O O14 0.000000 0.184527 0.000000
O O15 0.750000 0.296162 0.408858
#
# Coordination Sequence:
#
# PCOD9399831 Si02
#       6
#     4   8   8   2   8   8
#     4  10  26  46  72  94 130 182 215 259 324 378
#     4  10  18  33  56  86 118 153 193 243 303 359
#     4   9  18  31  49  74 103 141 178 225 289 353
#     4  12  22  38  70 102 126 170 212 274 314 362
#     4   9  18  33  50  67  94 134 179 229 287 344
#     4  11  22  41  66  97 130 169 217 259 318 381
#
# _framework density 20.097100999999999
#
# number of rings (size 3 to 8) (size 9 to 14) (size 15 to 20)
#    0.000    2.105    2.105    0.947    1.474    2.105 
#    1.895    0.526    0.000    0.000    0.000    0.000 
#    0.000    0.000    0.000    0.000    0.000    0.000 
#
# Total GULP energy -211537.464734 kJ/mol
# GULP energy per Si atom -5566.775388 kJ/mol
# Density = 2.005136 g / cm^3
# Si number density = 20.097101 Si / 1000 Ang^3
#
#
#
# Elastic Constant Matrix: (Units=GPa)
#
#
# Indices 1 2 3 4 5 6 
#
# 1 100.8233 38.0432 -3.4762 0.0000 0.0000 0.0000
# 2 38.0432 161.7416 86.3288 0.0000 0.0000 0.0000
# 3 -3.4762 86.3288 102.3329 0.0000 0.0000 0.0000
# 4 0.0000 0.0000 0.0000 39.9968 0.0000 0.0000
# 5 0.0000 0.0000 0.0000 0.0000 21.5407 0.0000
# 6 0.0000 0.0000 0.0000 0.0000 0.0000 9.4749
#
#
#
# Elastic Compliance Matrix: (Units=1/GPa)
#
#
# Indices 1 2 3 4 5 6 
#
# 1 0.012222 -0.005632 0.005167 0.000000 0.000000 0.000000
# 2 -0.005632 0.013842 -0.011869 0.000000 0.000000 0.000000
# 3 0.005167 -0.011869 0.019960 0.000000 0.000000 0.000000
# 4 0.000000 0.000000 0.000000 0.025002 0.000000 0.000000
# 5 0.000000 0.000000 0.000000 0.000000 0.046424 0.000000
# 6 0.000000 0.000000 0.000000 0.000000 0.000000 0.105542
#
#
# Mechanical properties :
#
#
# Convention : Reuss Voigt Hill
#
# Bulk Modulus (GPa) = 46.82703 67.40994 57.11848
# Shear Modulus (GPa) = 19.62481 30.46930 25.04705
#
# Velocity S-wave (km/s) = 3.12829 3.89794 3.53413
# Velocity P-wave (km/s) = 6.03318 7.33986 6.71836
#
# Compressibility (1/GPa) = 0.02135519
#
# Stress axis : x y z
#
# Youngs Moduli (GPa) = 81.82159 72.24144 50.09956
#
# Poissons Ratio (x) = 0.40689 -0.25885
# Poissons Ratio (y) = 0.46085 0.59463
# Poissons Ratio (z) = -0.42274 0.85743
#
# Static dielectric constant tensor:
#      x y z
#    x 1.744480 0.000000 0.000000 
#    y 0.000000 1.697310 0.000000 
#    z 0.000000 0.000000 1.709030 
# 
# From -- ./inp_files/34392.got.cif
#   From: 2010.05.17/outbox.cif.g08.bks.cpg/sg51_18_cif.got.tgz:34392.got - 2010.06.03 11:52:47.
