data_PCOD9399849
_publ_section_title
;
Structure prediction by ZEFSAII (Michael W. Deem and Ramdas Pophale) SiO2 
 PCOD9399849
Probable space group: P M M A
;
_chemical_formula_sum "Si O2"
_cell_formula_units_Z 56
_cell_length_a 15.887555
_cell_length_b 7.966881
_cell_length_c 22.047672
_cell_angle_alpha 90.000000
_cell_angle_beta 90.000000
_cell_angle_gamma 90.000000
_cell_volume 2790.667770
_symmetry_space_group_name_H-M "P M M A"
_symmetry_group_IT_number 51
_symmetry_cell_setting 'orthorhombic'
loop_
_space_group_symop_operation_xyz
x,y,z
1/2-x,-y,z
1/2+x,-y,-z
-x,y,-z
-x,-y,-z
1/2+x,y,-z
1/2-x,y,z
x,-y,z
loop_
_atom_site_type_symbol
_atom_site_label
_atom_site_fract_x
_atom_site_fract_y
_atom_site_fract_z
Si Si1 0.154862 0.799338 0.571779
Si Si2 0.843065 0.294683 0.872696
Si Si3 0.598485 0.702788 0.004750
Si Si4 0.005355 0.699919 0.211319
Si Si5 0.343071 0.801832 0.863009
Si Si6 0.154667 0.702333 0.433306
Si Si7 0.503537 0.298086 0.651479
O O1 0.250000 0.736991 0.585347
O O2 0.134353 0.746342 0.502887
O O3 0.083453 0.739257 0.617409
O O4 0.156548 0.000000 0.573806
O O5 0.750000 0.244710 0.852226
O O6 0.846101 0.500000 0.873092
O O7 0.918061 0.233314 0.829790
O O8 0.858161 0.242822 0.942294
O O9 0.603899 0.500000 0.008626
O O10 0.637802 0.772754 0.066042
O O11 0.500000 0.747154 0.000000
O O12 0.018568 0.500000 0.215619
O O13 0.918023 0.726611 0.176506
O O14 0.003900 0.767467 0.279704
O O15 0.250000 0.733580 0.848870
O O16 0.342850 0.000000 0.851562
O O17 0.250000 0.763450 0.420443
O O18 0.156247 0.500000 0.428937
O O19 0.082647 0.765682 0.388054
O O20 0.511374 0.500000 0.653974
#
# Coordination Sequence:
#
# PCOD9399849 Si02
#       7
#     8   8   8   8   8   8   8
#     4  10  21  36  55  80 109 142 180 222 267 316
#     4   9  17  31  54  82 108 136 173 218 267 318
#     4  10  18  33  59  85 109 137 175 223 272 322
#     4  10  21  38  56  78 108 143 183 225 266 317
#     4  11  24  39  55  78 109 145 183 225 275 324
#     4   9  18  34  56  83 114 143 173 215 267 320
#     4  10  21  35  55  81 109 142 180 221 270 320
#
# _framework density 20.066880999999999
#
# number of rings (size 3 to 8) (size 9 to 14) (size 15 to 20)
#    0.000    2.143    1.429    1.714    0.000    6.857 
#    0.000    5.714    0.000    0.429    0.000    2.000 
#    0.000    0.000    0.000    0.000    0.000    0.000 
#
# Total GULP energy -312710.612567 kJ/mol
# GULP energy per Si atom -5584.118082 kJ/mol
# Density = 2.002121 g / cm^3
# Si number density = 20.066881 Si / 1000 Ang^3
#
#
#
# Elastic Constant Matrix: (Units=GPa)
#
#
# Indices 1 2 3 4 5 6 
#
# 1 141.2728 0.1446 88.5569 0.0000 0.0000 0.0000
# 2 0.1446 13.9050 0.9112 0.0000 0.0000 0.0000
# 3 88.5569 0.9112 150.4412 0.0000 0.0000 0.0000
# 4 0.0000 0.0000 0.0000 -48.6260 0.0000 0.0000
# 5 0.0000 0.0000 0.0000 0.0000 -3.2221 0.0000
# 6 0.0000 0.0000 0.0000 0.0000 0.0000 2.1884
#
#
#
# Elastic Compliance Matrix: (Units=1/GPa)
#
#
# Indices 1 2 3 4 5 6 
#
# 1 0.011219 0.000316 -0.006606 0.000000 0.000000 0.000000
# 2 0.000316 0.071954 -0.000622 0.000000 0.000000 0.000000
# 3 -0.006606 -0.000622 0.010540 0.000000 0.000000 0.000000
# 4 0.000000 0.000000 0.000000 -0.020565 0.000000 0.000000
# 5 0.000000 0.000000 0.000000 0.000000 -0.310352 0.000000
# 6 0.000000 0.000000 0.000000 0.000000 0.000000 0.456956
#
#
# Mechanical properties :
#
#
# Convention : Reuss Voigt Hill
#
# Bulk Modulus (GPa) = 12.51733 53.87160 33.19446
# Shear Modulus (GPa) = 19.21562 4.46846 11.84204
#
# Velocity S-wave (km/s) = 3.09783 1.49386 2.43189
# Velocity P-wave (km/s) = 4.36426 5.46624 4.94604
#
# Compressibility (1/GPa) = 0.07988926
#
# Stress axis : x y z
#
# Youngs Moduli (GPa) = 89.13290 13.89774 94.88084
#
# Poissons Ratio (x) = -0.00439 0.62679
# Poissons Ratio (y) = -0.02819 0.05901
# Poissons Ratio (z) = 0.58882 0.00864
#
# Static dielectric constant tensor:
#      x y z
#    x 1.716360 0.000000 0.000000 
#    y 0.000000 1.721520 0.000000 
#    z 0.000000 0.000000 1.677700 
# 
# From -- ./inp_files/33325.got.cif
#   From: 2010.05.17/outbox.cif.g08.bks.cpg/sg51_17_cif.got.tgz:33325.got - 2010.06.03 11:52:47.
