data_PCOD9399984
_publ_section_title
;
Structure prediction by ZEFSAII (Michael W. Deem and Ramdas Pophale) SiO2 
 PCOD9399984
Probable space group: P M M A
;
_chemical_formula_sum "Si O2"
_cell_formula_units_Z 64
_cell_length_a 8.767905
_cell_length_b 22.077286
_cell_length_c 19.273650
_cell_angle_alpha 90.000000
_cell_angle_beta 90.000000
_cell_angle_gamma 90.000000
_cell_volume 3730.830233
_symmetry_space_group_name_H-M "P M M A"
_symmetry_group_IT_number 51
_symmetry_cell_setting 'orthorhombic'
loop_
_space_group_symop_operation_xyz
x,y,z
1/2-x,-y,z
1/2+x,-y,-z
-x,y,-z
-x,-y,-z
1/2+x,y,-z
1/2-x,y,z
x,-y,z
loop_
_atom_site_type_symbol
_atom_site_label
_atom_site_fract_x
_atom_site_fract_y
_atom_site_fract_z
Si Si1 0.433532 0.933354 0.640638
Si Si2 0.068168 0.885714 0.218941
Si Si3 0.425569 0.753936 0.928563
Si Si4 0.067744 0.238862 0.721427
Si Si5 0.933737 0.429532 0.924866
Si Si6 0.067360 0.809365 0.572801
Si Si7 0.929410 0.328279 0.818110
Si Si8 0.575183 0.099733 0.072955
O O1 0.250000 0.928213 0.650097
O O2 0.509870 0.924360 0.715630
O O3 0.481957 0.878156 0.591491
O O4 0.468536 0.000000 0.612995
O O5 0.250000 0.882215 0.217285
O O6 0.001406 0.818524 0.236318
O O7 0.009458 0.912369 0.145626
O O8 0.250000 0.733698 0.919780
O O9 0.533598 0.726149 0.870942
O O10 0.424381 0.826629 0.928952
O O11 0.500000 0.733522 0.000000
O O12 0.250000 0.234138 0.728806
O O13 0.025070 0.228816 0.641106
O O14 0.012535 0.303399 0.750036
O O15 0.750000 0.424711 0.928957
O O16 0.974150 0.500000 0.913526
O O17 0.983956 0.387219 0.860868
O O18 0.000000 0.411561 0.000000
O O19 0.250000 0.808747 0.567745
O O20 0.000000 0.789326 0.500000
O O21 0.750000 0.334149 0.805194
O O22 0.750000 0.078996 0.076106
O O23 0.500000 0.079564 0.000000
#
# Coordination Sequence:
#
# PCOD9399984 Si02
#       8
#     8   8   8   8   8   8   8   8
#     4   9  19  36  55  74  99 132 166 197 234 282
#     4  11  20  31  49  71  97 125 158 202 247 292
#     4  10  19  28  40  59  89 122 153 194 240 287
#     4  10  20  34  49  69  98 130 161 195 240 295
#     4   9  19  34  48  65  94 133 176 218 257 296
#     4   9  19  34  53  76 103 133 161 190 233 285
#     4  11  20  29  46  69  93 124 165 209 249 290
#     4  10  19  30  44  63  90 122 154 192 240 292
#
# _framework density 17.154358999999999
#
# number of rings (size 3 to 8) (size 9 to 14) (size 15 to 20)
#    0.000    2.125    1.250    3.750    0.000    6.000 
#    0.000    0.000    0.000    0.375    0.000    0.000 
#    0.000    0.500    0.000    1.125    0.000    1.750 
#
# Total GULP energy -356907.850206 kJ/mol
# GULP energy per Si atom -5576.685159 kJ/mol
# Density = 1.711531 g / cm^3
# Si number density = 17.154359 Si / 1000 Ang^3
#
#
#
# Elastic Constant Matrix: (Units=GPa)
#
#
# Indices 1 2 3 4 5 6 
#
# 1 39.0686 9.9639 18.9726 0.0000 0.0000 0.0000
# 2 9.9639 66.9596 26.1380 0.0000 0.0000 0.0000
# 3 18.9726 26.1380 111.5782 0.0000 0.0000 0.0000
# 4 0.0000 0.0000 0.0000 13.8634 0.0000 0.0000
# 5 0.0000 0.0000 0.0000 0.0000 27.0526 0.0000
# 6 0.0000 0.0000 0.0000 0.0000 0.0000 14.1424
#
#
#
# Elastic Compliance Matrix: (Units=1/GPa)
#
#
# Indices 1 2 3 4 5 6 
#
# 1 0.028295 -0.002567 -0.004210 0.000000 0.000000 0.000000
# 2 -0.002567 0.016670 -0.003469 0.000000 0.000000 0.000000
# 3 -0.004210 -0.003469 0.010491 0.000000 0.000000 0.000000
# 4 0.000000 0.000000 0.000000 0.072133 0.000000 0.000000
# 5 0.000000 0.000000 0.000000 0.000000 0.036965 0.000000
# 6 0.000000 0.000000 0.000000 0.000000 0.000000 0.070709
#
#
# Mechanical properties :
#
#
# Convention : Reuss Voigt Hill
#
# Bulk Modulus (GPa) = 28.60006 36.41726 32.50866
# Shear Modulus (GPa) = 18.69792 21.84713 20.27253
#
# Velocity S-wave (km/s) = 3.30507 3.57257 3.44142
# Velocity P-wave (km/s) = 5.59223 6.18813 5.89771
#
# Compressibility (1/GPa) = 0.03496496
#
# Stress axis : x y z
#
# Youngs Moduli (GPa) = 35.34172 59.98662 95.32223
#
# Poissons Ratio (x) = 0.15399 0.40130
# Poissons Ratio (y) = 0.09073 0.33064
# Poissons Ratio (z) = 0.14879 0.20807
#
# Static dielectric constant tensor:
#      x y z
#    x 1.582640 0.000000 0.000000 
#    y 0.000000 1.607960 0.000000 
#    z 0.000000 0.000000 1.565840 
# 
# From -- ./inp_files/32712.got.cif
#   From: 2010.05.17/outbox.cif.g08.bks.cpg/sg51_17_cif.got.tgz:32712.got - 2010.06.03 11:52:47.
