data_PCOD9399393
_publ_section_title
;
Structure prediction by ZEFSAII (Michael W. Deem and Ramdas Pophale) SiO2 
 PCOD9399393
Probable space group: P M M A
;
_chemical_formula_sum "Si O2"
_cell_formula_units_Z 48
_cell_length_a 17.120979
_cell_length_b 7.569920
_cell_length_c 14.094172
_cell_angle_alpha 90.000000
_cell_angle_beta 90.000000
_cell_angle_gamma 90.000000
_cell_volume 1826.667288
_symmetry_space_group_name_H-M "P M M A"
_symmetry_group_IT_number 51
_symmetry_cell_setting 'orthorhombic'
loop_
_space_group_symop_operation_xyz
x,y,z
1/2-x,-y,z
1/2+x,-y,-z
-x,y,-z
-x,-y,-z
1/2+x,y,-z
1/2-x,y,z
x,-y,z
loop_
_atom_site_type_symbol
_atom_site_label
_atom_site_fract_x
_atom_site_fract_y
_atom_site_fract_z
Si Si1 0.250000 0.285878 0.724131
Si Si2 0.500421 0.286175 0.781672
Si Si3 0.418522 0.791464 0.963163
Si Si4 0.165343 0.702662 0.203799
Si Si5 0.836949 0.206886 0.580515
Si Si6 0.405487 0.287677 0.612498
Si Si7 0.750000 0.209411 0.051668
O O1 0.250000 0.500000 0.723613
O O2 0.327034 0.226544 0.667034
O O3 0.250000 0.232333 0.834341
O O4 0.505483 0.500000 0.782002
O O5 0.430645 0.231864 0.850437
O O6 0.582296 0.214880 0.823551
O O7 0.478263 0.225237 0.676070
O O8 0.332648 0.718945 0.987418
O O9 0.418413 0.000000 0.983746
O O10 0.500000 0.709986 0.000000
O O11 0.250000 0.785904 0.183313
O O12 0.167836 0.500000 0.172601
O O13 0.155883 0.699279 0.318674
O O14 0.750000 0.256254 0.542991
O O15 0.897915 0.240891 0.497282
O O16 0.836947 0.000000 0.602396
O O17 0.406854 0.500000 0.616446
O O18 0.750000 0.000000 0.033276
#
# Coordination Sequence:
#
# PCOD9399393 Si02
#       7
#     4   8   8   8   8   8   4
#     4  10  18  30  52  80 109 142 179 220 271 328
#     4  10  21  37  58  83 109 140 181 230 278 328
#     4  10  22  40  60  85 117 149 181 221 272 331
#     4   9  19  37  57  74 102 146 190 230 276 328
#     4  10  20  32  49  75 107 144 188 232 272 321
#     4  10  19  31  50  77 108 141 178 221 274 329
#     4  10  20  36  60  84 111 148 183 218 269 330
#
# _framework density 26.277362
#
# number of rings (size 3 to 8) (size 9 to 14) (size 15 to 20)
#    0.000    2.167    2.500    0.500    0.000    3.667 
#    1.500    3.333    0.000    0.000    0.000    0.000 
#    0.000    0.000    0.000    0.000    0.000    0.000 
#
# Total GULP energy -268448.590861 kJ/mol
# GULP energy per Si atom -5592.678976 kJ/mol
# Density = 2.621755 g / cm^3
# Si number density = 26.277362 Si / 1000 Ang^3
#
#
#
# Elastic Constant Matrix: (Units=GPa)
#
#
# Indices 1 2 3 4 5 6 
#
# 1 209.5263 17.8331 34.7078 0.0000 0.0000 0.0000
# 2 17.8331 81.2190 13.0984 0.0000 0.0000 0.0000
# 3 34.7078 13.0984 99.8389 0.0000 0.0000 0.0000
# 4 0.0000 0.0000 0.0000 45.0165 0.0000 0.0000
# 5 0.0000 0.0000 0.0000 0.0000 52.8525 0.0000
# 6 0.0000 0.0000 0.0000 0.0000 0.0000 3.8357
#
#
#
# Elastic Compliance Matrix: (Units=1/GPa)
#
#
# Indices 1 2 3 4 5 6 
#
# 1 0.005122 -0.000856 -0.001668 0.000000 0.000000 0.000000
# 2 -0.000856 0.012721 -0.001372 0.000000 0.000000 0.000000
# 3 -0.001668 -0.001372 0.010776 0.000000 0.000000 0.000000
# 4 0.000000 0.000000 0.000000 0.022214 0.000000 0.000000
# 5 0.000000 0.000000 0.000000 0.000000 0.018921 0.000000
# 6 0.000000 0.000000 0.000000 0.000000 0.000000 0.260707
#
#
# Mechanical properties :
#
#
# Convention : Reuss Voigt Hill
#
# Bulk Modulus (GPa) = 48.01116 57.98474 52.99795
# Shear Modulus (GPa) = 14.48460 42.00395 28.24427
#
# Velocity S-wave (km/s) = 2.35035 4.00244 3.28205
# Velocity P-wave (km/s) = 5.06716 6.59346 5.88004
#
# Compressibility (1/GPa) = 0.02082849
#
# Stress axis : x y z
#
# Youngs Moduli (GPa) = 195.24234 78.60749 92.79842
#
# Poissons Ratio (x) = 0.06725 0.15482
# Poissons Ratio (y) = 0.16704 0.12728
# Poissons Ratio (z) = 0.32572 0.10782
#
# Static dielectric constant tensor:
#      x y z
#    x 2.131380 0.000000 0.000000 
#    y 0.000000 1.948370 0.000000 
#    z 0.000000 0.000000 2.093580 
# 
# From -- ./inp_files/25009.got.cif
#   From: 2010.05.17/outbox.cif.g08.bks.cpg/sg51_13_cif.got.tgz:25009.got - 2010.06.03 11:52:47.
