data_PCOD9399940
_publ_section_title
;
Structure prediction by ZEFSAII (Michael W. Deem and Ramdas Pophale) SiO2 
 PCOD9399940
Probable space group: P M M A
;
_chemical_formula_sum "Si O2"
_cell_formula_units_Z 32
_cell_length_a 17.487752
_cell_length_b 11.334105
_cell_length_c 8.874058
_cell_angle_alpha 90.000000
_cell_angle_beta 90.000000
_cell_angle_gamma 90.000000
_cell_volume 1758.909442
_symmetry_space_group_name_H-M "P M M A"
_symmetry_group_IT_number 51
_symmetry_cell_setting 'orthorhombic'
loop_
_space_group_symop_operation_xyz
x,y,z
1/2-x,-y,z
1/2+x,-y,-z
-x,y,-z
-x,-y,-z
1/2+x,y,-z
1/2-x,y,z
x,-y,z
loop_
_atom_site_type_symbol
_atom_site_label
_atom_site_fract_x
_atom_site_fract_y
_atom_site_fract_z
Si Si1 0.042800 0.241222 0.340903
Si Si2 0.160565 0.863058 0.142319
Si Si3 0.929962 0.297387 0.095041
Si Si4 0.419126 0.500000 0.415974
Si Si5 0.840037 0.500000 0.269492
O O1 0.113229 0.158832 0.296085
O O2 0.077347 0.375503 0.329634
O O3 0.000000 0.228297 0.500000
O O4 0.977128 0.221770 0.216693
O O5 0.250000 0.834568 0.159655
O O6 0.153699 0.000000 0.098750
O O7 0.121629 0.779771 0.016621
O O8 0.880022 0.388791 0.189673
O O9 0.000000 0.354551 0.000000
O O10 0.500000 0.500000 0.500000
O O11 0.358073 0.500000 0.551507
O O12 0.750000 0.500000 0.244245
#
# Coordination Sequence:
#
# PCOD9399940 Si02
#       5
#     8   8   8   4   4
#     4  10  19  37  63  84 112 151 191 231 280 344
#     4  10  23  41  57  80 117 152 190 243 292 331
#     4  10  20  36  60  83 113 152 188 232 280 340
#     4  10  18  36  57  82 121 148 173 228 293 336
#     4  12  21  32  56  90 118 146 187 232 284 346
#
# _framework density 18.193090999999999
#
# number of rings (size 3 to 8) (size 9 to 14) (size 15 to 20)
#    0.000    1.750    5.000    1.125    0.000    9.000 
#    0.000    1.250    0.000    3.000    0.000    0.000 
#    0.000    0.000    0.000    0.000    0.000    0.000 
#
# Total GULP energy -178266.163760 kJ/mol
# GULP energy per Si atom -5570.817618 kJ/mol
# Density = 1.815168 g / cm^3
# Si number density = 18.193091 Si / 1000 Ang^3
#
#
#
# Elastic Constant Matrix: (Units=GPa)
#
#
# Indices 1 2 3 4 5 6 
#
# 1 150.2370 41.1046 41.5075 0.0000 0.0000 0.0000
# 2 41.1046 58.1523 10.9546 0.0000 0.0000 0.0000
# 3 41.5075 10.9546 82.6050 0.0000 0.0000 0.0000
# 4 0.0000 0.0000 0.0000 -12.3382 0.0000 0.0000
# 5 0.0000 0.0000 0.0000 0.0000 32.3884 0.0000
# 6 0.0000 0.0000 0.0000 0.0000 0.0000 20.3582
#
#
#
# Elastic Compliance Matrix: (Units=1/GPa)
#
#
# Indices 1 2 3 4 5 6 
#
# 1 0.009343 -0.005866 -0.003917 0.000000 0.000000 0.000000
# 2 -0.005866 0.021320 0.000120 0.000000 0.000000 0.000000
# 3 -0.003917 0.000120 0.014058 0.000000 0.000000 0.000000
# 4 0.000000 0.000000 0.000000 -0.081049 0.000000 0.000000
# 5 0.000000 0.000000 0.000000 0.000000 0.030875 0.000000
# 6 0.000000 0.000000 0.000000 0.000000 0.000000 0.049120
#
#
# Mechanical properties :
#
#
# Convention : Reuss Voigt Hill
#
# Bulk Modulus (GPa) = 39.37671 53.12529 46.25100
# Shear Modulus (GPa) = 69.96991 21.24352 45.60671
#
# Velocity S-wave (km/s) = 6.20831 3.42082 5.01224
# Velocity P-wave (km/s) = 8.54877 6.69828 7.67947
#
# Compressibility (1/GPa) = 0.02539572
#
# Stress axis : x y z
#
# Youngs Moduli (GPa) = 107.02802 46.90388 71.13392
#
# Poissons Ratio (x) = 0.27516 0.27862
# Poissons Ratio (y) = 0.62787 -0.00856
# Poissons Ratio (z) = 0.41922 -0.00565
#
# Static dielectric constant tensor:
#      x y z
#    x 1.544590 0.000000 0.000000 
#    y 0.000000 1.648820 0.000000 
#    z 0.000000 0.000000 1.700470 
# 
# From -- ./inp_files/7590.got.cif
#   From: 2010.05.17/outbox.cif.g08.bks.cpg/sg51_4_cif.got.tgz:7590.got - 2010.06.03 11:52:47.
