data_PCOD9399814
_publ_section_title
;
Structure prediction by ZEFSAII (Michael W. Deem and Ramdas Pophale) SiO2 
 PCOD9399814
Probable space group: P M M A
;
_chemical_formula_sum "Si O2"
_cell_formula_units_Z 64
_cell_length_a 20.105117
_cell_length_b 8.135286
_cell_length_c 20.859027
_cell_angle_alpha 90.000000
_cell_angle_beta 90.000000
_cell_angle_gamma 90.000000
_cell_volume 3411.720747
_symmetry_space_group_name_H-M "P M M A"
_symmetry_group_IT_number 51
_symmetry_cell_setting 'orthorhombic'
loop_
_space_group_symop_operation_xyz
x,y,z
1/2-x,-y,z
1/2+x,-y,-z
-x,y,-z
-x,-y,-z
1/2+x,y,-z
1/2-x,y,z
x,-y,z
loop_
_atom_site_type_symbol
_atom_site_label
_atom_site_fract_x
_atom_site_fract_y
_atom_site_fract_z
Si Si1 0.538924 0.807792 0.092479
Si Si2 0.326267 0.197660 0.665098
Si Si3 0.584436 0.798930 0.730404
Si Si4 0.827087 0.696235 0.472876
Si Si5 0.063361 0.200736 0.763519
Si Si6 0.097447 0.310125 0.032141
Si Si7 0.826823 0.802299 0.611154
Si Si8 0.675416 0.801825 0.848231
O O1 0.564192 0.751179 0.161688
O O2 0.472426 0.716115 0.069610
O O3 0.520388 0.000000 0.098042
O O4 0.590687 0.786492 0.034525
O O5 0.250000 0.260416 0.670235
O O6 0.354470 0.240940 0.594656
O O7 0.375071 0.258888 0.720726
O O8 0.323278 0.000000 0.669262
O O9 0.507756 0.747634 0.734387
O O10 0.625830 0.743771 0.668375
O O11 0.623334 0.745276 0.794423
O O12 0.584635 0.000000 0.730103
O O13 0.750000 0.754854 0.473155
O O14 0.828005 0.500000 0.472246
O O15 0.854184 0.756070 0.540959
O O16 0.064962 0.000000 0.762362
O O17 0.105601 0.500000 0.016584
O O18 0.153140 0.252519 0.081489
O O19 0.750000 0.741592 0.617551
O O20 0.823940 0.000000 0.615034
O O21 0.750000 0.746058 0.832891
O O22 0.674741 0.000000 0.846654
#
# Coordination Sequence:
#
# PCOD9399814 Si02
#       8
#     8   8   8   8   8   8   8   8
#     4  10  18  33  56  76  97 129 172 215 254 301
#     4   9  17  31  52  76  98 122 158 205 254 302
#     4   9  16  29  49  75 101 127 165 210 252 295
#     4   9  17  30  48  69  95 129 166 201 240 294
#     4   9  17  30  52  78 101 126 161 209 256 297
#     4  11  21  33  50  75 105 135 170 210 255 303
#     4   9  16  27  47  73  97 124 161 206 249 290
#     4  10  19  33  54  77 102 136 176 215 254 300
#
# _framework density 18.758863000000002
#
# number of rings (size 3 to 8) (size 9 to 14) (size 15 to 20)
#    0.000    2.500    1.250    3.000    0.000    3.250 
#    0.000    3.125    0.000    7.500    0.000    0.000 
#    0.000    0.000    0.000    0.000    0.000    0.000 
#
# Total GULP energy -356831.268210 kJ/mol
# GULP energy per Si atom -5575.488566 kJ/mol
# Density = 1.871617 g / cm^3
# Si number density = 18.758863 Si / 1000 Ang^3
#
#
#
# Elastic Constant Matrix: (Units=GPa)
#
#
# Indices 1 2 3 4 5 6 
#
# 1 82.7036 4.7875 61.0511 0.0000 0.0000 0.0000
# 2 4.7875 8.7631 1.4591 0.0000 0.0000 0.0000
# 3 61.0511 1.4591 157.4656 0.0000 0.0000 0.0000
# 4 0.0000 0.0000 0.0000 -40.4430 0.0000 0.0000
# 5 0.0000 0.0000 0.0000 0.0000 30.5555 0.0000
# 6 0.0000 0.0000 0.0000 0.0000 0.0000 4.1218
#
#
#
# Elastic Compliance Matrix: (Units=1/GPa)
#
#
# Indices 1 2 3 4 5 6 
#
# 1 0.017545 -0.008466 -0.006724 0.000000 0.000000 0.000000
# 2 -0.008466 0.118376 0.002185 0.000000 0.000000 0.000000
# 3 -0.006724 0.002185 0.008937 0.000000 0.000000 0.000000
# 4 0.000000 0.000000 0.000000 -0.024726 0.000000 0.000000
# 5 0.000000 0.000000 0.000000 0.000000 0.032727 0.000000
# 6 0.000000 0.000000 0.000000 0.000000 0.000000 0.242610
#
#
# Mechanical properties :
#
#
# Convention : Reuss Voigt Hill
#
# Bulk Modulus (GPa) = 8.41397 42.61418 25.51407
# Shear Modulus (GPa) = 10.84375 10.95585 10.89980
#
# Velocity S-wave (km/s) = 2.40690 2.41931 2.41311
# Velocity P-wave (km/s) = 3.49561 5.52903 4.62544
#
# Compressibility (1/GPa) = 0.11884997
#
# Stress axis : x y z
#
# Youngs Moduli (GPa) = 56.99647 8.44764 111.89089
#
# Poissons Ratio (x) = 0.07151 0.75234
# Poissons Ratio (y) = 0.48251 -0.24451
# Poissons Ratio (z) = 0.38324 -0.01846
#
# Static dielectric constant tensor:
#      x y z
#    x 1.648310 0.000000 0.000000 
#    y 0.000000 1.646480 0.000000 
#    z 0.000000 0.000000 1.660710 
# 
# From -- ./inp_files/34096.got.cif
#   From: 2010.05.17/outbox.cif.g08.bks.cpg/sg51_18_cif.got.tgz:34096.got - 2010.06.03 11:52:47.
