data_PCOD9399414
_publ_section_title
;
Structure prediction by ZEFSAII (Michael W. Deem and Ramdas Pophale) SiO2 
 PCOD9399414
Probable space group: P M M A
;
_chemical_formula_sum "Si O2"
_cell_formula_units_Z 28
_cell_length_a 8.772484
_cell_length_b 18.316583
_cell_length_c 9.537056
_cell_angle_alpha 90.000000
_cell_angle_beta 90.000000
_cell_angle_gamma 90.000000
_cell_volume 1532.432577
_symmetry_space_group_name_H-M "P M M A"
_symmetry_group_IT_number 51
_symmetry_cell_setting 'orthorhombic'
loop_
_space_group_symop_operation_xyz
x,y,z
1/2-x,-y,z
1/2+x,-y,-z
-x,y,-z
-x,-y,-z
1/2+x,y,-z
1/2-x,y,z
x,-y,z
loop_
_atom_site_type_symbol
_atom_site_label
_atom_site_fract_x
_atom_site_fract_y
_atom_site_fract_z
Si Si1 0.432310 0.414942 0.652576
Si Si2 0.567299 0.849685 0.656355
Si Si3 0.567815 0.290896 0.845570
Si Si4 0.932455 0.000000 0.341864
O O1 0.500000 0.396082 0.500000
O O2 0.250000 0.407788 0.648040
O O3 0.469965 0.500000 0.680452
O O4 0.500528 0.361381 0.767676
O O5 0.500000 0.838889 0.500000
O O6 0.750000 0.857896 0.645541
O O7 0.531159 0.780237 0.751994
O O8 0.495802 0.924178 0.718398
O O9 0.750000 0.297168 0.853125
O O10 0.500000 0.283766 0.000000
O O11 0.000000 0.000000 0.500000
O O12 0.750000 0.000000 0.345011
#
# Coordination Sequence:
#
# PCOD9399414 Si02
#       4
#     8   8   8   4
#     4  10  21  38  61  87 114 145 183 228 276 327
#     4  10  20  35  56  82 110 142 181 226 275 326
#     4  11  24  39  57  81 112 150 188 229 277 330
#     4  10  18  30  53  82 109 140 178 224 274 322
#
# _framework density 18.271601
#
# number of rings (size 3 to 8) (size 9 to 14) (size 15 to 20)
#    0.000    1.714    0.000    6.429    0.000    9.143 
#    0.000    0.714    0.000    0.000    0.000    0.000 
#    0.000    0.000    0.000    0.000    0.000    0.000 
#
# Total GULP energy -156428.227716 kJ/mol
# GULP energy per Si atom -5586.722418 kJ/mol
# Density = 1.823001 g / cm^3
# Si number density = 18.271601 Si / 1000 Ang^3
#
#
#
# Elastic Constant Matrix: (Units=GPa)
#
#
# Indices 1 2 3 4 5 6 
#
# 1 84.4369 69.4727 58.0063 0.0000 0.0000 0.0000
# 2 69.4727 129.2312 91.8718 0.0000 0.0000 0.0000
# 3 58.0063 91.8718 118.9368 0.0000 0.0000 0.0000
# 4 0.0000 0.0000 0.0000 -3.2352 0.0000 0.0000
# 5 0.0000 0.0000 0.0000 0.0000 32.2589 0.0000
# 6 0.0000 0.0000 0.0000 0.0000 0.0000 31.5261
#
#
#
# Elastic Compliance Matrix: (Units=1/GPa)
#
#
# Indices 1 2 3 4 5 6 
#
# 1 0.021880 -0.009263 -0.003516 0.000000 0.000000 0.000000
# 2 -0.009263 0.021084 -0.011769 0.000000 0.000000 0.000000
# 3 -0.003516 -0.011769 0.019213 0.000000 0.000000 0.000000
# 4 0.000000 0.000000 0.000000 -0.309101 0.000000 0.000000
# 5 0.000000 0.000000 0.000000 0.000000 0.030999 0.000000
# 6 0.000000 0.000000 0.000000 0.000000 0.000000 0.031720
#
#
# Mechanical properties :
#
#
# Convention : Reuss Voigt Hill
#
# Bulk Modulus (GPa) = 76.43969 85.70073 81.07021
# Shear Modulus (GPa) = -38.24123 19.66022 -9.29051
#
# Velocity S-wave (km/s) = -4.57982 3.28380 -2.25737
# Velocity P-wave (km/s) = 3.73627 7.83476 6.13772
#
# Compressibility (1/GPa) = 0.01308221
#
# Stress axis : x y z
#
# Youngs Moduli (GPa) = 45.70456 47.42921 52.04714
#
# Poissons Ratio (x) = 0.43932 0.18300
# Poissons Ratio (y) = 0.42334 0.61253
# Poissons Ratio (z) = 0.16070 0.55818
#
# Static dielectric constant tensor:
#      x y z
#    x 1.609630 0.000000 0.000000 
#    y 0.000000 1.651230 0.000000 
#    z 0.000000 0.000000 1.589790 
# 
# From -- ./inp_files/4646.got.cif
#   From: 2010.05.17/outbox.cif.g08.bks.cpg/sg51_3_cif.got.tgz:4646.got - 2010.06.03 11:52:47.
