data_PCOD9399916
_publ_section_title
;
Structure prediction by ZEFSAII (Michael W. Deem and Ramdas Pophale) SiO2 
 PCOD9399916
Probable space group: P M M A
;
_chemical_formula_sum "Si O2"
_cell_formula_units_Z 64
_cell_length_a 15.960737
_cell_length_b 8.510957
_cell_length_c 24.451086
_cell_angle_alpha 90.000000
_cell_angle_beta 90.000000
_cell_angle_gamma 90.000000
_cell_volume 3321.463550
_symmetry_space_group_name_H-M "P M M A"
_symmetry_group_IT_number 51
_symmetry_cell_setting 'orthorhombic'
loop_
_space_group_symop_operation_xyz
x,y,z
1/2-x,-y,z
1/2+x,-y,-z
-x,y,-z
-x,-y,-z
1/2+x,y,-z
1/2-x,y,z
x,-y,z
loop_
_atom_site_type_symbol
_atom_site_label
_atom_site_fract_x
_atom_site_fract_y
_atom_site_fract_z
Si Si1 0.343694 0.189949 0.618345
Si Si2 0.156969 0.808413 0.117005
Si Si3 0.498899 0.311823 0.688277
Si Si4 0.401525 0.810927 0.498061
Si Si5 0.657289 0.689189 0.617787
Si Si6 0.900340 0.811763 0.003238
Si Si7 0.155834 0.687205 0.880809
Si Si8 0.999210 0.188083 0.188768
O O1 0.250000 0.238301 0.634871
O O2 0.416488 0.255498 0.656389
O O3 0.360525 0.237543 0.555418
O O4 0.347898 0.000000 0.619914
O O5 0.250000 0.758189 0.134226
O O6 0.139706 0.761724 0.054257
O O7 0.081205 0.754684 0.155451
O O8 0.155261 0.000000 0.117381
O O9 0.500310 0.500000 0.687961
O O10 0.581337 0.252826 0.655738
O O11 0.498630 0.253028 0.750160
O O12 0.500000 0.770251 0.500000
O O13 0.360518 0.737737 0.444545
O O14 0.394735 0.000000 0.493728
O O15 0.750000 0.745315 0.634292
O O16 0.657075 0.500000 0.620643
O O17 0.888397 0.000000 0.009243
O O18 0.862277 0.730159 0.056172
O O19 0.000000 0.783103 0.000000
O O20 0.250000 0.740656 0.866440
O O21 0.151875 0.500000 0.874190
O O22 0.083782 0.762958 0.844010
O O23 0.002601 0.000000 0.190651
#
# Coordination Sequence:
#
# PCOD9399916 Si02
#       8
#     8   8   8   8   8   8   8   8
#     4  10  21  38  60  87 118 152 190 234 287 345
#     4   9  18  34  58  88 119 149 186 235 286 339
#     4  11  24  41  60  83 114 152 195 242 292 341
#     4  10  19  34  60  90 120 150 187 238 290 341
#     4  10  22  39  59  85 119 158 196 233 282 348
#     4  10  18  34  61  91 120 154 193 234 285 343
#     4  11  24  40  59  87 122 157 194 238 290 347
#     4  11  23  41  63  85 112 150 199 245 291 344
#
# _framework density 19.268613999999999
#
# number of rings (size 3 to 8) (size 9 to 14) (size 15 to 20)
#    0.000    1.750    2.500    1.875    0.000    5.000 
#    0.000    0.000    0.000    1.875    0.000    0.000 
#    0.000    0.000    0.000    0.000    0.000    0.000 
#
# Total GULP energy -357580.979181 kJ/mol
# GULP energy per Si atom -5587.202800 kJ/mol
# Density = 1.922476 g / cm^3
# Si number density = 19.268614 Si / 1000 Ang^3
#
#
#
# Elastic Constant Matrix: (Units=GPa)
#
#
# Indices 1 2 3 4 5 6 
#
# 1 191.6683 33.6294 95.7915 0.0000 0.0000 0.0000
# 2 33.6294 17.2850 21.7977 0.0000 0.0000 0.0000
# 3 95.7915 21.7977 155.7707 0.0000 0.0000 0.0000
# 4 0.0000 0.0000 0.0000 55.1557 0.0000 0.0000
# 5 0.0000 0.0000 0.0000 0.0000 -2.0113 0.0000
# 6 0.0000 0.0000 0.0000 0.0000 0.0000 10.4668
#
#
#
# Elastic Compliance Matrix: (Units=1/GPa)
#
#
# Indices 1 2 3 4 5 6 
#
# 1 0.009613 -0.013658 -0.004000 0.000000 0.000000 0.000000
# 2 -0.013658 0.089656 -0.004147 0.000000 0.000000 0.000000
# 3 -0.004000 -0.004147 0.009460 0.000000 0.000000 0.000000
# 4 0.000000 0.000000 0.000000 0.018130 0.000000 0.000000
# 5 0.000000 0.000000 0.000000 0.000000 -0.497202 0.000000
# 6 0.000000 0.000000 0.000000 0.000000 0.000000 0.095540
#
#
# Mechanical properties :
#
#
# Convention : Reuss Voigt Hill
#
# Bulk Modulus (GPa) = 15.35665 74.12901 44.74283
# Shear Modulus (GPa) = -23.86803 26.95596 1.54396
#
# Velocity S-wave (km/s) = -3.52334 3.74432 0.89612
# Velocity P-wave (km/s) = 2.92656 7.56625 4.93373
#
# Compressibility (1/GPa) = 0.06511839
#
# Stress axis : x y z
#
# Youngs Moduli (GPa) = 104.02566 11.15373 105.70869
#
# Poissons Ratio (x) = 0.15234 0.42286
# Poissons Ratio (y) = 1.42080 0.43836
# Poissons Ratio (z) = 0.41613 0.04625
#
# Static dielectric constant tensor:
#      x y z
#    x 1.680600 0.000000 0.000000 
#    y 0.000000 1.665620 0.000000 
#    z 0.000000 0.000000 1.628820 
# 
# From -- ./inp_files/35743.got.cif
#   From: 2010.05.17/outbox.cif.g08.bks.cpg/sg51_18_cif.got.tgz:35743.got - 2010.06.03 11:52:47.
