data_PCOD9399144
_publ_section_title
;
Structure prediction by ZEFSAII (Michael W. Deem and Ramdas Pophale) SiO2 
 PCOD9399144
Probable space group: P M M A
;
_chemical_formula_sum "Si O2"
_cell_formula_units_Z 64
_cell_length_a 7.712812
_cell_length_b 20.886888
_cell_length_c 20.664115
_cell_angle_alpha 90.000000
_cell_angle_beta 90.000000
_cell_angle_gamma 90.000000
_cell_volume 3328.919504
_symmetry_space_group_name_H-M "P M M A"
_symmetry_group_IT_number 51
_symmetry_cell_setting 'orthorhombic'
loop_
_space_group_symop_operation_xyz
x,y,z
1/2-x,-y,z
1/2+x,-y,-z
-x,y,-z
-x,-y,-z
1/2+x,y,-z
1/2-x,y,z
x,-y,z
loop_
_atom_site_type_symbol
_atom_site_label
_atom_site_fract_x
_atom_site_fract_y
_atom_site_fract_z
Si Si1 0.542665 0.243262 0.389091
Si Si2 0.953917 0.205690 0.755760
Si Si3 0.455122 0.669807 0.180838
Si Si4 0.460287 0.429629 0.708978
Si Si5 0.453584 0.103713 0.429754
Si Si6 0.537055 0.930099 0.712739
Si Si7 0.958803 0.571857 0.924950
Si Si8 0.957634 0.382038 0.429226
O O1 0.750000 0.247292 0.383337
O O2 0.469890 0.233818 0.316949
O O3 0.497703 0.179031 0.427287
O O4 0.478341 0.308644 0.421518
O O5 0.750000 0.199695 0.770599
O O6 0.029168 0.259859 0.803193
O O7 0.024420 0.133317 0.750433
O O8 0.250000 0.678259 0.168811
O O9 0.475048 0.626049 0.244567
O O10 0.527519 0.627179 0.122166
O O11 0.250000 0.427453 0.710189
O O12 0.516015 0.500000 0.731616
O O13 0.517638 0.418817 0.634865
O O14 0.500000 0.077179 0.500000
O O15 0.250000 0.096218 0.424368
O O16 0.524408 0.075984 0.362196
O O17 0.750000 0.927719 0.712399
O O18 0.486647 0.000000 0.737876
O O19 0.750000 0.570409 0.918076
O O20 0.023409 0.500000 0.908446
O O21 0.000000 0.583667 0.000000
O O22 0.750000 0.380871 0.425515
O O23 0.000000 0.407968 0.500000
#
# Coordination Sequence:
#
# PCOD9399144 Si02
#       8
#     8   8   8   8   8   8   8   8
#     4  10  18  30  46  63  85 112 145 188 237 285
#     4   9  17  29  48  71  92 117 149 188 232 275
#     4  10  19  32  52  76 100 125 157 196 233 273
#     4  10  21  36  50  66  90 119 154 196 240 286
#     4  10  19  29  42  61  83 109 145 185 233 289
#     4   8  15  28  44  62  87 117 147 183 230 283
#     4   9  18  32  49  72 104 137 165 191 223 267
#     4  10  21  33  45  62  82 110 147 191 241 287
#
# _framework density 19.225456999999999
#
# number of rings (size 3 to 8) (size 9 to 14) (size 15 to 20)
#    0.000    2.500    1.250    2.250    0.000    4.250 
#    0.000    1.250    0.000    9.000    0.000    0.000 
#    0.000    0.500    0.000    0.375    0.000    0.750 
#
# Total GULP energy -356951.577025 kJ/mol
# GULP energy per Si atom -5577.368391 kJ/mol
# Density = 1.918170 g / cm^3
# Si number density = 19.225457 Si / 1000 Ang^3
#
#
#
# Elastic Constant Matrix: (Units=GPa)
#
#
# Indices 1 2 3 4 5 6 
#
# 1 31.0471 6.4293 -3.9581 0.0000 0.0000 0.0000
# 2 6.4293 150.1787 59.7925 0.0000 0.0000 0.0000
# 3 -3.9581 59.7925 84.6999 0.0000 0.0000 0.0000
# 4 0.0000 0.0000 0.0000 1.9698 0.0000 0.0000
# 5 0.0000 0.0000 0.0000 0.0000 16.4281 0.0000
# 6 0.0000 0.0000 0.0000 0.0000 0.0000 38.1711
#
#
#
# Elastic Compliance Matrix: (Units=1/GPa)
#
#
# Indices 1 2 3 4 5 6 
#
# 1 0.033251 -0.002841 0.003559 0.000000 0.000000 0.000000
# 2 -0.002841 0.009505 -0.006842 0.000000 0.000000 0.000000
# 3 0.003559 -0.006842 0.016803 0.000000 0.000000 0.000000
# 4 0.000000 0.000000 0.000000 0.507675 0.000000 0.000000
# 5 0.000000 0.000000 0.000000 0.000000 0.060871 0.000000
# 6 0.000000 0.000000 0.000000 0.000000 0.000000 0.026198
#
#
# Mechanical properties :
#
#
# Convention : Reuss Voigt Hill
#
# Bulk Modulus (GPa) = 21.13673 43.38368 32.26020
# Shear Modulus (GPa) = 7.32793 24.89126 16.10960
#
# Velocity S-wave (km/s) = 1.95444 3.60210 2.89784
# Velocity P-wave (km/s) = 4.01387 6.31783 5.29273
#
# Compressibility (1/GPa) = 0.04731101
#
# Stress axis : x y z
#
# Youngs Moduli (GPa) = 30.07422 105.21263 59.51341
#
# Poissons Ratio (x) = 0.29886 -0.21181
# Poissons Ratio (y) = 0.08543 0.40721
# Poissons Ratio (z) = -0.10704 0.71990
#
# Static dielectric constant tensor:
#      x y z
#    x 1.706130 0.000000 0.000000 
#    y 0.000000 1.715160 0.000000 
#    z 0.000000 0.000000 1.654290 
# 
# From -- ./inp_files/32647.got.cif
#   From: 2010.05.17/outbox.cif.g08.bks.cpg/sg51_17_cif.got.tgz:32647.got - 2010.06.03 11:52:47.
