data_PCOD9399090
_publ_section_title
;
Structure prediction by ZEFSAII (Michael W. Deem and Ramdas Pophale) SiO2 
 PCOD9399090
Probable space group: P M M A
;
_chemical_formula_sum "Si O2"
_cell_formula_units_Z 48
_cell_length_a 14.314841
_cell_length_b 7.947263
_cell_length_c 24.500584
_cell_angle_alpha 90.000000
_cell_angle_beta 90.000000
_cell_angle_gamma 90.000000
_cell_volume 2787.279691
_symmetry_space_group_name_H-M "P M M A"
_symmetry_group_IT_number 51
_symmetry_cell_setting 'orthorhombic'
loop_
_space_group_symop_operation_xyz
x,y,z
1/2-x,-y,z
1/2+x,-y,-z
-x,y,-z
-x,-y,-z
1/2+x,y,-z
1/2-x,y,z
x,-y,z
loop_
_atom_site_type_symbol
_atom_site_label
_atom_site_fract_x
_atom_site_fract_y
_atom_site_fract_z
Si Si1 0.855139 0.205853 0.022908
Si Si2 0.355350 0.297850 0.190732
Si Si3 0.019341 0.695836 0.413348
Si Si4 0.856428 0.802498 0.486676
Si Si5 0.963974 0.202045 0.915281
Si Si6 0.357083 0.705823 0.314482
O O1 0.750000 0.264196 0.032630
O O2 0.932895 0.260453 0.066754
O O3 0.853955 0.000000 0.023173
O O4 0.893258 0.258362 0.963311
O O5 0.250000 0.236836 0.177239
O O6 0.351578 0.500000 0.192775
O O7 0.427040 0.250552 0.143748
O O8 0.378057 0.241015 0.252360
O O9 0.998579 0.500000 0.404530
O O10 0.094034 0.711288 0.462634
O O11 0.069293 0.765754 0.359375
O O12 0.924531 0.778785 0.435058
O O13 0.750000 0.746108 0.477951
O O14 0.855615 0.000000 0.500224
O O15 0.965367 0.000000 0.917763
O O16 0.250000 0.755938 0.327405
O O17 0.358147 0.500000 0.316001
#
# Coordination Sequence:
#
# PCOD9399090 Si02
#       6
#     8   8   8   8   8   8
#     4   8  14  25  41  61  86 113 138 169 212 255
#     4   9  17  29  44  62  87 116 139 166 213 263
#     4  10  18  29  49  71  88 111 148 189 217 247
#     4  10  20  32  45  64  94 125 145 170 217 269
#     4   9  16  26  43  65  84 107 142 178 208 244
#     4   8  15  28  45  65  88 113 140 171 212 259
#
# _framework density 17.221091000000001
#
# number of rings (size 3 to 8) (size 9 to 14) (size 15 to 20)
#    0.000    3.000    0.000    5.000    0.000    3.000 
#    0.000    3.333    0.000    4.500    0.000    4.667 
#    0.000    0.000    0.000    0.000    0.000    0.000 
#
# Total GULP energy -267458.299580 kJ/mol
# GULP energy per Si atom -5572.047908 kJ/mol
# Density = 1.718190 g / cm^3
# Si number density = 17.221091 Si / 1000 Ang^3
#
#
#
# Elastic Constant Matrix: (Units=GPa)
#
#
# Indices 1 2 3 4 5 6 
#
# 1 141.1976 0.7868 68.6487 0.0000 0.0000 0.0000
# 2 0.7868 13.5300 -4.6738 0.0000 0.0000 0.0000
# 3 68.6487 -4.6738 101.0232 0.0000 0.0000 0.0000
# 4 0.0000 0.0000 0.0000 25.4118 0.0000 0.0000
# 5 0.0000 0.0000 0.0000 0.0000 25.4830 0.0000
# 6 0.0000 0.0000 0.0000 0.0000 0.0000 18.3751
#
#
#
# Elastic Compliance Matrix: (Units=1/GPa)
#
#
# Indices 1 2 3 4 5 6 
#
# 1 0.010710 -0.003188 -0.007425 0.000000 0.000000 0.000000
# 2 -0.003188 0.076059 0.005685 0.000000 0.000000 0.000000
# 3 -0.007425 0.005685 0.015208 0.000000 0.000000 0.000000
# 4 0.000000 0.000000 0.000000 0.039352 0.000000 0.000000
# 5 0.000000 0.000000 0.000000 0.000000 0.039242 0.000000
# 6 0.000000 0.000000 0.000000 0.000000 0.000000 0.054421
#
#
# Mechanical properties :
#
#
# Convention : Reuss Voigt Hill
#
# Bulk Modulus (GPa) = 10.85535 42.80825 26.83180
# Shear Modulus (GPa) = 18.14518 26.58659 22.36589
#
# Velocity S-wave (km/s) = 3.24954 3.93343 3.60773
# Velocity P-wave (km/s) = 4.51625 6.74842 5.74185
#
# Compressibility (1/GPa) = 0.09212050
#
# Stress axis : x y z
#
# Youngs Moduli (GPa) = 93.36900 13.14766 65.75678
#
# Poissons Ratio (x) = 0.04191 0.48827
# Poissons Ratio (y) = 0.29765 -0.37383
# Poissons Ratio (z) = 0.69330 -0.07475
#
# Static dielectric constant tensor:
#      x y z
#    x 1.586830 0.000000 0.000000 
#    y 0.000000 1.625820 0.000000 
#    z 0.000000 0.000000 1.579110 
# 
# From -- ./inp_files/35485.got.cif
#   From: 2010.05.17/outbox.cif.g08.bks.cpg/sg51_18_cif.got.tgz:35485.got - 2010.06.03 11:52:47.
