data_PCOD9399365
_publ_section_title
;
Structure prediction by ZEFSAII (Michael W. Deem and Ramdas Pophale) SiO2 
 PCOD9399365
Probable space group: P M M A
;
_chemical_formula_sum "Si O2"
_cell_formula_units_Z 40
_cell_length_a 8.363834
_cell_length_b 27.173771
_cell_length_c 9.308772
_cell_angle_alpha 90.000000
_cell_angle_beta 90.000000
_cell_angle_gamma 90.000000
_cell_volume 2115.668934
_symmetry_space_group_name_H-M "P M M A"
_symmetry_group_IT_number 51
_symmetry_cell_setting 'orthorhombic'
loop_
_space_group_symop_operation_xyz
x,y,z
1/2-x,-y,z
1/2+x,-y,-z
-x,y,-z
-x,-y,-z
1/2+x,y,-z
1/2-x,y,z
x,-y,z
loop_
_atom_site_type_symbol
_atom_site_label
_atom_site_fract_x
_atom_site_fract_y
_atom_site_fract_z
Si Si1 0.443384 0.296892 0.836974
Si Si2 0.942823 0.500000 0.334908
Si Si3 0.556438 0.607240 0.335233
Si Si4 0.443271 0.200381 0.663099
Si Si5 0.560248 0.000000 0.834851
Si Si6 0.058615 0.104221 0.835508
O O1 0.250000 0.297106 0.835460
O O2 0.499569 0.346819 0.758938
O O3 0.497595 0.248841 0.749042
O O4 0.500000 0.294638 0.000000
O O5 0.750000 0.500000 0.331136
O O6 0.996302 0.446696 0.277245
O O7 0.000000 0.500000 0.500000
O O8 0.500000 0.612292 0.500000
O O9 0.750000 0.607814 0.336298
O O10 0.500000 0.201797 0.500000
O O11 0.250000 0.200236 0.664615
O O12 0.497965 0.150792 0.743480
O O13 0.498755 0.051711 0.773886
O O14 0.750000 0.000000 0.834531
O O15 0.500000 0.000000 0.000000
O O16 0.250000 0.103819 0.838277
O O17 0.000000 0.108917 0.000000
#
# Coordination Sequence:
#
# PCOD9399365 Si02
#       6
#     8   4   8   8   4   8
#     4  10  21  36  52  74 101 132 168 208 252 301
#     4   8  14  26  45  70  98 130 164 204 247 292
#     4   9  17  30  50  74 101 131 168 208 250 297
#     4  10  22  37  54  76 102 131 167 208 253 301
#     4  10  18  30  51  78 105 136 170 204 244 292
#     4  10  19  33  53  78 105 134 168 207 247 293
#
# _framework density 18.906549999999999
#
# number of rings (size 3 to 8) (size 9 to 14) (size 15 to 20)
#    0.000    2.400    0.000    3.900    0.000    3.200 
#    0.000    1.000    0.000    0.000    0.000    0.000 
#    0.000    0.000    0.000    0.000    0.000    0.000 
#
# Total GULP energy -223092.076189 kJ/mol
# GULP energy per Si atom -5577.301905 kJ/mol
# Density = 1.886352 g / cm^3
# Si number density = 18.906550 Si / 1000 Ang^3
#
#
#
# Elastic Constant Matrix: (Units=GPa)
#
#
# Indices 1 2 3 4 5 6 
#
# 1 24.6085 29.6209 10.2803 0.0000 0.0000 0.0000
# 2 29.6209 249.0675 102.2908 0.0000 0.0000 0.0000
# 3 10.2803 102.2908 107.1695 0.0000 0.0000 0.0000
# 4 0.0000 0.0000 0.0000 33.4128 0.0000 0.0000
# 5 0.0000 0.0000 0.0000 0.0000 26.4013 0.0000
# 6 0.0000 0.0000 0.0000 0.0000 0.0000 607.4033
#
#
#
# Elastic Compliance Matrix: (Units=1/GPa)
#
#
# Indices 1 2 3 4 5 6 
#
# 1 0.047548 -0.006220 0.001375 0.000000 0.000000 0.000000
# 2 -0.006220 0.007417 -0.006483 0.000000 0.000000 0.000000
# 3 0.001375 -0.006483 0.015387 0.000000 0.000000 0.000000
# 4 0.000000 0.000000 0.000000 0.029929 0.000000 0.000000
# 5 0.000000 0.000000 0.000000 0.000000 0.037877 0.000000
# 6 0.000000 0.000000 0.000000 0.000000 0.000000 0.001646
#
#
# Mechanical properties :
#
#
# Convention : Reuss Voigt Hill
#
# Bulk Modulus (GPa) = 20.96521 73.91437 47.43979
# Shear Modulus (GPa) = 28.03354 149.35370 88.69362
#
# Velocity S-wave (km/s) = 3.85482 8.89760 6.85663
# Velocity P-wave (km/s) = 5.56109 12.03062 9.37181
#
# Compressibility (1/GPa) = 0.04769807
#
# Stress axis : x y z
#
# Youngs Moduli (GPa) = 21.03125 134.82275 64.99069
#
# Poissons Ratio (x) = 0.83855 -0.08939
# Poissons Ratio (y) = 0.13081 0.42133
# Poissons Ratio (z) = -0.02893 0.87404
#
# Static dielectric constant tensor:
#      x y z
#    x 1.646050 0.000000 0.000000 
#    y 0.000000 1.713390 0.000000 
#    z 0.000000 0.000000 1.598770 
# 
# From -- ./inp_files/5566.got.cif
#   From: 2010.05.17/outbox.cif.g08.bks.cpg/sg51_3_cif.got.tgz:5566.got - 2010.06.03 11:52:47.
