data_PCOD9399595
_publ_section_title
;
Structure prediction by ZEFSAII (Michael W. Deem and Ramdas Pophale) SiO2 
 PCOD9399595
Probable space group: P M M A
;
_chemical_formula_sum "Si O2"
_cell_formula_units_Z 32
_cell_length_a 25.194347
_cell_length_b 9.041278
_cell_length_c 7.344702
_cell_angle_alpha 90.000000
_cell_angle_beta 90.000000
_cell_angle_gamma 90.000000
_cell_volume 1673.043024
_symmetry_space_group_name_H-M "P M M A"
_symmetry_group_IT_number 51
_symmetry_cell_setting 'orthorhombic'
loop_
_space_group_symop_operation_xyz
x,y,z
1/2-x,-y,z
1/2+x,-y,-z
-x,y,-z
-x,-y,-z
1/2+x,y,-z
1/2-x,y,z
x,-y,z
loop_
_atom_site_type_symbol
_atom_site_label
_atom_site_fract_x
_atom_site_fract_y
_atom_site_fract_z
Si Si1 0.250000 0.325028 0.202926
Si Si2 0.359408 0.825129 0.214887
Si Si3 0.867341 0.827557 0.220006
Si Si4 0.938149 0.675936 0.509953
Si Si5 0.250000 0.174427 0.814508
O O1 0.250000 0.500000 0.229192
O O2 0.195532 0.252863 0.272121
O O3 0.250000 0.280721 0.988802
O O4 0.407717 0.757366 0.326892
O O5 0.354979 0.000000 0.247395
O O6 0.367456 0.803478 0.997702
O O7 0.907605 0.725661 0.327815
O O8 0.806170 0.803403 0.282518
O O9 0.880278 0.000000 0.253788
O O10 0.934223 0.500000 0.534178
O O11 0.000000 0.716679 0.500000
O O12 0.250000 0.000000 0.877053
#
# Coordination Sequence:
#
# PCOD9399595 Si02
#       5
#     4   8   8   8   4
#     4  10  18  31  56  89 121 149 181 224 280 343
#     4  10  21  39  62  86 115 150 189 234 283 338
#     4   9  19  37  61  86 113 148 188 233 284 338
#     4  11  25  41  56  80 115 153 195 242 289 339
#     4   8  16  33  56  85 117 147 183 226 278 339
#
# _framework density 19.126823999999999
#
# number of rings (size 3 to 8) (size 9 to 14) (size 15 to 20)
#    0.000    2.250    0.000    4.125    0.000    9.000 
#    0.000    8.750    0.000    0.000    0.000    0.000 
#    0.000    0.000    0.000    0.000    0.000    0.000 
#
# Total GULP energy -178670.508241 kJ/mol
# GULP energy per Si atom -5583.453383 kJ/mol
# Density = 1.908329 g / cm^3
# Si number density = 19.126824 Si / 1000 Ang^3
#
#
#
# Elastic Constant Matrix: (Units=GPa)
#
#
# Indices 1 2 3 4 5 6 
#
# 1 181.5657 94.1888 54.8054 0.0000 0.0000 0.0000
# 2 94.1888 101.1170 49.3195 0.0000 0.0000 0.0000
# 3 54.8054 49.3195 71.8235 0.0000 0.0000 0.0000
# 4 0.0000 0.0000 0.0000 26.0014 0.0000 0.0000
# 5 0.0000 0.0000 0.0000 0.0000 28.8038 0.0000
# 6 0.0000 0.0000 0.0000 0.0000 0.0000 40.1160
#
#
#
# Elastic Compliance Matrix: (Units=1/GPa)
#
#
# Indices 1 2 3 4 5 6 
#
# 1 0.010848 -0.009123 -0.002013 0.000000 0.000000 0.000000
# 2 -0.009123 0.022541 -0.008518 0.000000 0.000000 0.000000
# 3 -0.002013 -0.008518 0.021308 0.000000 0.000000 0.000000
# 4 0.000000 0.000000 0.000000 0.038459 0.000000 0.000000
# 5 0.000000 0.000000 0.000000 0.000000 0.034718 0.000000
# 6 0.000000 0.000000 0.000000 0.000000 0.000000 0.024928
#
#
# Mechanical properties :
#
#
# Convention : Reuss Voigt Hill
#
# Bulk Modulus (GPa) = 64.97530 83.45927 74.21729
# Shear Modulus (GPa) = 25.34995 29.39709 27.37352
#
# Velocity S-wave (km/s) = 3.64450 3.92466 3.78717
# Velocity P-wave (km/s) = 7.19405 8.01665 7.61646
#
# Compressibility (1/GPa) = 0.01539046
#
# Stress axis : x y z
#
# Youngs Moduli (GPa) = 92.18514 44.36264 46.93053
#
# Poissons Ratio (x) = 0.40470 0.09448
# Poissons Ratio (y) = 0.84096 0.39974
# Poissons Ratio (z) = 0.18559 0.37787
#
# Static dielectric constant tensor:
#      x y z
#    x 1.656560 0.000000 0.000000 
#    y 0.000000 1.632020 0.000000 
#    z 0.000000 0.000000 1.691690 
# 
# From -- ./inp_files/11371.got.cif
#   From: 2010.05.17/outbox.cif.g08.bks.cpg/sg51_6_cif.got.tgz:11371.got - 2010.06.03 11:52:47.
