data_PCOD9399604
_publ_section_title
;
Structure prediction by ZEFSAII (Michael W. Deem and Ramdas Pophale) SiO2 
 PCOD9399604
Probable space group: P M M A
;
_chemical_formula_sum "Si O2"
_cell_formula_units_Z 64
_cell_length_a 25.353509
_cell_length_b 9.069244
_cell_length_c 17.424371
_cell_angle_alpha 90.000000
_cell_angle_beta 90.000000
_cell_angle_gamma 90.000000
_cell_volume 4006.510372
_symmetry_space_group_name_H-M "P M M A"
_symmetry_group_IT_number 51
_symmetry_cell_setting 'orthorhombic'
loop_
_space_group_symop_operation_xyz
x,y,z
1/2-x,-y,z
1/2+x,-y,-z
-x,y,-z
-x,-y,-z
1/2+x,y,-z
1/2-x,y,z
x,-y,z
loop_
_atom_site_type_symbol
_atom_site_label
_atom_site_fract_x
_atom_site_fract_y
_atom_site_fract_z
Si Si1 0.438810 0.325264 0.660718
Si Si2 0.396144 0.676524 0.180138
Si Si3 0.994882 0.675591 0.090447
Si Si4 0.312138 0.825569 0.074009
Si Si5 0.187370 0.674065 0.911415
Si Si6 0.435039 0.325035 0.347145
Si Si7 0.401188 0.175976 0.815062
Si Si8 0.435927 0.830415 0.503508
O O1 0.429573 0.500000 0.666681
O O2 0.502216 0.301227 0.665773
O O3 0.412317 0.240268 0.730768
O O4 0.421038 0.263596 0.578200
O O5 0.387172 0.500000 0.175935
O O6 0.450056 0.706599 0.133312
O O7 0.348649 0.762051 0.140627
O O8 0.405730 0.716666 0.268844
O O9 0.983958 0.500000 0.099488
O O10 0.948229 0.765375 0.130238
O O11 0.000000 0.706794 0.000000
O O12 0.250000 0.802104 0.089766
O O13 0.320767 0.000000 0.063563
O O14 0.325120 0.740706 0.995144
O O15 0.250000 0.693047 0.898796
O O16 0.175278 0.500000 0.910526
O O17 0.152522 0.758450 0.849506
O O18 0.428343 0.500000 0.360065
O O19 0.417927 0.238373 0.422979
O O20 0.400369 0.000000 0.814109
O O21 0.500000 0.826967 0.500000
O O22 0.419626 0.000000 0.511669
#
# Coordination Sequence:
#
# PCOD9399604 Si02
#       8
#     8   8   8   8   8   8   8   8
#     4  10  18  32  50  69  99 136 171 204 242 295
#     4  10  19  32  50  74 101 134 174 211 247 295
#     4  10  20  34  50  69  98 136 172 205 244 297
#     4  10  21  36  53  75 102 130 165 213 264 305
#     4  10  21  38  58  75  94 128 173 215 254 298
#     4   9  17  30  47  69  98 134 171 205 245 294
#     4  12  23  33  50  76 105 133 164 206 255 301
#     4   9  17  28  44  69  99 130 166 205 248 295
#
# _framework density 15.974000999999999
#
# number of rings (size 3 to 8) (size 9 to 14) (size 15 to 20)
#    0.000    2.000    1.250    3.375    0.000    5.750 
#    0.000    0.000    0.000    0.000    0.000    0.875 
#    0.000    3.000    0.000    0.000    0.000    0.000 
#
# Total GULP energy -357262.922619 kJ/mol
# GULP energy per Si atom -5582.233166 kJ/mol
# Density = 1.593764 g / cm^3
# Si number density = 15.974001 Si / 1000 Ang^3
#
#
#
# Elastic Constant Matrix: (Units=GPa)
#
#
# Indices 1 2 3 4 5 6 
#
# 1 42.0243 49.1023 51.0802 0.0000 0.0000 0.0000
# 2 49.1023 101.9747 83.1889 0.0000 0.0000 0.0000
# 3 51.0802 83.1889 147.4114 0.0000 0.0000 0.0000
# 4 0.0000 0.0000 0.0000 19.7651 0.0000 0.0000
# 5 0.0000 0.0000 0.0000 0.0000 16.4793 0.0000
# 6 0.0000 0.0000 0.0000 0.0000 0.0000 22.8451
#
#
#
# Elastic Compliance Matrix: (Units=1/GPa)
#
#
# Indices 1 2 3 4 5 6 
#
# 1 0.059336 -0.021863 -0.008223 0.000000 0.000000 0.000000
# 2 -0.021863 0.026228 -0.007225 0.000000 0.000000 0.000000
# 3 -0.008223 -0.007225 0.013711 0.000000 0.000000 0.000000
# 4 0.000000 0.000000 0.000000 0.050594 0.000000 0.000000
# 5 0.000000 0.000000 0.000000 0.000000 0.060682 0.000000
# 6 0.000000 0.000000 0.000000 0.000000 0.000000 0.043773
#
#
# Mechanical properties :
#
#
# Convention : Reuss Voigt Hill
#
# Bulk Modulus (GPa) = 40.56469 73.12811 56.84640
# Shear Modulus (GPa) = 14.82956 19.02049 16.92503
#
# Velocity S-wave (km/s) = 3.05020 3.45442 3.25858
# Velocity P-wave (km/s) = 6.15258 7.86063 7.05846
#
# Compressibility (1/GPa) = 0.02465198
#
# Stress axis : x y z
#
# Youngs Moduli (GPa) = 16.85320 38.12691 72.93644
#
# Poissons Ratio (x) = 0.83358 0.59973
# Poissons Ratio (y) = 0.36847 0.52700
# Poissons Ratio (z) = 0.13858 0.27548
#
# Static dielectric constant tensor:
#      x y z
#    x 1.512600 0.000000 0.000000 
#    y 0.000000 1.531080 0.000000 
#    z 0.000000 0.000000 1.523440 
# 
# From -- ./inp_files/30915.got.cif
#   From: 2010.05.17/outbox.cif.g08.bks.cpg/sg51_16_cif.got.tgz:30915.got - 2010.06.03 11:52:47.
