data_PCOD9399931
_publ_section_title
;
Structure prediction by ZEFSAII (Michael W. Deem and Ramdas Pophale) SiO2 
 PCOD9399931
Probable space group: P M M A
;
_chemical_formula_sum "Si O2"
_cell_formula_units_Z 48
_cell_length_a 14.118341
_cell_length_b 16.120719
_cell_length_c 10.428439
_cell_angle_alpha 90.000000
_cell_angle_beta 90.000000
_cell_angle_gamma 90.000000
_cell_volume 2373.489857
_symmetry_space_group_name_H-M "P M M A"
_symmetry_group_IT_number 51
_symmetry_cell_setting 'orthorhombic'
loop_
_space_group_symop_operation_xyz
x,y,z
1/2-x,-y,z
1/2+x,-y,-z
-x,y,-z
-x,-y,-z
1/2+x,y,-z
1/2-x,y,z
x,-y,z
loop_
_atom_site_type_symbol
_atom_site_label
_atom_site_fract_x
_atom_site_fract_y
_atom_site_fract_z
Si Si1 0.586348 0.000000 0.899840
Si Si2 0.858115 0.818564 0.956137
Si Si3 0.485411 0.403531 0.846308
Si Si4 0.635578 0.177831 0.491995
Si Si5 0.135231 0.248958 0.778091
Si Si6 0.136042 0.702698 0.276728
Si Si7 0.366532 0.000000 0.386470
O O1 0.575493 0.000000 0.746407
O O2 0.500000 0.000000 0.000000
O O3 0.639489 0.084909 0.928762
O O4 0.750000 0.790371 0.966330
O O5 0.899745 0.799192 0.094838
O O6 0.893657 0.767169 0.835356
O O7 0.462130 0.500000 0.830157
O O8 0.405546 0.341131 0.794118
O O9 0.578916 0.378675 0.765052
O O10 0.500000 0.389239 0.000000
O O11 0.750000 0.177153 0.490765
O O12 0.602786 0.202318 0.350266
O O13 0.609713 0.250805 0.591701
O O14 0.610572 0.085307 0.539121
O O15 0.250000 0.250813 0.773202
O O16 0.250000 0.690527 0.276855
O O17 0.250000 0.000000 0.361009
#
# Coordination Sequence:
#
# PCOD9399931 Si02
#       7
#     4   8   8   8   8   8   4
#     4  12  24  31  52  90 125 160 204 255 294 341
#     4  10  20  36  58  82 116 160 201 245 294 345
#     4  11  24  40  64  92 120 155 198 253 312 372
#     4   9  19  36  62  89 120 164 203 247 303 360
#     4  10  22  40  62  91 124 159 200 251 310 365
#     4  10  20  38  64  90 117 157 203 248 302 364
#     4  10  18  35  60  87 122 164 217 254 295 366
#
# _framework density 20.223385
#
# number of rings (size 3 to 8) (size 9 to 14) (size 15 to 20)
#    0.000    1.833    3.333    0.750    2.333    2.000 
#    0.000    5.833    0.000    5.000    0.000    0.000 
#    0.000    0.000    0.000    0.000    0.000    0.000 
#
# Total GULP energy -267855.099687 kJ/mol
# GULP energy per Si atom -5580.314577 kJ/mol
# Density = 2.017736 g / cm^3
# Si number density = 20.223385 Si / 1000 Ang^3
#
#
#
# Elastic Constant Matrix: (Units=GPa)
#
#
# Indices 1 2 3 4 5 6 
#
# 1 36.2154 -12.5430 -4.4237 0.0000 0.0000 0.0000
# 2 -12.5430 118.5673 60.4658 0.0000 0.0000 0.0000
# 3 -4.4237 60.4658 155.8022 0.0000 0.0000 0.0000
# 4 0.0000 0.0000 0.0000 21.7590 0.0000 0.0000
# 5 0.0000 0.0000 0.0000 0.0000 15.5157 0.0000
# 6 0.0000 0.0000 0.0000 0.0000 0.0000 20.7503
#
#
#
# Elastic Compliance Matrix: (Units=1/GPa)
#
#
# Indices 1 2 3 4 5 6 
#
# 1 0.028688 0.003266 -0.000453 0.000000 0.000000 0.000000
# 2 0.003266 0.010887 -0.004132 0.000000 0.000000 0.000000
# 3 -0.000453 -0.004132 0.008009 0.000000 0.000000 0.000000
# 4 0.000000 0.000000 0.000000 0.045958 0.000000 0.000000
# 5 0.000000 0.000000 0.000000 0.000000 0.064451 0.000000
# 6 0.000000 0.000000 0.000000 0.000000 0.000000 0.048192
#
#
# Mechanical properties :
#
#
# Convention : Reuss Voigt Hill
#
# Bulk Modulus (GPa) = 22.24911 44.17592 33.21252
# Shear Modulus (GPa) = 22.34075 29.41072 25.87574
#
# Velocity S-wave (km/s) = 3.32731 3.81766 3.58088
# Velocity P-wave (km/s) = 5.07808 6.42838 5.79271
#
# Compressibility (1/GPa) = 0.04494561
#
# Stress axis : x y z
#
# Youngs Moduli (GPa) = 34.85737 91.85328 124.85488
#
# Poissons Ratio (x) = -0.29998 0.05655
# Poissons Ratio (y) = -0.11384 0.51595
# Poissons Ratio (z) = 0.01579 0.37958
#
# Static dielectric constant tensor:
#      x y z
#    x 1.798490 0.000000 0.000000 
#    y 0.000000 1.666590 0.000000 
#    z 0.000000 0.000000 1.734150 
# 
# From -- ./inp_files/8331.got.cif
#   From: 2010.05.17/outbox.cif.g08.bks.cpg/sg51_5_cif.got.tgz:8331.got - 2010.06.03 11:52:47.
