data_PCOD9399727
_publ_section_title
;
Structure prediction by ZEFSAII (Michael W. Deem and Ramdas Pophale) SiO2 
 PCOD9399727
Probable space group: P M M A
;
_chemical_formula_sum "Si O2"
_cell_formula_units_Z 40
_cell_length_a 8.451303
_cell_length_b 27.548210
_cell_length_c 9.273865
_cell_angle_alpha 90.000000
_cell_angle_beta 90.000000
_cell_angle_gamma 90.000000
_cell_volume 2159.125204
_symmetry_space_group_name_H-M "P M M A"
_symmetry_group_IT_number 51
_symmetry_cell_setting 'orthorhombic'
loop_
_space_group_symop_operation_xyz
x,y,z
1/2-x,-y,z
1/2+x,-y,-z
-x,y,-z
-x,-y,-z
1/2+x,y,-z
1/2-x,y,z
x,-y,z
loop_
_atom_site_type_symbol
_atom_site_label
_atom_site_fract_x
_atom_site_fract_y
_atom_site_fract_z
Si Si1 0.561704 0.397861 0.164270
Si Si2 0.561718 0.500000 0.834789
Si Si3 0.058790 0.895642 0.165550
Si Si4 0.441590 0.000000 0.166197
Si Si5 0.441389 0.789836 0.164410
Si Si6 0.559899 0.305036 0.662588
O O1 0.750000 0.398979 0.160755
O O2 0.500314 0.449209 0.227158
O O3 0.501900 0.352133 0.253802
O O4 0.500000 0.393466 0.000000
O O5 0.750000 0.500000 0.835266
O O6 0.500000 0.500000 0.000000
O O7 0.250000 0.895800 0.166229
O O8 0.007310 0.842982 0.223773
O O9 0.005964 0.947771 0.229567
O O10 0.000000 0.895660 0.000000
O O11 0.250000 0.000000 0.165922
O O12 0.500000 0.000000 0.000000
O O13 0.250000 0.789281 0.161943
O O14 0.495593 0.744092 0.257355
O O15 0.500000 0.785197 0.000000
O O16 0.500000 0.305435 0.500000
O O17 0.750000 0.305712 0.664804
#
# Coordination Sequence:
#
# PCOD9399727 Si02
#       6
#     8   4   8   4   8   8
#     4  11  21  36  58  84 111 140 172 209 249 295
#     4  10  18  32  55  84 113 140 171 208 246 290
#     4   8  13  22  36  59  88 119 151 190 236 289
#     4   8  12  18  32  54  85 118 148 182 232 288
#     4   9  18  31  49  71  97 126 163 205 249 298
#     4  11  23  38  53  73 100 134 172 214 260 308
#
# _framework density 18.526021
#
# number of rings (size 3 to 8) (size 9 to 14) (size 15 to 20)
#    0.000    2.400    0.000    5.100    0.000    3.200 
#    0.000    0.500    0.000    0.000    0.000    0.700 
#    0.000    0.000    0.000    0.000    0.000    0.000 
#
# Total GULP energy -222851.309436 kJ/mol
# GULP energy per Si atom -5571.282736 kJ/mol
# Density = 1.848385 g / cm^3
# Si number density = 18.526021 Si / 1000 Ang^3
#
#
#
# Elastic Constant Matrix: (Units=GPa)
#
#
# Indices 1 2 3 4 5 6 
#
# 1 69.7091 45.6393 15.9349 0.0000 0.0000 0.0000
# 2 45.6393 258.6346 70.2944 0.0000 0.0000 0.0000
# 3 15.9349 70.2944 53.3332 0.0000 0.0000 0.0000
# 4 0.0000 0.0000 0.0000 -5.8795 0.0000 0.0000
# 5 0.0000 0.0000 0.0000 0.0000 19.0614 0.0000
# 6 0.0000 0.0000 0.0000 0.0000 0.0000 17.9980
#
#
#
# Elastic Compliance Matrix: (Units=1/GPa)
#
#
# Indices 1 2 3 4 5 6 
#
# 1 0.016316 -0.002422 -0.001683 0.000000 0.000000 0.000000
# 2 -0.002422 0.006384 -0.007691 0.000000 0.000000 0.000000
# 3 -0.001683 -0.007691 0.029390 0.000000 0.000000 0.000000
# 4 0.000000 0.000000 0.000000 -0.170082 0.000000 0.000000
# 5 0.000000 0.000000 0.000000 0.000000 0.052462 0.000000
# 6 0.000000 0.000000 0.000000 0.000000 0.000000 0.055562
#
#
# Mechanical properties :
#
#
# Convention : Reuss Voigt Hill
#
# Bulk Modulus (GPa) = 35.08979 71.71266 53.40123
# Shear Modulus (GPa) = 216.24966 22.88985 119.56976
#
# Velocity S-wave (km/s) = 10.81577 3.51885 8.04249
# Velocity P-wave (km/s) = 13.22711 7.43660 10.72985
#
# Compressibility (1/GPa) = 0.02849831
#
# Stress axis : x y z
#
# Youngs Moduli (GPa) = 61.29126 156.63954 34.02568
#
# Poissons Ratio (x) = 0.37933 0.05726
# Poissons Ratio (y) = 0.14843 0.26169
# Poissons Ratio (z) = 0.10315 1.20469
#
# Static dielectric constant tensor:
#      x y z
#    x 1.625240 0.000000 0.000000 
#    y 0.000000 1.727140 0.000000 
#    z 0.000000 0.000000 1.577110 
# 
# From -- ./inp_files/5518.got.cif
#   From: 2010.05.17/outbox.cif.g08.bks.cpg/sg51_3_cif.got.tgz:5518.got - 2010.06.03 11:52:47.
