data_PCOD9399826
_publ_section_title
;
Structure prediction by ZEFSAII (Michael W. Deem and Ramdas Pophale) SiO2 
 PCOD9399826
Probable space group: P M M A
;
_chemical_formula_sum "Si O2"
_cell_formula_units_Z 64
_cell_length_a 19.248043
_cell_length_b 7.520375
_cell_length_c 20.554669
_cell_angle_alpha 90.000000
_cell_angle_beta 90.000000
_cell_angle_gamma 90.000000
_cell_volume 2975.339753
_symmetry_space_group_name_H-M "P M M A"
_symmetry_group_IT_number 51
_symmetry_cell_setting 'orthorhombic'
loop_
_space_group_symop_operation_xyz
x,y,z
1/2-x,-y,z
1/2+x,-y,-z
-x,y,-z
-x,-y,-z
1/2+x,y,-z
1/2-x,y,z
x,-y,z
loop_
_atom_site_type_symbol
_atom_site_label
_atom_site_fract_x
_atom_site_fract_y
_atom_site_fract_z
Si Si1 0.594667 0.297778 0.843318
Si Si2 0.563482 0.285295 0.359392
Si Si3 0.171102 0.713634 0.891202
Si Si4 0.583678 0.717107 0.589211
Si Si5 0.079489 0.281928 0.013213
Si Si6 0.948371 0.203197 0.207401
Si Si7 0.670091 0.282413 0.715687
Si Si8 0.670497 0.282467 0.463543
O O1 0.621048 0.500000 0.849013
O O2 0.601005 0.218894 0.915059
O O3 0.513582 0.305488 0.823241
O O4 0.635310 0.217328 0.782365
O O5 0.562764 0.500000 0.359613
O O6 0.495600 0.226278 0.399795
O O7 0.557814 0.231568 0.284440
O O8 0.632338 0.227100 0.397252
O O9 0.250000 0.780540 0.886541
O O10 0.174517 0.500000 0.896014
O O11 0.123007 0.754238 0.829294
O O12 0.130130 0.776656 0.955464
O O13 0.583073 0.500000 0.587401
O O14 0.626496 0.773007 0.652891
O O15 0.623167 0.774857 0.524355
O O16 0.079603 0.500000 0.013896
O O17 0.000000 0.228421 0.000000
O O18 0.965774 0.000000 0.194730
O O19 0.750000 0.230205 0.710680
O O20 0.667301 0.500000 0.715861
O O21 0.750000 0.223487 0.468970
O O22 0.671426 0.500000 0.464622
#
# Coordination Sequence:
#
# PCOD9399826 Si02
#       8
#     8   8   8   8   8   8   8   8
#     4  10  18  33  56  81 111 144 179 220 268 329
#     4  10  19  33  54  78 104 140 185 226 273 328
#     4  10  21  38  60  85 112 145 185 228 278 333
#     4   9  15  26  47  76 109 139 168 214 271 328
#     4   9  16  29  55  83 108 135 170 218 268 317
#     4  12  24  37  55  79 109 146 189 234 277 322
#     4   9  16  25  44  78 112 138 167 212 269 320
#     4   9  17  28  46  77 112 137 167 219 278 332
#
# _framework density 21.510148999999998
#
# number of rings (size 3 to 8) (size 9 to 14) (size 15 to 20)
#    0.000    2.250    2.500    1.875    0.000    4.250 
#    0.000    5.000    0.000    1.875    0.000    0.000 
#    0.000    0.000    0.000    0.000    0.000    0.000 
#
# Total GULP energy -357529.326994 kJ/mol
# GULP energy per Si atom -5586.395734 kJ/mol
# Density = 2.146119 g / cm^3
# Si number density = 21.510149 Si / 1000 Ang^3
#
#
#
# Elastic Constant Matrix: (Units=GPa)
#
#
# Indices 1 2 3 4 5 6 
#
# 1 119.2981 -0.9209 48.5887 0.0000 0.0000 0.0000
# 2 -0.9209 59.3312 -4.3961 0.0000 0.0000 0.0000
# 3 48.5887 -4.3961 109.6121 0.0000 0.0000 0.0000
# 4 0.0000 0.0000 0.0000 -77.5984 0.0000 0.0000
# 5 0.0000 0.0000 0.0000 0.0000 32.7426 0.0000
# 6 0.0000 0.0000 0.0000 0.0000 0.0000 -18.5741
#
#
#
# Elastic Compliance Matrix: (Units=1/GPa)
#
#
# Indices 1 2 3 4 5 6 
#
# 1 0.010231 -0.000178 -0.004542 0.000000 0.000000 0.000000
# 2 -0.000178 0.016908 0.000757 0.000000 0.000000 0.000000
# 3 -0.004542 0.000757 0.011167 0.000000 0.000000 0.000000
# 4 0.000000 0.000000 0.000000 -0.012887 0.000000 0.000000
# 5 0.000000 0.000000 0.000000 0.000000 0.030541 0.000000
# 6 0.000000 0.000000 0.000000 0.000000 0.000000 -0.053838
#
#
# Mechanical properties :
#
#
# Convention : Reuss Voigt Hill
#
# Bulk Modulus (GPa) = 32.91697 41.64278 37.27987
# Shear Modulus (GPa) = 247.83522 3.64532 125.74027
#
# Velocity S-wave (km/s) = 10.74560 1.30322 7.65396
# Velocity P-wave (km/s) = 13.01128 4.65469 9.77138
#
# Compressibility (1/GPa) = 0.03037947
#
# Stress axis : x y z
#
# Youngs Moduli (GPa) = 97.74192 59.14405 89.54991
#
# Poissons Ratio (x) = 0.01051 0.40677
# Poissons Ratio (y) = 0.01737 -0.06778
# Poissons Ratio (z) = 0.44398 -0.04477
#
# Static dielectric constant tensor:
#      x y z
#    x 1.749380 0.000000 0.000000 
#    y 0.000000 1.848810 0.000000 
#    z 0.000000 0.000000 1.744940 
# 
# From -- ./inp_files/30572.got.cif
#   From: 2010.05.17/outbox.cif.g08.bks.cpg/sg51_16_cif.got.tgz:30572.got - 2010.06.03 11:52:47.
