data_PCOD9399730
_publ_section_title
;
Structure prediction by ZEFSAII (Michael W. Deem and Ramdas Pophale) SiO2 
 PCOD9399730
Probable space group: P M M A
;
_chemical_formula_sum "Si O2"
_cell_formula_units_Z 56
_cell_length_a 20.243087
_cell_length_b 16.746495
_cell_length_c 9.862838
_cell_angle_alpha 90.000000
_cell_angle_beta 90.000000
_cell_angle_gamma 90.000000
_cell_volume 3343.509531
_symmetry_space_group_name_H-M "P M M A"
_symmetry_group_IT_number 51
_symmetry_cell_setting 'orthorhombic'
loop_
_space_group_symop_operation_xyz
x,y,z
1/2-x,-y,z
1/2+x,-y,-z
-x,y,-z
-x,-y,-z
1/2+x,y,-z
1/2-x,y,z
x,-y,z
loop_
_atom_site_type_symbol
_atom_site_label
_atom_site_fract_x
_atom_site_fract_y
_atom_site_fract_z
Si Si1 0.172341 0.834702 0.865203
Si Si2 0.673335 0.410634 0.713298
Si Si3 0.172942 0.753303 0.148491
Si Si4 0.423218 0.589610 0.543938
Si Si5 0.563571 0.827675 0.660155
Si Si6 0.922597 0.237598 0.355391
Si Si7 0.966602 0.000000 0.772412
Si Si8 0.103534 0.000000 0.935148
O O1 0.250000 0.837422 0.835780
O O2 0.130808 0.803328 0.739123
O O3 0.145871 0.921270 0.908079
O O4 0.161042 0.776938 0.993746
O O5 0.750000 0.404283 0.666727
O O6 0.664455 0.500000 0.769558
O O7 0.662275 0.339834 0.818871
O O8 0.623666 0.401888 0.587535
O O9 0.250000 0.771908 0.178717
O O10 0.123806 0.801805 0.244908
O O11 0.500000 0.593740 0.500000
O O12 0.411740 0.500000 0.600607
O O13 0.411134 0.667557 0.633967
O O14 0.578840 0.801600 0.505881
O O15 0.496444 0.780417 0.698144
O O16 0.547970 0.920723 0.685442
O O17 0.041033 0.000000 0.832223
O O18 0.922648 0.000000 0.909982
#
# Coordination Sequence:
#
# PCOD9399730 Si02
#       8
#     8   8   8   8   8   8   4   4
#     4  11  24  39  58  83 117 153 186 234 290 344
#     4   9  17  31  55  83 109 143 191 238 275 324
#     4  10  20  36  57  82 111 149 191 231 278 335
#     4  10  18  32  55  84 115 147 186 232 281 332
#     4  11  21  38  58  85 112 144 191 235 279 333
#     4  11  22  36  57  87 117 150 184 229 292 341
#     4  11  22  36  64  88 109 145 193 244 276 334
#     4  11  21  39  61  87 109 146 195 236 289 334
#
# _framework density 16.748868000000002
#
# number of rings (size 3 to 8) (size 9 to 14) (size 15 to 20)
#    0.000    1.571    5.714    0.214    0.000    3.429 
#    0.000    1.071    0.000    0.857    0.000    5.000 
#    0.000    0.000    0.000    0.000    0.000    0.000 
#
# Total GULP energy -312352.045389 kJ/mol
# GULP energy per Si atom -5577.715096 kJ/mol
# Density = 1.671075 g / cm^3
# Si number density = 16.748868 Si / 1000 Ang^3
#
#
#
# Elastic Constant Matrix: (Units=GPa)
#
#
# Indices 1 2 3 4 5 6 
#
# 1 95.6556 44.3631 54.7962 0.0000 0.0000 0.0000
# 2 44.3631 145.5836 40.0345 0.0000 0.0000 0.0000
# 3 54.7962 40.0345 50.4323 0.0000 0.0000 0.0000
# 4 0.0000 0.0000 0.0000 20.5557 0.0000 0.0000
# 5 0.0000 0.0000 0.0000 0.0000 28.4278 0.0000
# 6 0.0000 0.0000 0.0000 0.0000 0.0000 24.6706
#
#
#
# Elastic Compliance Matrix: (Units=1/GPa)
#
#
# Indices 1 2 3 4 5 6 
#
# 1 0.027692 -0.000210 -0.029921 0.000000 0.000000 0.000000
# 2 -0.000210 0.008789 -0.006748 0.000000 0.000000 0.000000
# 3 -0.029921 -0.006748 0.057696 0.000000 0.000000 0.000000
# 4 0.000000 0.000000 0.000000 0.048648 0.000000 0.000000
# 5 0.000000 0.000000 0.000000 0.000000 0.035177 0.000000
# 6 0.000000 0.000000 0.000000 0.000000 0.000000 0.040534
#
#
# Mechanical properties :
#
#
# Convention : Reuss Voigt Hill
#
# Bulk Modulus (GPa) = 48.97875 63.33989 56.15932
# Shear Modulus (GPa) = 16.71672 24.89599 20.80636
#
# Velocity S-wave (km/s) = 3.16267 3.85961 3.52839
# Velocity P-wave (km/s) = 6.53017 7.60010 7.08536
#
# Compressibility (1/GPa) = 0.02041702
#
# Stress axis : x y z
#
# Youngs Moduli (GPa) = 36.11126 113.78245 17.33222
#
# Poissons Ratio (x) = 0.02393 0.51860
# Poissons Ratio (y) = 0.00760 0.11696
# Poissons Ratio (z) = 1.08050 0.76782
#
# Static dielectric constant tensor:
#      x y z
#    x 1.557270 0.000000 0.000000 
#    y 0.000000 1.576860 0.000000 
#    z 0.000000 0.000000 1.529350 
# 
# From -- ./inp_files/11063.got.cif
#   From: 2010.05.17/outbox.cif.g08.bks.cpg/sg51_6_cif.got.tgz:11063.got - 2010.06.03 11:52:47.
