data_PCOD9399829
_publ_section_title
;
Structure prediction by ZEFSAII (Michael W. Deem and Ramdas Pophale) SiO2 
 PCOD9399829
Probable space group: P M M A
;
_chemical_formula_sum "Si O2"
_cell_formula_units_Z 48
_cell_length_a 9.244106
_cell_length_b 17.441898
_cell_length_c 15.277361
_cell_angle_alpha 90.000000
_cell_angle_beta 90.000000
_cell_angle_gamma 90.000000
_cell_volume 2463.241542
_symmetry_space_group_name_H-M "P M M A"
_symmetry_group_IT_number 51
_symmetry_cell_setting 'orthorhombic'
loop_
_space_group_symop_operation_xyz
x,y,z
1/2-x,-y,z
1/2+x,-y,-z
-x,y,-z
-x,-y,-z
1/2+x,y,-z
1/2-x,y,z
x,-y,z
loop_
_atom_site_type_symbol
_atom_site_label
_atom_site_fract_x
_atom_site_fract_y
_atom_site_fract_z
Si Si1 0.423318 0.678192 0.588643
Si Si2 0.421225 0.690691 0.085388
Si Si3 0.919447 0.845270 0.142246
Si Si4 0.414647 0.000000 0.355729
Si Si5 0.582652 0.000000 0.858424
Si Si6 0.582027 0.151916 0.354360
Si Si7 0.419226 0.590320 0.258524
O O1 0.500000 0.652473 0.500000
O O2 0.250000 0.675010 0.582109
O O3 0.466372 0.766785 0.607275
O O4 0.479649 0.627372 0.668476
O O5 0.250000 0.700931 0.070843
O O6 0.496435 0.771945 0.106127
O O7 0.441343 0.635191 0.167971
O O8 0.500000 0.658482 0.000000
O O9 0.750000 0.844503 0.117802
O O10 0.927175 0.842092 0.248474
O O11 0.997704 0.923653 0.114223
O O12 0.417226 0.000000 0.248650
O O13 0.492794 0.078011 0.383378
O O14 0.250000 0.000000 0.384907
O O15 0.750000 0.000000 0.886692
O O16 0.750000 0.140188 0.376578
O O17 0.250000 0.601075 0.283587
O O18 0.445318 0.500000 0.248624
#
# Coordination Sequence:
#
# PCOD9399829 Si02
#       7
#     8   8   8   4   4   8   8
#     4  11  23  40  63  93 124 161 203 249 302 360
#     4  11  23  39  62  91 124 160 200 247 299 359
#     4  10  18  33  56  83 117 158 204 251 300 353
#     4   9  17  27  48  81 114 152 202 249 294 346
#     4   9  17  29  48  81 118 156 203 249 299 353
#     4   9  18  33  54  80 116 157 200 247 298 351
#     4  10  23  44  68  93 122 157 197 245 301 361
#
# _framework density 19.486516999999999
#
# number of rings (size 3 to 8) (size 9 to 14) (size 15 to 20)
#    0.000    2.000    1.667    2.000    0.000    5.667 
#    0.000    0.833    0.000    0.000    0.000    0.000 
#    0.000    0.000    0.000    0.000    0.000    0.000 
#
# Total GULP energy -268283.564910 kJ/mol
# GULP energy per Si atom -5589.240936 kJ/mol
# Density = 1.944217 g / cm^3
# Si number density = 19.486517 Si / 1000 Ang^3
#
#
#
# Elastic Constant Matrix: (Units=GPa)
#
#
# Indices 1 2 3 4 5 6 
#
# 1 122.9493 72.3010 61.5968 0.0000 0.0000 0.0000
# 2 72.3010 115.9728 38.3224 0.0000 0.0000 0.0000
# 3 61.5968 38.3224 72.8386 0.0000 0.0000 0.0000
# 4 0.0000 0.0000 0.0000 -13.6707 0.0000 0.0000
# 5 0.0000 0.0000 0.0000 0.0000 25.0744 0.0000
# 6 0.0000 0.0000 0.0000 0.0000 0.0000 30.2885
#
#
#
# Elastic Compliance Matrix: (Units=1/GPa)
#
#
# Indices 1 2 3 4 5 6 
#
# 1 0.018434 -0.007675 -0.011550 0.000000 0.000000 0.000000
# 2 -0.007675 0.013633 -0.000682 0.000000 0.000000 0.000000
# 3 -0.011550 -0.000682 0.023856 0.000000 0.000000 0.000000
# 4 0.000000 0.000000 0.000000 -0.073149 0.000000 0.000000
# 5 0.000000 0.000000 0.000000 0.000000 0.039881 0.000000
# 6 0.000000 0.000000 0.000000 0.000000 0.000000 0.033016
#
#
# Mechanical properties :
#
#
# Convention : Reuss Voigt Hill
#
# Bulk Modulus (GPa) = 62.08571 72.91122 67.49846
# Shear Modulus (GPa) = 49.57635 17.64116 33.60875
#
# Velocity S-wave (km/s) = 5.04941 3.01209 4.15748
# Velocity P-wave (km/s) = 8.11945 7.04233 7.59999
#
# Compressibility (1/GPa) = 0.01610677
#
# Stress axis : x y z
#
# Youngs Moduli (GPa) = 54.24867 73.35075 41.91899
#
# Poissons Ratio (x) = 0.56299 0.48418
# Poissons Ratio (y) = 0.41638 0.02859
# Poissons Ratio (z) = 0.62659 0.05003
#
# Static dielectric constant tensor:
#      x y z
#    x 1.649770 0.000000 0.000000 
#    y 0.000000 1.645910 0.000000 
#    z 0.000000 0.000000 1.705160 
# 
# From -- ./inp_files/21198.got.cif
#   From: 2010.05.17/outbox.cif.g08.bks.cpg/sg51_11_cif.got.tgz:21198.got - 2010.06.03 11:52:47.
