data_PCOD9399626
_publ_section_title
;
Structure prediction by ZEFSAII (Michael W. Deem and Ramdas Pophale) SiO2 
 PCOD9399626
Probable space group: P M M A
;
_chemical_formula_sum "Si O2"
_cell_formula_units_Z 52
_cell_length_a 8.737673
_cell_length_b 22.808583
_cell_length_c 15.885558
_cell_angle_alpha 90.000000
_cell_angle_beta 90.000000
_cell_angle_gamma 90.000000
_cell_volume 3165.895440
_symmetry_space_group_name_H-M "P M M A"
_symmetry_group_IT_number 51
_symmetry_cell_setting 'orthorhombic'
loop_
_space_group_symop_operation_xyz
x,y,z
1/2-x,-y,z
1/2+x,-y,-z
-x,y,-z
-x,-y,-z
1/2+x,y,-z
1/2-x,y,z
x,-y,z
loop_
_atom_site_type_symbol
_atom_site_label
_atom_site_fract_x
_atom_site_fract_y
_atom_site_fract_z
Si Si1 0.933969 0.500000 0.595064
Si Si2 0.433302 0.157030 0.736171
Si Si3 0.425862 0.706072 0.086718
Si Si4 0.573129 0.848720 0.912606
Si Si5 0.934388 0.067348 0.409590
Si Si6 0.435312 0.287281 0.272434
Si Si7 0.066317 0.377757 0.594687
O O1 0.750000 0.500000 0.594505
O O2 0.000000 0.500000 0.500000
O O3 0.998917 0.439131 0.630459
O O4 0.250000 0.164635 0.734146
O O5 0.482787 0.134848 0.828469
O O6 0.480285 0.111023 0.664601
O O7 0.512475 0.219775 0.720839
O O8 0.250000 0.688056 0.084999
O O9 0.431301 0.777328 0.085107
O O10 0.488188 0.690644 0.179332
O O11 0.500000 0.685053 0.000000
O O12 0.750000 0.866078 0.906556
O O13 0.500000 0.869563 0.000000
O O14 0.750000 0.067992 0.414045
O O15 0.000000 0.085413 0.500000
O O16 0.983124 0.000000 0.393728
O O17 0.250000 0.290007 0.275417
O O18 0.508862 0.325821 0.345594
O O19 0.250000 0.380490 0.590444
O O20 0.000000 0.370166 0.500000
#
# Coordination Sequence:
#
# PCOD9399626 Si02
#       7
#     4   8   8   8   8   8   8
#     4  10  18  32  52  72  95 126 163 202 240 282
#     4  10  19  31  48  71  98 127 158 196 243 291
#     4   8  15  26  42  63  90 122 155 191 230 274
#     4   9  16  27  44  67  94 124 156 191 233 283
#     4   9  19  35  53  71  91 119 158 201 242 286
#     4  10  20  33  47  70 102 132 162 198 241 288
#     4  11  21  34  51  72  98 130 166 203 241 285
#
# _framework density 16.425052000000001
#
# number of rings (size 3 to 8) (size 9 to 14) (size 15 to 20)
#    0.000    2.462    0.000    5.308    0.000    6.154 
#    0.000    1.538    0.000    0.462    0.000    0.538 
#    0.000    0.000    0.000    0.000    0.000    0.000 
#
# Total GULP energy -289717.198707 kJ/mol
# GULP energy per Si atom -5571.484591 kJ/mol
# Density = 1.638767 g / cm^3
# Si number density = 16.425052 Si / 1000 Ang^3
#
#
#
# Elastic Constant Matrix: (Units=GPa)
#
#
# Indices 1 2 3 4 5 6 
#
# 1 88.2761 30.2653 50.0373 0.0000 0.0000 0.0000
# 2 30.2653 58.3834 66.4735 0.0000 0.0000 0.0000
# 3 50.0373 66.4735 142.4623 0.0000 0.0000 0.0000
# 4 0.0000 0.0000 0.0000 -3.0449 0.0000 0.0000
# 5 0.0000 0.0000 0.0000 0.0000 30.6188 0.0000
# 6 0.0000 0.0000 0.0000 0.0000 0.0000 14.1439
#
#
#
# Elastic Compliance Matrix: (Units=1/GPa)
#
#
# Indices 1 2 3 4 5 6 
#
# 1 0.014503 -0.003666 -0.003383 0.000000 0.000000 0.000000
# 2 -0.003666 0.037468 -0.016195 0.000000 0.000000 0.000000
# 3 -0.003383 -0.016195 0.015764 0.000000 0.000000 0.000000
# 4 0.000000 0.000000 0.000000 -0.328421 0.000000 0.000000
# 5 0.000000 0.000000 0.000000 0.000000 0.032660 0.000000
# 6 0.000000 0.000000 0.000000 0.000000 0.000000 0.070702
#
#
# Mechanical properties :
#
#
# Convention : Reuss Voigt Hill
#
# Bulk Modulus (GPa) = 47.06701 64.74156 55.90428
# Shear Modulus (GPa) = -48.19045 17.83329 -15.17858
#
# Velocity S-wave (km/s) = -5.42248 3.29863 -3.04322
# Velocity P-wave (km/s) = 3.23830 7.34914 4.66494
#
# Compressibility (1/GPa) = 0.02124630
#
# Stress axis : x y z
#
# Youngs Moduli (GPa) = 68.95276 26.68974 63.43436
#
# Poissons Ratio (x) = 0.09784 0.21461
# Poissons Ratio (y) = 0.25278 1.02731
# Poissons Ratio (z) = 0.23328 0.43224
#
# Static dielectric constant tensor:
#      x y z
#    x 1.549910 0.000000 0.000000 
#    y 0.000000 1.547110 0.000000 
#    z 0.000000 0.000000 1.565800 
# 
# From -- ./inp_files/21582.got.cif
#   From: 2010.05.17/outbox.cif.g08.bks.cpg/sg51_11_cif.got.tgz:21582.got - 2010.06.03 11:52:47.
