data_PCOD9399180
_publ_section_title
;
Structure prediction by ZEFSAII (Michael W. Deem and Ramdas Pophale) SiO2 
 PCOD9399180
Probable space group: P M M A
;
_chemical_formula_sum "Si O2"
_cell_formula_units_Z 64
_cell_length_a 9.034219
_cell_length_b 14.670570
_cell_length_c 31.764274
_cell_angle_alpha 90.000000
_cell_angle_beta 90.000000
_cell_angle_gamma 90.000000
_cell_volume 4209.946101
_symmetry_space_group_name_H-M "P M M A"
_symmetry_group_IT_number 51
_symmetry_cell_setting 'orthorhombic'
loop_
_space_group_symop_operation_xyz
x,y,z
1/2-x,-y,z
1/2+x,-y,-z
-x,y,-z
-x,-y,-z
1/2+x,y,-z
1/2-x,y,z
x,-y,z
loop_
_atom_site_type_symbol
_atom_site_label
_atom_site_fract_x
_atom_site_fract_y
_atom_site_fract_z
Si Si1 0.927479 0.716625 0.627049
Si Si2 0.072841 0.392558 0.703752
Si Si3 0.929710 0.101288 0.244365
Si Si4 0.427680 0.104439 0.657049
Si Si5 0.420564 0.610878 0.957222
Si Si6 0.426614 0.392167 0.130119
Si Si7 0.072083 0.606036 0.455818
Si Si8 0.428670 0.291966 0.791327
O O1 0.750000 0.717577 0.629090
O O2 0.972854 0.667457 0.583689
O O3 0.990879 0.659431 0.666322
O O4 0.991020 0.818251 0.630917
O O5 0.250000 0.381141 0.697979
O O6 0.038975 0.500000 0.703454
O O7 0.035843 0.348663 0.748951
O O8 0.750000 0.100459 0.243293
O O9 0.968474 0.115671 0.293505
O O10 0.977088 0.187717 0.217172
O O11 0.980688 0.000000 0.231569
O O12 0.250000 0.116307 0.654208
O O13 0.462110 0.000000 0.645199
O O14 0.250000 0.639966 0.956084
O O15 0.422113 0.500000 0.958186
O O16 0.504987 0.637126 0.914646
O O17 0.500000 0.641966 0.000000
O O18 0.250000 0.382546 0.129117
O O19 0.460944 0.500000 0.135856
O O20 0.496106 0.336560 0.168423
O O21 0.250000 0.610190 0.459612
O O22 0.031533 0.500000 0.447844
O O23 0.000000 0.633694 0.500000
O O24 0.250000 0.294222 0.796323
#
# Coordination Sequence:
#
# PCOD9399180 Si02
#       8
#     8   8   8   8   8   8   8   8
#     4  11  21  32  49  73 101 125 150 190 239 287
#     4  10  20  32  46  66  93 127 166 199 226 269
#     4   8  14  27  48  69  88 114 151 195 236 272
#     4   9  17  32  53  73  94 122 158 196 232 276
#     4   9  16  27  44  64  86 115 154 198 240 279
#     4  10  20  31  42  60  90 127 163 196 234 280
#     4   9  19  35  52  71  95 124 156 190 231 277
#     4  10  18  30  47  65  89 121 159 197 230 270
#
# _framework density 15.202095999999999
#
# number of rings (size 3 to 8) (size 9 to 14) (size 15 to 20)
#    0.000    2.500    1.250    2.625    0.000    5.250 
#    0.000    1.250    0.000    0.750    0.000    0.000 
#    0.000    0.500    0.000    1.375    0.000    2.000 
#
# Total GULP energy -356823.455807 kJ/mol
# GULP energy per Si atom -5575.366497 kJ/mol
# Density = 1.516750 g / cm^3
# Si number density = 15.202096 Si / 1000 Ang^3
#
#
#
# Elastic Constant Matrix: (Units=GPa)
#
#
# Indices 1 2 3 4 5 6 
#
# 1 38.8241 45.1102 53.4385 0.0000 0.0000 0.0000
# 2 45.1102 106.5630 79.9662 0.0000 0.0000 0.0000
# 3 53.4385 79.9662 143.5942 0.0000 0.0000 0.0000
# 4 0.0000 0.0000 0.0000 8.0089 0.0000 0.0000
# 5 0.0000 0.0000 0.0000 0.0000 28.6076 0.0000
# 6 0.0000 0.0000 0.0000 0.0000 0.0000 17.8183
#
#
#
# Elastic Compliance Matrix: (Units=1/GPa)
#
#
# Indices 1 2 3 4 5 6 
#
# 1 0.066059 -0.016348 -0.015480 0.000000 0.000000 0.000000
# 2 -0.016348 0.020167 -0.005147 0.000000 0.000000 0.000000
# 3 -0.015480 -0.005147 0.015591 0.000000 0.000000 0.000000
# 4 0.000000 0.000000 0.000000 0.124860 0.000000 0.000000
# 5 0.000000 0.000000 0.000000 0.000000 0.034956 0.000000
# 6 0.000000 0.000000 0.000000 0.000000 0.000000 0.056122
#
#
# Mechanical properties :
#
#
# Convention : Reuss Voigt Hill
#
# Bulk Modulus (GPa) = 35.88376 71.77901 53.83138
# Shear Modulus (GPa) = 12.46906 18.25140 15.36023
#
# Velocity S-wave (km/s) = 2.86705 3.46870 3.18213
# Velocity P-wave (km/s) = 5.88351 7.96000 6.99919
#
# Compressibility (1/GPa) = 0.02786776
#
# Stress axis : x y z
#
# Youngs Moduli (GPa) = 15.13804 49.58685 64.13906
#
# Poissons Ratio (x) = 0.81063 0.99287
# Poissons Ratio (y) = 0.24747 0.33011
# Poissons Ratio (z) = 0.23434 0.25521
#
# Static dielectric constant tensor:
#      x y z
#    x 1.508170 0.000000 0.000000 
#    y 0.000000 1.505760 0.000000 
#    z 0.000000 0.000000 1.479440 
# 
# From -- ./inp_files/37589.got.cif
#   From: 2010.05.17/outbox.cif.g08.bks.cpg/sg51_19_cif.got.tgz:37589.got - 2010.06.03 11:52:47.
