data_PCOD9399791
_publ_section_title
;
Structure prediction by ZEFSAII (Michael W. Deem and Ramdas Pophale) SiO2 
 PCOD9399791
Probable space group: P M M A
;
_chemical_formula_sum "Si O2"
_cell_formula_units_Z 48
_cell_length_a 14.119922
_cell_length_b 17.310336
_cell_length_c 8.348549
_cell_angle_alpha 90.000000
_cell_angle_beta 90.000000
_cell_angle_gamma 90.000000
_cell_volume 2040.557307
_symmetry_space_group_name_H-M "P M M A"
_symmetry_group_IT_number 51
_symmetry_cell_setting 'orthorhombic'
loop_
_space_group_symop_operation_xyz
x,y,z
1/2-x,-y,z
1/2+x,-y,-z
-x,y,-z
-x,-y,-z
1/2+x,y,-z
1/2-x,y,z
x,-y,z
loop_
_atom_site_type_symbol
_atom_site_label
_atom_site_fract_x
_atom_site_fract_y
_atom_site_fract_z
Si Si1 0.634775 0.323116 0.951335
Si Si2 0.358526 0.168237 0.546924
Si Si3 0.865825 0.588922 0.274233
Si Si4 0.135119 0.000000 0.053730
Si Si5 0.634586 0.676884 0.598608
Si Si6 0.898473 0.000000 0.577014
Si Si7 0.365719 0.161686 0.903863
O O1 0.750000 0.326415 0.950194
O O2 0.602357 0.349397 0.774933
O O3 0.608879 0.233874 0.985278
O O4 0.604616 0.370948 0.107711
O O5 0.250000 0.192011 0.573064
O O6 0.394375 0.233573 0.426956
O O7 0.356571 0.081391 0.481724
O O8 0.402610 0.171635 0.723151
O O9 0.750000 0.590952 0.274187
O O10 0.895704 0.500000 0.278673
O O11 0.895308 0.632417 0.437388
O O12 0.100023 0.000000 0.233690
O O13 0.105753 0.921972 0.966013
O O14 0.250000 0.000000 0.060952
O O15 0.750000 0.670850 0.604085
O O16 0.000000 0.000000 0.500000
O O17 0.250000 0.160620 0.900046
#
# Coordination Sequence:
#
# PCOD9399791 Si02
#       7
#     8   8   8   4   8   4   8
#     4   9  15  24  38  60  90 123 160 202 245 289
#     4  10  18  33  54  72  93 130 176 214 251 297
#     4   9  16  25  36  57  95 133 161 197 247 302
#     4  10  19  32  51  74  95 124 167 209 247 294
#     4   9  16  26  44  67  91 126 170 209 244 290
#     4  12  25  36  46  70 106 136 165 207 255 306
#     4   9  16  28  49  74  94 117 164 220 254 285
#
# _framework density 23.522987000000001
#
# number of rings (size 3 to 8) (size 9 to 14) (size 15 to 20)
#    0.000    2.500    1.667    2.250    0.000    4.667 
#    0.000    5.000    0.000    0.000    0.000    0.000 
#    0.000    0.667    0.000    4.667    0.000    7.167 
#
# Total GULP energy -268282.885508 kJ/mol
# GULP energy per Si atom -5589.226781 kJ/mol
# Density = 2.346945 g / cm^3
# Si number density = 23.522987 Si / 1000 Ang^3
#
#
#
# Elastic Constant Matrix: (Units=GPa)
#
#
# Indices 1 2 3 4 5 6 
#
# 1 73.7888 -6.4433 20.7723 0.0000 0.0000 0.0000
# 2 -6.4433 147.5584 103.5396 0.0000 0.0000 0.0000
# 3 20.7723 103.5396 238.6178 0.0000 0.0000 0.0000
# 4 0.0000 0.0000 0.0000 9.3420 0.0000 0.0000
# 5 0.0000 0.0000 0.0000 0.0000 8.6054 0.0000
# 6 0.0000 0.0000 0.0000 0.0000 0.0000 -28.4623
#
#
#
# Elastic Compliance Matrix: (Units=1/GPa)
#
#
# Indices 1 2 3 4 5 6 
#
# 1 0.014357 0.002162 -0.002188 0.000000 0.000000 0.000000
# 2 0.002162 0.010069 -0.004557 0.000000 0.000000 0.000000
# 3 -0.002188 -0.004557 0.006359 0.000000 0.000000 0.000000
# 4 0.000000 0.000000 0.000000 0.107043 0.000000 0.000000
# 5 0.000000 0.000000 0.000000 0.000000 0.116206 0.000000
# 6 0.000000 0.000000 0.000000 0.000000 0.000000 -0.035134
#
#
# Mechanical properties :
#
#
# Convention : Reuss Voigt Hill
#
# Bulk Modulus (GPa) = 46.25656 77.30025 61.77841
# Shear Modulus (GPa) = 21.25192 20.70344 20.97768
#
# Velocity S-wave (km/s) = 3.00901 2.96993 2.98953
# Velocity P-wave (km/s) = 5.63731 6.68532 6.18356
#
# Compressibility (1/GPa) = 0.02161855
#
# Stress axis : x y z
#
# Youngs Moduli (GPa) = 69.65270 99.31206 157.26228
#
# Poissons Ratio (x) = -0.21473 0.34409
# Poissons Ratio (y) = -0.15060 0.71671
# Poissons Ratio (z) = 0.15240 0.45261
#
# Static dielectric constant tensor:
#      x y z
#    x 1.924010 0.000000 0.000000 
#    y 0.000000 1.860000 0.000000 
#    z 0.000000 0.000000 1.844670 
# 
# From -- ./inp_files/9717.got.cif
#   From: 2010.05.17/outbox.cif.g08.bks.cpg/sg51_5_cif.got.tgz:9717.got - 2010.06.03 11:52:47.
