data_PCOD9399439
_publ_section_title
;
Structure prediction by ZEFSAII (Michael W. Deem and Ramdas Pophale) SiO2 
 PCOD9399439
Probable space group: P M M A
;
_chemical_formula_sum "Si O2"
_cell_formula_units_Z 64
_cell_length_a 8.597129
_cell_length_b 24.390393
_cell_length_c 19.588495
_cell_angle_alpha 90.000000
_cell_angle_beta 90.000000
_cell_angle_gamma 90.000000
_cell_volume 4107.459705
_symmetry_space_group_name_H-M "P M M A"
_symmetry_group_IT_number 51
_symmetry_cell_setting 'orthorhombic'
loop_
_space_group_symop_operation_xyz
x,y,z
1/2-x,-y,z
1/2+x,-y,-z
-x,y,-z
-x,-y,-z
1/2+x,y,-z
1/2-x,y,z
x,-y,z
loop_
_atom_site_type_symbol
_atom_site_label
_atom_site_fract_x
_atom_site_fract_y
_atom_site_fract_z
Si Si1 0.061155 0.667876 0.343988
Si Si2 0.437835 0.937184 0.215610
Si Si3 0.563673 0.884236 0.927851
Si Si4 0.561748 0.437929 0.576158
Si Si5 0.936581 0.268790 0.787414
Si Si6 0.935072 0.835137 0.294498
Si Si7 0.936996 0.777737 0.575911
Si Si8 0.934874 0.760436 0.072211
O O1 0.250000 0.666835 0.343247
O O2 0.007057 0.609785 0.373024
O O3 0.012603 0.685674 0.267963
O O4 0.016664 0.717723 0.394487
O O5 0.250000 0.932844 0.220636
O O6 0.480547 0.919231 0.138406
O O7 0.513066 0.894097 0.267193
O O8 0.482317 0.000000 0.228106
O O9 0.750000 0.881391 0.931448
O O10 0.499402 0.822499 0.919581
O O11 0.500000 0.905826 0.000000
O O12 0.500000 0.427005 0.500000
O O13 0.750000 0.436544 0.574175
O O14 0.514516 0.500000 0.595198
O O15 0.750000 0.269166 0.792548
O O16 0.987958 0.210855 0.754403
O O17 0.009062 0.272940 0.862037
O O18 0.750000 0.829438 0.291193
O O19 0.995016 0.821145 0.370228
O O20 0.750000 0.780736 0.576682
O O21 0.000000 0.784967 0.500000
O O22 0.750000 0.762819 0.069598
O O23 0.000000 0.739636 0.000000
#
# Coordination Sequence:
#
# PCOD9399439 Si02
#       8
#     8   8   8   8   8   8   8   8
#     4   8  16  28  44  67  95 127 159 194 233 269
#     4  10  21  36  52  68  90 122 155 188 229 275
#     4  10  19  31  48  67  92 122 153 187 224 266
#     4   9  16  27  43  64  93 130 168 200 229 266
#     4  10  18  31  48  66  92 123 155 194 236 277
#     4  11  21  33  50  71  93 118 151 188 231 281
#     4  10  19  32  50  71  96 122 151 189 233 279
#     4  11  20  30  46  68  93 122 154 187 228 280
#
# _framework density 15.581405999999999
#
# number of rings (size 3 to 8) (size 9 to 14) (size 15 to 20)
#    0.000    2.125    1.250    5.250    0.000    1.000 
#    0.000    3.125    0.000    0.375    0.000    0.000 
#    0.000    0.500    0.000    0.875    0.000    1.250 
#
# Total GULP energy -357044.501795 kJ/mol
# GULP energy per Si atom -5578.820341 kJ/mol
# Density = 1.554594 g / cm^3
# Si number density = 15.581406 Si / 1000 Ang^3
#
#
#
# Elastic Constant Matrix: (Units=GPa)
#
#
# Indices 1 2 3 4 5 6 
#
# 1 52.3028 24.9280 34.1917 0.0000 0.0000 0.0000
# 2 24.9280 98.9845 67.7415 0.0000 0.0000 0.0000
# 3 34.1917 67.7415 139.9086 0.0000 0.0000 0.0000
# 4 0.0000 0.0000 0.0000 25.6094 0.0000 0.0000
# 5 0.0000 0.0000 0.0000 0.0000 27.9338 0.0000
# 6 0.0000 0.0000 0.0000 0.0000 0.0000 8.4037
#
#
#
# Elastic Compliance Matrix: (Units=1/GPa)
#
#
# Indices 1 2 3 4 5 6 
#
# 1 0.023317 -0.002950 -0.004270 0.000000 0.000000 0.000000
# 2 -0.002950 0.015482 -0.006775 0.000000 0.000000 0.000000
# 3 -0.004270 -0.006775 0.011472 0.000000 0.000000 0.000000
# 4 0.000000 0.000000 0.000000 0.039048 0.000000 0.000000
# 5 0.000000 0.000000 0.000000 0.000000 0.035799 0.000000
# 6 0.000000 0.000000 0.000000 0.000000 0.000000 0.118995
#
#
# Mechanical properties :
#
#
# Convention : Reuss Voigt Hill
#
# Bulk Modulus (GPa) = 44.88280 60.54648 52.71464
# Shear Modulus (GPa) = 17.88714 23.34501 20.61608
#
# Velocity S-wave (km/s) = 3.39186 3.87494 3.64142
# Velocity P-wave (km/s) = 6.64887 7.67872 7.18228
#
# Compressibility (1/GPa) = 0.02228025
#
# Stress axis : x y z
#
# Youngs Moduli (GPa) = 42.88754 64.58989 87.17167
#
# Poissons Ratio (x) = 0.19052 0.37223
# Poissons Ratio (y) = 0.12651 0.59062
# Poissons Ratio (z) = 0.18313 0.43762
#
# Static dielectric constant tensor:
#      x y z
#    x 1.522910 0.000000 0.000000 
#    y 0.000000 1.508520 0.000000 
#    z 0.000000 0.000000 1.523730 
# 
# From -- ./inp_files/28650.got.cif
#   From: 2010.05.17/outbox.cif.g08.bks.cpg/sg51_15_cif.got.tgz:28650.got - 2010.06.03 11:52:47.
