data_PCOD9399748
_publ_section_title
;
Structure prediction by ZEFSAII (Michael W. Deem and Ramdas Pophale) SiO2 
 PCOD9399748
Probable space group: P M M A
;
_chemical_formula_sum "Si O2"
_cell_formula_units_Z 64
_cell_length_a 18.395337
_cell_length_b 15.065350
_cell_length_c 12.096933
_cell_angle_alpha 90.000000
_cell_angle_beta 90.000000
_cell_angle_gamma 90.000000
_cell_volume 3352.449538
_symmetry_space_group_name_H-M "P M M A"
_symmetry_group_IT_number 51
_symmetry_cell_setting 'orthorhombic'
loop_
_space_group_symop_operation_xyz
x,y,z
1/2-x,-y,z
1/2+x,-y,-z
-x,y,-z
-x,-y,-z
1/2+x,y,-z
1/2-x,y,z
x,-y,z
loop_
_atom_site_type_symbol
_atom_site_label
_atom_site_fract_x
_atom_site_fract_y
_atom_site_fract_z
Si Si1 0.331651 0.279843 0.626773
Si Si2 0.387146 0.723054 0.383720
Si Si3 0.529167 0.095959 0.626223
Si Si4 0.878683 0.103250 0.246933
Si Si5 0.522725 0.394606 0.335014
Si Si6 0.946626 0.595851 0.898683
Si Si7 0.337547 0.100001 0.003879
Si Si8 0.833117 0.266873 0.857735
O O1 0.250000 0.312491 0.654316
O O2 0.340126 0.273711 0.494172
O O3 0.341417 0.182747 0.683702
O O4 0.400593 0.342690 0.657221
O O5 0.421042 0.819573 0.364124
O O6 0.454960 0.654311 0.397035
O O7 0.343645 0.707706 0.270733
O O8 0.500000 0.097497 0.500000
O O9 0.461214 0.103745 0.708820
O O10 0.565034 0.000000 0.643514
O O11 0.852083 0.000000 0.263634
O O12 0.870976 0.122678 0.116269
O O13 0.528896 0.500000 0.362218
O O14 0.494618 0.385972 0.209265
O O15 0.910829 0.500000 0.880697
O O16 0.886835 0.668549 0.920308
O O17 0.000000 0.592083 0.000000
O O18 0.250000 0.100475 0.988217
O O19 0.353984 0.168112 0.102291
O O20 0.360367 0.000000 0.032096
O O21 0.750000 0.279928 0.888738
#
# Coordination Sequence:
#
# PCOD9399748 Si02
#       8
#     8   8   8   8   8   8   8   8
#     4  12  24  36  58  89 119 150 194 246 293 342
#     4  11  21  39  58  83 117 156 198 238 284 348
#     4  10  18  32  56  83 112 147 190 239 286 336
#     4  10  20  36  58  85 115 149 193 239 290 346
#     4  10  22  41  62  84 115 155 194 233 290 356
#     4   9  20  39  63  88 115 150 192 239 292 352
#     4   9  19  36  55  79 117 159 193 229 283 350
#     4  10  22  37  59  86 117 156 196 240 291 340
#
# _framework density 19.090519
#
# number of rings (size 3 to 8) (size 9 to 14) (size 15 to 20)
#    0.000    1.875    2.500    1.125    1.750    2.750 
#    0.000    0.000    0.000    9.375    0.000    0.000 
#    0.000    0.000    0.000    0.000    0.000    0.000 
#
# Total GULP energy -356735.485629 kJ/mol
# GULP energy per Si atom -5573.991963 kJ/mol
# Density = 1.904707 g / cm^3
# Si number density = 19.090519 Si / 1000 Ang^3
#
#
#
# Elastic Constant Matrix: (Units=GPa)
#
#
# Indices 1 2 3 4 5 6 
#
# 1 75.5859 57.0302 10.8980 0.0000 0.0000 0.0000
# 2 57.0302 101.9894 21.9706 0.0000 0.0000 0.0000
# 3 10.8980 21.9706 63.6853 0.0000 0.0000 0.0000
# 4 0.0000 0.0000 0.0000 24.3973 0.0000 0.0000
# 5 0.0000 0.0000 0.0000 0.0000 23.0196 0.0000
# 6 0.0000 0.0000 0.0000 0.0000 0.0000 20.9464
#
#
#
# Elastic Compliance Matrix: (Units=1/GPa)
#
#
# Indices 1 2 3 4 5 6 
#
# 1 0.022903 -0.012923 0.000539 0.000000 0.000000 0.000000
# 2 -0.012923 0.017884 -0.003958 0.000000 0.000000 0.000000
# 3 0.000539 -0.003958 0.016976 0.000000 0.000000 0.000000
# 4 0.000000 0.000000 0.000000 0.040988 0.000000 0.000000
# 5 0.000000 0.000000 0.000000 0.000000 0.043441 0.000000
# 6 0.000000 0.000000 0.000000 0.000000 0.000000 0.047741
#
#
# Mechanical properties :
#
#
# Convention : Reuss Voigt Hill
#
# Bulk Modulus (GPa) = 39.87579 46.78423 43.33001
# Shear Modulus (GPa) = 21.64735 23.76347 22.70541
#
# Velocity S-wave (km/s) = 3.37104 3.53197 3.45244
# Velocity P-wave (km/s) = 6.00708 6.41816 6.21602
#
# Compressibility (1/GPa) = 0.02507787
#
# Stress axis : x y z
#
# Youngs Moduli (GPa) = 43.66319 55.91669 58.90834
#
# Poissons Ratio (x) = 0.72260 -0.03175
# Poissons Ratio (y) = 0.56425 0.23318
# Poissons Ratio (z) = -0.02354 0.22133
#
# Static dielectric constant tensor:
#      x y z
#    x 1.651350 0.000000 0.000000 
#    y 0.000000 1.695080 0.000000 
#    z 0.000000 0.000000 1.709480 
# 
# From -- ./inp_files/17573.got.cif
#   From: 2010.05.17/outbox.cif.g08.bks.cpg/sg51_9_cif.got.tgz:17573.got - 2010.06.03 11:52:47.
