data_PCOD9399504
_publ_section_title
;
Structure prediction by ZEFSAII (Michael W. Deem and Ramdas Pophale) SiO2 
 PCOD9399504
Probable space group: P M M A
;
_chemical_formula_sum "Si O2"
_cell_formula_units_Z 56
_cell_length_a 8.723253
_cell_length_b 14.731284
_cell_length_c 26.354857
_cell_angle_alpha 90.000000
_cell_angle_beta 90.000000
_cell_angle_gamma 90.000000
_cell_volume 3386.723450
_symmetry_space_group_name_H-M "P M M A"
_symmetry_group_IT_number 51
_symmetry_cell_setting 'orthorhombic'
loop_
_space_group_symop_operation_xyz
x,y,z
1/2-x,-y,z
1/2+x,-y,-z
-x,y,-z
-x,-y,-z
1/2+x,y,-z
1/2-x,y,z
x,-y,z
loop_
_atom_site_type_symbol
_atom_site_label
_atom_site_fract_x
_atom_site_fract_y
_atom_site_fract_z
Si Si1 0.936576 0.895601 0.251428
Si Si2 0.435085 0.788579 0.850286
Si Si3 0.566463 0.105645 0.555263
Si Si4 0.433310 0.603350 0.310332
Si Si5 0.566102 0.216504 0.351210
Si Si6 0.933348 0.105143 0.945034
Si Si7 0.434473 0.397708 0.802489
O O1 0.750000 0.895866 0.251674
O O2 0.983156 0.845832 0.199573
O O3 0.985067 0.839882 0.301126
O O4 0.988242 0.000000 0.252998
O O5 0.250000 0.793617 0.853775
O O6 0.505438 0.831709 0.900365
O O7 0.478398 0.684050 0.839557
O O8 0.500000 0.129015 0.500000
O O9 0.750000 0.112264 0.554184
O O10 0.499423 0.168336 0.599168
O O11 0.524783 0.000000 0.565499
O O12 0.250000 0.611154 0.311800
O O13 0.475744 0.500000 0.324849
O O14 0.508091 0.681160 0.344139
O O15 0.490598 0.616595 0.252530
O O16 0.750000 0.215067 0.352616
O O17 0.750000 0.108724 0.946957
O O18 0.979686 0.000000 0.934957
O O19 0.000000 0.130264 0.000000
O O20 0.250000 0.392687 0.795634
O O21 0.472693 0.500000 0.819772
#
# Coordination Sequence:
#
# PCOD9399504 Si02
#       7
#     8   8   8   8   8   8   8
#     4   9  17  28  44  71 105 137 167 200 247 305
#     4  10  18  31  51  75 103 136 169 207 255 305
#     4  10  21  37  56  79 107 141 181 222 262 307
#     4  10  20  33  50  74 105 139 175 218 265 312
#     4  11  20  33  53  77 106 141 178 217 261 312
#     4  10  21  36  53  74  99 131 171 213 255 301
#     4   9  17  31  51  75 103 135 173 212 253 308
#
# _framework density 16.535156000000001
#
# number of rings (size 3 to 8) (size 9 to 14) (size 15 to 20)
#    0.000    2.143    1.429    2.571    0.000    4.286 
#    0.000    0.000    0.000    3.429    0.000    0.000 
#    0.000    0.000    0.000    0.000    0.000    0.000 
#
# Total GULP energy -312517.310996 kJ/mol
# GULP energy per Si atom -5580.666268 kJ/mol
# Density = 1.649752 g / cm^3
# Si number density = 16.535156 Si / 1000 Ang^3
#
#
#
# Elastic Constant Matrix: (Units=GPa)
#
#
# Indices 1 2 3 4 5 6 
#
# 1 34.0814 46.5528 44.6077 0.0000 0.0000 0.0000
# 2 46.5528 147.5569 102.1663 0.0000 0.0000 0.0000
# 3 44.6077 102.1663 141.8995 0.0000 0.0000 0.0000
# 4 0.0000 0.0000 0.0000 23.4000 0.0000 0.0000
# 5 0.0000 0.0000 0.0000 0.0000 28.7247 0.0000
# 6 0.0000 0.0000 0.0000 0.0000 0.0000 22.1193
#
#
#
# Elastic Compliance Matrix: (Units=1/GPa)
#
#
# Indices 1 2 3 4 5 6 
#
# 1 0.057997 -0.011314 -0.010086 0.000000 0.000000 0.000000
# 2 -0.011314 0.015721 -0.007762 0.000000 0.000000 0.000000
# 3 -0.010086 -0.007762 0.015807 0.000000 0.000000 0.000000
# 4 0.000000 0.000000 0.000000 0.042735 0.000000 0.000000
# 5 0.000000 0.000000 0.000000 0.000000 0.034813 0.000000
# 6 0.000000 0.000000 0.000000 0.000000 0.000000 0.045209
#
#
# Mechanical properties :
#
#
# Convention : Reuss Voigt Hill
#
# Bulk Modulus (GPa) = 32.05143 78.91016 55.48079
# Shear Modulus (GPa) = 17.79318 23.52954 20.66136
#
# Velocity S-wave (km/s) = 3.28393 3.77636 3.53872
# Velocity P-wave (km/s) = 5.81419 8.17562 7.09386
#
# Compressibility (1/GPa) = 0.03119986
#
# Stress axis : x y z
#
# Youngs Moduli (GPa) = 17.24235 63.60914 63.26473
#
# Poissons Ratio (x) = 0.71968 0.63808
# Poissons Ratio (y) = 0.19508 0.49108
# Poissons Ratio (z) = 0.17390 0.49375
#
# Static dielectric constant tensor:
#      x y z
#    x 1.563580 0.000000 0.000000 
#    y 0.000000 1.566640 0.000000 
#    z 0.000000 0.000000 1.516400 
# 
# From -- ./inp_files/31979.got.cif
#   From: 2010.05.17/outbox.cif.g08.bks.cpg/sg51_16_cif.got.tgz:31979.got - 2010.06.03 11:52:47.
