data_PCOD9399839
_publ_section_title
;
Structure prediction by ZEFSAII (Michael W. Deem and Ramdas Pophale) SiO2 
 PCOD9399839
Probable space group: P M M A
;
_chemical_formula_sum "Si O2"
_cell_formula_units_Z 48
_cell_length_a 15.015676
_cell_length_b 8.059363
_cell_length_c 21.111173
_cell_angle_alpha 90.000000
_cell_angle_beta 90.000000
_cell_angle_gamma 90.000000
_cell_volume 2554.806254
_symmetry_space_group_name_H-M "P M M A"
_symmetry_group_IT_number 51
_symmetry_cell_setting 'orthorhombic'
loop_
_space_group_symop_operation_xyz
x,y,z
1/2-x,-y,z
1/2+x,-y,-z
-x,y,-z
-x,-y,-z
1/2+x,y,-z
1/2-x,y,z
x,-y,z
loop_
_atom_site_type_symbol
_atom_site_label
_atom_site_fract_x
_atom_site_fract_y
_atom_site_fract_z
Si Si1 0.250000 0.797069 0.522905
Si Si2 0.559767 0.699393 0.820322
Si Si3 0.556565 0.297021 0.061874
Si Si4 0.056821 0.199430 0.560400
Si Si5 0.750000 0.299370 0.020972
Si Si6 0.250000 0.198873 0.375571
Si Si7 0.060233 0.697670 0.321256
Si Si8 0.750000 0.197084 0.873892
O O1 0.341634 0.740185 0.554968
O O2 0.250000 0.746898 0.449074
O O3 0.250000 0.000000 0.523834
O O4 0.550459 0.500000 0.818790
O O5 0.492896 0.761431 0.874759
O O6 0.542619 0.763722 0.749525
O O7 0.660592 0.736910 0.841160
O O8 0.556317 0.500000 0.062590
O O9 0.658441 0.242238 0.053374
O O10 0.500000 0.247082 0.000000
O O11 0.000000 0.261966 0.500000
O O12 0.006834 0.239838 0.625099
O O13 0.059514 0.000000 0.554792
O O14 0.750000 0.500000 0.022656
O O15 0.750000 0.249230 0.947432
O O16 0.339448 0.258116 0.341739
O O17 0.250000 0.000000 0.375418
O O18 0.052892 0.500000 0.319498
O O19 0.750000 0.000000 0.869568
#
# Coordination Sequence:
#
# PCOD9399839 Si02
#       8
#     4   8   8   8   4   4   8   4
#     4   9  18  34  57  84 105 136 187 234 266 307
#     4  10  21  38  55  76 111 148 182 221 270 328
#     4   9  16  30  57  82  99 135 185 223 258 313
#     4  10  19  36  60  81 107 147 192 230 265 322
#     4  10  18  33  58  83 105 135 183 230 267 315
#     4  11  20  36  59  81 110 145 186 225 267 335
#     4  11  23  36  53  83 118 146 176 228 291 333
#     4  12  23  33  52  84 114 140 176 223 278 329
#
# _framework density 18.788118000000001
#
# number of rings (size 3 to 8) (size 9 to 14) (size 15 to 20)
#    0.000    1.833    3.333    2.000    0.000    3.667 
#    0.000    2.917    0.000    2.000    0.000    0.000 
#    0.000    0.000    0.000    0.000    0.000    0.000 
#
# Total GULP energy -268034.592078 kJ/mol
# GULP energy per Si atom -5584.054002 kJ/mol
# Density = 1.874536 g / cm^3
# Si number density = 18.788118 Si / 1000 Ang^3
#
#
#
# Elastic Constant Matrix: (Units=GPa)
#
#
# Indices 1 2 3 4 5 6 
#
# 1 174.6704 7.0997 113.7652 0.0000 0.0000 0.0000
# 2 7.0997 10.0508 3.1033 0.0000 0.0000 0.0000
# 3 113.7652 3.1033 186.0143 0.0000 0.0000 0.0000
# 4 0.0000 0.0000 0.0000 53.2353 0.0000 0.0000
# 5 0.0000 0.0000 0.0000 0.0000 14.7381 0.0000
# 6 0.0000 0.0000 0.0000 0.0000 0.0000 12.1219
#
#
#
# Elastic Compliance Matrix: (Units=1/GPa)
#
#
# Indices 1 2 3 4 5 6 
#
# 1 0.009767 -0.005081 -0.005889 0.000000 0.000000 0.000000
# 2 -0.005081 0.102653 0.001395 0.000000 0.000000 0.000000
# 3 -0.005889 0.001395 0.008954 0.000000 0.000000 0.000000
# 4 0.000000 0.000000 0.000000 0.018785 0.000000 0.000000
# 5 0.000000 0.000000 0.000000 0.000000 0.067851 0.000000
# 6 0.000000 0.000000 0.000000 0.000000 0.000000 0.082495
#
#
# Mechanical properties :
#
#
# Convention : Reuss Voigt Hill
#
# Bulk Modulus (GPa) = 9.78236 68.74134 39.26185
# Shear Modulus (GPa) = 14.54631 32.47022 23.50827
#
# Velocity S-wave (km/s) = 2.78552 4.16171 3.54111
# Velocity P-wave (km/s) = 3.94505 7.73047 6.13692
#
# Compressibility (1/GPa) = 0.10222479
#
# Stress axis : x y z
#
# Youngs Moduli (GPa) = 102.38619 9.74154 111.68050
#
# Poissons Ratio (x) = 0.04950 0.65765
# Poissons Ratio (y) = 0.52023 -0.15579
# Poissons Ratio (z) = 0.60291 -0.01359
#
# Static dielectric constant tensor:
#      x y z
#    x 1.629730 0.000000 0.000000 
#    y 0.000000 1.663200 0.000000 
#    z 0.000000 0.000000 1.644870 
# 
# From -- ./inp_files/29697.got.cif
#   From: 2010.05.17/outbox.cif.g08.bks.cpg/sg51_15_cif.got.tgz:29697.got - 2010.06.03 11:52:47.
