data_PCOD9399588
_publ_section_title
;
Structure prediction by ZEFSAII (Michael W. Deem and Ramdas Pophale) SiO2 
 PCOD9399588
Probable space group: P M M A
;
_chemical_formula_sum "Si O2"
_cell_formula_units_Z 56
_cell_length_a 16.180632
_cell_length_b 19.476222
_cell_length_c 7.628915
_cell_angle_alpha 90.000000
_cell_angle_beta 90.000000
_cell_angle_gamma 90.000000
_cell_volume 2404.157818
_symmetry_space_group_name_H-M "P M M A"
_symmetry_group_IT_number 51
_symmetry_cell_setting 'orthorhombic'
loop_
_space_group_symop_operation_xyz
x,y,z
1/2-x,-y,z
1/2+x,-y,-z
-x,y,-z
-x,-y,-z
1/2+x,y,-z
1/2-x,y,z
x,-y,z
loop_
_atom_site_type_symbol
_atom_site_label
_atom_site_fract_x
_atom_site_fract_y
_atom_site_fract_z
Si Si1 0.343731 0.173710 0.814810
Si Si2 0.444968 0.302488 0.854165
Si Si3 0.657852 0.836843 0.760662
Si Si4 0.154153 0.576171 0.032286
Si Si5 0.654568 0.425445 0.542666
Si Si6 0.923341 0.289363 0.585506
Si Si7 0.495231 0.921275 0.786379
O O1 0.250000 0.164383 0.750589
O O2 0.380008 0.248900 0.775258
O O3 0.411076 0.119827 0.745474
O O4 0.341021 0.170144 0.027524
O O5 0.398777 0.365072 0.943274
O O6 0.519034 0.326025 0.730871
O O7 0.500000 0.261312 0.000000
O O8 0.750000 0.861166 0.709408
O O9 0.640390 0.762793 0.671720
O O10 0.579038 0.884645 0.720555
O O11 0.250000 0.584743 0.980522
O O12 0.126077 0.500000 0.978940
O O13 0.154042 0.577851 0.244433
O O14 0.750000 0.425466 0.487314
O O15 0.618166 0.500000 0.491022
O O16 0.615274 0.353822 0.484149
O O17 0.000000 0.247965 0.500000
O O18 0.491270 0.000000 0.728346
O O19 0.500000 0.921243 0.000000
#
# Coordination Sequence:
#
# PCOD9399588 Si02
#       7
#     8   8   8   8   8   8   8
#     4  10  18  31  55  85 115 150 191 230 277 338
#     4  12  19  33  55  78 109 143 189 240 286 343
#     4  10  19  35  58  81 112 154 193 229 278 341
#     4   9  18  32  53  82 109 139 187 243 292 342
#     4   9  18  35  57  79 105 143 191 237 287 351
#     4  12  24  36  53  80 116 147 193 248 290 337
#     4   9  17  31  53  88 124 145 179 236 286 328
#
# _framework density 23.292978999999999
#
# number of rings (size 3 to 8) (size 9 to 14) (size 15 to 20)
#    0.000    1.857    4.286    2.143    0.000    4.000 
#    0.000    5.714    0.000    2.143    0.000    0.000 
#    0.000    0.000    0.000    0.000    0.000    0.000 
#
# Total GULP energy -312601.726206 kJ/mol
# GULP energy per Si atom -5582.173682 kJ/mol
# Density = 2.323996 g / cm^3
# Si number density = 23.292979 Si / 1000 Ang^3
#
#
#
# Elastic Constant Matrix: (Units=GPa)
#
#
# Indices 1 2 3 4 5 6 
#
# 1 185.8165 96.5422 9.2299 0.0000 0.0000 0.0000
# 2 96.5422 171.7591 9.0391 0.0000 0.0000 0.0000
# 3 9.2299 9.0391 29.4762 0.0000 0.0000 0.0000
# 4 0.0000 0.0000 0.0000 7.4515 0.0000 0.0000
# 5 0.0000 0.0000 0.0000 0.0000 19.4118 0.0000
# 6 0.0000 0.0000 0.0000 0.0000 0.0000 23.8424
#
#
#
# Elastic Compliance Matrix: (Units=1/GPa)
#
#
# Indices 1 2 3 4 5 6 
#
# 1 0.007636 -0.004235 -0.001093 0.000000 0.000000 0.000000
# 2 -0.004235 0.008266 -0.001209 0.000000 0.000000 0.000000
# 3 -0.001093 -0.001209 0.034639 0.000000 0.000000 0.000000
# 4 0.000000 0.000000 0.000000 0.134201 0.000000 0.000000
# 5 0.000000 0.000000 0.000000 0.000000 0.051515 0.000000
# 6 0.000000 0.000000 0.000000 0.000000 0.000000 0.041942
#
#
# Mechanical properties :
#
#
# Convention : Reuss Voigt Hill
#
# Bulk Modulus (GPa) = 26.68900 68.51936 47.60418
# Shear Modulus (GPa) = 16.46039 28.29051 22.37545
#
# Velocity S-wave (km/s) = 2.66121 3.48882 3.10273
# Velocity P-wave (km/s) = 4.57444 6.76087 5.77213
#
# Compressibility (1/GPa) = 0.03746863
#
# Stress axis : x y z
#
# Youngs Moduli (GPa) = 130.95848 120.97931 28.86960
#
# Poissons Ratio (x) = 0.51229 0.03154
# Poissons Ratio (y) = 0.55455 0.03490
# Poissons Ratio (z) = 0.14308 0.14624
#
# Static dielectric constant tensor:
#      x y z
#    x 1.844640 0.000000 0.000000 
#    y 0.000000 1.831950 0.000000 
#    z 0.000000 0.000000 2.079180 
# 
# From -- ./inp_files/8486.got.cif
#   From: 2010.05.17/outbox.cif.g08.bks.cpg/sg51_5_cif.got.tgz:8486.got - 2010.06.03 11:52:47.
