data_PCOD9399177
_publ_section_title
;
Structure prediction by ZEFSAII (Michael W. Deem and Ramdas Pophale) SiO2 
 PCOD9399177
Probable space group: P M M A
;
_chemical_formula_sum "Si O2"
_cell_formula_units_Z 64
_cell_length_a 7.743752
_cell_length_b 14.934868
_cell_length_c 32.225212
_cell_angle_alpha 90.000000
_cell_angle_beta 90.000000
_cell_angle_gamma 90.000000
_cell_volume 3726.907445
_symmetry_space_group_name_H-M "P M M A"
_symmetry_group_IT_number 51
_symmetry_cell_setting 'orthorhombic'
loop_
_space_group_symop_operation_xyz
x,y,z
1/2-x,-y,z
1/2+x,-y,-z
-x,y,-z
-x,-y,-z
1/2+x,y,-z
1/2-x,y,z
x,-y,z
loop_
_atom_site_type_symbol
_atom_site_label
_atom_site_fract_x
_atom_site_fract_y
_atom_site_fract_z
Si Si1 0.543023 0.897229 0.206148
Si Si2 0.042151 0.102285 0.046552
Si Si3 0.045135 0.897991 0.544376
Si Si4 0.960782 0.599292 0.841978
Si Si5 0.039172 0.400629 0.254812
Si Si6 0.544056 0.102324 0.634432
Si Si7 0.956115 0.214616 0.711782
Si Si8 0.956635 0.214977 0.875947
O O1 0.750000 0.899049 0.206746
O O2 0.483545 0.844269 0.246969
O O3 0.487316 0.845088 0.164798
O O4 0.479533 0.000000 0.206161
O O5 0.250000 0.098904 0.050056
O O6 0.974996 0.165266 0.083230
O O7 0.977325 0.000000 0.051241
O O8 0.000000 0.132813 0.000000
O O9 0.250000 0.903538 0.546190
O O10 0.000000 0.855405 0.500000
O O11 0.985839 0.859390 0.588303
O O12 0.970791 0.000000 0.543413
O O13 0.750000 0.599920 0.842871
O O14 0.016344 0.500000 0.855651
O O15 0.009403 0.610539 0.793594
O O16 0.023768 0.684959 0.867358
O O17 0.250000 0.399966 0.255687
O O18 0.983788 0.500000 0.268461
O O19 0.975931 0.314721 0.280031
O O20 0.750000 0.095890 0.640133
O O21 0.473559 0.162827 0.671641
O O22 0.474506 0.000000 0.635988
O O23 0.750000 0.223437 0.706030
O O24 0.750000 0.222789 0.880892
#
# Coordination Sequence:
#
# PCOD9399177 Si02
#       8
#     8   8   8   8   8   8   8   8
#     4  11  23  33  41  60  91 122 148 179 220 260
#     4   9  18  31  47  67  88 111 141 177 216 258
#     4   9  16  26  41  59  80 109 145 184 223 260
#     4   8  13  23  43  70  92 108 136 181 223 255
#     4   8  13  23  42  67  89 109 141 185 224 254
#     4   9  17  27  39  58  84 114 149 184 216 253
#     4  10  18  30  47  64  85 119 156 186 215 255
#     4  10  18  31  51  70  86 111 149 184 212 253
#
# _framework density 17.172415999999998
#
# number of rings (size 3 to 8) (size 9 to 14) (size 15 to 20)
#    0.000    2.750    1.250    2.250    0.000    4.500 
#    0.000    2.500    0.000    1.875    0.000    0.000 
#    0.000    0.500    0.000    0.875    0.000    1.250 
#
# Total GULP energy -356681.407463 kJ/mol
# GULP energy per Si atom -5573.146992 kJ/mol
# Density = 1.713333 g / cm^3
# Si number density = 17.172416 Si / 1000 Ang^3
#
#
#
# Elastic Constant Matrix: (Units=GPa)
#
#
# Indices 1 2 3 4 5 6 
#
# 1 24.7055 3.6529 -2.0995 0.0000 0.0000 0.0000
# 2 3.6529 137.3598 86.6272 0.0000 0.0000 0.0000
# 3 -2.0995 86.6272 150.6086 0.0000 0.0000 0.0000
# 4 0.0000 0.0000 0.0000 6.3211 0.0000 0.0000
# 5 0.0000 0.0000 0.0000 0.0000 15.6596 0.0000
# 6 0.0000 0.0000 0.0000 0.0000 0.0000 0.7837
#
#
#
# Elastic Compliance Matrix: (Units=1/GPa)
#
#
# Indices 1 2 3 4 5 6 
#
# 1 0.040973 -0.002275 0.001880 0.000000 0.000000 0.000000
# 2 -0.002275 0.011551 -0.006675 0.000000 0.000000 0.000000
# 3 0.001880 -0.006675 0.010505 0.000000 0.000000 0.000000
# 4 0.000000 0.000000 0.000000 0.158201 0.000000 0.000000
# 5 0.000000 0.000000 0.000000 0.000000 0.063859 0.000000
# 6 0.000000 0.000000 0.000000 0.000000 0.000000 1.276039
#
#
# Mechanical properties :
#
#
# Convention : Reuss Voigt Hill
#
# Bulk Modulus (GPa) = 20.45510 54.33724 37.39617
# Shear Modulus (GPa) = 3.14156 19.51909 11.33033
#
# Velocity S-wave (km/s) = 1.35403 3.37509 2.57144
# Velocity P-wave (km/s) = 3.79236 6.84829 5.53539
#
# Compressibility (1/GPa) = 0.04888756
#
# Stress axis : x y z
#
# Youngs Moduli (GPa) = 24.40632 86.57614 95.18858
#
# Poissons Ratio (x) = 0.19697 -0.17893
# Poissons Ratio (y) = 0.05553 0.63542
# Poissons Ratio (z) = -0.04588 0.57793
#
# Static dielectric constant tensor:
#      x y z
#    x 1.624370 0.000000 0.000000 
#    y 0.000000 1.600110 0.000000 
#    z 0.000000 0.000000 1.582880 
# 
# From -- ./inp_files/37579.got.cif
#   From: 2010.05.17/outbox.cif.g08.bks.cpg/sg51_19_cif.got.tgz:37579.got - 2010.06.03 11:52:47.
