data_PCOD9399480
_publ_section_title
;
Structure prediction by ZEFSAII (Michael W. Deem and Ramdas Pophale) SiO2 
 PCOD9399480
Probable space group: P M M A
;
_chemical_formula_sum "Si O2"
_cell_formula_units_Z 56
_cell_length_a 8.004273
_cell_length_b 21.036018
_cell_length_c 15.909004
_cell_angle_alpha 90.000000
_cell_angle_beta 90.000000
_cell_angle_gamma 90.000000
_cell_volume 2678.726767
_symmetry_space_group_name_H-M "P M M A"
_symmetry_group_IT_number 51
_symmetry_cell_setting 'orthorhombic'
loop_
_space_group_symop_operation_xyz
x,y,z
1/2-x,-y,z
1/2+x,-y,-z
-x,y,-z
-x,-y,-z
1/2+x,y,-z
1/2-x,y,z
x,-y,z
loop_
_atom_site_type_symbol
_atom_site_label
_atom_site_fract_x
_atom_site_fract_y
_atom_site_fract_z
Si Si1 0.449504 0.173554 0.406801
Si Si2 0.454308 0.928691 0.269374
Si Si3 0.444957 0.736507 0.126809
Si Si4 0.954329 0.568742 0.276202
Si Si5 0.551881 0.707916 0.310994
Si Si6 0.951033 0.877279 0.909977
Si Si7 0.558887 0.401861 0.090709
O O1 0.500000 0.153563 0.500000
O O2 0.250000 0.175870 0.401348
O O3 0.511205 0.124142 0.335887
O O4 0.516953 0.243651 0.385576
O O5 0.250000 0.927273 0.269456
O O6 0.508764 0.912375 0.174362
O O7 0.505939 0.000000 0.292298
O O8 0.250000 0.729910 0.104041
O O9 0.461862 0.734868 0.227830
O O10 0.511215 0.804043 0.095419
O O11 0.539307 0.674563 0.094031
O O12 0.750000 0.568630 0.275553
O O13 0.008199 0.500000 0.309881
O O14 0.002779 0.634473 0.321394
O O15 0.016671 0.574919 0.179170
O O16 0.750000 0.707553 0.292976
O O17 0.750000 0.875212 0.906045
O O18 0.000000 0.905124 0.000000
O O19 0.750000 0.419866 0.095979
O O20 0.500000 0.424246 0.000000
#
# Coordination Sequence:
#
# PCOD9399480 Si02
#       7
#     8   8   8   8   8   8   8
#     4  11  22  39  63  91 118 147 184 229 281 339
#     4   9  19  38  60  81 113 155 191 228 281 338
#     4  10  18  31  50  73 104 143 187 234 285 333
#     4   8  16  31  50  73 103 141 184 227 277 335
#     4  10  19  33  57  85 112 144 181 226 279 333
#     4  10  20  33  51  78 108 148 193 233 278 325
#     4  10  19  29  43  67  99 139 185 235 288 338
#
# _framework density 20.905455
#
# number of rings (size 3 to 8) (size 9 to 14) (size 15 to 20)
#    0.000    2.286    1.429    3.000    0.000    3.143 
#    0.000    0.000    0.000   18.429    0.000    0.000 
#    0.000    0.000    0.000    0.000    0.000    0.000 
#
# Total GULP energy -312521.692067 kJ/mol
# GULP energy per Si atom -5580.744501 kJ/mol
# Density = 2.085787 g / cm^3
# Si number density = 20.905455 Si / 1000 Ang^3
#
#
#
# Elastic Constant Matrix: (Units=GPa)
#
#
# Indices 1 2 3 4 5 6 
#
# 1 22.7952 9.6871 1.1063 0.0000 0.0000 0.0000
# 2 9.6871 133.8060 51.3308 0.0000 0.0000 0.0000
# 3 1.1063 51.3308 99.8031 0.0000 0.0000 0.0000
# 4 0.0000 0.0000 0.0000 -8.1310 0.0000 0.0000
# 5 0.0000 0.0000 0.0000 0.0000 26.6086 0.0000
# 6 0.0000 0.0000 0.0000 0.0000 0.0000 1.2563
#
#
#
# Elastic Compliance Matrix: (Units=1/GPa)
#
#
# Indices 1 2 3 4 5 6 
#
# 1 0.045436 -0.003857 0.001480 0.000000 0.000000 0.000000
# 2 -0.003857 0.009638 -0.004914 0.000000 0.000000 0.000000
# 3 0.001480 -0.004914 0.012531 0.000000 0.000000 0.000000
# 4 0.000000 0.000000 0.000000 -0.122986 0.000000 0.000000
# 5 0.000000 0.000000 0.000000 0.000000 0.037582 0.000000
# 6 0.000000 0.000000 0.000000 0.000000 0.000000 0.796002
#
#
# Mechanical properties :
#
#
# Convention : Reuss Voigt Hill
#
# Bulk Modulus (GPa) = 18.85995 42.29475 30.57735
# Shear Modulus (GPa) = 6.16934 16.89878 11.53406
#
# Velocity S-wave (km/s) = 1.71973 2.84622 2.35143
# Velocity P-wave (km/s) = 3.60339 5.57465 4.69367
#
# Compressibility (1/GPa) = 0.05302240
#
# Stress axis : x y z
#
# Youngs Moduli (GPa) = 22.00886 103.75629 79.80328
#
# Poissons Ratio (x) = 0.40022 -0.11812
# Poissons Ratio (y) = 0.08489 0.39217
# Poissons Ratio (z) = -0.03258 0.50988
#
# Static dielectric constant tensor:
#      x y z
#    x 1.767320 0.000000 0.000000 
#    y 0.000000 1.769810 0.000000 
#    z 0.000000 0.000000 1.756440 
# 
# From -- ./inp_files/21810.got.cif
#   From: 2010.05.17/outbox.cif.g08.bks.cpg/sg51_11_cif.got.tgz:21810.got - 2010.06.03 11:52:47.
