data_PCOD9399486
_publ_section_title
;
Structure prediction by ZEFSAII (Michael W. Deem and Ramdas Pophale) SiO2 
 PCOD9399486
Probable space group: P M M A
;
_chemical_formula_sum "Si O2"
_cell_formula_units_Z 48
_cell_length_a 7.881090
_cell_length_b 18.141929
_cell_length_c 14.684768
_cell_angle_alpha 90.000000
_cell_angle_beta 90.000000
_cell_angle_gamma 90.000000
_cell_volume 2099.601332
_symmetry_space_group_name_H-M "P M M A"
_symmetry_group_IT_number 51
_symmetry_cell_setting 'orthorhombic'
loop_
_space_group_symop_operation_xyz
x,y,z
1/2-x,-y,z
1/2+x,-y,-z
-x,y,-z
-x,-y,-z
1/2+x,y,-z
1/2-x,y,z
x,-y,z
loop_
_atom_site_type_symbol
_atom_site_label
_atom_site_fract_x
_atom_site_fract_y
_atom_site_fract_z
Si Si1 0.440953 0.680113 0.356998
Si Si2 0.455119 0.000000 0.392251
Si Si3 0.953721 0.842852 0.606382
Si Si4 0.750000 0.414435 0.140239
Si Si5 0.454434 0.000000 0.892519
Si Si6 0.432535 0.321650 0.145443
Si Si7 0.750000 0.584703 0.364506
Si Si8 0.046621 0.840762 0.893343
O O1 0.250000 0.678862 0.397198
O O2 0.510683 0.764044 0.357218
O O3 0.423176 0.658348 0.251751
O O4 0.582111 0.626934 0.397271
O O5 0.500000 0.000000 0.500000
O O6 0.520574 0.921265 0.356240
O O7 0.250000 0.000000 0.384380
O O8 0.750000 0.843880 0.617248
O O9 0.000000 0.841905 0.500000
O O10 0.750000 0.500000 0.113914
O O11 0.586026 0.369282 0.107641
O O12 0.750000 0.412381 0.252427
O O13 0.515823 0.079468 0.856532
O O14 0.250000 0.000000 0.885243
O O15 0.500000 0.000000 0.000000
O O16 0.250000 0.335974 0.102140
O O17 0.467427 0.234132 0.143436
O O18 0.750000 0.500000 0.391583
O O19 0.250000 0.836809 0.882592
O O20 0.000000 0.840790 0.000000
#
# Coordination Sequence:
#
# PCOD9399486 Si02
#       8
#     8   4   8   4   4   8   4   8
#     4   9  19  33  50  75 104 129 164 207 248 296
#     4   8  14  26  43  64  96 125 165 207 241 281
#     4   9  17  29  47  72  96 131 167 206 247 292
#     4   9  18  34  54  77 101 129 164 207 252 301
#     4   8  16  28  45  68 100 131 169 211 245 279
#     4  10  19  33  52  77 104 132 166 207 251 300
#     4   9  18  32  54  77  97 127 164 203 252 299
#     4  10  18  31  50  75 102 136 172 211 248 295
#
# _framework density 22.861481000000001
#
# number of rings (size 3 to 8) (size 9 to 14) (size 15 to 20)
#    0.000    2.833    0.833    0.500    1.167    1.333 
#    0.000    4.167    0.000    3.000    0.000    0.000 
#    0.000    0.000    0.000    0.000    0.000    0.000 
#
# Total GULP energy -267719.200620 kJ/mol
# GULP energy per Si atom -5577.483346 kJ/mol
# Density = 2.280945 g / cm^3
# Si number density = 22.861481 Si / 1000 Ang^3
#
#
#
# Elastic Constant Matrix: (Units=GPa)
#
#
# Indices 1 2 3 4 5 6 
#
# 1 127.7275 101.0566 1.4214 0.0000 0.0000 0.0000
# 2 101.0566 205.6785 -3.1969 0.0000 0.0000 0.0000
# 3 1.4214 -3.1969 51.0365 0.0000 0.0000 0.0000
# 4 0.0000 0.0000 0.0000 24.0136 0.0000 0.0000
# 5 0.0000 0.0000 0.0000 0.0000 12.2144 0.0000
# 6 0.0000 0.0000 0.0000 0.0000 0.0000 -348.2678
#
#
#
# Elastic Compliance Matrix: (Units=1/GPa)
#
#
# Indices 1 2 3 4 5 6 
#
# 1 0.012837 -0.006319 -0.000753 0.000000 0.000000 0.000000
# 2 -0.006319 0.007977 0.000676 0.000000 0.000000 0.000000
# 3 -0.000753 0.000676 0.019657 0.000000 0.000000 0.000000
# 4 0.000000 0.000000 0.000000 0.041643 0.000000 0.000000
# 5 0.000000 0.000000 0.000000 0.000000 0.081871 0.000000
# 6 0.000000 0.000000 0.000000 0.000000 0.000000 -0.002871
#
#
# Mechanical properties :
#
#
# Convention : Reuss Voigt Hill
#
# Bulk Modulus (GPa) = 36.12968 64.77831 50.45399
# Shear Modulus (GPa) = 27.30256 -43.39721 -8.04732
#
# Velocity S-wave (km/s) = 3.45956 -4.36164 -1.87821
# Velocity P-wave (km/s) = 5.63880 1.74111 4.17298
#
# Compressibility (1/GPa) = 0.02767808
#
# Stress axis : x y z
#
# Youngs Moduli (GPa) = 77.89943 125.35751 50.87215
#
# Poissons Ratio (x) = 0.79213 0.03832
# Poissons Ratio (y) = 0.49225 -0.03437
# Poissons Ratio (z) = 0.05868 -0.08470
#
# Static dielectric constant tensor:
#      x y z
#    x 1.902790 0.000000 0.000000 
#    y 0.000000 1.862580 0.000000 
#    z 0.000000 0.000000 1.885290 
# 
# From -- ./inp_files/27697.got.cif
#   From: 2010.05.17/outbox.cif.g08.bks.cpg/sg51_14_cif.got.tgz:27697.got - 2010.06.03 11:52:47.
