data_PCOD9399388
_publ_section_title
;
Structure prediction by ZEFSAII (Michael W. Deem and Ramdas Pophale) SiO2 
 PCOD9399388
Probable space group: P M M A
;
_chemical_formula_sum "Si O2"
_cell_formula_units_Z 56
_cell_length_a 15.227267
_cell_length_b 7.828047
_cell_length_c 22.196098
_cell_angle_alpha 90.000000
_cell_angle_beta 90.000000
_cell_angle_gamma 90.000000
_cell_volume 2645.769594
_symmetry_space_group_name_H-M "P M M A"
_symmetry_group_IT_number 51
_symmetry_cell_setting 'orthorhombic'
loop_
_space_group_symop_operation_xyz
x,y,z
1/2-x,-y,z
1/2+x,-y,-z
-x,y,-z
-x,-y,-z
1/2+x,y,-z
1/2-x,y,z
x,-y,z
loop_
_atom_site_type_symbol
_atom_site_label
_atom_site_fract_x
_atom_site_fract_y
_atom_site_fract_z
Si Si1 0.346532 0.791718 0.388517
Si Si2 0.848384 0.791803 0.471149
Si Si3 0.967771 0.198503 0.144432
Si Si4 0.467408 0.201716 0.635553
Si Si5 0.347809 0.793638 0.103855
Si Si6 0.650527 0.295890 0.036544
Si Si7 0.650928 0.300678 0.253833
O O1 0.250000 0.729528 0.369415
O O2 0.360063 0.745816 0.459018
O O3 0.433936 0.731230 0.354797
O O4 0.342410 0.000000 0.385256
O O5 0.750000 0.739971 0.452223
O O6 0.919882 0.726780 0.424058
O O7 0.850461 0.000000 0.470010
O O8 0.921912 0.214379 0.079312
O O9 0.903275 0.282478 0.192365
O O10 0.066859 0.269209 0.139831
O O11 0.973662 0.000000 0.161406
O O12 0.404397 0.220638 0.692229
O O13 0.477708 0.000000 0.624057
O O14 0.250000 0.733053 0.121832
O O15 0.347823 0.000000 0.107953
O O16 0.360423 0.747626 0.033614
O O17 0.750000 0.241801 0.053869
O O18 0.644947 0.500000 0.043585
O O19 0.750000 0.230598 0.248333
O O20 0.657424 0.500000 0.267888
#
# Coordination Sequence:
#
# PCOD9399388 Si02
#       7
#     8   8   8   8   8   8   8
#     4   8  14  25  44  75 111 139 165 204 254 303
#     4   8  13  22  41  73 108 135 163 206 256 301
#     4  11  22  36  57  81 103 134 176 218 258 299
#     4  10  18  30  52  78 102 133 174 215 252 295
#     4   9  19  36  56  80 110 139 169 209 255 302
#     4  10  20  33  52  81 115 147 175 206 251 305
#     4  11  25  42  56  72  99 134 169 209 260 314
#
# _framework density 21.165866000000001
#
# number of rings (size 3 to 8) (size 9 to 14) (size 15 to 20)
#    0.000    2.429    0.000    3.857    0.000    8.857 
#    0.000    0.714    0.000    6.429    0.000    2.000 
#    0.000    0.000    0.000    0.000    0.000    0.000 
#
# Total GULP energy -312515.124480 kJ/mol
# GULP energy per Si atom -5580.627223 kJ/mol
# Density = 2.111769 g / cm^3
# Si number density = 21.165866 Si / 1000 Ang^3
#
#
#
# Elastic Constant Matrix: (Units=GPa)
#
#
# Indices 1 2 3 4 5 6 
#
# 1 199.0605 5.6727 50.1865 0.0000 0.0000 0.0000
# 2 5.6727 22.8539 -10.0839 0.0000 0.0000 0.0000
# 3 50.1865 -10.0839 22.1269 0.0000 0.0000 0.0000
# 4 0.0000 0.0000 0.0000 51.3522 0.0000 0.0000
# 5 0.0000 0.0000 0.0000 0.0000 30.3095 0.0000
# 6 0.0000 0.0000 0.0000 0.0000 0.0000 -8.3111
#
#
#
# Elastic Compliance Matrix: (Units=1/GPa)
#
#
# Indices 1 2 3 4 5 6 
#
# 1 0.024627 -0.038500 -0.073402 0.000000 0.000000 0.000000
# 2 -0.038500 0.114959 0.139713 0.000000 0.000000 0.000000
# 3 -0.073402 0.139713 0.275350 0.000000 0.000000 0.000000
# 4 0.000000 0.000000 0.000000 0.019473 0.000000 0.000000
# 5 0.000000 0.000000 0.000000 0.000000 0.032993 0.000000
# 6 0.000000 0.000000 0.000000 0.000000 0.000000 -0.120321
#
#
# Mechanical properties :
#
#
# Convention : Reuss Voigt Hill
#
# Bulk Modulus (GPa) = 2.12514 37.28801 19.70657
# Shear Modulus (GPa) = 11.15298 27.88786 19.52042
#
# Velocity S-wave (km/s) = 2.29799 3.63380 3.04017
# Velocity P-wave (km/s) = 2.83677 5.93812 4.65341
#
# Compressibility (1/GPa) = 0.47055772
#
# Stress axis : x y z
#
# Youngs Moduli (GPa) = 40.60650 8.69878 3.63174
#
# Poissons Ratio (x) = 0.33490 0.26658
# Poissons Ratio (y) = 1.56335 -0.50740
# Poissons Ratio (z) = 2.98059 -1.21533
#
# Static dielectric constant tensor:
#      x y z
#    x 1.820560 0.000000 0.000000 
#    y 0.000000 1.781170 0.000000 
#    z 0.000000 0.000000 1.716920 
# 
# From -- ./inp_files/33322.got.cif
#   From: 2010.05.17/outbox.cif.g08.bks.cpg/sg51_17_cif.got.tgz:33322.got - 2010.06.03 11:52:47.
