data_PCOD9399318
_publ_section_title
;
Structure prediction by ZEFSAII (Michael W. Deem and Ramdas Pophale) SiO2 
 PCOD9399318
Probable space group: P M M A
;
_chemical_formula_sum "Si O2"
_cell_formula_units_Z 56
_cell_length_a 7.964884
_cell_length_b 21.254196
_cell_length_c 15.800162
_cell_angle_alpha 90.000000
_cell_angle_beta 90.000000
_cell_angle_gamma 90.000000
_cell_volume 2674.765274
_symmetry_space_group_name_H-M "P M M A"
_symmetry_group_IT_number 51
_symmetry_cell_setting 'orthorhombic'
loop_
_space_group_symop_operation_xyz
x,y,z
1/2-x,-y,z
1/2+x,-y,-z
-x,y,-z
-x,-y,-z
1/2+x,y,-z
1/2-x,y,z
x,-y,z
loop_
_atom_site_type_symbol
_atom_site_label
_atom_site_fract_x
_atom_site_fract_y
_atom_site_fract_z
Si Si1 0.050129 0.672858 0.906945
Si Si2 0.547654 0.430652 0.769691
Si Si3 0.955385 0.931345 0.223614
Si Si4 0.450413 0.108678 0.589350
Si Si5 0.951527 0.622497 0.592243
Si Si6 0.445488 0.201289 0.832508
Si Si7 0.447817 0.758949 0.351169
O O1 0.250000 0.677571 0.902752
O O2 0.978456 0.743105 0.889132
O O3 0.997419 0.624144 0.834736
O O4 0.000000 0.651041 0.000000
O O5 0.750000 0.432274 0.766456
O O6 0.487481 0.500000 0.795843
O O7 0.486973 0.414582 0.674841
O O8 0.750000 0.929617 0.221768
O O9 0.003552 0.923915 0.322758
O O10 0.017498 0.869379 0.174042
O O11 0.009054 0.000000 0.192539
O O12 0.500000 0.078810 0.500000
O O13 0.250000 0.113497 0.592087
O O14 0.526435 0.178729 0.594018
O O15 0.750000 0.622120 0.595094
O O16 0.007565 0.695103 0.604687
O O17 0.000000 0.598452 0.500000
O O18 0.250000 0.194165 0.855842
O O19 0.457902 0.228060 0.736814
O O20 0.250000 0.751906 0.331621
#
# Coordination Sequence:
#
# PCOD9399318 Si02
#       7
#     8   8   8   8   8   8   8
#     4  11  23  39  63  92 119 147 184 229 281 342
#     4  10  22  42  63  84 116 154 191 235 284 334
#     4   8  15  29  49  72 100 137 180 225 275 329
#     4  10  19  29  42  65  98 136 183 232 281 331
#     4  10  21  34  52  80 111 149 192 232 277 326
#     4   9  18  33  55  82 109 140 179 226 275 327
#     4  10  18  30  50  74 103 141 183 229 282 329
#
# _framework density 20.936416999999999
#
# number of rings (size 3 to 8) (size 9 to 14) (size 15 to 20)
#    0.000    2.286    1.429    2.571    0.000    4.571 
#    0.000    0.000    0.000   10.714    0.000    0.000 
#    0.000    0.000    0.000    0.000    0.000    0.143 
#
# Total GULP energy -312439.756845 kJ/mol
# GULP energy per Si atom -5579.281372 kJ/mol
# Density = 2.088877 g / cm^3
# Si number density = 20.936417 Si / 1000 Ang^3
#
#
#
# Elastic Constant Matrix: (Units=GPa)
#
#
# Indices 1 2 3 4 5 6 
#
# 1 24.7037 15.8355 -2.3203 0.0000 0.0000 0.0000
# 2 15.8355 140.9465 48.4330 0.0000 0.0000 0.0000
# 3 -2.3203 48.4330 85.6790 0.0000 0.0000 0.0000
# 4 0.0000 0.0000 0.0000 2.3845 0.0000 0.0000
# 5 0.0000 0.0000 0.0000 0.0000 18.2051 0.0000
# 6 0.0000 0.0000 0.0000 0.0000 0.0000 111.3660
#
#
#
# Elastic Compliance Matrix: (Units=1/GPa)
#
#
# Indices 1 2 3 4 5 6 
#
# 1 0.045348 -0.006847 0.005098 0.000000 0.000000 0.000000
# 2 -0.006847 0.009839 -0.005747 0.000000 0.000000 0.000000
# 3 0.005098 -0.005747 0.015058 0.000000 0.000000 0.000000
# 4 0.000000 0.000000 0.000000 0.419380 0.000000 0.000000
# 5 0.000000 0.000000 0.000000 0.000000 0.054930 0.000000
# 6 0.000000 0.000000 0.000000 0.000000 0.000000 0.008979
#
#
# Mechanical properties :
#
#
# Convention : Reuss Voigt Hill
#
# Bulk Modulus (GPa) = 18.09832 41.69173 29.89503
# Shear Modulus (GPa) = 8.51871 39.01651 23.76761
#
# Velocity S-wave (km/s) = 2.01933 4.32159 3.37297
# Velocity P-wave (km/s) = 3.75501 6.69763 5.42947
#
# Compressibility (1/GPa) = 0.05525374
#
# Stress axis : x y z
#
# Youngs Moduli (GPa) = 22.05191 101.63567 66.40808
#
# Poissons Ratio (x) = 0.69588 -0.33858
# Poissons Ratio (y) = 0.15099 0.38167
# Poissons Ratio (z) = -0.11243 0.58413
#
# Static dielectric constant tensor:
#      x y z
#    x 1.753690 0.000000 0.000000 
#    y 0.000000 1.788390 0.000000 
#    z 0.000000 0.000000 1.738140 
# 
# From -- ./inp_files/21764.got.cif
#   From: 2010.05.17/outbox.cif.g08.bks.cpg/sg51_11_cif.got.tgz:21764.got - 2010.06.03 11:52:47.
