data_PCOD9399550
_publ_section_title
;
Structure prediction by ZEFSAII (Michael W. Deem and Ramdas Pophale) SiO2 
 PCOD9399550
Probable space group: P M M A
;
_chemical_formula_sum "Si O2"
_cell_formula_units_Z 64
_cell_length_a 20.117842
_cell_length_b 7.539747
_cell_length_c 19.435503
_cell_angle_alpha 90.000000
_cell_angle_beta 90.000000
_cell_angle_gamma 90.000000
_cell_volume 2948.043931
_symmetry_space_group_name_H-M "P M M A"
_symmetry_group_IT_number 51
_symmetry_cell_setting 'orthorhombic'
loop_
_space_group_symop_operation_xyz
x,y,z
1/2-x,-y,z
1/2+x,-y,-z
-x,y,-z
-x,-y,-z
1/2+x,y,-z
1/2-x,y,z
x,-y,z
loop_
_atom_site_type_symbol
_atom_site_label
_atom_site_fract_x
_atom_site_fract_y
_atom_site_fract_z
Si Si1 0.950009 0.702922 0.943531
Si Si2 0.326528 0.283507 0.458218
Si Si3 0.367649 0.287675 0.819782
Si Si4 0.321129 0.206244 0.674938
Si Si5 0.175664 0.207223 0.973683
Si Si6 0.480071 0.715818 0.206050
Si Si7 0.928376 0.298361 0.426083
Si Si8 0.561537 0.716771 0.643100
O O1 0.974739 0.500000 0.934451
O O2 0.948242 0.776733 0.866268
O O3 0.878652 0.702956 0.978558
O O4 0.000000 0.786779 0.000000
O O5 0.250000 0.221935 0.462143
O O6 0.323844 0.500000 0.462368
O O7 0.376259 0.220761 0.518977
O O8 0.367422 0.236309 0.389330
O O9 0.364702 0.500000 0.821200
O O10 0.323779 0.221900 0.756821
O O11 0.345650 0.223285 0.894229
O O12 0.442880 0.234005 0.802214
O O13 0.250000 0.277431 0.649292
O O14 0.384881 0.300407 0.643493
O O15 0.325514 0.000000 0.656345
O O16 0.250000 0.278143 0.981447
O O17 0.175488 0.000000 0.991654
O O18 0.475961 0.500000 0.209355
O O19 0.450741 0.778175 0.278801
O O20 0.940566 0.500000 0.449249
O O21 0.000208 0.221720 0.406015
O O22 0.557512 0.500000 0.642915
#
# Coordination Sequence:
#
# PCOD9399550 Si02
#       8
#     8   8   8   8   8   8   8   8
#     4  10  19  35  58  81 108 140 182 233 276 322
#     4   9  17  28  46  77 111 139 175 226 277 323
#     4  11  20  35  57  80 108 143 182 223 268 322
#     4  11  23  35  47  72 112 149 178 215 267 323
#     4  11  24  39  54  79 115 149 182 222 271 330
#     4   9  17  31  52  80 107 134 174 225 274 324
#     4  10  18  31  53  78 103 138 183 222 262 321
#     4   9  16  29  50  76 108 140 173 221 277 319
#
# _framework density 21.709309000000001
#
# number of rings (size 3 to 8) (size 9 to 14) (size 15 to 20)
#    0.000    2.000    2.500    2.250    0.000    5.750 
#    0.000    0.625    0.000    3.750    0.000    0.000 
#    0.000    0.000    0.000    0.000    0.000    0.000 
#
# Total GULP energy -357358.296479 kJ/mol
# GULP energy per Si atom -5583.723382 kJ/mol
# Density = 2.165990 g / cm^3
# Si number density = 21.709309 Si / 1000 Ang^3
#
#
#
# Elastic Constant Matrix: (Units=GPa)
#
#
# Indices 1 2 3 4 5 6 
#
# 1 143.5416 1.2254 90.4637 0.0000 0.0000 0.0000
# 2 1.2254 57.6731 -1.2580 0.0000 0.0000 0.0000
# 3 90.4637 -1.2580 138.2011 0.0000 0.0000 0.0000
# 4 0.0000 0.0000 0.0000-2173.6667 0.0000 0.0000
# 5 0.0000 0.0000 0.0000 0.0000 -81.3173 0.0000
# 6 0.0000 0.0000 0.0000 0.0000 0.0000 12.6559
#
#
#
# Elastic Compliance Matrix: (Units=1/GPa)
#
#
# Indices 1 2 3 4 5 6 
#
# 1 0.011869 -0.000422 -0.007773 0.000000 0.000000 0.000000
# 2 -0.000422 0.017358 0.000434 0.000000 0.000000 0.000000
# 3 -0.007773 0.000434 0.012328 0.000000 0.000000 0.000000
# 4 0.000000 0.000000 0.000000 -0.000460 0.000000 0.000000
# 5 0.000000 0.000000 0.000000 0.000000 -0.012298 0.000000
# 6 0.000000 0.000000 0.000000 0.000000 0.000000 0.079014
#
#
# Mechanical properties :
#
#
# Convention : Reuss Voigt Hill
#
# Bulk Modulus (GPa) = 38.41285 57.80867 48.11076
# Shear Modulus (GPa) = 37.87582 -431.86664 -196.99541
#
# Velocity S-wave (km/s) = 4.18147 -14.11961 -9.53621
# Velocity P-wave (km/s) = 6.40668 15.46388 9.95204
#
# Compressibility (1/GPa) = 0.02603296
#
# Stress axis : x y z
#
# Youngs Moduli (GPa) = 84.25293 57.61184 81.11688
#
# Poissons Ratio (x) = 0.02430 0.63053
# Poissons Ratio (y) = 0.03553 -0.03521
# Poissons Ratio (z) = 0.65490 -0.02501
#
# Static dielectric constant tensor:
#      x y z
#    x 1.778100 0.000000 0.000000 
#    y 0.000000 1.826760 0.000000 
#    z 0.000000 0.000000 1.804500 
# 
# From -- ./inp_files/30692.got.cif
#   From: 2010.05.17/outbox.cif.g08.bks.cpg/sg51_16_cif.got.tgz:30692.got - 2010.06.03 11:52:47.
