data_PCOD9399991
_publ_section_title
;
Structure prediction by ZEFSAII (Michael W. Deem and Ramdas Pophale) SiO2 
 PCOD9399991
Probable space group: P M M A
;
_chemical_formula_sum "Si O2"
_cell_formula_units_Z 64
_cell_length_a 14.483301
_cell_length_b 9.074315
_cell_length_c 31.963141
_cell_angle_alpha 90.000000
_cell_angle_beta 90.000000
_cell_angle_gamma 90.000000
_cell_volume 4200.788904
_symmetry_space_group_name_H-M "P M M A"
_symmetry_group_IT_number 51
_symmetry_cell_setting 'orthorhombic'
loop_
_space_group_symop_operation_xyz
x,y,z
1/2-x,-y,z
1/2+x,-y,-z
-x,y,-z
-x,-y,-z
1/2+x,y,-z
1/2-x,y,z
x,-y,z
loop_
_atom_site_type_symbol
_atom_site_label
_atom_site_fract_x
_atom_site_fract_y
_atom_site_fract_z
Si Si1 0.049710 0.323104 0.401195
Si Si2 0.858724 0.324240 0.857426
Si Si3 0.140695 0.822715 0.321460
Si Si4 0.605691 0.832876 0.515945
Si Si5 0.539933 0.178072 0.934737
Si Si6 0.138034 0.830348 0.228043
Si Si7 0.651611 0.323689 0.431890
Si Si8 0.855080 0.821111 0.020178
O O1 0.057074 0.500000 0.402251
O O2 0.087260 0.258671 0.358118
O O3 0.105047 0.253714 0.440408
O O4 0.942045 0.280008 0.408262
O O5 0.750000 0.283343 0.863255
O O6 0.865214 0.500000 0.859512
O O7 0.919683 0.250382 0.893329
O O8 0.888095 0.267329 0.811565
O O9 0.250000 0.790035 0.325152
O O10 0.108787 0.781101 0.274465
O O11 0.130565 0.000000 0.325129
O O12 0.500000 0.840262 0.500000
O O13 0.651719 0.747761 0.477745
O O14 0.639268 0.000000 0.521244
O O15 0.435285 0.223305 0.947180
O O16 0.541648 0.000000 0.930975
O O17 0.605465 0.217846 0.974255
O O18 0.250000 0.830980 0.229617
O O19 0.108817 0.000000 0.221525
O O20 0.750000 0.286452 0.411137
O O21 0.646727 0.500000 0.436783
O O22 0.750000 0.768501 0.026814
O O23 0.852831 0.000000 0.021376
#
# Coordination Sequence:
#
# PCOD9399991 Si02
#       8
#     8   8   8   8   8   8   8   8
#     4  10  19  30  46  67  89 115 145 174 208 252
#     4  10  19  28  40  62  91 117 140 173 216 257
#     4   9  18  32  48  66  89 115 141 171 209 253
#     4   9  17  29  44  61  82 108 139 176 213 246
#     4   9  16  26  43  64  84 113 151 184 216 256
#     4   8  15  29  47  64  83 110 142 173 209 256
#     4   9  18  32  47  63  86 115 146 179 212 247
#     4   8  14  25  41  62  87 114 148 188 221 250
#
# _framework density 15.235232999999999
#
# number of rings (size 3 to 8) (size 9 to 14) (size 15 to 20)
#    0.000    3.000    0.000    3.000    0.000    4.750 
#    0.000    2.500    0.000    1.125    0.000    0.875 
#    0.000    1.000    0.000    0.000    0.000    0.000 
#
# Total GULP energy -356333.846813 kJ/mol
# GULP energy per Si atom -5567.716356 kJ/mol
# Density = 1.520056 g / cm^3
# Si number density = 15.235233 Si / 1000 Ang^3
#
#
#
# Elastic Constant Matrix: (Units=GPa)
#
#
# Indices 1 2 3 4 5 6 
#
# 1 91.5995 29.1492 58.0532 0.0000 0.0000 0.0000
# 2 29.1492 29.3149 46.9136 0.0000 0.0000 0.0000
# 3 58.0532 46.9136 137.6453 0.0000 0.0000 0.0000
# 4 0.0000 0.0000 0.0000 -8.4129 0.0000 0.0000
# 5 0.0000 0.0000 0.0000 0.0000 21.5056 0.0000
# 6 0.0000 0.0000 0.0000 0.0000 0.0000 9.4022
#
#
#
# Elastic Compliance Matrix: (Units=1/GPa)
#
#
# Indices 1 2 3 4 5 6 
#
# 1 0.016519 -0.011607 -0.003011 0.000000 0.000000 0.000000
# 2 -0.011607 0.083201 -0.023462 0.000000 0.000000 0.000000
# 3 -0.003011 -0.023462 0.016532 0.000000 0.000000 0.000000
# 4 0.000000 0.000000 0.000000 -0.118865 0.000000 0.000000
# 5 0.000000 0.000000 0.000000 0.000000 0.046500 0.000000
# 6 0.000000 0.000000 0.000000 0.000000 0.000000 0.106358
#
#
# Mechanical properties :
#
#
# Convention : Reuss Voigt Hill
#
# Bulk Modulus (GPa) = 24.94306 58.53243 41.73774
# Shear Modulus (GPa) = 20.85352 12.79521 16.82437
#
# Velocity S-wave (km/s) = 3.70370 2.90115 3.32672
# Velocity P-wave (km/s) = 5.89045 7.05158 6.49700
#
# Compressibility (1/GPa) = 0.04009132
#
# Stress axis : x y z
#
# Youngs Moduli (GPa) = 60.53620 12.01913 60.49050
#
# Poissons Ratio (x) = 0.13951 0.18214
# Poissons Ratio (y) = 0.70264 1.41922
# Poissons Ratio (z) = 0.18228 0.28199
#
# Static dielectric constant tensor:
#      x y z
#    x 1.532960 0.000000 0.000000 
#    y 0.000000 1.507850 0.000000 
#    z 0.000000 0.000000 1.487500 
# 
# From -- ./inp_files/37830.got.cif
#   From: 2010.05.17/outbox.cif.g08.bks.cpg/sg51_19_cif.got.tgz:37830.got - 2010.06.03 11:52:47.
