data_PCOD9399450
_publ_section_title
;
Structure prediction by ZEFSAII (Michael W. Deem and Ramdas Pophale) SiO2 
 PCOD9399450
Probable space group: P M M A
;
_chemical_formula_sum "Si O2"
_cell_formula_units_Z 64
_cell_length_a 30.691704
_cell_length_b 8.688380
_cell_length_c 15.250563
_cell_angle_alpha 90.000000
_cell_angle_beta 90.000000
_cell_angle_gamma 90.000000
_cell_volume 4066.733235
_symmetry_space_group_name_H-M "P M M A"
_symmetry_group_IT_number 51
_symmetry_cell_setting 'orthorhombic'
loop_
_space_group_symop_operation_xyz
x,y,z
1/2-x,-y,z
1/2+x,-y,-z
-x,y,-z
-x,-y,-z
1/2+x,y,-z
1/2-x,y,z
x,-y,z
loop_
_atom_site_type_symbol
_atom_site_label
_atom_site_fract_x
_atom_site_fract_y
_atom_site_fract_z
Si Si1 0.941090 0.314447 0.869811
Si Si2 0.298393 0.814746 0.007389
Si Si3 0.038781 0.685581 0.825143
Si Si4 0.615184 0.684921 0.697761
Si Si5 0.798859 0.684164 0.797687
Si Si6 0.061999 0.817662 0.453955
Si Si7 0.892692 0.815519 0.040312
Si Si8 0.027633 0.315575 0.623425
O O1 0.939394 0.500000 0.879453
O O2 0.917830 0.276726 0.777574
O O3 0.991729 0.267633 0.864869
O O4 0.915177 0.241541 0.950347
O O5 0.250000 0.759186 0.979080
O O6 0.303991 0.765141 0.108581
O O7 0.297722 0.000000 0.003054
O O8 0.342166 0.761776 0.958282
O O9 0.040589 0.500000 0.830280
O O10 0.078126 0.753951 0.880469
O O11 0.039389 0.728437 0.722528
O O12 0.612992 0.500000 0.685457
O O13 0.663001 0.728380 0.731753
O O14 0.600816 0.766534 0.609181
O O15 0.750000 0.715995 0.765238
O O16 0.802789 0.500000 0.812455
O O17 0.061320 0.738979 0.549293
O O18 0.018195 0.758921 0.405085
O O19 0.060054 0.000000 0.464064
O O20 0.893002 0.000000 0.040958
O O21 0.022595 0.500000 0.620071
#
# Coordination Sequence:
#
# PCOD9399450 Si02
#       8
#     8   8   8   8   8   8   8   8
#     4  10  19  33  48  66  94 132 169 195 225 276
#     4   9  18  32  47  65  93 126 157 192 240 293
#     4  10  21  35  50  66  91 130 168 197 232 279
#     4  10  18  31  49  69  97 132 164 193 234 288
#     4   9  17  29  48  72  94 120 159 204 241 275
#     4  11  21  31  48  74  99 123 155 197 239 278
#     4  11  22  32  46  70  96 126 162 200 242 280
#     4  10  19  35  53  69  92 125 162 196 237 285
#
# _framework density 15.737447
#
# number of rings (size 3 to 8) (size 9 to 14) (size 15 to 20)
#    0.000    2.000    2.500    3.000    0.000    4.500 
#    0.000    0.000    0.000    0.000    0.000    0.875 
#    0.000    1.000    0.000    0.000    0.000    0.000 
#
# Total GULP energy -357011.110169 kJ/mol
# GULP energy per Si atom -5578.298596 kJ/mol
# Density = 1.570163 g / cm^3
# Si number density = 15.737447 Si / 1000 Ang^3
#
#
#
# Elastic Constant Matrix: (Units=GPa)
#
#
# Indices 1 2 3 4 5 6 
#
# 1 130.6578 21.3415 49.9423 0.0000 0.0000 0.0000
# 2 21.3415 21.4611 16.8310 0.0000 0.0000 0.0000
# 3 49.9423 16.8310 70.4675 0.0000 0.0000 0.0000
# 4 0.0000 0.0000 0.0000 -65.5816 0.0000 0.0000
# 5 0.0000 0.0000 0.0000 0.0000 21.3657 0.0000
# 6 0.0000 0.0000 0.0000 0.0000 0.0000 17.2249
#
#
#
# Elastic Compliance Matrix: (Units=1/GPa)
#
#
# Indices 1 2 3 4 5 6 
#
# 1 0.011089 -0.005984 -0.006429 0.000000 0.000000 0.000000
# 2 -0.005984 0.060566 -0.010225 0.000000 0.000000 0.000000
# 3 -0.006429 -0.010225 0.021190 0.000000 0.000000 0.000000
# 4 0.000000 0.000000 0.000000 -0.015248 0.000000 0.000000
# 5 0.000000 0.000000 0.000000 0.000000 0.046804 0.000000
# 6 0.000000 0.000000 0.000000 0.000000 0.000000 0.058055
#
#
# Mechanical properties :
#
#
# Convention : Reuss Voigt Hill
#
# Bulk Modulus (GPa) = 21.02292 44.31289 32.66790
# Shear Modulus (GPa) = 20.52640 3.56656 12.04648
#
# Velocity S-wave (km/s) = 3.61543 1.50705 2.76971
# Velocity P-wave (km/s) = 5.55122 5.58990 5.57059
#
# Compressibility (1/GPa) = 0.04756714
#
# Stress axis : x y z
#
# Youngs Moduli (GPa) = 90.18222 16.51093 47.19240
#
# Poissons Ratio (x) = 0.09881 0.30342
# Poissons Ratio (y) = 0.53969 0.48253
# Poissons Ratio (z) = 0.57982 0.16882
#
# Static dielectric constant tensor:
#      x y z
#    x 1.547800 0.000000 0.000000 
#    y 0.000000 1.534140 0.000000 
#    z 0.000000 0.000000 1.505000 
# 
# From -- ./inp_files/26691.got.cif
#   From: 2010.05.17/outbox.cif.g08.bks.cpg/sg51_14_cif.got.tgz:26691.got - 2010.06.03 11:52:47.
