data_PCOD9399485
_publ_section_title
;
Structure prediction by ZEFSAII (Michael W. Deem and Ramdas Pophale) SiO2 
 PCOD9399485
Probable space group: P M M A
;
_chemical_formula_sum "Si O2"
_cell_formula_units_Z 48
_cell_length_a 26.226393
_cell_length_b 8.880348
_cell_length_c 11.651612
_cell_angle_alpha 90.000000
_cell_angle_beta 90.000000
_cell_angle_gamma 90.000000
_cell_volume 2713.654570
_symmetry_space_group_name_H-M "P M M A"
_symmetry_group_IT_number 51
_symmetry_cell_setting 'orthorhombic'
loop_
_space_group_symop_operation_xyz
x,y,z
1/2-x,-y,z
1/2+x,-y,-z
-x,y,-z
-x,-y,-z
1/2+x,y,-z
1/2-x,y,z
x,-y,z
loop_
_atom_site_type_symbol
_atom_site_label
_atom_site_fract_x
_atom_site_fract_y
_atom_site_fract_z
Si Si1 0.594764 0.674800 0.730536
Si Si2 0.191860 0.819496 0.364330
Si Si3 0.440106 0.835532 0.483362
Si Si4 0.999978 0.178868 0.136476
Si Si5 0.397335 0.173310 0.739389
Si Si6 0.309760 0.677056 0.616949
O O1 0.600495 0.500000 0.756718
O O2 0.649941 0.754963 0.723525
O O3 0.575197 0.703545 0.600938
O O4 0.550003 0.745744 0.808363
O O5 0.250000 0.771774 0.337214
O O6 0.181214 0.761755 0.494851
O O7 0.190157 0.000000 0.364895
O O8 0.500000 0.834033 0.500000
O O9 0.417663 0.827843 0.609237
O O10 0.425671 0.000000 0.431792
O O11 0.945235 0.233006 0.186657
O O12 0.002262 0.000000 0.163958
O O13 0.000000 0.197960 0.000000
O O14 0.345184 0.264103 0.720642
O O15 0.387108 0.000000 0.775015
O O16 0.250000 0.698599 0.643542
O O17 0.319406 0.500000 0.598121
#
# Coordination Sequence:
#
# PCOD9399485 Si02
#       6
#     8   8   8   8   8   8
#     4  12  23  33  52  80 113 144 173 215 268 325
#     4  10  20  34  53  77 108 146 183 218 258 310
#     4  10  18  31  50  74 107 141 176 214 257 316
#     4  10  22  41  61  78 101 138 184 230 273 316
#     4  10  19  32  54  80 106 139 177 219 264 313
#     4  10  20  32  48  76 113 147 176 210 259 318
#
# _framework density 17.688324000000001
#
# number of rings (size 3 to 8) (size 9 to 14) (size 15 to 20)
#    0.000    1.667    3.333    2.500    0.000    3.333 
#    0.000    0.000    0.000    1.000    0.000    2.333 
#    0.000    0.000    0.000    0.000    0.000    0.000 
#
# Total GULP energy -267543.443861 kJ/mol
# GULP energy per Si atom -5573.821747 kJ/mol
# Density = 1.764806 g / cm^3
# Si number density = 17.688324 Si / 1000 Ang^3
#
#
#
# Elastic Constant Matrix: (Units=GPa)
#
#
# Indices 1 2 3 4 5 6 
#
# 1 134.6748 48.7543 39.0465 0.0000 0.0000 0.0000
# 2 48.7543 76.0683 26.7072 0.0000 0.0000 0.0000
# 3 39.0465 26.7072 47.9054 0.0000 0.0000 0.0000
# 4 0.0000 0.0000 0.0000 -1.2248 0.0000 0.0000
# 5 0.0000 0.0000 0.0000 0.0000 10.7927 0.0000
# 6 0.0000 0.0000 0.0000 0.0000 0.0000 24.0445
#
#
#
# Elastic Compliance Matrix: (Units=1/GPa)
#
#
# Indices 1 2 3 4 5 6 
#
# 1 0.010996 -0.004850 -0.006258 0.000000 0.000000 0.000000
# 2 -0.004850 0.018485 -0.006352 0.000000 0.000000 0.000000
# 3 -0.006258 -0.006352 0.029517 0.000000 0.000000 0.000000
# 4 0.000000 0.000000 0.000000 -0.816492 0.000000 0.000000
# 5 0.000000 0.000000 0.000000 0.000000 0.092655 0.000000
# 6 0.000000 0.000000 0.000000 0.000000 0.000000 0.041590
#
#
# Mechanical properties :
#
#
# Convention : Reuss Voigt Hill
#
# Bulk Modulus (GPa) = 41.53482 54.18495 47.85989
# Shear Modulus (GPa) = -8.61618 16.33186 3.85784
#
# Velocity S-wave (km/s) = -2.20945 3.04190 1.47843
# Velocity P-wave (km/s) = 4.12596 6.56028 5.48000
#
# Compressibility (1/GPa) = 0.02407618
#
# Stress axis : x y z
#
# Youngs Moduli (GPa) = 90.94561 54.09834 33.87915
#
# Poissons Ratio (x) = 0.26238 0.21202
# Poissons Ratio (y) = 0.44110 0.21520
# Poissons Ratio (z) = 0.56916 0.34364
#
# Static dielectric constant tensor:
#      x y z
#    x 1.691760 0.000000 0.000000 
#    y 0.000000 1.638120 0.000000 
#    z 0.000000 0.000000 1.571620 
# 
# From -- ./inp_files/19000.got.cif
#   From: 2010.05.17/outbox.cif.g08.bks.cpg/sg51_10_cif.got.tgz:19000.got - 2010.06.03 11:52:47.
