data_PCOD9399707
_publ_section_title
;
Structure prediction by ZEFSAII (Michael W. Deem and Ramdas Pophale) SiO2 
 PCOD9399707
Probable space group: P M M A
;
_chemical_formula_sum "Si O2"
_cell_formula_units_Z 64
_cell_length_a 28.304797
_cell_length_b 8.482173
_cell_length_c 14.813547
_cell_angle_alpha 90.000000
_cell_angle_beta 90.000000
_cell_angle_gamma 90.000000
_cell_volume 3556.527984
_symmetry_space_group_name_H-M "P M M A"
_symmetry_group_IT_number 51
_symmetry_cell_setting 'orthorhombic'
loop_
_space_group_symop_operation_xyz
x,y,z
1/2-x,-y,z
1/2+x,-y,-z
-x,y,-z
-x,-y,-z
1/2+x,y,-z
1/2-x,y,z
x,-y,z
loop_
_atom_site_type_symbol
_atom_site_label
_atom_site_fract_x
_atom_site_fract_y
_atom_site_fract_z
Si Si1 0.107841 0.808902 0.641962
Si Si2 0.062660 0.187788 0.262179
Si Si3 0.124715 0.319754 0.113083
Si Si4 0.461763 0.685998 0.791916
Si Si5 0.195197 0.807861 0.763154
Si Si6 0.552707 0.191744 0.531137
Si Si7 0.055317 0.176786 0.979876
Si Si8 0.195004 0.189153 0.966405
O O1 0.066147 0.742701 0.704274
O O2 0.157470 0.757648 0.687221
O O3 0.092879 0.760907 0.540822
O O4 0.106878 0.000000 0.645503
O O5 0.108470 0.229008 0.202927
O O6 0.064193 0.239484 0.366596
O O7 0.016534 0.268123 0.218865
O O8 0.055030 0.000000 0.258928
O O9 0.132759 0.500000 0.136290
O O10 0.080882 0.298092 0.044552
O O11 0.166922 0.255527 0.051277
O O12 0.457277 0.500000 0.805384
O O13 0.439626 0.777921 0.876263
O O14 0.250000 0.759069 0.748344
O O15 0.179983 0.758051 0.864963
O O16 0.195453 0.000000 0.763561
O O17 0.500000 0.244192 0.500000
O O18 0.551254 0.000000 0.530691
O O19 0.074044 0.000000 0.997681
O O20 0.000000 0.176251 0.000000
O O21 0.250000 0.230094 0.973769
O O22 0.190773 0.000000 0.967548
#
# Coordination Sequence:
#
# PCOD9399707 Si02
#       8
#     8   8   8   8   8   8   8   8
#     4  10  18  32  55  77 103 141 177 216 270 326
#     4  11  21  36  54  71 101 145 188 224 265 319
#     4  12  24  36  53  79 111 141 177 227 278 324
#     4  12  23  33  48  75 108 136 173 222 269 316
#     4   8  15  29  53  84 109 129 164 214 264 316
#     4   9  17  31  52  77 102 135 186 230 261 308
#     4  11  22  35  52  71  99 143 182 210 254 319
#     4   9  18  35  58  82 109 143 183 222 263 326
#
# _framework density 17.995077999999999
#
# number of rings (size 3 to 8) (size 9 to 14) (size 15 to 20)
#    0.000    1.750    2.500    4.500    0.000    1.750 
#    0.000    1.875    0.000    1.875    0.000    3.500 
#    0.000    0.000    0.000    0.000    0.000    0.000 
#
# Total GULP energy -357106.255894 kJ/mol
# GULP energy per Si atom -5579.785248 kJ/mol
# Density = 1.795412 g / cm^3
# Si number density = 17.995078 Si / 1000 Ang^3
#
#
#
# Elastic Constant Matrix: (Units=GPa)
#
#
# Indices 1 2 3 4 5 6 
#
# 1 89.5408 6.7052 43.3028 0.0000 0.0000 0.0000
# 2 6.7052 19.4318 4.3964 0.0000 0.0000 0.0000
# 3 43.3028 4.3964 117.9428 0.0000 0.0000 0.0000
# 4 0.0000 0.0000 0.0000 0.8167 0.0000 0.0000
# 5 0.0000 0.0000 0.0000 0.0000 30.2005 0.0000
# 6 0.0000 0.0000 0.0000 0.0000 0.0000 0.4553
#
#
#
# Elastic Compliance Matrix: (Units=1/GPa)
#
#
# Indices 1 2 3 4 5 6 
#
# 1 0.013832 -0.003655 -0.004942 0.000000 0.000000 0.000000
# 2 -0.003655 0.052866 -0.000629 0.000000 0.000000 0.000000
# 3 -0.004942 -0.000629 0.010317 0.000000 0.000000 0.000000
# 4 0.000000 0.000000 0.000000 1.224483 0.000000 0.000000
# 5 0.000000 0.000000 0.000000 0.000000 0.033112 0.000000
# 6 0.000000 0.000000 0.000000 0.000000 0.000000 2.196150
#
#
# Mechanical properties :
#
#
# Convention : Reuss Voigt Hill
#
# Bulk Modulus (GPa) = 17.07570 37.30269 27.18920
# Shear Modulus (GPa) = 1.40106 17.79522 9.59814
#
# Velocity S-wave (km/s) = 0.88333 3.14808 2.31200
# Velocity P-wave (km/s) = 3.24808 5.82995 4.71902
#
# Compressibility (1/GPa) = 0.05856274
#
# Stress axis : x y z
#
# Youngs Moduli (GPa) = 72.29694 18.91592 96.93078
#
# Poissons Ratio (x) = 0.06913 0.47905
# Poissons Ratio (y) = 0.26422 0.06095
# Poissons Ratio (z) = 0.35730 0.01189
#
# Static dielectric constant tensor:
#      x y z
#    x 1.625460 0.000000 0.000000 
#    y 0.000000 1.609160 0.000000 
#    z 0.000000 0.000000 1.631340 
# 
# From -- ./inp_files/26731.got.cif
#   From: 2010.05.17/outbox.cif.g08.bks.cpg/sg51_14_cif.got.tgz:26731.got - 2010.06.03 11:52:47.
