data_PCOD9399426
_publ_section_title
;
Structure prediction by ZEFSAII (Michael W. Deem and Ramdas Pophale) SiO2 
 PCOD9399426
Probable space group: P M M A
;
_chemical_formula_sum "Si O2"
_cell_formula_units_Z 64
_cell_length_a 16.046443
_cell_length_b 23.941763
_cell_length_c 7.727331
_cell_angle_alpha 90.000000
_cell_angle_beta 90.000000
_cell_angle_gamma 90.000000
_cell_volume 2968.687069
_symmetry_space_group_name_H-M "P M M A"
_symmetry_group_IT_number 51
_symmetry_cell_setting 'orthorhombic'
loop_
_space_group_symop_operation_xyz
x,y,z
1/2-x,-y,z
1/2+x,-y,-z
-x,y,-z
-x,-y,-z
1/2+x,y,-z
1/2-x,y,z
x,-y,z
loop_
_atom_site_type_symbol
_atom_site_label
_atom_site_fract_x
_atom_site_fract_y
_atom_site_fract_z
Si Si1 0.650405 0.354265 0.074743
Si Si2 0.843885 0.134780 0.270994
Si Si3 0.156627 0.858848 0.310302
Si Si4 0.848717 0.562732 0.780426
Si Si5 0.402027 0.363236 0.530976
Si Si6 0.496252 0.935868 0.288475
Si Si7 0.569794 0.759150 0.113979
Si Si8 0.066004 0.249447 0.369812
O O1 0.750000 0.354642 0.069219
O O2 0.623968 0.369065 0.270481
O O3 0.621001 0.291303 0.033420
O O4 0.616596 0.397318 0.931809
O O5 0.750000 0.121113 0.211080
O O6 0.841056 0.135424 0.480458
O O7 0.918511 0.092733 0.223946
O O8 0.871326 0.195884 0.203708
O O9 0.250000 0.868386 0.243796
O O10 0.126225 0.795342 0.285071
O O11 0.085555 0.900096 0.241510
O O12 0.750000 0.558341 0.813075
O O13 0.884012 0.500000 0.780603
O O14 0.858987 0.593351 0.597336
O O15 0.500000 0.371611 0.500000
O O16 0.386308 0.299536 0.463200
O O17 0.500000 0.935300 0.500000
O O18 0.489710 0.000000 0.233535
O O19 0.504137 0.727529 0.240835
O O20 0.500000 0.790342 0.000000
O O21 0.000000 0.218224 0.500000
#
# Coordination Sequence:
#
# PCOD9399426 Si02
#       8
#     8   8   8   8   8   8   8   8
#     4  11  23  40  65  94 125 170 219 262 323 397
#     4  10  19  33  55  83 116 156 205 252 305 374
#     4  10  18  30  54  85 118 159 203 250 305 368
#     4  10  24  45  64  89 129 169 211 266 320 381
#     4  11  22  38  66  95 124 164 212 267 328 389
#     4   9  17  31  52  82 121 158 198 255 312 358
#     4  12  22  36  60  85 124 160 196 259 324 380
#     4  11  18  36  56  83 123 154 193 251 318 376
#
# _framework density 21.558350999999998
#
# number of rings (size 3 to 8) (size 9 to 14) (size 15 to 20)
#    0.000    1.500    5.000    1.875    0.000    3.250 
#    0.000    5.625    0.000    0.375    0.000    0.000 
#    0.000    0.000    0.000    0.000    0.000    0.000 
#
# Total GULP energy -357175.829735 kJ/mol
# GULP energy per Si atom -5580.872340 kJ/mol
# Density = 2.150928 g / cm^3
# Si number density = 21.558351 Si / 1000 Ang^3
#
#
#
# Elastic Constant Matrix: (Units=GPa)
#
#
# Indices 1 2 3 4 5 6 
#
# 1 134.3719 61.7769 24.1757 0.0000 0.0000 0.0000
# 2 61.7769 156.8632 35.8691 0.0000 0.0000 0.0000
# 3 24.1757 35.8691 55.6696 0.0000 0.0000 0.0000
# 4 0.0000 0.0000 0.0000 12.9688 0.0000 0.0000
# 5 0.0000 0.0000 0.0000 0.0000 22.0953 0.0000
# 6 0.0000 0.0000 0.0000 0.0000 0.0000 23.2504
#
#
#
# Elastic Compliance Matrix: (Units=1/GPa)
#
#
# Indices 1 2 3 4 5 6 
#
# 1 0.009267 -0.003201 -0.001962 0.000000 0.000000 0.000000
# 2 -0.003201 0.008582 -0.004140 0.000000 0.000000 0.000000
# 3 -0.001962 -0.004140 0.021482 0.000000 0.000000 0.000000
# 4 0.000000 0.000000 0.000000 0.077108 0.000000 0.000000
# 5 0.000000 0.000000 0.000000 0.000000 0.045258 0.000000
# 6 0.000000 0.000000 0.000000 0.000000 0.000000 0.043010
#
#
# Mechanical properties :
#
#
# Convention : Reuss Voigt Hill
#
# Bulk Modulus (GPa) = 48.24751 65.61646 56.93199
# Shear Modulus (GPa) = 21.71826 26.66844 24.19335
#
# Velocity S-wave (km/s) = 3.17743 3.52097 3.35360
# Velocity P-wave (km/s) = 5.99082 6.85801 6.43903
#
# Compressibility (1/GPa) = 0.02072646
#
# Stress axis : x y z
#
# Youngs Moduli (GPa) = 107.91490 116.52111 46.54984
#
# Poissons Ratio (x) = 0.37296 0.09132
# Poissons Ratio (y) = 0.34542 0.19270
# Poissons Ratio (z) = 0.21171 0.48235
#
# Static dielectric constant tensor:
#      x y z
#    x 1.769240 0.000000 0.000000 
#    y 0.000000 1.768150 0.000000 
#    z 0.000000 0.000000 1.930600 
# 
# From -- ./inp_files/8719.got.cif
#   From: 2010.05.17/outbox.cif.g08.bks.cpg/sg51_5_cif.got.tgz:8719.got - 2010.06.03 11:52:47.
