data_PCOD9399231
_publ_section_title
;
Structure prediction by ZEFSAII (Michael W. Deem and Ramdas Pophale) SiO2 
 PCOD9399231
Probable space group: P M M A
;
_chemical_formula_sum "Si O2"
_cell_formula_units_Z 64
_cell_length_a 19.419099
_cell_length_b 7.400563
_cell_length_c 20.629093
_cell_angle_alpha 90.000000
_cell_angle_beta 90.000000
_cell_angle_gamma 90.000000
_cell_volume 2964.653691
_symmetry_space_group_name_H-M "P M M A"
_symmetry_group_IT_number 51
_symmetry_cell_setting 'orthorhombic'
loop_
_space_group_symop_operation_xyz
x,y,z
1/2-x,-y,z
1/2+x,-y,-z
-x,y,-z
-x,-y,-z
1/2+x,y,-z
1/2-x,y,z
x,-y,z
loop_
_atom_site_type_symbol
_atom_site_label
_atom_site_fract_x
_atom_site_fract_y
_atom_site_fract_z
Si Si1 0.828646 0.779078 0.080801
Si Si2 0.827788 0.785623 0.703035
Si Si3 0.072312 0.219869 0.032687
Si Si4 0.173163 0.717887 0.680175
Si Si5 0.077567 0.211866 0.801264
Si Si6 0.915933 0.279555 0.436999
Si Si7 0.570694 0.716863 0.583487
Si Si8 0.076031 0.778799 0.181809
O O1 0.750000 0.718877 0.086877
O O2 0.876760 0.714718 0.139685
O O3 0.827522 0.000000 0.082643
O O4 0.865437 0.726480 0.014098
O O5 0.750000 0.714208 0.693846
O O6 0.877454 0.763557 0.640891
O O7 0.866855 0.715158 0.767127
O O8 0.821529 0.000000 0.712176
O O9 0.082454 0.277145 0.106830
O O10 0.069954 0.000000 0.033542
O O11 0.000000 0.277773 0.000000
O O12 0.250000 0.784337 0.693574
O O13 0.175489 0.500000 0.678754
O O14 0.120291 0.768642 0.736053
O O15 0.143364 0.779906 0.611459
O O16 0.000115 0.282043 0.796068
O O17 0.069285 0.000000 0.815998
O O18 0.916067 0.500000 0.437517
O O19 0.907429 0.221414 0.511407
O O20 0.991059 0.222844 0.409976
O O21 0.568625 0.500000 0.581699
O O22 0.078393 0.000000 0.182836
#
# Coordination Sequence:
#
# PCOD9399231 Si02
#       8
#     8   8   8   8   8   8   8   8
#     4   9  16  24  38  64  94 119 147 192 243 280
#     4  10  21  34  46  68 104 136 162 199 247 295
#     4   9  14  24  41  63  90 120 155 193 233 282
#     4  10  20  32  46  67  97 129 156 185 229 285
#     4  10  18  30  48  69  94 123 157 198 238 279
#     4   8  16  32  53  76  98 120 156 205 246 280
#     4   9  17  33  57  77  93 121 163 206 243 285
#     4   9  17  29  47  67  92 129 164 194 238 289
#
# _framework density 21.587682000000001
#
# number of rings (size 3 to 8) (size 9 to 14) (size 15 to 20)
#    0.000    2.750    1.250    1.875    0.000    2.000 
#    0.000    5.625    0.000    0.000    0.000    2.625 
#    0.000    0.000    0.000    0.000    0.000    0.000 
#
# Total GULP energy -357334.308948 kJ/mol
# GULP energy per Si atom -5583.348577 kJ/mol
# Density = 2.153855 g / cm^3
# Si number density = 21.587682 Si / 1000 Ang^3
#
#
#
# Elastic Constant Matrix: (Units=GPa)
#
#
# Indices 1 2 3 4 5 6 
#
# 1 103.2641 7.6951 61.7792 0.0000 0.0000 0.0000
# 2 7.6951 69.4163 -2.9234 0.0000 0.0000 0.0000
# 3 61.7792 -2.9234 132.2179 0.0000 0.0000 0.0000
# 4 0.0000 0.0000 0.0000 187.8068 0.0000 0.0000
# 5 0.0000 0.0000 0.0000 0.0000 17.0360 0.0000
# 6 0.0000 0.0000 0.0000 0.0000 0.0000 11.1752
#
#
#
# Elastic Compliance Matrix: (Units=1/GPa)
#
#
# Indices 1 2 3 4 5 6 
#
# 1 0.013659 -0.001785 -0.006422 0.000000 0.000000 0.000000
# 2 -0.001785 0.014652 0.001158 0.000000 0.000000 0.000000
# 3 -0.006422 0.001158 0.010589 0.000000 0.000000 0.000000
# 4 0.000000 0.000000 0.000000 0.005325 0.000000 0.000000
# 5 0.000000 0.000000 0.000000 0.000000 0.058699 0.000000
# 6 0.000000 0.000000 0.000000 0.000000 0.000000 0.089484
#
#
# Mechanical properties :
#
#
# Convention : Reuss Voigt Hill
#
# Bulk Modulus (GPa) = 40.31620 48.66667 44.49143
# Shear Modulus (GPa) = 23.28042 59.09343 41.18693
#
# Velocity S-wave (km/s) = 3.28748 5.23766 4.37268
# Velocity P-wave (km/s) = 5.75553 7.69221 6.79324
#
# Compressibility (1/GPa) = 0.02480393
#
# Stress axis : x y z
#
# Youngs Moduli (GPa) = 73.21368 68.24807 94.43463
#
# Poissons Ratio (x) = 0.12179 0.60641
# Poissons Ratio (y) = 0.13065 -0.10934
# Poissons Ratio (z) = 0.47014 -0.07902
#
# Static dielectric constant tensor:
#      x y z
#    x 1.765270 0.000000 0.000000 
#    y 0.000000 1.862230 0.000000 
#    z 0.000000 0.000000 1.747860 
# 
# From -- ./inp_files/33999.got.cif
#   From: 2010.05.17/outbox.cif.g08.bks.cpg/sg51_17_cif.got.tgz:33999.got - 2010.06.03 11:52:47.
