data_PCOD9399375
_publ_section_title
;
Structure prediction by ZEFSAII (Michael W. Deem and Ramdas Pophale) SiO2 
 PCOD9399375
Probable space group: P M M A
;
_chemical_formula_sum "Si O2"
_cell_formula_units_Z 40
_cell_length_a 8.592701
_cell_length_b 26.973364
_cell_length_c 9.279792
_cell_angle_alpha 90.000000
_cell_angle_beta 90.000000
_cell_angle_gamma 90.000000
_cell_volume 2150.814992
_symmetry_space_group_name_H-M "P M M A"
_symmetry_group_IT_number 51
_symmetry_cell_setting 'orthorhombic'
loop_
_space_group_symop_operation_xyz
x,y,z
1/2-x,-y,z
1/2+x,-y,-z
-x,y,-z
-x,-y,-z
1/2+x,y,-z
1/2-x,y,z
x,-y,z
loop_
_atom_site_type_symbol
_atom_site_label
_atom_site_fract_x
_atom_site_fract_y
_atom_site_fract_z
Si Si1 0.937220 0.500000 0.162921
Si Si2 0.937040 0.103473 0.663084
Si Si3 0.563159 0.298181 0.661462
Si Si4 0.562280 0.798982 0.838603
Si Si5 0.935702 0.000000 0.335910
Si Si6 0.437404 0.391473 0.836220
O O1 0.750000 0.500000 0.159409
O O2 0.984653 0.553752 0.223131
O O3 0.000000 0.500000 0.000000
O O4 0.750000 0.100876 0.657167
O O5 0.985622 0.150878 0.756352
O O6 0.000000 0.109031 0.500000
O O7 0.001487 0.051692 0.726057
O O8 0.500000 0.295931 0.500000
O O9 0.750000 0.298742 0.658586
O O10 0.511343 0.249543 0.750143
O O11 0.503401 0.347225 0.741288
O O12 0.750000 0.798617 0.842643
O O13 0.500000 0.797587 0.000000
O O14 0.000000 0.000000 0.500000
O O15 0.750000 0.000000 0.337831
O O16 0.250000 0.388741 0.839621
O O17 0.500000 0.387194 0.000000
#
# Coordination Sequence:
#
# PCOD9399375 Si02
#       6
#     4   8   8   8   4   8
#     4   8  16  30  51  78 109 142 180 220 264 314
#     4  10  19  34  55  81 109 141 178 219 262 311
#     4  11  23  39  57  81 109 142 181 225 274 326
#     4  10  23  39  57  80 108 140 178 220 268 320
#     4  10  18  30  51  80 109 142 178 216 260 310
#     4  10  19  34  56  83 112 145 182 224 268 319
#
# _framework density 18.5976
#
# number of rings (size 3 to 8) (size 9 to 14) (size 15 to 20)
#    0.000    2.000    0.000    5.100    0.000    5.600 
#    0.000    1.000    0.000    0.000    0.000    0.000 
#    0.000    0.000    0.000    0.000    0.000    0.000 
#
# Total GULP energy -223249.124484 kJ/mol
# GULP energy per Si atom -5581.228112 kJ/mol
# Density = 1.855527 g / cm^3
# Si number density = 18.597600 Si / 1000 Ang^3
#
#
#
# Elastic Constant Matrix: (Units=GPa)
#
#
# Indices 1 2 3 4 5 6 
#
# 1 61.1876 54.9105 30.4656 0.0000 0.0000 0.0000
# 2 54.9105 241.7197 100.5198 0.0000 0.0000 0.0000
# 3 30.4656 100.5198 110.6290 0.0000 0.0000 0.0000
# 4 0.0000 0.0000 0.0000 31.8425 0.0000 0.0000
# 5 0.0000 0.0000 0.0000 0.0000 30.4755 0.0000
# 6 0.0000 0.0000 0.0000 0.0000 0.0000 32.3007
#
#
#
# Elastic Compliance Matrix: (Units=1/GPa)
#
#
# Indices 1 2 3 4 5 6 
#
# 1 0.020891 -0.003783 -0.002316 0.000000 0.000000 0.000000
# 2 -0.003783 0.007334 -0.005623 0.000000 0.000000 0.000000
# 3 -0.002316 -0.005623 0.014786 0.000000 0.000000 0.000000
# 4 0.000000 0.000000 0.000000 0.031405 0.000000 0.000000
# 5 0.000000 0.000000 0.000000 0.000000 0.032813 0.000000
# 6 0.000000 0.000000 0.000000 0.000000 0.000000 0.030959
#
#
# Mechanical properties :
#
#
# Convention : Reuss Voigt Hill
#
# Bulk Modulus (GPa) = 51.10213 87.25870 69.18041
# Shear Modulus (GPa) = 29.73471 34.09974 31.91723
#
# Velocity S-wave (km/s) = 4.00290 4.28665 4.14720
# Velocity P-wave (km/s) = 6.99297 8.45705 7.75962
#
# Compressibility (1/GPa) = 0.01956866
#
# Stress axis : x y z
#
# Youngs Moduli (GPa) = 47.86770 136.34282 67.63216
#
# Poissons Ratio (x) = 0.51572 0.15665
# Poissons Ratio (y) = 0.18106 0.38027
# Poissons Ratio (z) = 0.11087 0.76660
#
# Static dielectric constant tensor:
#      x y z
#    x 1.631350 0.000000 0.000000 
#    y 0.000000 1.684010 0.000000 
#    z 0.000000 0.000000 1.601540 
# 
# From -- ./inp_files/5615.got.cif
#   From: 2010.05.17/outbox.cif.g08.bks.cpg/sg51_3_cif.got.tgz:5615.got - 2010.06.03 11:52:47.
