data_PCOD9399381
_publ_section_title
;
Structure prediction by ZEFSAII (Michael W. Deem and Ramdas Pophale) SiO2 
 PCOD9399381
Probable space group: P M M A
;
_chemical_formula_sum "Si O2"
_cell_formula_units_Z 64
_cell_length_a 19.816575
_cell_length_b 8.657223
_cell_length_c 22.044291
_cell_angle_alpha 90.000000
_cell_angle_beta 90.000000
_cell_angle_gamma 90.000000
_cell_volume 3781.841605
_symmetry_space_group_name_H-M "P M M A"
_symmetry_group_IT_number 51
_symmetry_cell_setting 'orthorhombic'
loop_
_space_group_symop_operation_xyz
x,y,z
1/2-x,-y,z
1/2+x,-y,-z
-x,y,-z
-x,-y,-z
1/2+x,y,-z
1/2-x,y,z
x,-y,z
loop_
_atom_site_type_symbol
_atom_site_label
_atom_site_fract_x
_atom_site_fract_y
_atom_site_fract_z
Si Si1 0.033711 0.815076 0.063120
Si Si2 0.328552 0.185992 0.465284
Si Si3 0.448059 0.185229 0.689864
Si Si4 0.140976 0.675598 0.230393
Si Si5 0.176429 0.312537 0.100782
Si Si6 0.673435 0.811851 0.395663
Si Si7 0.485049 0.675659 0.813609
Si Si8 0.591128 0.686015 0.646544
O O1 0.110082 0.752359 0.068904
O O2 0.991499 0.755319 0.121150
O O3 0.035673 0.000000 0.065294
O O4 0.000000 0.765614 0.000000
O O5 0.250000 0.224927 0.452841
O O6 0.342922 0.232663 0.534909
O O7 0.377604 0.261625 0.416623
O O8 0.334850 0.000000 0.461704
O O9 0.383213 0.238789 0.651594
O O10 0.445756 0.239271 0.759788
O O11 0.516325 0.250272 0.659232
O O12 0.451422 0.000000 0.688301
O O13 0.166829 0.500000 0.235877
O O14 0.174763 0.745580 0.170885
O O15 0.138844 0.744528 0.297612
O O16 0.062225 0.669989 0.211043
O O17 0.250000 0.274619 0.074387
O O18 0.170164 0.500000 0.102724
O O19 0.750000 0.761125 0.381695
O O20 0.674047 0.000000 0.394928
O O21 0.461347 0.500000 0.820252
O O22 0.588803 0.500000 0.650490
#
# Coordination Sequence:
#
# PCOD9399381 Si02
#       8
#     8   8   8   8   8   8   8   8
#     4  10  20  33  51  76 104 135 172 208 241 281
#     4   9  18  33  49  64  88 124 166 208 247 294
#     4  10  18  30  52  76  96 121 159 206 249 292
#     4   7  13  26  42  61  87 120 152 182 221 273
#     4   9  17  30  49  72  98 131 170 207 245 291
#     4   8  16  32  52  71  91 121 162 206 254 306
#     4   9  17  31  50  72  99 126 153 189 237 289
#     4  10  19  30  45  68  99 131 162 196 241 294
#
# _framework density 16.922972999999999
#
# number of rings (size 3 to 8) (size 9 to 14) (size 15 to 20)
#    0.000    3.000    0.000    3.750    0.000    2.500 
#    0.000    5.625    0.000    3.750    0.000    1.750 
#    0.000    0.000    0.000    0.000    0.000    0.000 
#
# Total GULP energy -356324.885356 kJ/mol
# GULP energy per Si atom -5567.576334 kJ/mol
# Density = 1.688446 g / cm^3
# Si number density = 16.922973 Si / 1000 Ang^3
#
#
#
# Elastic Constant Matrix: (Units=GPa)
#
#
# Indices 1 2 3 4 5 6 
#
# 1 97.2867 30.8305 86.5025 0.0000 0.0000 0.0000
# 2 30.8305 39.8604 37.2528 0.0000 0.0000 0.0000
# 3 86.5025 37.2528 144.3123 0.0000 0.0000 0.0000
# 4 0.0000 0.0000 0.0000 14.2384 0.0000 0.0000
# 5 0.0000 0.0000 0.0000 0.0000 17.1458 0.0000
# 6 0.0000 0.0000 0.0000 0.0000 0.0000 5.6865
#
#
#
# Elastic Compliance Matrix: (Units=1/GPa)
#
#
# Indices 1 2 3 4 5 6 
#
# 1 0.023231 -0.006529 -0.012239 0.000000 0.000000 0.000000
# 2 -0.006529 0.034900 -0.005095 0.000000 0.000000 0.000000
# 3 -0.012239 -0.005095 0.015581 0.000000 0.000000 0.000000
# 4 0.000000 0.000000 0.000000 0.070233 0.000000 0.000000
# 5 0.000000 0.000000 0.000000 0.000000 0.058323 0.000000
# 6 0.000000 0.000000 0.000000 0.000000 0.000000 0.175856
#
#
# Mechanical properties :
#
#
# Convention : Reuss Voigt Hill
#
# Bulk Modulus (GPa) = 38.48571 65.62566 52.05569
# Shear Modulus (GPa) = 11.50717 15.87238 13.68977
#
# Velocity S-wave (km/s) = 2.61046 3.06587 2.84728
# Velocity P-wave (km/s) = 5.64598 7.16910 6.45264
#
# Compressibility (1/GPa) = 0.02598367
#
# Stress axis : x y z
#
# Youngs Moduli (GPa) = 43.04683 28.65351 64.18092
#
# Poissons Ratio (x) = 0.18709 0.78552
# Poissons Ratio (y) = 0.28107 0.32701
# Poissons Ratio (z) = 0.52686 0.14599
#
# Static dielectric constant tensor:
#      x y z
#    x 1.570740 0.000000 0.000000 
#    y 0.000000 1.582270 0.000000 
#    z 0.000000 0.000000 1.582420 
# 
# From -- ./inp_files/33991.got.cif
#   From: 2010.05.17/outbox.cif.g08.bks.cpg/sg51_17_cif.got.tgz:33991.got - 2010.06.03 11:52:47.
