data_PCOD9399446
_publ_section_title
;
Structure prediction by ZEFSAII (Michael W. Deem and Ramdas Pophale) SiO2 
 PCOD9399446
Probable space group: P M M A
;
_chemical_formula_sum "Si O2"
_cell_formula_units_Z 64
_cell_length_a 21.492665
_cell_length_b 9.482074
_cell_length_c 19.204139
_cell_angle_alpha 90.000000
_cell_angle_beta 90.000000
_cell_angle_gamma 90.000000
_cell_volume 3913.708275
_symmetry_space_group_name_H-M "P M M A"
_symmetry_group_IT_number 51
_symmetry_cell_setting 'orthorhombic'
loop_
_space_group_symop_operation_xyz
x,y,z
1/2-x,-y,z
1/2+x,-y,-z
-x,y,-z
-x,-y,-z
1/2+x,y,-z
1/2-x,y,z
x,-y,z
loop_
_atom_site_type_symbol
_atom_site_label
_atom_site_fract_x
_atom_site_fract_y
_atom_site_fract_z
Si Si1 0.568245 0.661489 0.536549
Si Si2 0.883714 0.164620 0.411306
Si Si3 0.177248 0.658438 0.702466
Si Si4 0.821543 0.166779 0.020255
Si Si5 0.437677 0.669091 0.045860
Si Si6 0.519672 0.835424 0.660646
Si Si7 0.482637 0.836960 0.175133
Si Si8 0.370986 0.159275 0.826705
O O1 0.500000 0.659485 0.500000
O O2 0.589785 0.500000 0.541153
O O3 0.608177 0.757430 0.484665
O O4 0.559743 0.734369 0.611345
O O5 0.834607 0.245387 0.364216
O O6 0.948846 0.176271 0.367935
O O7 0.870542 0.000000 0.420182
O O8 0.250000 0.653104 0.717721
O O9 0.153690 0.500000 0.689511
O O10 0.144477 0.728480 0.768263
O O11 0.750000 0.205095 0.002685
O O12 0.831877 0.180266 0.103386
O O13 0.830301 0.000000 0.003827
O O14 0.875887 0.258416 0.985378
O O15 0.431326 0.500000 0.046790
O O16 0.448550 0.732991 0.122558
O O17 0.500000 0.702578 0.000000
O O18 0.522954 0.802951 0.742690
O O19 0.537358 0.000000 0.651069
O O20 0.555940 0.832339 0.156923
O O21 0.462123 0.000000 0.165224
O O22 0.358898 0.000000 0.799635
#
# Coordination Sequence:
#
# PCOD9399446 Si02
#       8
#     8   8   8   8   8   8   8   8
#     4   9  17  28  44  69  97 127 158 194 244 295
#     4  10  18  31  49  68  93 129 171 212 249 293
#     4  11  23  34  45  67 101 139 176 215 259 307
#     4  10  21  37  58  80 102 136 182 227 269 317
#     4  11  23  36  52  78 109 142 177 218 271 326
#     4   9  17  30  47  71  98 127 164 204 250 300
#     4  10  19  33  54  77 103 138 176 217 263 310
#     4  10  19  34  54  75 100 135 178 219 259 308
#
# _framework density 16.352777
#
# number of rings (size 3 to 8) (size 9 to 14) (size 15 to 20)
#    0.000    2.000    2.500    1.875    0.000    5.750 
#    0.000    0.000    0.000    0.000    0.000    0.875 
#    0.000    1.000    0.000    0.000    0.000    0.000 
#
# Total GULP energy -356931.354615 kJ/mol
# GULP energy per Si atom -5577.052416 kJ/mol
# Density = 1.631556 g / cm^3
# Si number density = 16.352777 Si / 1000 Ang^3
#
#
#
# Elastic Constant Matrix: (Units=GPa)
#
#
# Indices 1 2 3 4 5 6 
#
# 1 59.5918 43.3260 28.2373 0.0000 0.0000 0.0000
# 2 43.3260 107.4545 54.5627 0.0000 0.0000 0.0000
# 3 28.2373 54.5627 81.1751 0.0000 0.0000 0.0000
# 4 0.0000 0.0000 0.0000 -13.7043 0.0000 0.0000
# 5 0.0000 0.0000 0.0000 0.0000 16.7951 0.0000
# 6 0.0000 0.0000 0.0000 0.0000 0.0000 20.5721
#
#
#
# Elastic Compliance Matrix: (Units=1/GPa)
#
#
# Indices 1 2 3 4 5 6 
#
# 1 0.024158 -0.008309 -0.002818 0.000000 0.000000 0.000000
# 2 -0.008309 0.016987 -0.008527 0.000000 0.000000 0.000000
# 3 -0.002818 -0.008527 0.019031 0.000000 0.000000 0.000000
# 4 0.000000 0.000000 0.000000 -0.072970 0.000000 0.000000
# 5 0.000000 0.000000 0.000000 0.000000 0.059541 0.000000
# 6 0.000000 0.000000 0.000000 0.000000 0.000000 0.048610
#
#
# Mechanical properties :
#
#
# Convention : Reuss Voigt Hill
#
# Bulk Modulus (GPa) = 47.92570 55.60814 51.76692
# Shear Modulus (GPa) = 35.30562 12.87227 24.08895
#
# Velocity S-wave (km/s) = 4.65154 2.80868 3.84224
# Velocity P-wave (km/s) = 7.63021 6.67813 7.16999
#
# Compressibility (1/GPa) = 0.02086563
#
# Stress axis : x y z
#
# Youngs Moduli (GPa) = 41.39494 58.87012 52.54593
#
# Poissons Ratio (x) = 0.48918 0.14808
# Poissons Ratio (y) = 0.34397 0.44807
# Poissons Ratio (z) = 0.11665 0.50200
#
# Static dielectric constant tensor:
#      x y z
#    x 1.540380 0.000000 0.000000 
#    y 0.000000 1.559870 0.000000 
#    z 0.000000 0.000000 1.538480 
# 
# From -- ./inp_files/30566.got.cif
#   From: 2010.05.17/outbox.cif.g08.bks.cpg/sg51_16_cif.got.tgz:30566.got - 2010.06.03 11:52:47.
