data_PCOD9399528
_publ_section_title
;
Structure prediction by ZEFSAII (Michael W. Deem and Ramdas Pophale) SiO2 
 PCOD9399528
Probable space group: P M M A
;
_chemical_formula_sum "Si O2"
_cell_formula_units_Z 60
_cell_length_a 8.822780
_cell_length_b 21.368388
_cell_length_c 19.406014
_cell_angle_alpha 90.000000
_cell_angle_beta 90.000000
_cell_angle_gamma 90.000000
_cell_volume 3658.588385
_symmetry_space_group_name_H-M "P M M A"
_symmetry_group_IT_number 51
_symmetry_cell_setting 'orthorhombic'
loop_
_space_group_symop_operation_xyz
x,y,z
1/2-x,-y,z
1/2+x,-y,-z
-x,y,-z
-x,-y,-z
1/2+x,y,-z
1/2-x,y,z
x,-y,z
loop_
_atom_site_type_symbol
_atom_site_label
_atom_site_fract_x
_atom_site_fract_y
_atom_site_fract_z
Si Si1 0.569177 0.367659 0.926892
Si Si2 0.070129 0.248414 0.425020
Si Si3 0.931517 0.780398 0.926019
Si Si4 0.568152 0.000000 0.422686
Si Si5 0.933071 0.571021 0.207545
Si Si6 0.568227 0.687256 0.298117
Si Si7 0.431799 0.880484 0.345296
Si Si8 0.568226 0.185353 0.216203
O O1 0.750000 0.373522 0.928233
O O2 0.531788 0.293796 0.917127
O O3 0.500136 0.407332 0.865144
O O4 0.500000 0.386962 0.000000
O O5 0.250000 0.253729 0.428972
O O6 0.034039 0.180412 0.392303
O O7 0.000000 0.254214 0.500000
O O8 0.005553 0.298437 0.371230
O O9 0.750000 0.786816 0.926903
O O10 0.001599 0.815924 0.860620
O O11 0.000000 0.799376 0.000000
O O12 0.500000 0.000000 0.500000
O O13 0.509110 0.060395 0.381092
O O14 0.750000 0.000000 0.426859
O O15 0.750000 0.573669 0.203244
O O16 0.977333 0.500000 0.224050
O O17 0.981414 0.622691 0.263341
O O18 0.750000 0.686710 0.305498
O O19 0.530594 0.745966 0.248207
O O20 0.250000 0.888528 0.342255
O O21 0.496450 0.864016 0.269645
O O22 0.750000 0.179018 0.214996
#
# Coordination Sequence:
#
# PCOD9399528 Si02
#       8
#     8   8   8   4   8   8   8   8
#     4  10  20  32  48  68  95 129 168 210 255 306
#     4  10  20  33  53  78 103 130 163 204 249 298
#     4  10  19  30  47  72 101 134 170 214 264 313
#     4  12  24  38  56  80 113 152 187 216 252 298
#     4  10  20  34  51  70  94 127 166 207 255 312
#     4   9  18  32  50  71  97 127 160 203 254 305
#     4  10  21  36  54  79 110 144 178 213 251 297
#     4  10  18  31  52  76 103 135 172 215 260 308
#
# _framework density 16.399768000000002
#
# number of rings (size 3 to 8) (size 9 to 14) (size 15 to 20)
#    0.000    2.000    1.333    3.000    0.000    5.333 
#    0.000    0.000    0.000    0.400    0.000    0.467 
#    0.000    0.000    0.000    0.000    0.000    0.000 
#
# Total GULP energy -334922.089136 kJ/mol
# GULP energy per Si atom -5582.034819 kJ/mol
# Density = 1.636244 g / cm^3
# Si number density = 16.399768 Si / 1000 Ang^3
#
#
#
# Elastic Constant Matrix: (Units=GPa)
#
#
# Indices 1 2 3 4 5 6 
#
# 1 44.8013 46.1924 58.8267 0.0000 0.0000 0.0000
# 2 46.1924 100.0914 76.0975 0.0000 0.0000 0.0000
# 3 58.8267 76.0975 164.6291 0.0000 0.0000 0.0000
# 4 0.0000 0.0000 0.0000 22.8370 0.0000 0.0000
# 5 0.0000 0.0000 0.0000 0.0000 32.6289 0.0000
# 6 0.0000 0.0000 0.0000 0.0000 0.0000 19.7800
#
#
#
# Elastic Compliance Matrix: (Units=1/GPa)
#
#
# Indices 1 2 3 4 5 6 
#
# 1 0.054886 -0.016065 -0.012187 0.000000 0.000000 0.000000
# 2 -0.016065 0.020106 -0.003554 0.000000 0.000000 0.000000
# 3 -0.012187 -0.003554 0.012071 0.000000 0.000000 0.000000
# 4 0.000000 0.000000 0.000000 0.043789 0.000000 0.000000
# 5 0.000000 0.000000 0.000000 0.000000 0.030648 0.000000
# 6 0.000000 0.000000 0.000000 0.000000 0.000000 0.050556
#
#
# Mechanical properties :
#
#
# Convention : Reuss Voigt Hill
#
# Bulk Modulus (GPa) = 42.63642 74.63945 58.63793
# Shear Modulus (GPa) = 17.63765 23.60954 20.62359
#
# Velocity S-wave (km/s) = 3.28301 3.79836 3.55005
# Velocity P-wave (km/s) = 6.35811 8.05283 7.25512
#
# Compressibility (1/GPa) = 0.02345413
#
# Stress axis : x y z
#
# Youngs Moduli (GPa) = 18.21953 49.73523 82.83989
#
# Poissons Ratio (x) = 0.79899 1.00954
# Poissons Ratio (y) = 0.29269 0.29437
# Poissons Ratio (z) = 0.22204 0.17674
#
# Static dielectric constant tensor:
#      x y z
#    x 1.541640 0.000000 0.000000 
#    y 0.000000 1.544110 0.000000 
#    z 0.000000 0.000000 1.532900 
# 
# From -- ./inp_files/28347.got.cif
#   From: 2010.05.17/outbox.cif.g08.bks.cpg/sg51_15_cif.got.tgz:28347.got - 2010.06.03 11:52:47.
