data_PCOD9399312
_publ_section_title
;
Structure prediction by ZEFSAII (Michael W. Deem and Ramdas Pophale) SiO2 
 PCOD9399312
Probable space group: P M M A
;
_chemical_formula_sum "Si O2"
_cell_formula_units_Z 64
_cell_length_a 9.166486
_cell_length_b 14.698885
_cell_length_c 31.949044
_cell_angle_alpha 90.000000
_cell_angle_beta 90.000000
_cell_angle_gamma 90.000000
_cell_volume 4304.722289
_symmetry_space_group_name_H-M "P M M A"
_symmetry_group_IT_number 51
_symmetry_cell_setting 'orthorhombic'
loop_
_space_group_symop_operation_xyz
x,y,z
1/2-x,-y,z
1/2+x,-y,-z
-x,y,-z
-x,-y,-z
1/2+x,y,-z
1/2-x,y,z
x,-y,z
loop_
_atom_site_type_symbol
_atom_site_label
_atom_site_fract_x
_atom_site_fract_y
_atom_site_fract_z
Si Si1 0.423307 0.395412 0.075351
Si Si2 0.072620 0.104133 0.875797
Si Si3 0.418293 0.889095 0.542264
Si Si4 0.075951 0.603134 0.175255
Si Si5 0.582171 0.110659 0.626391
Si Si6 0.426142 0.781021 0.794532
Si Si7 0.574879 0.106772 0.287813
Si Si8 0.424823 0.219179 0.957552
O O1 0.250000 0.380207 0.068309
O O2 0.456228 0.500000 0.063769
O O3 0.450323 0.386077 0.125301
O O4 0.517598 0.320713 0.051779
O O5 0.250000 0.102357 0.874928
O O6 0.026057 0.158807 0.834531
O O7 0.031386 0.157542 0.917817
O O8 0.021646 0.000000 0.875526
O O9 0.500000 0.860089 0.500000
O O10 0.250000 0.860920 0.542007
O O11 0.498943 0.859028 0.584548
O O12 0.420303 0.000000 0.542386
O O13 0.250000 0.611024 0.181306
O O14 0.032167 0.500000 0.186554
O O15 0.993608 0.681646 0.199920
O O16 0.750000 0.140012 0.626009
O O17 0.502181 0.136312 0.669321
O O18 0.580724 0.000000 0.625550
O O19 0.250000 0.775175 0.795597
O O20 0.467392 0.832409 0.751880
O O21 0.750000 0.112142 0.293028
O O22 0.540006 0.000000 0.279928
O O23 0.250000 0.218465 0.961336
O O24 0.500000 0.186224 0.000000
#
# Coordination Sequence:
#
# PCOD9399312 Si02
#       8
#     8   8   8   8   8   8   8   8
#     4   9  18  34  54  73  94 118 141 169 208 253
#     4   9  18  33  51  70  91 115 144 178 214 251
#     4   9  15  22  33  49  70  99 139 186 233 276
#     4   9  18  32  50  71  95 119 138 165 211 259
#     4   9  16  25  36  51  75 107 144 186 227 266
#     4  10  18  30  50  73  91 112 145 181 214 253
#     4   9  17  28  42  61  86 116 147 181 223 265
#     4  11  22  35  52  72  93 118 145 175 211 252
#
# _framework density 14.867394000000001
#
# number of rings (size 3 to 8) (size 9 to 14) (size 15 to 20)
#    0.000    2.625    1.250    2.250    0.000    6.000 
#    0.000    1.250    0.000    3.750    0.000    0.000 
#    0.000    0.000    0.000    0.000    0.000    0.625 
#
# Total GULP energy -356751.317738 kJ/mol
# GULP energy per Si atom -5574.239340 kJ/mol
# Density = 1.483355 g / cm^3
# Si number density = 14.867394 Si / 1000 Ang^3
#
#
#
# Elastic Constant Matrix: (Units=GPa)
#
#
# Indices 1 2 3 4 5 6 
#
# 1 50.2997 29.4690 57.5903 0.0000 0.0000 0.0000
# 2 29.4690 70.6558 53.5433 0.0000 0.0000 0.0000
# 3 57.5903 53.5433 142.1781 0.0000 0.0000 0.0000
# 4 0.0000 0.0000 0.0000 5.6257 0.0000 0.0000
# 5 0.0000 0.0000 0.0000 0.0000 25.4865 0.0000
# 6 0.0000 0.0000 0.0000 0.0000 0.0000 14.5280
#
#
#
# Elastic Compliance Matrix: (Units=1/GPa)
#
#
# Indices 1 2 3 4 5 6 
#
# 1 0.038800 -0.005979 -0.013464 0.000000 0.000000 0.000000
# 2 -0.005979 0.020727 -0.005384 0.000000 0.000000 0.000000
# 3 -0.013464 -0.005384 0.014515 0.000000 0.000000 0.000000
# 4 0.000000 0.000000 0.000000 0.177754 0.000000 0.000000
# 5 0.000000 0.000000 0.000000 0.000000 0.039237 0.000000
# 6 0.000000 0.000000 0.000000 0.000000 0.000000 0.068832
#
#
# Mechanical properties :
#
#
# Convention : Reuss Voigt Hill
#
# Bulk Modulus (GPa) = 41.00583 60.48211 50.74397
# Shear Modulus (GPa) = 11.97181 17.29678 14.63430
#
# Velocity S-wave (km/s) = 2.84075 3.41457 3.14079
# Velocity P-wave (km/s) = 6.19683 7.50434 6.88171
#
# Compressibility (1/GPa) = 0.02438677
#
# Stress axis : x y z
#
# Youngs Moduli (GPa) = 25.77328 48.24715 68.89551
#
# Poissons Ratio (x) = 0.28848 0.92764
# Poissons Ratio (y) = 0.15410 0.37091
# Poissons Ratio (z) = 0.34702 0.25974
#
# Static dielectric constant tensor:
#      x y z
#    x 1.496790 0.000000 0.000000 
#    y 0.000000 1.470310 0.000000 
#    z 0.000000 0.000000 1.488700 
# 
# From -- ./inp_files/37661.got.cif
#   From: 2010.05.17/outbox.cif.g08.bks.cpg/sg51_19_cif.got.tgz:37661.got - 2010.06.03 11:52:47.
