data_PCOD9399420
_publ_section_title
;
Structure prediction by ZEFSAII (Michael W. Deem and Ramdas Pophale) SiO2 
 PCOD9399420
Probable space group: P M M A
;
_chemical_formula_sum "Si O2"
_cell_formula_units_Z 48
_cell_length_a 15.355378
_cell_length_b 18.245248
_cell_length_c 8.964759
_cell_angle_alpha 90.000000
_cell_angle_beta 90.000000
_cell_angle_gamma 90.000000
_cell_volume 2511.590905
_symmetry_space_group_name_H-M "P M M A"
_symmetry_group_IT_number 51
_symmetry_cell_setting 'orthorhombic'
loop_
_space_group_symop_operation_xyz
x,y,z
1/2-x,-y,z
1/2+x,-y,-z
-x,y,-z
-x,-y,-z
1/2+x,y,-z
1/2-x,y,z
x,-y,z
loop_
_atom_site_type_symbol
_atom_site_label
_atom_site_fract_x
_atom_site_fract_y
_atom_site_fract_z
Si Si1 0.917943 0.786170 0.600634
Si Si2 0.845890 0.348749 0.757646
Si Si3 0.022265 0.581204 0.822737
Si Si4 0.649610 0.706226 0.101998
Si Si5 0.537777 0.147751 0.152573
Si Si6 0.851356 0.919246 0.402481
O O1 0.857491 0.718926 0.644980
O O2 0.873345 0.852534 0.512327
O O3 0.000000 0.761259 0.500000
O O4 0.959116 0.818805 0.751010
O O5 0.750000 0.382967 0.740254
O O6 0.931278 0.398990 0.743381
O O7 0.850505 0.317351 0.927570
O O8 0.053290 0.500000 0.780482
O O9 0.093515 0.645320 0.809052
O O10 0.000000 0.579516 0.000000
O O11 0.750000 0.710024 0.151385
O O12 0.601441 0.783636 0.118216
O O13 0.589532 0.092480 0.257534
O O14 0.500000 0.116872 0.000000
O O15 0.750000 0.915544 0.362446
O O16 0.868858 0.000000 0.468455
#
# Coordination Sequence:
#
# PCOD9399420 Si02
#       6
#     8   8   8   8   8   8
#     4  10  20  34  59  81 111 150 194 239 284 340
#     4  10  18  31  53  81 111 145 193 237 277 333
#     4   9  17  30  48  77 116 148 180 230 291 342
#     4  10  18  30  53  82 112 147 187 234 287 336
#     4  11  19  35  59  84 114 144 188 241 290 340
#     4  10  23  41  57  81 116 151 190 236 288 348
#
# _framework density 19.111393
#
# number of rings (size 3 to 8) (size 9 to 14) (size 15 to 20)
#    0.000    2.000    3.333    1.500    0.000    4.000 
#    0.000    3.333    0.000    2.500    0.000    0.000 
#    0.000    0.000    0.000    0.000    0.000    0.000 
#
# Total GULP energy -267787.233399 kJ/mol
# GULP energy per Si atom -5578.900696 kJ/mol
# Density = 1.906789 g / cm^3
# Si number density = 19.111393 Si / 1000 Ang^3
#
#
#
# Elastic Constant Matrix: (Units=GPa)
#
#
# Indices 1 2 3 4 5 6 
#
# 1 94.3043 31.5900 13.0939 0.0000 0.0000 0.0000
# 2 31.5900 74.4654 1.0712 0.0000 0.0000 0.0000
# 3 13.0939 1.0712 47.4843 0.0000 0.0000 0.0000
# 4 0.0000 0.0000 0.0000 13.4106 0.0000 0.0000
# 5 0.0000 0.0000 0.0000 0.0000 16.8313 0.0000
# 6 0.0000 0.0000 0.0000 0.0000 0.0000 16.3183
#
#
#
# Elastic Compliance Matrix: (Units=1/GPa)
#
#
# Indices 1 2 3 4 5 6 
#
# 1 0.012897 -0.005422 -0.003434 0.000000 0.000000 0.000000
# 2 -0.005422 0.015713 0.001141 0.000000 0.000000 0.000000
# 3 -0.003434 0.001141 0.021981 0.000000 0.000000 0.000000
# 4 0.000000 0.000000 0.000000 0.074568 0.000000 0.000000
# 5 0.000000 0.000000 0.000000 0.000000 0.059413 0.000000
# 6 0.000000 0.000000 0.000000 0.000000 0.000000 0.061281
#
#
# Mechanical properties :
#
#
# Convention : Reuss Voigt Hill
#
# Bulk Modulus (GPa) = 28.44142 34.19603 31.31872
# Shear Modulus (GPa) = 18.31481 20.67863 19.49672
#
# Velocity S-wave (km/s) = 3.09903 3.29295 3.19746
# Velocity P-wave (km/s) = 5.26494 5.69121 5.48222
#
# Compressibility (1/GPa) = 0.03515999
#
# Stress axis : x y z
#
# Youngs Moduli (GPa) = 77.53757 63.64272 45.49422
#
# Poissons Ratio (x) = 0.34506 0.15623
# Poissons Ratio (y) = 0.42039 -0.05189
# Poissons Ratio (z) = 0.26627 -0.07259
#
# Static dielectric constant tensor:
#      x y z
#    x 1.667470 0.000000 0.000000 
#    y 0.000000 1.669740 0.000000 
#    z 0.000000 0.000000 1.672430 
# 
# From -- ./inp_files/8263.got.cif
#   From: 2010.05.17/outbox.cif.g08.bks.cpg/sg51_5_cif.got.tgz:8263.got - 2010.06.03 11:52:47.
