data_PCOD9399521
_publ_section_title
;
Structure prediction by ZEFSAII (Michael W. Deem and Ramdas Pophale) SiO2 
 PCOD9399521
Probable space group: P M M A
;
_chemical_formula_sum "Si O2"
_cell_formula_units_Z 48
_cell_length_a 18.376333
_cell_length_b 17.831973
_cell_length_c 8.447040
_cell_angle_alpha 90.000000
_cell_angle_beta 90.000000
_cell_angle_gamma 90.000000
_cell_volume 2767.979063
_symmetry_space_group_name_H-M "P M M A"
_symmetry_group_IT_number 51
_symmetry_cell_setting 'orthorhombic'
loop_
_space_group_symop_operation_xyz
x,y,z
1/2-x,-y,z
1/2+x,-y,-z
-x,y,-z
-x,-y,-z
1/2+x,y,-z
1/2-x,y,z
x,-y,z
loop_
_atom_site_type_symbol
_atom_site_label
_atom_site_fract_x
_atom_site_fract_y
_atom_site_fract_z
Si Si1 0.053719 0.307473 0.855352
Si Si2 0.163034 0.721090 0.419230
Si Si3 0.561090 0.174746 0.372467
Si Si4 0.335583 0.226156 0.067459
Si Si5 0.163837 0.912095 0.863143
Si Si6 0.081141 0.414362 0.571119
O O1 0.126085 0.276449 0.936677
O O2 0.026854 0.237602 0.746063
O O3 0.072083 0.376514 0.742756
O O4 0.000000 0.324383 0.000000
O O5 0.250000 0.722749 0.438256
O O6 0.122968 0.779047 0.534479
O O7 0.143975 0.746873 0.241780
O O8 0.500000 0.149706 0.500000
O O9 0.631386 0.360178 0.534617
O O10 0.605432 0.113887 0.269463
O O11 0.250000 0.235698 0.056299
O O12 0.351420 0.140388 0.016086
O O13 0.250000 0.899135 0.818064
O O14 0.156226 0.000000 0.895707
O O15 0.106871 0.500000 0.577094
O O16 0.000000 0.413161 0.500000
#
# Coordination Sequence:
#
# PCOD9399521 Si02
#       6
#     8   8   8   8   8   8
#     4  10  18  31  52  74  98 130 169 207 247 294
#     4  10  19  34  55  76  99 131 171 209 248 297
#     4  10  19  31  51  76 103 134 172 212 251 299
#     4   9  18  32  52  74  96 128 169 210 250 297
#     4   9  18  33  51  73 103 136 170 211 259 306
#     4  10  21  35  51  74 103 132 163 203 252 301
#
# _framework density 17.341173000000001
#
# number of rings (size 3 to 8) (size 9 to 14) (size 15 to 20)
#    0.000    2.333    0.000    4.500    0.000    5.000 
#    0.000    1.667    0.000   21.000    0.000    0.000 
#    0.000    0.000    0.000    0.000    0.000    0.000 
#
# Total GULP energy -267488.220096 kJ/mol
# GULP energy per Si atom -5572.671252 kJ/mol
# Density = 1.730170 g / cm^3
# Si number density = 17.341173 Si / 1000 Ang^3
#
#
#
# Elastic Constant Matrix: (Units=GPa)
#
#
# Indices 1 2 3 4 5 6 
#
# 1 70.9539 45.1983 51.9742 0.0000 0.0000 0.0000
# 2 45.1983 130.5346 72.1275 0.0000 0.0000 0.0000
# 3 51.9742 72.1275 120.2605 0.0000 0.0000 0.0000
# 4 0.0000 0.0000 0.0000 24.6061 0.0000 0.0000
# 5 0.0000 0.0000 0.0000 0.0000 34.1997 0.0000
# 6 0.0000 0.0000 0.0000 0.0000 0.0000 17.1033
#
#
#
# Elastic Compliance Matrix: (Units=1/GPa)
#
#
# Indices 1 2 3 4 5 6 
#
# 1 0.021627 -0.003476 -0.007262 0.000000 0.000000 0.000000
# 2 -0.003476 0.012017 -0.005705 0.000000 0.000000 0.000000
# 3 -0.007262 -0.005705 0.014875 0.000000 0.000000 0.000000
# 4 0.000000 0.000000 0.000000 0.040640 0.000000 0.000000
# 5 0.000000 0.000000 0.000000 0.000000 0.029240 0.000000
# 6 0.000000 0.000000 0.000000 0.000000 0.000000 0.058468
#
#
# Mechanical properties :
#
#
# Convention : Reuss Voigt Hill
#
# Bulk Modulus (GPa) = 63.96517 73.37211 68.66864
# Shear Modulus (GPa) = 23.25955 25.34508 24.30232
#
# Velocity S-wave (km/s) = 3.66634 3.82718 3.74762
# Velocity P-wave (km/s) = 7.40872 7.86972 7.64269
#
# Compressibility (1/GPa) = 0.01563351
#
# Stress axis : x y z
#
# Youngs Moduli (GPa) = 46.23745 83.21827 67.22472
#
# Poissons Ratio (x) = 0.28925 0.48821
# Poissons Ratio (y) = 0.16071 0.38351
# Poissons Ratio (z) = 0.33579 0.47475
#
# Static dielectric constant tensor:
#      x y z
#    x 1.603520 0.000000 0.000000 
#    y 0.000000 1.574710 0.000000 
#    z 0.000000 0.000000 1.607610 
# 
# From -- ./inp_files/9634.got.cif
#   From: 2010.05.17/outbox.cif.g08.bks.cpg/sg51_5_cif.got.tgz:9634.got - 2010.06.03 11:52:47.
