data_PCOD9399130
_publ_section_title
;
Structure prediction by ZEFSAII (Michael W. Deem and Ramdas Pophale) SiO2 
 PCOD9399130
Probable space group: P M M A
;
_chemical_formula_sum "Si O2"
_cell_formula_units_Z 40
_cell_length_a 20.418751
_cell_length_b 7.869151
_cell_length_c 14.668309
_cell_angle_alpha 90.000000
_cell_angle_beta 90.000000
_cell_angle_gamma 90.000000
_cell_volume 2356.877998
_symmetry_space_group_name_H-M "P M M A"
_symmetry_group_IT_number 51
_symmetry_cell_setting 'orthorhombic'
loop_
_space_group_symop_operation_xyz
x,y,z
1/2-x,-y,z
1/2+x,-y,-z
-x,y,-z
-x,-y,-z
1/2+x,y,-z
1/2-x,y,z
x,-y,z
loop_
_atom_site_type_symbol
_atom_site_label
_atom_site_fract_x
_atom_site_fract_y
_atom_site_fract_z
Si Si1 0.068713 0.705962 0.546555
Si Si2 0.090350 0.500000 0.085645
Si Si3 0.896519 0.192308 0.785901
Si Si4 0.567122 0.500000 0.120304
Si Si5 0.948327 0.192111 0.248241
Si Si6 0.325114 0.705938 0.397571
O O1 0.068465 0.500000 0.553542
O O2 0.073139 0.777618 0.648023
O O3 0.127459 0.758163 0.480017
O O4 0.000000 0.756638 0.500000
O O5 0.116178 0.333419 0.137540
O O6 0.011326 0.500000 0.100412
O O7 0.101513 0.500000 0.977708
O O8 0.852526 0.223378 0.697267
O O9 0.972485 0.212477 0.754994
O O10 0.888233 0.000000 0.819526
O O11 0.580301 0.666505 0.180772
O O12 0.933168 0.000000 0.219473
O O13 0.250000 0.755227 0.412286
O O14 0.328494 0.500000 0.391806
#
# Coordination Sequence:
#
# PCOD9399130 Si02
#       6
#     8   4   8   4   8   8
#     4  10  18  29  51  74 100 140 178 210 252 308
#     4   9  18  32  50  69 101 134 164 206 258 308
#     4  10  19  31  50  74 100 135 172 207 255 310
#     4   9  18  32  48  72 102 133 164 208 260 301
#     4  10  19  30  49  76 104 134 173 211 252 305
#     4  10  20  33  50  75 107 139 173 213 256 307
#
# _framework density 16.971605
#
# number of rings (size 3 to 8) (size 9 to 14) (size 15 to 20)
#    0.000    2.200    4.000    0.000    0.000    2.400 
#    0.000    4.000    0.000    0.000    0.000    2.800 
#    0.000    0.000    0.000    0.000    0.000    0.000 
#
# Total GULP energy -223161.193861 kJ/mol
# GULP energy per Si atom -5579.029847 kJ/mol
# Density = 1.693298 g / cm^3
# Si number density = 16.971605 Si / 1000 Ang^3
#
#
#
# Elastic Constant Matrix: (Units=GPa)
#
#
# Indices 1 2 3 4 5 6 
#
# 1 59.3628 44.4719 43.7360 0.0000 0.0000 0.0000
# 2 44.4719 103.2784 79.8456 0.0000 0.0000 0.0000
# 3 43.7360 79.8456 151.8886 0.0000 0.0000 0.0000
# 4 0.0000 0.0000 0.0000 -0.8093 0.0000 0.0000
# 5 0.0000 0.0000 0.0000 0.0000 13.6022 0.0000
# 6 0.0000 0.0000 0.0000 0.0000 0.0000 8.0417
#
#
#
# Elastic Compliance Matrix: (Units=1/GPa)
#
#
# Indices 1 2 3 4 5 6 
#
# 1 0.025483 -0.008929 -0.002644 0.000000 0.000000 0.000000
# 2 -0.008929 0.019441 -0.007649 0.000000 0.000000 0.000000
# 3 -0.002644 -0.007649 0.011366 0.000000 0.000000 0.000000
# 4 0.000000 0.000000 0.000000 -1.235706 0.000000 0.000000
# 5 0.000000 0.000000 0.000000 0.000000 0.073518 0.000000
# 6 0.000000 0.000000 0.000000 0.000000 0.000000 0.124353
#
#
# Mechanical properties :
#
#
# Convention : Reuss Voigt Hill
#
# Bulk Modulus (GPa) = 56.03396 72.29299 64.16348
# Shear Modulus (GPa) = -5.33529 13.93199 4.29835
#
# Velocity S-wave (km/s) = -1.77496 2.86824 1.59316
# Velocity P-wave (km/s) = 5.37469 7.32516 6.42438
#
# Compressibility (1/GPa) = 0.01784632
#
# Stress axis : x y z
#
# Youngs Moduli (GPa) = 39.24258 51.43900 87.98306
#
# Poissons Ratio (x) = 0.45929 0.23262
# Poissons Ratio (y) = 0.35039 0.67294
# Poissons Ratio (z) = 0.10375 0.39343
#
# Static dielectric constant tensor:
#      x y z
#    x 1.551890 0.000000 0.000000 
#    y 0.000000 1.605610 0.000000 
#    z 0.000000 0.000000 1.541430 
# 
# From -- ./inp_files/17961.got.cif
#   From: 2010.05.17/outbox.cif.g08.bks.cpg/sg51_9_cif.got.tgz:17961.got - 2010.06.03 11:52:47.
