data_PCOD9399656
_publ_section_title
;
Structure prediction by ZEFSAII (Michael W. Deem and Ramdas Pophale) SiO2 
 PCOD9399656
Probable space group: P M M A
;
_chemical_formula_sum "Si O2"
_cell_formula_units_Z 48
_cell_length_a 32.276974
_cell_length_b 9.031116
_cell_length_c 9.229745
_cell_angle_alpha 90.000000
_cell_angle_beta 90.000000
_cell_angle_gamma 90.000000
_cell_volume 2690.443867
_symmetry_space_group_name_H-M "P M M A"
_symmetry_group_IT_number 51
_symmetry_cell_setting 'orthorhombic'
loop_
_space_group_symop_operation_xyz
x,y,z
1/2-x,-y,z
1/2+x,-y,-z
-x,y,-z
-x,-y,-z
1/2+x,y,-z
1/2-x,y,z
x,-y,z
loop_
_atom_site_type_symbol
_atom_site_label
_atom_site_fract_x
_atom_site_fract_y
_atom_site_fract_z
Si Si1 0.327001 0.320910 0.174040
Si Si2 0.414489 0.670143 0.833257
Si Si3 0.497919 0.830292 0.823250
Si Si4 0.330280 0.178279 0.856230
Si Si5 0.750000 0.820895 0.660619
Si Si6 0.750000 0.821016 0.325228
Si Si7 0.419165 0.329928 0.186136
O O1 0.323787 0.500000 0.168672
O O2 0.324623 0.254287 0.012497
O O3 0.290494 0.247998 0.264961
O O4 0.373098 0.283907 0.233661
O O5 0.409027 0.500000 0.789658
O O6 0.457945 0.735481 0.779363
O O7 0.374312 0.766352 0.794978
O O8 0.417103 0.673102 0.009742
O O9 0.541718 0.767376 0.769364
O O10 0.492313 0.000000 0.781096
O O11 0.500000 0.825058 0.000000
O O12 0.330646 0.000000 0.871761
O O13 0.291674 0.225109 0.757132
O O14 0.750000 0.778306 0.492136
O O15 0.750000 0.000000 0.675045
O O16 0.750000 0.000000 0.321247
O O17 0.426396 0.500000 0.228648
#
# Coordination Sequence:
#
# PCOD9399656 Si02
#       7
#     8   8   8   8   4   4   8
#     4  10  20  34  51  75 103 130 163 203 247 294
#     4   9  16  26  40  63  96 130 161 196 241 288
#     4   9  15  22  36  61  92 125 161 197 233 280
#     4  10  18  32  53  75  99 130 167 205 246 292
#     4  11  22  37  54  72  96 129 166 203 246 294
#     4   9  21  37  52  72  98 127 162 205 250 294
#     4   8  15  26  40  60  92 128 156 190 238 286
#
# _framework density 17.840921999999999
#
# number of rings (size 3 to 8) (size 9 to 14) (size 15 to 20)
#    0.000    2.667    0.000    3.750    0.000    7.333 
#    0.000    4.583    0.000    0.000    0.000    1.167 
#    0.000    9.333    0.000    0.000    0.000    0.000 
#
# Total GULP energy -267548.835355 kJ/mol
# GULP energy per Si atom -5573.934070 kJ/mol
# Density = 1.780032 g / cm^3
# Si number density = 17.840922 Si / 1000 Ang^3
#
#
#
# Elastic Constant Matrix: (Units=GPa)
#
#
# Indices 1 2 3 4 5 6 
#
# 1 177.5862 73.4985 48.3609 0.0000 0.0000 0.0000
# 2 73.4985 92.0367 26.2445 0.0000 0.0000 0.0000
# 3 48.3609 26.2445 35.8765 0.0000 0.0000 0.0000
# 4 0.0000 0.0000 0.0000 3.4618 0.0000 0.0000
# 5 0.0000 0.0000 0.0000 0.0000 -4.9619 0.0000
# 6 0.0000 0.0000 0.0000 0.0000 0.0000 37.0748
#
#
#
# Elastic Compliance Matrix: (Units=1/GPa)
#
#
# Indices 1 2 3 4 5 6 
#
# 1 0.010817 -0.005661 -0.010440 0.000000 0.000000 0.000000
# 2 -0.005661 0.016692 -0.004579 0.000000 0.000000 0.000000
# 3 -0.010440 -0.004579 0.045296 0.000000 0.000000 0.000000
# 4 0.000000 0.000000 0.000000 0.288864 0.000000 0.000000
# 5 0.000000 0.000000 0.000000 0.000000 -0.201537 0.000000
# 6 0.000000 0.000000 0.000000 0.000000 0.000000 0.026972
#
#
# Mechanical properties :
#
#
# Convention : Reuss Voigt Hill
#
# Bulk Modulus (GPa) = 31.80233 66.85637 49.32935
# Shear Modulus (GPa) = 20.92508 17.60799 19.26654
#
# Velocity S-wave (km/s) = 3.42843 3.14497 3.28976
# Velocity P-wave (km/s) = 5.79106 7.12340 6.49150
#
# Compressibility (1/GPa) = 0.03144424
#
# Stress axis : x y z
#
# Youngs Moduli (GPa) = 92.44502 59.90862 22.07699
#
# Poissons Ratio (x) = 0.33917 0.23048
# Poissons Ratio (y) = 0.52337 0.10109
# Poissons Ratio (z) = 0.96512 0.27433
#
# Static dielectric constant tensor:
#      x y z
#    x 1.623030 0.000000 0.000000 
#    y 0.000000 1.598240 0.000000 
#    z 0.000000 0.000000 1.584120 
# 
# From -- ./inp_files/12937.got.cif
#   From: 2010.05.17/outbox.cif.g08.bks.cpg/sg51_7_cif.got.tgz:12937.got - 2010.06.03 11:52:47.
