data_PCOD9399355
_publ_section_title
;
Structure prediction by ZEFSAII (Michael W. Deem and Ramdas Pophale) SiO2 
 PCOD9399355
Probable space group: P M M A
;
_chemical_formula_sum "Si O2"
_cell_formula_units_Z 48
_cell_length_a 19.573374
_cell_length_b 7.334747
_cell_length_c 14.031329
_cell_angle_alpha 90.000000
_cell_angle_beta 90.000000
_cell_angle_gamma 90.000000
_cell_volume 2014.418218
_symmetry_space_group_name_H-M "P M M A"
_symmetry_group_IT_number 51
_symmetry_cell_setting 'orthorhombic'
loop_
_space_group_symop_operation_xyz
x,y,z
1/2-x,-y,z
1/2+x,-y,-z
-x,y,-z
-x,-y,-z
1/2+x,y,-z
1/2-x,y,z
x,-y,z
loop_
_atom_site_type_symbol
_atom_site_label
_atom_site_fract_x
_atom_site_fract_y
_atom_site_fract_z
Si Si1 0.464222 0.708710 0.592569
Si Si2 0.328153 0.779697 0.495274
Si Si3 0.170887 0.780099 0.279126
Si Si4 0.672274 0.722424 0.080945
Si Si5 0.545748 0.276758 0.197848
Si Si6 0.083738 0.291894 0.095315
O O1 0.500000 0.794310 0.500000
O O2 0.488960 0.500000 0.597735
O O3 0.383872 0.710295 0.568680
O O4 0.474393 0.788837 0.697027
O O5 0.250000 0.722914 0.513018
O O6 0.347366 0.723974 0.386947
O O7 0.329396 0.000000 0.497492
O O8 0.250000 0.727923 0.262886
O O9 0.123493 0.708361 0.195784
O O10 0.167610 0.000000 0.276230
O O11 0.750000 0.786145 0.087345
O O12 0.675147 0.500000 0.078661
O O13 0.621785 0.774316 0.166592
O O14 0.633728 0.785531 0.984781
O O15 0.543438 0.500000 0.199752
O O16 0.490465 0.213927 0.120010
O O17 0.071415 0.500000 0.064612
#
# Coordination Sequence:
#
# PCOD9399355 Si02
#       6
#     8   8   8   8   8   8
#     4  10  20  33  50  75 104 133 169 211 252 297
#     4   9  19  35  52  71  98 133 172 211 252 302
#     4   9  18  32  49  71 101 134 164 199 250 304
#     4   9  17  29  47  73 101 129 165 203 240 292
#     4   9  18  31  47  70 103 135 159 197 254 301
#     4  10  18  30  51  76  99 125 162 207 247 286
#
# _framework density 23.828220999999999
#
# number of rings (size 3 to 8) (size 9 to 14) (size 15 to 20)
#    0.000    2.667    0.000    3.000    0.000    6.333 
#    0.000    4.167    0.000    3.000    0.000    2.333 
#    0.000    0.000    0.000    0.000    0.000    0.000 
#
# Total GULP energy -268306.705669 kJ/mol
# GULP energy per Si atom -5589.723035 kJ/mol
# Density = 2.377399 g / cm^3
# Si number density = 23.828221 Si / 1000 Ang^3
#
#
#
# Elastic Constant Matrix: (Units=GPa)
#
#
# Indices 1 2 3 4 5 6 
#
# 1 136.0889 5.4136 58.3923 0.0000 0.0000 0.0000
# 2 5.4136 96.0050 2.2010 0.0000 0.0000 0.0000
# 3 58.3923 2.2010 109.6136 0.0000 0.0000 0.0000
# 4 0.0000 0.0000 0.0000 113.2912 0.0000 0.0000
# 5 0.0000 0.0000 0.0000 0.0000 43.1909 0.0000
# 6 0.0000 0.0000 0.0000 0.0000 0.0000 39.3856
#
#
#
# Elastic Compliance Matrix: (Units=1/GPa)
#
#
# Indices 1 2 3 4 5 6 
#
# 1 0.009542 -0.000422 -0.005075 0.000000 0.000000 0.000000
# 2 -0.000422 0.010440 0.000015 0.000000 0.000000 0.000000
# 3 -0.005075 0.000015 0.011826 0.000000 0.000000 0.000000
# 4 0.000000 0.000000 0.000000 0.008827 0.000000 0.000000
# 5 0.000000 0.000000 0.000000 0.000000 0.023153 0.000000
# 6 0.000000 0.000000 0.000000 0.000000 0.000000 0.025390
#
#
# Mechanical properties :
#
#
# Convention : Reuss Voigt Hill
#
# Bulk Modulus (GPa) = 47.97330 52.63569 50.30449
# Shear Modulus (GPa) = 46.68997 57.55357 52.12177
#
# Velocity S-wave (km/s) = 4.43136 4.91996 4.68204
# Velocity P-wave (km/s) = 6.80876 7.37646 7.09829
#
# Compressibility (1/GPa) = 0.02084493
#
# Stress axis : x y z
#
# Youngs Moduli (GPa) = 104.79529 95.78945 84.55879
#
# Poissons Ratio (x) = 0.04040 0.42913
# Poissons Ratio (y) = 0.04420 -0.00127
# Poissons Ratio (z) = 0.53182 -0.00144
#
# Static dielectric constant tensor:
#      x y z
#    x 1.879840 0.000000 0.000000 
#    y 0.000000 1.902160 0.000000 
#    z 0.000000 0.000000 1.873600 
# 
# From -- ./inp_files/24732.got.cif
#   From: 2010.05.17/outbox.cif.g08.bks.cpg/sg51_13_cif.got.tgz:24732.got - 2010.06.03 11:52:47.
