data_PCOD9399016
_publ_section_title
;
Structure prediction by ZEFSAII (Michael W. Deem and Ramdas Pophale) SiO2 
 PCOD9399016
Probable space group: P M M A
;
_chemical_formula_sum "Si O2"
_cell_formula_units_Z 64
_cell_length_a 7.701413
_cell_length_b 21.011520
_cell_length_c 20.389666
_cell_angle_alpha 90.000000
_cell_angle_beta 90.000000
_cell_angle_gamma 90.000000
_cell_volume 3299.422992
_symmetry_space_group_name_H-M "P M M A"
_symmetry_group_IT_number 51
_symmetry_cell_setting 'orthorhombic'
loop_
_space_group_symop_operation_xyz
x,y,z
1/2-x,-y,z
1/2+x,-y,-z
-x,y,-z
-x,-y,-z
1/2+x,y,-z
1/2-x,y,z
x,-y,z
loop_
_atom_site_type_symbol
_atom_site_label
_atom_site_fract_x
_atom_site_fract_y
_atom_site_fract_z
Si Si1 0.959771 0.396978 0.254615
Si Si2 0.542385 0.707673 0.926656
Si Si3 0.455153 0.432333 0.399912
Si Si4 0.040736 0.927474 0.925841
Si Si5 0.957097 0.254947 0.287436
Si Si6 0.455589 0.292723 0.429067
Si Si7 0.047036 0.179894 0.830099
Si Si8 0.045829 0.568560 0.108679
O O1 0.750000 0.399448 0.253593
O O2 0.020245 0.323608 0.261346
O O3 0.022912 0.429274 0.321295
O O4 0.027011 0.426055 0.187327
O O5 0.750000 0.707043 0.916955
O O6 0.465273 0.756649 0.874513
O O7 0.473328 0.635290 0.918175
O O8 0.500000 0.729274 0.000000
O O9 0.250000 0.432626 0.415132
O O10 0.530497 0.500000 0.422995
O O11 0.531058 0.365108 0.424586
O O12 0.250000 0.928900 0.921004
O O13 0.970962 0.878027 0.872217
O O14 0.976702 0.000000 0.917701
O O15 0.000000 0.906507 0.000000
O O16 0.750000 0.256012 0.278397
O O17 0.027737 0.199534 0.240675
O O18 0.988378 0.254033 0.364994
O O19 0.500000 0.265518 0.500000
O O20 0.250000 0.298544 0.424025
O O21 0.250000 0.164322 0.820582
O O22 0.250000 0.567961 0.092093
O O23 0.970947 0.500000 0.087486
#
# Coordination Sequence:
#
# PCOD9399016 Si02
#       8
#     8   8   8   8   8   8   8   8
#     4  10  18  29  46  68  90 113 148 196 246 295
#     4  11  23  36  51  69  92 122 161 206 253 303
#     4   9  18  31  45  62  87 119 153 190 238 298
#     4   9  18  32  51  77 110 146 178 205 239 286
#     4   9  18  32  50  71  96 124 157 200 244 287
#     4  10  20  33  49  68  93 125 159 198 246 299
#     4  10  19  34  55  77 103 133 167 207 246 286
#     4  10  21  35  48  62  84 116 153 198 254 309
#
# _framework density 19.397331000000001
#
# number of rings (size 3 to 8) (size 9 to 14) (size 15 to 20)
#    0.000    2.250    1.250    1.875    0.000    6.000 
#    0.000    0.000    0.000    0.000    0.000    0.000 
#    0.000    0.500    0.000    0.875    0.000    1.250 
#
# Total GULP energy -357188.731640 kJ/mol
# GULP energy per Si atom -5581.073932 kJ/mol
# Density = 1.935318 g / cm^3
# Si number density = 19.397331 Si / 1000 Ang^3
#
#
#
# Elastic Constant Matrix: (Units=GPa)
#
#
# Indices 1 2 3 4 5 6 
#
# 1 37.5410 4.0002 -10.6938 0.0000 0.0000 0.0000
# 2 4.0002 88.1820 53.0794 0.0000 0.0000 0.0000
# 3 -10.6938 53.0794 122.4840 0.0000 0.0000 0.0000
# 4 0.0000 0.0000 0.0000 478.9989 0.0000 0.0000
# 5 0.0000 0.0000 0.0000 0.0000 15.7996 0.0000
# 6 0.0000 0.0000 0.0000 0.0000 0.0000 9.9828
#
#
#
# Elastic Compliance Matrix: (Units=1/GPa)
#
#
# Indices 1 2 3 4 5 6 
#
# 1 0.028198 -0.003735 0.004081 0.000000 0.000000 0.000000
# 2 -0.003735 0.015837 -0.007189 0.000000 0.000000 0.000000
# 3 0.004081 -0.007189 0.011636 0.000000 0.000000 0.000000
# 4 0.000000 0.000000 0.000000 0.002088 0.000000 0.000000
# 5 0.000000 0.000000 0.000000 0.000000 0.063293 0.000000
# 6 0.000000 0.000000 0.000000 0.000000 0.000000 0.100172
#
#
# Mechanical properties :
#
#
# Convention : Reuss Voigt Hill
#
# Bulk Modulus (GPa) = 23.81908 37.88652 30.85280
# Shear Modulus (GPa) = 20.08787 114.41101 67.24944
#
# Velocity S-wave (km/s) = 3.22156 7.68836 5.89446
# Velocity P-wave (km/s) = 5.11314 9.91911 7.89091
#
# Compressibility (1/GPa) = 0.04198315
#
# Stress axis : x y z
#
# Youngs Moduli (GPa) = 35.46356 63.14311 85.93934
#
# Poissons Ratio (x) = 0.23587 -0.35069
# Poissons Ratio (y) = 0.13247 0.61784
# Poissons Ratio (z) = -0.14472 0.45395
#
# Static dielectric constant tensor:
#      x y z
#    x 1.715410 0.000000 0.000000 
#    y 0.000000 1.707930 0.000000 
#    z 0.000000 0.000000 1.877610 
# 
# From -- ./inp_files/32589.got.cif
#   From: 2010.05.17/outbox.cif.g08.bks.cpg/sg51_17_cif.got.tgz:32589.got - 2010.06.03 11:52:47.
