data_PCOD9399500
_publ_section_title
;
Structure prediction by ZEFSAII (Michael W. Deem and Ramdas Pophale) SiO2 
 PCOD9399500
Probable space group: P M M A
;
_chemical_formula_sum "Si O2"
_cell_formula_units_Z 48
_cell_length_a 8.313738
_cell_length_b 21.214893
_cell_length_c 14.952297
_cell_angle_alpha 90.000000
_cell_angle_beta 90.000000
_cell_angle_gamma 90.000000
_cell_volume 2637.212312
_symmetry_space_group_name_H-M "P M M A"
_symmetry_group_IT_number 51
_symmetry_cell_setting 'orthorhombic'
loop_
_space_group_symop_operation_xyz
x,y,z
1/2-x,-y,z
1/2+x,-y,-z
-x,y,-z
-x,-y,-z
1/2+x,y,-z
1/2-x,y,z
x,-y,z
loop_
_atom_site_type_symbol
_atom_site_label
_atom_site_fract_x
_atom_site_fract_y
_atom_site_fract_z
Si Si1 0.553589 0.069380 0.788210
Si Si2 0.443114 0.808233 0.101901
Si Si3 0.555714 0.311474 0.216210
Si Si4 0.555502 0.428349 0.100261
Si Si5 0.442729 0.739417 0.595940
Si Si6 0.941966 0.115889 0.596134
O O1 0.750000 0.070307 0.788537
O O2 0.500105 0.127618 0.849236
O O3 0.501831 0.080719 0.685502
O O4 0.501982 0.000000 0.818858
O O5 0.250000 0.807395 0.104102
O O6 0.505020 0.748058 0.156566
O O7 0.500000 0.806003 0.000000
O O8 0.750000 0.313504 0.217669
O O9 0.498054 0.375780 0.169890
O O10 0.500493 0.299310 0.317694
O O11 0.750000 0.428259 0.100993
O O12 0.501301 0.500000 0.119565
O O13 0.500000 0.412022 0.000000
O O14 0.500000 0.714657 0.500000
O O15 0.250000 0.741468 0.595907
O O16 0.504355 0.811256 0.604127
O O17 0.750000 0.114162 0.595314
O O18 0.000000 0.091406 0.500000
#
# Coordination Sequence:
#
# PCOD9399500 Si02
#       6
#     8   8   8   8   8   8
#     4   9  19  35  52  70  97 133 169 206 253 306
#     4  11  22  36  54  75 100 131 169 212 257 302
#     4  10  20  34  54  79 105 134 169 210 251 296
#     4   9  18  33  52  76 106 138 170 204 247 297
#     4  10  19  31  50  75 104 132 165 206 250 298
#     4  10  18  31  51  74  99 129 164 203 253 304
#
# _framework density 18.201038
#
# number of rings (size 3 to 8) (size 9 to 14) (size 15 to 20)
#    0.000    2.167    1.667    3.000    0.000    3.333 
#    0.000    0.000    0.000    7.500    0.000    0.000 
#    0.000    0.000    0.000    0.000    0.000    0.667 
#
# Total GULP energy -267866.769673 kJ/mol
# GULP energy per Si atom -5580.557702 kJ/mol
# Density = 1.815961 g / cm^3
# Si number density = 18.201038 Si / 1000 Ang^3
#
#
#
# Elastic Constant Matrix: (Units=GPa)
#
#
# Indices 1 2 3 4 5 6 
#
# 1 13.2723 4.0134 7.4618 0.0000 0.0000 0.0000
# 2 4.0134 107.1215 74.3469 0.0000 0.0000 0.0000
# 3 7.4618 74.3469 145.6615 0.0000 0.0000 0.0000
# 4 0.0000 0.0000 0.0000 24.3019 0.0000 0.0000
# 5 0.0000 0.0000 0.0000 0.0000 23.4939 0.0000
# 6 0.0000 0.0000 0.0000 0.0000 0.0000 90.2648
#
#
#
# Elastic Compliance Matrix: (Units=1/GPa)
#
#
# Indices 1 2 3 4 5 6 
#
# 1 0.077583 -0.000230 -0.003857 0.000000 0.000000 0.000000
# 2 -0.000230 0.014457 -0.007367 0.000000 0.000000 0.000000
# 3 -0.003857 -0.007367 0.010823 0.000000 0.000000 0.000000
# 4 0.000000 0.000000 0.000000 0.041149 0.000000 0.000000
# 5 0.000000 0.000000 0.000000 0.000000 0.042564 0.000000
# 6 0.000000 0.000000 0.000000 0.000000 0.000000 0.011079
#
#
# Mechanical properties :
#
#
# Convention : Reuss Voigt Hill
#
# Bulk Modulus (GPa) = 12.50706 48.63330 30.57018
# Shear Modulus (GPa) = 20.22535 39.62765 29.92650
#
# Velocity S-wave (km/s) = 3.33711 4.67113 4.05930
# Velocity P-wave (km/s) = 4.66208 7.47467 6.22919
#
# Compressibility (1/GPa) = 0.07995483
#
# Stress axis : x y z
#
# Youngs Moduli (GPa) = 12.88945 69.17090 92.39498
#
# Poissons Ratio (x) = 0.01589 0.35638
# Poissons Ratio (y) = 0.00296 0.68069
# Poissons Ratio (z) = 0.04972 0.50959
#
# Static dielectric constant tensor:
#      x y z
#    x 1.635860 0.000000 0.000000 
#    y 0.000000 1.619490 0.000000 
#    z 0.000000 0.000000 1.628420 
# 
# From -- ./inp_files/21392.got.cif
#   From: 2010.05.17/outbox.cif.g08.bks.cpg/sg51_11_cif.got.tgz:21392.got - 2010.06.03 11:52:47.
