data_PCOD9399683
_publ_section_title
;
Structure prediction by ZEFSAII (Michael W. Deem and Ramdas Pophale) SiO2 
 PCOD9399683
Probable space group: P M M A
;
_chemical_formula_sum "Si O2"
_cell_formula_units_Z 44
_cell_length_a 9.145332
_cell_length_b 9.889964
_cell_length_c 30.307849
_cell_angle_alpha 90.000000
_cell_angle_beta 90.000000
_cell_angle_gamma 90.000000
_cell_volume 2741.254147
_symmetry_space_group_name_H-M "P M M A"
_symmetry_group_IT_number 51
_symmetry_cell_setting 'orthorhombic'
loop_
_space_group_symop_operation_xyz
x,y,z
1/2-x,-y,z
1/2+x,-y,-z
-x,y,-z
-x,-y,-z
1/2+x,y,-z
1/2-x,y,z
x,-y,z
loop_
_atom_site_type_symbol
_atom_site_label
_atom_site_fract_x
_atom_site_fract_y
_atom_site_fract_z
Si Si1 0.075210 0.000000 0.547491
Si Si2 0.581687 0.835452 0.044317
Si Si3 0.075721 0.839770 0.135272
Si Si4 0.418867 0.151086 0.379573
Si Si5 0.422351 0.339026 0.689309
Si Si6 0.425400 0.340773 0.790918
O O1 0.000000 0.000000 0.500000
O O2 0.014858 0.126954 0.576366
O O3 0.250000 0.000000 0.544822
O O4 0.750000 0.790816 0.045251
O O5 0.497505 0.797732 0.088914
O O6 0.582003 0.000000 0.043093
O O7 0.500000 0.789351 0.000000
O O8 0.250000 0.823126 0.132797
O O9 0.008429 0.752676 0.174648
O O10 0.045169 0.000000 0.141818
O O11 0.250000 0.180150 0.390631
O O12 0.485247 0.257582 0.346144
O O13 0.422903 0.000000 0.358514
O O14 0.250000 0.307839 0.683817
O O15 0.440089 0.500000 0.683762
O O16 0.462531 0.306912 0.740039
O O17 0.250000 0.324521 0.795741
O O18 0.458076 0.500000 0.797799
#
# Coordination Sequence:
#
# PCOD9399683 Si02
#       6
#     4   8   8   8   8   8
#     4  10  18  32  54  78 106 138 172 210 251 296
#     4   9  16  27  45  68  94 123 155 194 241 292
#     4  10  20  32  47  71 100 128 161 202 246 292
#     4   9  19  32  48  76 106 134 169 208 249 296
#     4   9  18  33  52  73  98 132 173 212 252 300
#     4   9  19  35  52  70  95 130 170 207 246 297
#
# _framework density 16.051047000000001
#
# number of rings (size 3 to 8) (size 9 to 14) (size 15 to 20)
#    0.545    2.182    0.000    3.273    0.000    5.455 
#    0.000    5.455    0.000    1.091    0.000    0.000 
#    0.000    0.000    0.000    0.000    0.000    0.000 
#
# Total GULP energy -245033.387999 kJ/mol
# GULP energy per Si atom -5568.940636 kJ/mol
# Density = 1.601451 g / cm^3
# Si number density = 16.051047 Si / 1000 Ang^3
#
#
#
# Elastic Constant Matrix: (Units=GPa)
#
#
# Indices 1 2 3 4 5 6 
#
# 1 121.9071 48.0127 96.6965 0.0000 0.0000 0.0000
# 2 48.0127 32.3891 57.0313 0.0000 0.0000 0.0000
# 3 96.6965 57.0313 149.4308 0.0000 0.0000 0.0000
# 4 0.0000 0.0000 0.0000 -13.3807 0.0000 0.0000
# 5 0.0000 0.0000 0.0000 0.0000 34.8620 0.0000
# 6 0.0000 0.0000 0.0000 0.0000 0.0000 25.7610
#
#
#
# Elastic Compliance Matrix: (Units=1/GPa)
#
#
# Indices 1 2 3 4 5 6 
#
# 1 0.020956 -0.021913 -0.005197 0.000000 0.000000 0.000000
# 2 -0.021913 0.117051 -0.030494 0.000000 0.000000 0.000000
# 3 -0.005197 -0.030494 0.021693 0.000000 0.000000 0.000000
# 4 0.000000 0.000000 0.000000 -0.074735 0.000000 0.000000
# 5 0.000000 0.000000 0.000000 0.000000 0.028685 0.000000
# 6 0.000000 0.000000 0.000000 0.000000 0.000000 0.038818
#
#
# Mechanical properties :
#
#
# Convention : Reuss Voigt Hill
#
# Bulk Modulus (GPa) = 22.47546 78.57864 50.52705
# Shear Modulus (GPa) = 17.69868 16.24757 16.97312
#
# Velocity S-wave (km/s) = 3.32422 3.18503 3.25537
# Velocity P-wave (km/s) = 5.36347 7.91123 6.75849
#
# Compressibility (1/GPa) = 0.04449297
#
# Stress axis : x y z
#
# Youngs Moduli (GPa) = 47.71982 8.54326 46.09703
#
# Poissons Ratio (x) = 0.18721 0.23958
# Poissons Ratio (y) = 1.04567 1.40567
# Poissons Ratio (z) = 0.24801 0.26052
#
# Static dielectric constant tensor:
#      x y z
#    x 1.536750 0.000000 0.000000 
#    y 0.000000 1.520900 0.000000 
#    z 0.000000 0.000000 1.518050 
# 
# From -- ./inp_files/34543.got.cif
#   From: 2010.05.17/outbox.cif.g08.bks.cpg/sg51_18_cif.got.tgz:34543.got - 2010.06.03 11:52:47.
