data_PCOD9399441
_publ_section_title
;
Structure prediction by ZEFSAII (Michael W. Deem and Ramdas Pophale) SiO2 
 PCOD9399441
Probable space group: P M M A
;
_chemical_formula_sum "Si O2"
_cell_formula_units_Z 48
_cell_length_a 27.141593
_cell_length_b 7.900030
_cell_length_c 12.132517
_cell_angle_alpha 90.000000
_cell_angle_beta 90.000000
_cell_angle_gamma 90.000000
_cell_volume 2601.447003
_symmetry_space_group_name_H-M "P M M A"
_symmetry_group_IT_number 51
_symmetry_cell_setting 'orthorhombic'
loop_
_space_group_symop_operation_xyz
x,y,z
1/2-x,-y,z
1/2+x,-y,-z
-x,y,-z
-x,-y,-z
1/2+x,y,-z
1/2-x,y,z
x,-y,z
loop_
_atom_site_type_symbol
_atom_site_label
_atom_site_fract_x
_atom_site_fract_y
_atom_site_fract_z
Si Si1 0.604143 0.298961 0.830346
Si Si2 0.372204 0.305845 0.515943
Si Si3 0.040232 0.803977 0.363943
Si Si4 0.305924 0.707013 0.320940
Si Si5 0.446402 0.204680 0.955160
Si Si6 0.563637 0.200688 0.293852
O O1 0.598845 0.500000 0.811831
O O2 0.561827 0.206482 0.759676
O O3 0.656165 0.245608 0.776468
O O4 0.594630 0.260885 0.957379
O O5 0.360048 0.500000 0.537176
O O6 0.420612 0.292786 0.438425
O O7 0.329542 0.232839 0.437025
O O8 0.388464 0.227925 0.631697
O O9 0.985049 0.734183 0.357648
O O10 0.040476 0.000000 0.401383
O O11 0.250000 0.763535 0.305423
O O12 0.305885 0.500000 0.324308
O O13 0.435998 0.266377 0.831013
O O14 0.447107 0.000000 0.954090
O O15 0.500000 0.262336 0.000000
O O16 0.555116 0.000000 0.285833
#
# Coordination Sequence:
#
# PCOD9399441 Si02
#       6
#     8   8   8   8   8   8
#     4  10  19  30  49  78 101 123 163 213 253 277
#     4  10  20  31  47  74  99 121 159 209 252 284
#     4  10  18  31  48  66  96 137 170 192 229 294
#     4   8  16  33  54  73  96 125 156 198 255 308
#     4  10  19  34  50  67  97 140 177 195 227 295
#     4  10  20  32  47  66  95 138 172 190 228 291
#
# _framework density 18.451270000000001
#
# number of rings (size 3 to 8) (size 9 to 14) (size 15 to 20)
#    0.000    2.333    1.667    3.000    0.000    4.333 
#    0.000    0.000    0.000   19.000    0.000    7.000 
#    0.000    0.000    0.000    0.000    0.000    0.000 
#
# Total GULP energy -267666.874820 kJ/mol
# GULP energy per Si atom -5576.393225 kJ/mol
# Density = 1.840927 g / cm^3
# Si number density = 18.451270 Si / 1000 Ang^3
#
#
#
# Elastic Constant Matrix: (Units=GPa)
#
#
# Indices 1 2 3 4 5 6 
#
# 1 104.4229 1.4584 38.2715 0.0000 0.0000 0.0000
# 2 1.4584 23.6731 -4.0084 0.0000 0.0000 0.0000
# 3 38.2715 -4.0084 92.4182 0.0000 0.0000 0.0000
# 4 0.0000 0.0000 0.0000 23.4912 0.0000 0.0000
# 5 0.0000 0.0000 0.0000 0.0000 16.5404 0.0000
# 6 0.0000 0.0000 0.0000 0.0000 0.0000 14.0133
#
#
#
# Elastic Compliance Matrix: (Units=1/GPa)
#
#
# Indices 1 2 3 4 5 6 
#
# 1 0.011343 -0.001505 -0.004763 0.000000 0.000000 0.000000
# 2 -0.001505 0.042754 0.002478 0.000000 0.000000 0.000000
# 3 -0.004763 0.002478 0.012900 0.000000 0.000000 0.000000
# 4 0.000000 0.000000 0.000000 0.042569 0.000000 0.000000
# 5 0.000000 0.000000 0.000000 0.000000 0.060458 0.000000
# 6 0.000000 0.000000 0.000000 0.000000 0.000000 0.071361
#
#
# Mechanical properties :
#
#
# Convention : Reuss Voigt Hill
#
# Bulk Modulus (GPa) = 16.83015 32.43970 24.63493
# Shear Modulus (GPa) = 18.60317 23.12847 20.86582
#
# Velocity S-wave (km/s) = 3.17871 3.54431 3.36648
# Velocity P-wave (km/s) = 4.75536 5.86250 5.33772
#
# Compressibility (1/GPa) = 0.05941717
#
# Stress axis : x y z
#
# Youngs Moduli (GPa) = 88.16036 23.38946 77.51896
#
# Poissons Ratio (x) = 0.03521 0.36919
# Poissons Ratio (y) = 0.13270 -0.19207
# Poissons Ratio (z) = 0.41987 -0.05795
#
# Static dielectric constant tensor:
#      x y z
#    x 1.629530 0.000000 0.000000 
#    y 0.000000 1.664940 0.000000 
#    z 0.000000 0.000000 1.668990 
# 
# From -- ./inp_files/18584.got.cif
#   From: 2010.05.17/outbox.cif.g08.bks.cpg/sg51_10_cif.got.tgz:18584.got - 2010.06.03 11:52:47.
