data_PCOD9399865
_publ_section_title
;
Structure prediction by ZEFSAII (Michael W. Deem and Ramdas Pophale) SiO2 
 PCOD9399865
Probable space group: P M M A
;
_chemical_formula_sum "Si O2"
_cell_formula_units_Z 44
_cell_length_a 10.329739
_cell_length_b 26.330556
_cell_length_c 8.349800
_cell_angle_alpha 90.000000
_cell_angle_beta 90.000000
_cell_angle_gamma 90.000000
_cell_volume 2271.043492
_symmetry_space_group_name_H-M "P M M A"
_symmetry_group_IT_number 51
_symmetry_cell_setting 'orthorhombic'
loop_
_space_group_symop_operation_xyz
x,y,z
1/2-x,-y,z
1/2+x,-y,-z
-x,y,-z
-x,-y,-z
1/2+x,y,-z
1/2-x,y,z
x,-y,z
loop_
_atom_site_type_symbol
_atom_site_label
_atom_site_fract_x
_atom_site_fract_y
_atom_site_fract_z
Si Si1 0.250000 0.675176 0.323619
Si Si2 0.250000 0.234678 0.836713
Si Si3 0.750000 0.347297 0.303233
Si Si4 0.017928 0.391002 0.191237
Si Si5 0.250000 0.789052 0.219413
Si Si6 0.599250 0.944234 0.149346
Si Si7 0.516486 0.163047 0.194633
Si Si8 0.598687 0.500000 0.850104
O O1 0.250000 0.663553 0.509934
O O2 0.376160 0.650116 0.243341
O O3 0.250000 0.735169 0.303550
O O4 0.250000 0.293883 0.793622
O O5 0.376351 0.205677 0.770945
O O6 0.250000 0.224768 0.028606
O O7 0.621124 0.378157 0.262256
O O8 0.068849 0.447070 0.237775
O O9 0.000000 0.389354 0.000000
O O10 0.377892 0.820640 0.258957
O O11 0.750000 0.938554 0.096585
O O12 0.562766 0.893120 0.243430
O O13 0.588954 0.000000 0.228869
O O14 0.500000 0.945619 0.000000
O O15 0.500000 0.161771 0.000000
O O16 0.750000 0.500000 0.899341
O O17 0.500000 0.500000 0.000000
#
# Coordination Sequence:
#
# PCOD9399865 Si02
#       8
#     4   4   4   8   4   8   8   4
#     4  12  24  43  59  89 128 157 200 251 304 357
#     4  10  18  34  52  77 106 142 197 233 282 343
#     4  12  26  39  61  93 124 163 196 251 306 353
#     4  11  23  42  68  92 123 158 204 244 293 356
#     4  10  20  32  54  73 106 148 193 237 284 343
#     4   9  16  25  39  63 100 141 176 222 290 356
#     4   9  17  28  45  71  99 138 184 236 279 340
#     4  10  22  40  69  99 124 154 202 255 290 340
#
# _framework density 19.374352999999999
#
# number of rings (size 3 to 8) (size 9 to 14) (size 15 to 20)
#    0.000    1.818    1.818    3.273    7.636    1.455 
#    0.000    2.727    0.000    0.000    0.000    0.000 
#    0.000    4.364    0.000    0.000    0.000    0.000 
#
# Total GULP energy -245519.737360 kJ/mol
# GULP energy per Si atom -5579.994031 kJ/mol
# Density = 1.933026 g / cm^3
# Si number density = 19.374353 Si / 1000 Ang^3
#
#
#
# Elastic Constant Matrix: (Units=GPa)
#
#
# Indices 1 2 3 4 5 6 
#
# 1 188.7319 73.7325 19.5480 0.0000 0.0000 0.0000
# 2 73.7325 132.2134 11.3198 0.0000 0.0000 0.0000
# 3 19.5480 11.3198 35.0945 0.0000 0.0000 0.0000
# 4 0.0000 0.0000 0.0000 -8.9014 0.0000 0.0000
# 5 0.0000 0.0000 0.0000 0.0000 16.7405 0.0000
# 6 0.0000 0.0000 0.0000 0.0000 0.0000 42.3416
#
#
#
# Elastic Compliance Matrix: (Units=1/GPa)
#
#
# Indices 1 2 3 4 5 6 
#
# 1 0.007019 -0.003681 -0.002722 0.000000 0.000000 0.000000
# 2 -0.003681 0.009709 -0.001081 0.000000 0.000000 0.000000
# 3 -0.002722 -0.001081 0.030359 0.000000 0.000000 0.000000
# 4 0.000000 0.000000 0.000000 -0.112341 0.000000 0.000000
# 5 0.000000 0.000000 0.000000 0.000000 0.059735 0.000000
# 6 0.000000 0.000000 0.000000 0.000000 0.000000 0.023617
#
#
# Mechanical properties :
#
#
# Convention : Reuss Voigt Hill
#
# Bulk Modulus (GPa) = 31.13498 62.80448 46.96973
# Shear Modulus (GPa) = 114.22472 26.79877 70.51174
#
# Velocity S-wave (km/s) = 7.68665 3.72319 6.03932
# Velocity P-wave (km/s) = 9.74087 7.13929 8.53973
#
# Compressibility (1/GPa) = 0.03211822
#
# Stress axis : x y z
#
# Youngs Moduli (GPa) = 142.47980 102.99793 32.93866
#
# Poissons Ratio (x) = 0.37914 0.08966
# Poissons Ratio (y) = 0.52447 0.03561
# Poissons Ratio (z) = 0.38784 0.11137
#
# Static dielectric constant tensor:
#      x y z
#    x 1.659320 0.000000 0.000000 
#    y 0.000000 1.708850 0.000000 
#    z 0.000000 0.000000 1.653420 
# 
# From -- ./inp_files/5933.got.cif
#   From: 2010.05.17/outbox.cif.g08.bks.cpg/sg51_3_cif.got.tgz:5933.got - 2010.06.03 11:52:47.
