data_PCOD9399451
_publ_section_title
;
Structure prediction by ZEFSAII (Michael W. Deem and Ramdas Pophale) SiO2 
 PCOD9399451
Probable space group: P M M A
;
_chemical_formula_sum "Si O2"
_cell_formula_units_Z 48
_cell_length_a 26.620093
_cell_length_b 8.253742
_cell_length_c 12.403008
_cell_angle_alpha 90.000000
_cell_angle_beta 90.000000
_cell_angle_gamma 90.000000
_cell_volume 2725.131611
_symmetry_space_group_name_H-M "P M M A"
_symmetry_group_IT_number 51
_symmetry_cell_setting 'orthorhombic'
loop_
_space_group_symop_operation_xyz
x,y,z
1/2-x,-y,z
1/2+x,-y,-z
-x,y,-z
-x,-y,-z
1/2+x,y,-z
1/2-x,y,z
x,-y,z
loop_
_atom_site_type_symbol
_atom_site_label
_atom_site_fract_x
_atom_site_fract_y
_atom_site_fract_z
Si Si1 0.807765 0.696829 0.653126
Si Si2 0.556205 0.306260 0.027448
Si Si3 0.882033 0.689399 0.831819
Si Si4 0.030727 0.686131 0.347483
Si Si5 0.571661 0.187516 0.265082
Si Si6 0.110514 0.805520 0.515867
O O1 0.750000 0.747523 0.647697
O O2 0.809672 0.500000 0.654583
O O3 0.836020 0.757679 0.761644
O O4 0.840933 0.752650 0.551691
O O5 0.554145 0.500000 0.009424
O O6 0.570023 0.275808 0.150966
O O7 0.500000 0.243304 0.000000
O O8 0.597563 0.239323 0.943588
O O9 0.869528 0.500000 0.851317
O O10 0.929526 0.694321 0.750700
O O11 0.013685 0.500000 0.356864
O O12 0.062299 0.736215 0.451973
O O13 0.983583 0.794958 0.317753
O O14 0.608340 0.249048 0.359789
O O15 0.582683 0.000000 0.243955
O O16 0.106933 0.000000 0.514595
#
# Coordination Sequence:
#
# PCOD9399451 Si02
#       6
#     8   8   8   8   8   8
#     4   9  18  34  57  80  98 121 160 210 262 312
#     4  10  18  31  49  69  97 136 177 207 236 289
#     4   8  15  29  48  72  99 125 158 206 252 288
#     4  10  18  31  50  71  98 133 171 208 247 293
#     4  11  22  32  44  68 104 140 172 205 244 294
#     4  10  21  34  47  70 103 134 166 205 253 305
#
# _framework density 17.613828999999999
#
# number of rings (size 3 to 8) (size 9 to 14) (size 15 to 20)
#    0.000    2.333    1.667    3.000    0.000    5.333 
#    0.000    0.833    0.000    1.000    0.000    2.333 
#    0.000    0.000    0.000    0.000    0.000    0.000 
#
# Total GULP energy -267588.753557 kJ/mol
# GULP energy per Si atom -5574.765699 kJ/mol
# Density = 1.757374 g / cm^3
# Si number density = 17.613829 Si / 1000 Ang^3
#
#
#
# Elastic Constant Matrix: (Units=GPa)
#
#
# Indices 1 2 3 4 5 6 
#
# 1 84.1739 1.4248 50.7109 0.0000 0.0000 0.0000
# 2 1.4248 12.7989 5.5362 0.0000 0.0000 0.0000
# 3 50.7109 5.5362 138.5731 0.0000 0.0000 0.0000
# 4 0.0000 0.0000 0.0000 36.1889 0.0000 0.0000
# 5 0.0000 0.0000 0.0000 0.0000 9.8628 0.0000
# 6 0.0000 0.0000 0.0000 0.0000 0.0000 14.0457
#
#
#
# Elastic Compliance Matrix: (Units=1/GPa)
#
#
# Indices 1 2 3 4 5 6 
#
# 1 0.015247 0.000729 -0.005609 0.000000 0.000000 0.000000
# 2 0.000729 0.079541 -0.003444 0.000000 0.000000 0.000000
# 3 -0.005609 -0.003444 0.009407 0.000000 0.000000 0.000000
# 4 0.000000 0.000000 0.000000 0.027633 0.000000 0.000000
# 5 0.000000 0.000000 0.000000 0.000000 0.101391 0.000000
# 6 0.000000 0.000000 0.000000 0.000000 0.000000 0.071196
#
#
# Mechanical properties :
#
#
# Convention : Reuss Voigt Hill
#
# Bulk Modulus (GPa) = 11.42266 38.98774 25.20520
# Shear Modulus (GPa) = 14.27573 23.87774 19.07673
#
# Velocity S-wave (km/s) = 2.84999 3.68587 3.29455
# Velocity P-wave (km/s) = 4.16282 6.34799 5.36778
#
# Compressibility (1/GPa) = 0.08754530
#
# Stress axis : x y z
#
# Youngs Moduli (GPa) = 65.58750 12.57217 106.30926
#
# Poissons Ratio (x) = -0.00916 0.59626
# Poissons Ratio (y) = -0.04780 0.36618
# Poissons Ratio (z) = 0.36786 0.04330
#
# Static dielectric constant tensor:
#      x y z
#    x 1.585820 0.000000 0.000000 
#    y 0.000000 1.625180 0.000000 
#    z 0.000000 0.000000 1.629700 
# 
# From -- ./inp_files/18998.got.cif
#   From: 2010.05.17/outbox.cif.g08.bks.cpg/sg51_10_cif.got.tgz:18998.got - 2010.06.03 11:52:47.
