data_PCOD9399351
_publ_section_title
;
Structure prediction by ZEFSAII (Michael W. Deem and Ramdas Pophale) SiO2 
 PCOD9399351
Probable space group: P M M A
;
_chemical_formula_sum "Si O2"
_cell_formula_units_Z 52
_cell_length_a 9.714473
_cell_length_b 25.785616
_cell_length_c 10.887813
_cell_angle_alpha 90.000000
_cell_angle_beta 90.000000
_cell_angle_gamma 90.000000
_cell_volume 2727.328241
_symmetry_space_group_name_H-M "P M M A"
_symmetry_group_IT_number 51
_symmetry_cell_setting 'orthorhombic'
loop_
_space_group_symop_operation_xyz
x,y,z
1/2-x,-y,z
1/2+x,-y,-z
-x,y,-z
-x,-y,-z
1/2+x,y,-z
1/2-x,y,z
x,-y,z
loop_
_atom_site_type_symbol
_atom_site_label
_atom_site_fract_x
_atom_site_fract_y
_atom_site_fract_z
Si Si1 0.411689 0.248159 0.621753
Si Si2 0.090858 0.586739 0.114156
Si Si3 0.500000 0.788961 0.000000
Si Si4 0.906459 0.562081 0.610872
Si Si5 0.100376 0.704926 0.180900
Si Si6 0.588738 0.059950 0.874451
Si Si7 0.904779 0.144906 0.224515
O O1 0.500000 0.254106 0.500000
O O2 0.250000 0.257904 0.604675
O O3 0.477521 0.285360 0.724704
O O4 0.427467 0.189453 0.674252
O O5 0.250000 0.569220 0.102793
O O6 0.041033 0.571476 0.250758
O O7 0.090319 0.649323 0.117182
O O8 0.000000 0.568351 0.000000
O O9 0.591904 0.750683 0.918413
O O10 0.417856 0.824566 0.905042
O O11 0.750000 0.582976 0.604459
O O12 0.898786 0.500000 0.595593
O O13 0.000000 0.582887 0.500000
O O14 0.250000 0.707511 0.243976
O O15 0.750000 0.072122 0.896090
O O16 0.518421 0.100145 0.781419
O O17 0.580215 0.000000 0.833515
O O18 0.500000 0.063564 0.000000
O O19 0.750000 0.123916 0.236935
#
# Coordination Sequence:
#
# PCOD9399351 Si02
#       7
#     8   8   4   8   8   8   8
#     4  10  22  38  55  77 104 137 180 223 267 316
#     4  10  21  36  55  83 116 150 188 230 283 338
#     4  10  18  30  51  76 103 136 174 208 252 312
#     4   9  19  37  59  82 110 145 189 238 286 339
#     4  10  20  34  53  76 107 143 177 218 264 317
#     4  10  20  32  48  73 105 137 168 206 256 313
#     4  10  20  32  51  77 102 132 171 212 257 308
#
# _framework density 19.066278000000001
#
# number of rings (size 3 to 8) (size 9 to 14) (size 15 to 20)
#    0.000    2.154    1.538    1.385    0.000    6.769 
#    0.000    1.538    0.000    0.462    0.000    0.000 
#    0.000    0.000    0.000    0.000    0.000    0.000 
#
# Total GULP energy -290083.935231 kJ/mol
# GULP energy per Si atom -5578.537216 kJ/mol
# Density = 1.902288 g / cm^3
# Si number density = 19.066278 Si / 1000 Ang^3
#
#
#
# Elastic Constant Matrix: (Units=GPa)
#
#
# Indices 1 2 3 4 5 6 
#
# 1 116.0929 14.7028 48.6215 0.0000 0.0000 0.0000
# 2 14.7028 32.0130 -4.0936 0.0000 0.0000 0.0000
# 3 48.6215 -4.0936 104.3797 0.0000 0.0000 0.0000
# 4 0.0000 0.0000 0.0000 10.3497 0.0000 0.0000
# 5 0.0000 0.0000 0.0000 0.0000 30.5662 0.0000
# 6 0.0000 0.0000 0.0000 0.0000 0.0000 -5.6286
#
#
#
# Elastic Compliance Matrix: (Units=1/GPa)
#
#
# Indices 1 2 3 4 5 6 
#
# 1 0.011795 -0.006150 -0.005735 0.000000 0.000000 0.000000
# 2 -0.006150 0.034602 0.004222 0.000000 0.000000 0.000000
# 3 -0.005735 0.004222 0.012418 0.000000 0.000000 0.000000
# 4 0.000000 0.000000 0.000000 0.096621 0.000000 0.000000
# 5 0.000000 0.000000 0.000000 0.000000 0.032716 0.000000
# 6 0.000000 0.000000 0.000000 0.000000 0.000000 -0.177663
#
#
# Mechanical properties :
#
#
# Convention : Reuss Voigt Hill
#
# Bulk Modulus (GPa) = 22.99558 41.21634 32.10596
# Shear Modulus (GPa) = 124.03412 19.94113 71.98762
#
# Velocity S-wave (km/s) = 8.07437 3.23752 6.15130
# Velocity P-wave (km/s) = 9.95059 5.96990 8.20530
#
# Compressibility (1/GPa) = 0.04348662
#
# Stress axis : x y z
#
# Youngs Moduli (GPa) = 84.78313 28.90014 80.53077
#
# Poissons Ratio (x) = 0.17775 0.46188
# Poissons Ratio (y) = 0.52146 -0.34000
# Poissons Ratio (z) = 0.48626 -0.12202
#
# Static dielectric constant tensor:
#      x y z
#    x 1.679440 0.000000 0.000000 
#    y 0.000000 1.677820 0.000000 
#    z 0.000000 0.000000 1.653860 
# 
# From -- ./inp_files/14615.got.cif
#   From: 2010.05.17/outbox.cif.g08.bks.cpg/sg51_8_cif.got.tgz:14615.got - 2010.06.03 11:52:47.
