data_PCOD9399179
_publ_section_title
;
Structure prediction by ZEFSAII (Michael W. Deem and Ramdas Pophale) SiO2 
 PCOD9399179
Probable space group: P M M A
;
_chemical_formula_sum "Si O2"
_cell_formula_units_Z 64
_cell_length_a 8.224362
_cell_length_b 18.986754
_cell_length_c 23.909098
_cell_angle_alpha 90.000000
_cell_angle_beta 90.000000
_cell_angle_gamma 90.000000
_cell_volume 3733.499809
_symmetry_space_group_name_H-M "P M M A"
_symmetry_group_IT_number 51
_symmetry_cell_setting 'orthorhombic'
loop_
_space_group_symop_operation_xyz
x,y,z
1/2-x,-y,z
1/2+x,-y,-z
-x,y,-z
-x,-y,-z
1/2+x,y,-z
1/2-x,y,z
x,-y,z
loop_
_atom_site_type_symbol
_atom_site_label
_atom_site_fract_x
_atom_site_fract_y
_atom_site_fract_z
Si Si1 0.064729 0.271731 0.443987
Si Si2 0.446495 0.079752 0.685719
Si Si3 0.437985 0.115845 0.561551
Si Si4 0.437986 0.669044 0.663485
Si Si5 0.447132 0.420631 0.064272
Si Si6 0.064055 0.309047 0.151809
Si Si7 0.054775 0.785125 0.248579
Si Si8 0.058245 0.580633 0.764345
O O1 0.250000 0.248933 0.451292
O O2 0.000000 0.307283 0.500000
O O3 0.961848 0.200291 0.436149
O O4 0.045988 0.319738 0.390322
O O5 0.250000 0.088479 0.684424
O O6 0.507750 0.090003 0.621303
O O7 0.514382 0.137416 0.728737
O O8 0.483878 0.000000 0.702795
O O9 0.500000 0.093100 0.500000
O O10 0.250000 0.096418 0.562357
O O11 0.250000 0.672058 0.646401
O O12 0.473340 0.732742 0.706508
O O13 0.467335 0.599542 0.699646
O O14 0.250000 0.420010 0.067874
O O15 0.500154 0.500000 0.083406
O O16 0.509810 0.353337 0.099875
O O17 0.500000 0.414281 0.000000
O O18 0.250000 0.292095 0.136584
O O19 0.998528 0.241161 0.186494
O O20 0.054054 0.369303 0.199243
O O21 0.250000 0.775294 0.250225
O O22 0.250000 0.596728 0.776129
O O23 0.027798 0.500000 0.776385
#
# Coordination Sequence:
#
# PCOD9399179 Si02
#       8
#     8   8   8   8   8   8   8   8
#     4  11  20  30  46  66  86 108 141 182 224 273
#     4  10  21  35  49  65  91 125 154 186 234 286
#     4  10  19  31  47  65  88 116 147 183 225 275
#     4  10  18  30  47  65  88 115 142 181 228 272
#     4   9  17  29  45  67  99 137 170 198 228 265
#     4   9  18  31  47  68  95 127 160 196 234 267
#     4  10  19  31  48  69  90 116 155 195 229 272
#     4   9  18  30  45  67  92 118 150 187 227 270
#
# _framework density 17.142092000000002
#
# number of rings (size 3 to 8) (size 9 to 14) (size 15 to 20)
#    0.000    2.250    1.250    3.375    0.000    3.250 
#    0.000    1.250    0.000    0.375    0.000    0.000 
#    0.000    0.500    0.000    1.125    0.000    2.000 
#
# Total GULP energy -356392.461861 kJ/mol
# GULP energy per Si atom -5568.632217 kJ/mol
# Density = 1.710308 g / cm^3
# Si number density = 17.142092 Si / 1000 Ang^3
#
#
#
# Elastic Constant Matrix: (Units=GPa)
#
#
# Indices 1 2 3 4 5 6 
#
# 1 12.2289 7.9343 3.7996 0.0000 0.0000 0.0000
# 2 7.9343 62.7898 40.8476 0.0000 0.0000 0.0000
# 3 3.7996 40.8476 88.9597 0.0000 0.0000 0.0000
# 4 0.0000 0.0000 0.0000 18.2212 0.0000 0.0000
# 5 0.0000 0.0000 0.0000 0.0000 20.7338 0.0000
# 6 0.0000 0.0000 0.0000 0.0000 0.0000 11.4912
#
#
#
# Elastic Compliance Matrix: (Units=1/GPa)
#
#
# Indices 1 2 3 4 5 6 
#
# 1 0.089313 -0.012554 0.001950 0.000000 0.000000 0.000000
# 2 -0.012554 0.024475 -0.010702 0.000000 0.000000 0.000000
# 3 0.001950 -0.010702 0.016072 0.000000 0.000000 0.000000
# 4 0.000000 0.000000 0.000000 0.054881 0.000000 0.000000
# 5 0.000000 0.000000 0.000000 0.000000 0.048230 0.000000
# 6 0.000000 0.000000 0.000000 0.000000 0.000000 0.087023
#
#
# Mechanical properties :
#
#
# Convention : Reuss Voigt Hill
#
# Bulk Modulus (GPa) = 11.46176 29.90461 20.68319
# Shear Modulus (GPa) = 12.76525 17.51571 15.14048
#
# Velocity S-wave (km/s) = 2.73183 3.20002 2.97515
# Velocity P-wave (km/s) = 4.08061 5.58001 4.88814
#
# Compressibility (1/GPa) = 0.08724661
#
# Stress axis : x y z
#
# Youngs Moduli (GPa) = 11.19660 40.85885 62.22133
#
# Poissons Ratio (x) = 0.51296 -0.12132
# Poissons Ratio (y) = 0.14057 0.66588
# Poissons Ratio (z) = -0.02183 0.43726
#
# Static dielectric constant tensor:
#      x y z
#    x 1.599890 0.000000 0.000000 
#    y 0.000000 1.584680 0.000000 
#    z 0.000000 0.000000 1.616550 
# 
# From -- ./inp_files/35119.got.cif
#   From: 2010.05.17/outbox.cif.g08.bks.cpg/sg51_18_cif.got.tgz:35119.got - 2010.06.03 11:52:47.
