data_PCOD9399029
_publ_section_title
;
Structure prediction by ZEFSAII (Michael W. Deem and Ramdas Pophale) SiO2 
 PCOD9399029
Probable space group: P M M A
;
_chemical_formula_sum "Si O2"
_cell_formula_units_Z 64
_cell_length_a 9.005080
_cell_length_b 20.722832
_cell_length_c 20.175643
_cell_angle_alpha 90.000000
_cell_angle_beta 90.000000
_cell_angle_gamma 90.000000
_cell_volume 3764.992073
_symmetry_space_group_name_H-M "P M M A"
_symmetry_group_IT_number 51
_symmetry_cell_setting 'orthorhombic'
loop_
_space_group_symop_operation_xyz
x,y,z
1/2-x,-y,z
1/2+x,-y,-z
-x,y,-z
-x,-y,-z
1/2+x,y,-z
1/2-x,y,z
x,-y,z
loop_
_atom_site_type_symbol
_atom_site_label
_atom_site_fract_x
_atom_site_fract_y
_atom_site_fract_z
Si Si1 0.420513 0.602265 0.432354
Si Si2 0.926161 0.390930 0.296035
Si Si3 0.071649 0.808914 0.163247
Si Si4 0.428115 0.074243 0.069642
Si Si5 0.078293 0.759598 0.432569
Si Si6 0.569464 0.570324 0.150426
Si Si7 0.074336 0.764226 0.704024
Si Si8 0.570486 0.698501 0.072261
O O1 0.500000 0.580665 0.500000
O O2 0.250000 0.582093 0.433073
O O3 0.496931 0.584454 0.362925
O O4 0.425172 0.680971 0.433010
O O5 0.750000 0.402578 0.302525
O O6 0.979446 0.420442 0.226665
O O7 0.947409 0.313463 0.289208
O O8 0.250000 0.800880 0.162233
O O9 0.034331 0.877069 0.128695
O O10 0.010440 0.799960 0.237096
O O11 0.993540 0.754148 0.119111
O O12 0.250000 0.075486 0.061758
O O13 0.473625 0.000000 0.082166
O O14 0.500000 0.095245 0.000000
O O15 0.250000 0.778862 0.430140
O O16 0.000000 0.781208 0.500000
O O17 0.990747 0.781583 0.367613
O O18 0.750000 0.571643 0.152291
O O19 0.522008 0.500000 0.125840
O O20 0.525483 0.630132 0.105011
O O21 0.250000 0.776102 0.707875
O O22 0.750000 0.702253 0.069563
O O23 0.500000 0.704748 0.000000
#
# Coordination Sequence:
#
# PCOD9399029 Si02
#       8
#     8   8   8   8   8   8   8   8
#     4   9  16  25  40  64  91 121 153 193 238 287
#     4   9  16  29  47  67  90 121 157 197 243 292
#     4  11  21  33  52  77 104 135 167 205 248 295
#     4   9  19  35  53  74 101 134 171 207 245 291
#     4   9  16  26  40  63  95 132 168 205 248 297
#     4   9  18  34  54  72  92 123 162 202 249 303
#     4  10  18  29  46  70  99 132 166 206 251 296
#     4  11  22  37  54  76 100 127 160 202 250 300
#
# _framework density 16.998708000000001
#
# number of rings (size 3 to 8) (size 9 to 14) (size 15 to 20)
#    0.000    2.375    1.250    2.250    0.000    5.750 
#    0.000    0.000    0.000    3.375    0.000    0.000 
#    0.000    0.500    0.000    1.375    0.000    2.000 
#
# Total GULP energy -357072.611885 kJ/mol
# GULP energy per Si atom -5579.259561 kJ/mol
# Density = 1.696002 g / cm^3
# Si number density = 16.998708 Si / 1000 Ang^3
#
#
#
# Elastic Constant Matrix: (Units=GPa)
#
#
# Indices 1 2 3 4 5 6 
#
# 1 62.3965 31.0296 45.1736 0.0000 0.0000 0.0000
# 2 31.0296 57.5264 45.5663 0.0000 0.0000 0.0000
# 3 45.1736 45.5663 135.7615 0.0000 0.0000 0.0000
# 4 0.0000 0.0000 0.0000 67.4360 0.0000 0.0000
# 5 0.0000 0.0000 0.0000 0.0000 32.0499 0.0000
# 6 0.0000 0.0000 0.0000 0.0000 0.0000 30.2855
#
#
#
# Elastic Compliance Matrix: (Units=1/GPa)
#
#
# Indices 1 2 3 4 5 6 
#
# 1 0.024153 -0.009075 -0.004991 0.000000 0.000000 0.000000
# 2 -0.009075 0.027088 -0.006072 0.000000 0.000000 0.000000
# 3 -0.004991 -0.006072 0.011065 0.000000 0.000000 0.000000
# 4 0.000000 0.000000 0.000000 0.014829 0.000000 0.000000
# 5 0.000000 0.000000 0.000000 0.000000 0.031201 0.000000
# 6 0.000000 0.000000 0.000000 0.000000 0.000000 0.033019
#
#
# Mechanical properties :
#
#
# Convention : Reuss Voigt Hill
#
# Bulk Modulus (GPa) = 45.39307 55.46927 50.43117
# Shear Modulus (GPa) = 26.45885 34.88194 30.67039
#
# Velocity S-wave (km/s) = 3.94956 4.53485 4.25229
# Velocity P-wave (km/s) = 6.89641 7.75385 7.33766
#
# Compressibility (1/GPa) = 0.02202979
#
# Stress axis : x y z
#
# Youngs Moduli (GPa) = 41.40340 36.91693 90.37894
#
# Poissons Ratio (x) = 0.33501 0.45106
# Poissons Ratio (y) = 0.37572 0.54879
# Poissons Ratio (z) = 0.20664 0.22416
#
# Static dielectric constant tensor:
#      x y z
#    x 1.568200 0.000000 0.000000 
#    y 0.000000 1.578050 0.000000 
#    z 0.000000 0.000000 1.560880 
# 
# From -- ./inp_files/28489.got.cif
#   From: 2010.05.17/outbox.cif.g08.bks.cpg/sg51_15_cif.got.tgz:28489.got - 2010.06.03 11:52:47.
