data_PCOD9399809
_publ_section_title
;
Structure prediction by ZEFSAII (Michael W. Deem and Ramdas Pophale) SiO2 
 PCOD9399809
Probable space group: P M M A
;
_chemical_formula_sum "Si O2"
_cell_formula_units_Z 44
_cell_length_a 8.029750
_cell_length_b 18.763225
_cell_length_c 14.682983
_cell_angle_alpha 90.000000
_cell_angle_beta 90.000000
_cell_angle_gamma 90.000000
_cell_volume 2212.197038
_symmetry_space_group_name_H-M "P M M A"
_symmetry_group_IT_number 51
_symmetry_cell_setting 'orthorhombic'
loop_
_space_group_symop_operation_xyz
x,y,z
1/2-x,-y,z
1/2+x,-y,-z
-x,y,-z
-x,-y,-z
1/2+x,y,-z
1/2-x,y,z
x,-y,z
loop_
_atom_site_type_symbol
_atom_site_label
_atom_site_fract_x
_atom_site_fract_y
_atom_site_fract_z
Si Si1 0.446625 0.421994 0.210373
Si Si2 0.555335 0.363777 0.398541
Si Si3 0.046549 0.858324 0.209546
Si Si4 0.949534 0.800949 0.599814
Si Si5 0.951254 0.716107 0.895093
Si Si6 0.548671 0.000000 0.894240
O O1 0.250000 0.424842 0.189846
O O2 0.519071 0.500000 0.190126
O O3 0.465355 0.404072 0.316873
O O4 0.516536 0.355295 0.153887
O O5 0.500000 0.384647 0.500000
O O6 0.750000 0.376733 0.388977
O O7 0.520354 0.279037 0.389394
O O8 0.250000 0.859433 0.208027
O O9 0.996887 0.849019 0.314948
O O10 0.991159 0.787326 0.156451
O O11 0.989115 0.929157 0.158097
O O12 0.750000 0.793935 0.602492
O O13 0.000000 0.827660 0.500000
O O14 0.750000 0.715905 0.888096
O O15 0.000000 0.717847 0.000000
O O16 0.750000 0.000000 0.890627
O O17 0.500000 0.000000 0.000000
#
# Coordination Sequence:
#
# PCOD9399809 Si02
#       6
#     8   8   8   8   8   4
#     4  10  21  38  57  76 106 145 183 225 274 325
#     4  11  21  34  55  82 111 143 180 226 273 326
#     4   9  18  34  57  80 111 146 180 219 269 326
#     4  10  18  33  55  81 111 145 183 224 266 323
#     4  10  20  36  55  78 105 139 181 225 272 323
#     4  10  20  36  57  84 112 148 183 222 275 322
#
# _framework density 19.889728999999999
#
# number of rings (size 3 to 8) (size 9 to 14) (size 15 to 20)
#    0.000    2.000    1.818    3.818    0.000    1.818 
#    0.000    2.273    0.000    0.000    0.000    0.000 
#    0.000    0.000    0.000    0.000    0.000    0.000 
#
# Total GULP energy -245694.992008 kJ/mol
# GULP energy per Si atom -5583.977091 kJ/mol
# Density = 1.984446 g / cm^3
# Si number density = 19.889729 Si / 1000 Ang^3
#
#
#
# Elastic Constant Matrix: (Units=GPa)
#
#
# Indices 1 2 3 4 5 6 
#
# 1 14.8626 4.6854 -12.4767 0.0000 0.0000 0.0000
# 2 4.6854 163.4171 98.2948 0.0000 0.0000 0.0000
# 3 -12.4767 98.2948 150.8289 0.0000 0.0000 0.0000
# 4 0.0000 0.0000 0.0000 167.8601 0.0000 0.0000
# 5 0.0000 0.0000 0.0000 0.0000 30.9750 0.0000
# 6 0.0000 0.0000 0.0000 0.0000 0.0000 3.7446
#
#
#
# Elastic Compliance Matrix: (Units=1/GPa)
#
#
# Indices 1 2 3 4 5 6 
#
# 1 0.082120 -0.010593 0.013696 0.000000 0.000000 0.000000
# 2 -0.010593 0.011431 -0.008326 0.000000 0.000000 0.000000
# 3 0.013696 -0.008326 0.013189 0.000000 0.000000 0.000000
# 4 0.000000 0.000000 0.000000 0.005957 0.000000 0.000000
# 5 0.000000 0.000000 0.000000 0.000000 0.032284 0.000000
# 6 0.000000 0.000000 0.000000 0.000000 0.000000 0.267055
#
#
# Mechanical properties :
#
#
# Convention : Reuss Voigt Hill
#
# Bulk Modulus (GPa) = 10.38467 56.67950 33.53208
# Shear Modulus (GPa) = 10.99918 56.42292 33.71105
#
# Velocity S-wave (km/s) = 2.35416 5.33193 4.12138
# Velocity P-wave (km/s) = 3.55273 8.15259 6.28835
#
# Compressibility (1/GPa) = 0.09629575
#
# Stress axis : x y z
#
# Youngs Moduli (GPa) = 12.17725 87.48185 75.82140
#
# Poissons Ratio (x) = 0.92668 -1.03848
# Poissons Ratio (y) = 0.12899 0.63127
# Poissons Ratio (z) = -0.16678 0.72835
#
# Static dielectric constant tensor:
#      x y z
#    x 1.702630 0.000000 0.000000 
#    y 0.000000 1.703670 0.000000 
#    z 0.000000 0.000000 1.680110 
# 
# From -- ./inp_files/20897.got.cif
#   From: 2010.05.17/outbox.cif.g08.bks.cpg/sg51_11_cif.got.tgz:20897.got - 2010.06.03 11:52:47.
