data_PCOD9399959
_publ_section_title
;
Structure prediction by ZEFSAII (Michael W. Deem and Ramdas Pophale) SiO2 
 PCOD9399959
Probable space group: P M M A
;
_chemical_formula_sum "Si O2"
_cell_formula_units_Z 48
_cell_length_a 28.728059
_cell_length_b 8.202511
_cell_length_c 10.379904
_cell_angle_alpha 90.000000
_cell_angle_beta 90.000000
_cell_angle_gamma 90.000000
_cell_volume 2445.943621
_symmetry_space_group_name_H-M "P M M A"
_symmetry_group_IT_number 51
_symmetry_cell_setting 'orthorhombic'
loop_
_space_group_symop_operation_xyz
x,y,z
1/2-x,-y,z
1/2+x,-y,-z
-x,y,-z
-x,-y,-z
1/2+x,y,-z
1/2-x,y,z
x,-y,z
loop_
_atom_site_type_symbol
_atom_site_label
_atom_site_fract_x
_atom_site_fract_y
_atom_site_fract_z
Si Si1 0.099185 0.691675 0.250427
Si Si2 0.250000 0.695923 0.584132
Si Si3 0.750000 0.802561 0.119226
Si Si4 0.000964 0.807484 0.148816
Si Si5 0.851869 0.300680 0.488542
Si Si6 0.404596 0.307809 0.771272
Si Si7 0.653833 0.191773 0.990570
O O1 0.089224 0.500000 0.264746
O O2 0.121711 0.753647 0.383067
O O3 0.051295 0.776487 0.209369
O O4 0.135562 0.717167 0.134807
O O5 0.250000 0.500000 0.572644
O O6 0.250000 0.737789 0.735472
O O7 0.298356 0.755728 0.522548
O O8 0.796433 0.750980 0.044347
O O9 0.750000 0.000000 0.126059
O O10 0.959616 0.722359 0.226874
O O11 0.991328 0.000000 0.146809
O O12 0.000000 0.748229 0.000000
O O13 0.851251 0.500000 0.491166
O O14 0.879596 0.252411 0.359682
O O15 0.395203 0.500000 0.786882
O O16 0.382673 0.217751 0.893812
O O17 0.656740 0.000000 0.960608
#
# Coordination Sequence:
#
# PCOD9399959 Si02
#       7
#     8   4   4   8   8   8   8
#     4  11  23  40  61  88 121 158 199 245 299 356
#     4  10  18  37  64  88 118 156 198 241 292 350
#     4  10  22  37  58  88 122 156 196 245 294 346
#     4  11  23  39  60  87 121 158 196 246 301 355
#     4   9  21  38  60  91 123 153 193 249 298 345
#     4  11  21  37  63  91 116 152 198 244 295 353
#     4  11  22  38  58  87 122 155 196 246 292 345
#
# _framework density 19.624328999999999
#
# number of rings (size 3 to 8) (size 9 to 14) (size 15 to 20)
#    0.000    1.500    3.333    2.000    0.000    2.667 
#    0.000    9.167    0.000    0.000    0.000    0.000 
#    0.000    0.000    0.000    0.000    0.000    0.000 
#
# Total GULP energy -268244.644674 kJ/mol
# GULP energy per Si atom -5588.430097 kJ/mol
# Density = 1.957966 g / cm^3
# Si number density = 19.624329 Si / 1000 Ang^3
#
#
#
# Elastic Constant Matrix: (Units=GPa)
#
#
# Indices 1 2 3 4 5 6 
#
# 1 124.9314 -1.2867 40.9481 0.0000 0.0000 0.0000
# 2 -1.2867 16.5004 0.0330 0.0000 0.0000 0.0000
# 3 40.9481 0.0330 106.2210 0.0000 0.0000 0.0000
# 4 0.0000 0.0000 0.0000 -38.5827 0.0000 0.0000
# 5 0.0000 0.0000 0.0000 0.0000 30.0672 0.0000
# 6 0.0000 0.0000 0.0000 0.0000 0.0000 -19.6534
#
#
#
# Elastic Compliance Matrix: (Units=1/GPa)
#
#
# Indices 1 2 3 4 5 6 
#
# 1 0.009171 0.000722 -0.003535 0.000000 0.000000 0.000000
# 2 0.000722 0.060662 -0.000297 0.000000 0.000000 0.000000
# 3 -0.003535 -0.000297 0.010777 0.000000 0.000000 0.000000
# 4 0.000000 0.000000 0.000000 -0.025918 0.000000 0.000000
# 5 0.000000 0.000000 0.000000 0.000000 0.033259 0.000000
# 6 0.000000 0.000000 0.000000 0.000000 0.000000 -0.050882
#
#
# Mechanical properties :
#
#
# Convention : Reuss Voigt Hill
#
# Bulk Modulus (GPa) = 13.44294 36.33794 24.89044
# Shear Modulus (GPa) = 73.43694 8.23010 40.83352
#
# Velocity S-wave (km/s) = 6.12394 2.05011 4.56648
# Velocity P-wave (km/s) = 7.54112 4.91537 6.36512
#
# Compressibility (1/GPa) = 0.07438850
#
# Stress axis : x y z
#
# Youngs Moduli (GPa) = 109.04364 16.48490 92.78717
#
# Poissons Ratio (x) = -0.01191 0.32805
# Poissons Ratio (y) = -0.07875 0.02758
# Poissons Ratio (z) = 0.38552 0.00490
#
# Static dielectric constant tensor:
#      x y z
#    x 1.685750 0.000000 0.000000 
#    y 0.000000 1.680070 0.000000 
#    z 0.000000 0.000000 1.653510 
# 
# From -- ./inp_files/12982.got.cif
#   From: 2010.05.17/outbox.cif.g08.bks.cpg/sg51_7_cif.got.tgz:12982.got - 2010.06.03 11:52:47.
