data_PCOD9399880
_publ_section_title
;
Structure prediction by ZEFSAII (Michael W. Deem and Ramdas Pophale) SiO2 
 PCOD9399880
Probable space group: P M M A
;
_chemical_formula_sum "Si O2"
_cell_formula_units_Z 30
_cell_length_a 14.807004
_cell_length_b 12.154753
_cell_length_c 8.813683
_cell_angle_alpha 90.000000
_cell_angle_beta 90.000000
_cell_angle_gamma 90.000000
_cell_volume 1586.246796
_symmetry_space_group_name_H-M "P M M A"
_symmetry_group_IT_number 51
_symmetry_cell_setting 'orthorhombic'
loop_
_space_group_symop_operation_xyz
x,y,z
1/2-x,-y,z
1/2+x,-y,-z
-x,y,-z
-x,-y,-z
1/2+x,y,-z
1/2-x,y,z
x,-y,z
loop_
_atom_site_type_symbol
_atom_site_label
_atom_site_fract_x
_atom_site_fract_y
_atom_site_fract_z
Si Si1 0.750000 0.629997 0.148309
Si Si2 0.750000 0.500000 0.672375
Si Si3 0.092686 0.875205 0.590624
Si Si4 0.750000 0.724677 0.489594
Si Si5 0.940013 0.708175 0.142969
Si Si6 0.030055 0.500000 0.318071
O O1 0.750000 0.500000 0.153718
O O2 0.750000 0.677296 0.318607
O O3 0.843080 0.669820 0.078671
O O4 0.750000 0.617661 0.590922
O O5 0.639128 0.500000 0.718539
O O6 0.163174 0.801646 0.496927
O O7 0.075757 0.811027 0.746945
O O8 0.000000 0.878648 0.500000
O O9 0.125504 0.000000 0.614075
O O10 0.983825 0.607593 0.240483
O O11 0.000000 0.735766 0.000000
O O12 0.000000 0.500000 0.500000
#
# Coordination Sequence:
#
# PCOD9399880 Si02
#       6
#     4   2   8   4   8   4
#     4  10  18  34  57  77 112 154 190 222 279 345
#     4  12  22  32  58  90 120 152 180 248 302 346
#     4  10  21  38  61  84 112 151 196 243 289 340
#     4  10  19  34  56  88 114 149 191 232 285 349
#     4  11  23  38  58  85 117 155 195 243 288 351
#     4  12  23  37  57  86 121 157 193 234 298 354
#
# _framework density 18.912569000000001
#
# number of rings (size 3 to 8) (size 9 to 14) (size 15 to 20)
#    0.000    1.333    2.000    6.400    0.000    1.600 
#    0.000    1.333    0.000    0.000    0.000    0.000 
#    0.000    0.000    0.000    0.000    0.000    0.000 
#
# Total GULP energy -167243.511559 kJ/mol
# GULP energy per Si atom -5574.783719 kJ/mol
# Density = 1.886952 g / cm^3
# Si number density = 18.912569 Si / 1000 Ang^3
#
#
#
# Elastic Constant Matrix: (Units=GPa)
#
#
# Indices 1 2 3 4 5 6 
#
# 1 145.5451 43.6695 16.8842 0.0000 0.0000 0.0000
# 2 43.6695 157.9299 23.1398 0.0000 0.0000 0.0000
# 3 16.8842 23.1398 31.2258 0.0000 0.0000 0.0000
# 4 0.0000 0.0000 0.0000 17.7223 0.0000 0.0000
# 5 0.0000 0.0000 0.0000 0.0000 21.5258 0.0000
# 6 0.0000 0.0000 0.0000 0.0000 0.0000 24.8062
#
#
#
# Elastic Compliance Matrix: (Units=1/GPa)
#
#
# Indices 1 2 3 4 5 6 
#
# 1 0.007721 -0.001709 -0.002908 0.000000 0.000000 0.000000
# 2 -0.001709 0.007481 -0.004620 0.000000 0.000000 0.000000
# 3 -0.002908 -0.004620 0.037021 0.000000 0.000000 0.000000
# 4 0.000000 0.000000 0.000000 0.056426 0.000000 0.000000
# 5 0.000000 0.000000 0.000000 0.000000 0.046456 0.000000
# 6 0.000000 0.000000 0.000000 0.000000 0.000000 0.040313
#
#
# Mechanical properties :
#
#
# Convention : Reuss Voigt Hill
#
# Bulk Modulus (GPa) = 29.63080 55.78754 42.70917
# Shear Modulus (GPa) = 22.20819 29.54467 25.87643
#
# Velocity S-wave (km/s) = 3.43046 3.95672 3.70295
# Velocity P-wave (km/s) = 5.60286 7.10182 6.39640
#
# Compressibility (1/GPa) = 0.03374867
#
# Stress axis : x y z
#
# Youngs Moduli (GPa) = 129.51990 133.66573 27.01158
#
# Poissons Ratio (x) = 0.22840 0.07856
# Poissons Ratio (y) = 0.22132 0.12480
# Poissons Ratio (z) = 0.37671 0.61755
#
# Static dielectric constant tensor:
#      x y z
#    x 1.683410 0.000000 0.000000 
#    y 0.000000 1.640300 0.000000 
#    z 0.000000 0.000000 1.641060 
# 
# From -- ./inp_files/7531.got.cif
#   From: 2010.05.17/outbox.cif.g08.bks.cpg/sg51_4_cif.got.tgz:7531.got - 2010.06.03 11:52:47.
