data_PCOD9399104
_publ_section_title
;
Structure prediction by ZEFSAII (Michael W. Deem and Ramdas Pophale) SiO2 
 PCOD9399104
Probable space group: P M M A
;
_chemical_formula_sum "Si O2"
_cell_formula_units_Z 56
_cell_length_a 7.680262
_cell_length_b 16.255416
_cell_length_c 20.652035
_cell_angle_alpha 90.000000
_cell_angle_beta 90.000000
_cell_angle_gamma 90.000000
_cell_volume 2578.320942
_symmetry_space_group_name_H-M "P M M A"
_symmetry_group_IT_number 51
_symmetry_cell_setting 'orthorhombic'
loop_
_space_group_symop_operation_xyz
x,y,z
1/2-x,-y,z
1/2+x,-y,-z
-x,y,-z
-x,-y,-z
1/2+x,y,-z
1/2-x,y,z
x,-y,z
loop_
_atom_site_type_symbol
_atom_site_label
_atom_site_fract_x
_atom_site_fract_y
_atom_site_fract_z
Si Si1 0.050557 0.374662 0.247291
Si Si2 0.048920 0.410752 0.610249
Si Si3 0.540783 0.767048 0.427110
Si Si4 0.543343 0.231857 0.929969
Si Si5 0.462419 0.908542 0.670605
Si Si6 0.046000 0.806339 0.788561
Si Si7 0.962757 0.587780 0.897082
O O1 0.250000 0.400807 0.255506
O O2 0.986322 0.408556 0.178624
O O3 0.953955 0.401167 0.311815
O O4 0.044813 0.276446 0.236805
O O5 0.250000 0.412586 0.588684
O O6 0.970593 0.500000 0.593118
O O7 0.969507 0.325386 0.584595
O O8 0.500000 0.792225 0.500000
O O9 0.750000 0.762282 0.418181
O O10 0.477039 0.835806 0.376876
O O11 0.750000 0.236210 0.923889
O O12 0.479565 0.186680 0.865381
O O13 0.473948 0.326479 0.927106
O O14 0.500000 0.196034 0.000000
O O15 0.250000 0.910365 0.666709
O O16 0.508858 0.881890 0.743701
O O17 0.524582 0.000000 0.654442
O O18 0.250000 0.792241 0.776576
O O19 0.750000 0.588933 0.899264
O O20 0.022155 0.500000 0.924400
#
# Coordination Sequence:
#
# PCOD9399104 Si02
#       7
#     8   8   8   8   8   8   8
#     4  10  18  29  49  76 107 141 182 228 277 329
#     4  10  20  34  52  75 106 146 190 233 276 325
#     4  10  21  38  56  80 113 150 186 227 275 330
#     4  10  20  33  50  75 106 145 187 229 276 331
#     4   9  18  35  61  88 112 141 179 222 277 343
#     4  10  18  33  57  81 108 142 180 225 278 332
#     4   8  15  27  42  64  97 134 173 220 268 313
#
# _framework density 21.719560999999999
#
# number of rings (size 3 to 8) (size 9 to 14) (size 15 to 20)
#    0.000    2.429    1.429    2.571    0.000    2.286 
#    0.000    0.000    0.000   12.000    0.000    0.000 
#    0.000    0.000    0.000    0.000    0.000    0.000 
#
# Total GULP energy -312543.356147 kJ/mol
# GULP energy per Si atom -5581.131360 kJ/mol
# Density = 2.167013 g / cm^3
# Si number density = 21.719561 Si / 1000 Ang^3
#
#
#
# Elastic Constant Matrix: (Units=GPa)
#
#
# Indices 1 2 3 4 5 6 
#
# 1 46.1668 8.1526 -4.8325 0.0000 0.0000 0.0000
# 2 8.1526 132.3104 56.2971 0.0000 0.0000 0.0000
# 3 -4.8325 56.2971 116.4326 0.0000 0.0000 0.0000
# 4 0.0000 0.0000 0.0000 -19.2983 0.0000 0.0000
# 5 0.0000 0.0000 0.0000 0.0000 20.2125 0.0000
# 6 0.0000 0.0000 0.0000 0.0000 0.0000 0.8012
#
#
#
# Elastic Compliance Matrix: (Units=1/GPa)
#
#
# Indices 1 2 3 4 5 6 
#
# 1 0.022262 -0.002222 0.001998 0.000000 0.000000 0.000000
# 2 -0.002222 0.009737 -0.004800 0.000000 0.000000 0.000000
# 3 0.001998 -0.004800 0.010993 0.000000 0.000000 0.000000
# 4 0.000000 0.000000 0.000000 -0.051818 0.000000 0.000000
# 5 0.000000 0.000000 0.000000 0.000000 0.049474 0.000000
# 6 0.000000 0.000000 0.000000 0.000000 0.000000 1.248053
#
#
# Mechanical properties :
#
#
# Convention : Reuss Voigt Hill
#
# Bulk Modulus (GPa) = 30.35442 46.01602 38.18522
# Shear Modulus (GPa) = 3.81758 16.02927 9.92342
#
# Velocity S-wave (km/s) = 1.32721 2.71958 2.13981
# Velocity P-wave (km/s) = 4.04408 5.57619 4.87076
#
# Compressibility (1/GPa) = 0.03294413
#
# Stress axis : x y z
#
# Youngs Moduli (GPa) = 44.91925 102.69621 90.96941
#
# Poissons Ratio (x) = 0.22819 -0.18179
# Poissons Ratio (y) = 0.09981 0.43669
# Poissons Ratio (z) = -0.08977 0.49299
#
# Static dielectric constant tensor:
#      x y z
#    x 1.799100 0.000000 0.000000 
#    y 0.000000 1.806210 0.000000 
#    z 0.000000 0.000000 1.790750 
# 
# From -- ./inp_files/32016.got.cif
#   From: 2010.05.17/outbox.cif.g08.bks.cpg/sg51_17_cif.got.tgz:32016.got - 2010.06.03 11:52:47.
