data_PCOD9399455
_publ_section_title
;
Structure prediction by ZEFSAII (Michael W. Deem and Ramdas Pophale) SiO2 
 PCOD9399455
Probable space group: P M M A
;
_chemical_formula_sum "Si O2"
_cell_formula_units_Z 56
_cell_length_a 18.902398
_cell_length_b 9.495480
_cell_length_c 17.377317
_cell_angle_alpha 90.000000
_cell_angle_beta 90.000000
_cell_angle_gamma 90.000000
_cell_volume 3119.008442
_symmetry_space_group_name_H-M "P M M A"
_symmetry_group_IT_number 51
_symmetry_cell_setting 'orthorhombic'
loop_
_space_group_symop_operation_xyz
x,y,z
1/2-x,-y,z
1/2+x,-y,-z
-x,y,-z
-x,-y,-z
1/2+x,y,-z
1/2-x,y,z
x,-y,z
loop_
_atom_site_type_symbol
_atom_site_label
_atom_site_fract_x
_atom_site_fract_y
_atom_site_fract_z
Si Si1 0.431803 0.331641 0.848999
Si Si2 0.932739 0.166032 0.900165
Si Si3 0.882588 0.663251 0.619654
Si Si4 0.329108 0.161693 0.242128
Si Si5 0.952235 0.336856 0.331105
Si Si6 0.167496 0.833128 0.953801
Si Si7 0.916916 0.161663 0.474755
O O1 0.432057 0.500000 0.858653
O O2 0.498195 0.261295 0.892971
O O3 0.439853 0.300724 0.757978
O O4 0.362428 0.260604 0.884714
O O5 0.886225 0.189180 0.823641
O O6 0.952818 0.000000 0.903657
O O7 0.882153 0.195682 0.972415
O O8 0.865096 0.500000 0.608656
O O9 0.837872 0.735470 0.686488
O O10 0.878156 0.748633 0.540353
O O11 0.964121 0.671683 0.649361
O O12 0.250000 0.172230 0.209236
O O13 0.339368 0.000000 0.268702
O O14 0.931275 0.500000 0.343418
O O15 0.913945 0.236290 0.392036
O O16 0.250000 0.805538 0.970160
O O17 0.160469 0.000000 0.936347
O O18 0.000000 0.162237 0.500000
O O19 0.893522 0.000000 0.472471
#
# Coordination Sequence:
#
# PCOD9399455 Si02
#       7
#     8   8   8   8   8   8   8
#     4  11  22  36  56  84 115 144 180 226 276 327
#     4  10  20  36  58  81 108 143 184 228 276 327
#     4  10  18  31  49  71 105 144 179 216 266 323
#     4  10  20  33  51  76 107 144 185 230 277 325
#     4   9  18  32  49  74 107 140 173 216 269 320
#     4  10  22  40  59  80 108 144 186 228 274 330
#     4   9  17  28  47  75 103 133 173 219 265 310
#
# _framework density 17.954423999999999
#
# number of rings (size 3 to 8) (size 9 to 14) (size 15 to 20)
#    0.000    2.143    1.429    2.143    0.000    8.000 
#    0.000    0.000    0.000    3.429    0.000    4.000 
#    0.000    0.000    0.000    0.000    0.000    0.000 
#
# Total GULP energy -312535.134217 kJ/mol
# GULP energy per Si atom -5580.984540 kJ/mol
# Density = 1.791356 g / cm^3
# Si number density = 17.954424 Si / 1000 Ang^3
#
#
#
# Elastic Constant Matrix: (Units=GPa)
#
#
# Indices 1 2 3 4 5 6 
#
# 1 44.2606 36.8203 36.0857 0.0000 0.0000 0.0000
# 2 36.8203 88.1947 69.9737 0.0000 0.0000 0.0000
# 3 36.0857 69.9737 108.4481 0.0000 0.0000 0.0000
# 4 0.0000 0.0000 0.0000 32.1538 0.0000 0.0000
# 5 0.0000 0.0000 0.0000 0.0000 14.0038 0.0000
# 6 0.0000 0.0000 0.0000 0.0000 0.0000 8.4340
#
#
#
# Elastic Compliance Matrix: (Units=1/GPa)
#
#
# Indices 1 2 3 4 5 6 
#
# 1 0.035719 -0.011233 -0.004638 0.000000 0.000000 0.000000
# 2 -0.011233 0.026764 -0.013531 0.000000 0.000000 0.000000
# 3 -0.004638 -0.013531 0.019495 0.000000 0.000000 0.000000
# 4 0.000000 0.000000 0.000000 0.031100 0.000000 0.000000
# 5 0.000000 0.000000 0.000000 0.000000 0.071409 0.000000
# 6 0.000000 0.000000 0.000000 0.000000 0.000000 0.118568
#
#
# Mechanical properties :
#
#
# Convention : Reuss Voigt Hill
#
# Bulk Modulus (GPa) = 43.15076 58.51810 50.83443
# Shear Modulus (GPa) = 13.52879 17.45324 15.49102
#
# Velocity S-wave (km/s) = 2.74799 3.12121 2.94053
# Velocity P-wave (km/s) = 5.84416 6.75667 6.31692
#
# Compressibility (1/GPa) = 0.02317456
#
# Stress axis : x y z
#
# Youngs Moduli (GPa) = 27.99623 37.36424 51.29592
#
# Poissons Ratio (x) = 0.41970 0.23790
# Poissons Ratio (y) = 0.31447 0.69408
# Poissons Ratio (z) = 0.12984 0.50557
#
# Static dielectric constant tensor:
#      x y z
#    x 1.602090 0.000000 0.000000 
#    y 0.000000 1.603160 0.000000 
#    z 0.000000 0.000000 1.602810 
# 
# From -- ./inp_files/25630.got.cif
#   From: 2010.05.17/outbox.cif.g08.bks.cpg/sg51_13_cif.got.tgz:25630.got - 2010.06.03 11:52:47.
