data_PCOD9399305
_publ_section_title
;
Structure prediction by ZEFSAII (Michael W. Deem and Ramdas Pophale) SiO2 
 PCOD9399305
Probable space group: P M M A
;
_chemical_formula_sum "Si O2"
_cell_formula_units_Z 52
_cell_length_a 13.035738
_cell_length_b 7.500115
_cell_length_c 27.502059
_cell_angle_alpha 90.000000
_cell_angle_beta 90.000000
_cell_angle_gamma 90.000000
_cell_volume 2688.863495
_symmetry_space_group_name_H-M "P M M A"
_symmetry_group_IT_number 51
_symmetry_cell_setting 'orthorhombic'
loop_
_space_group_symop_operation_xyz
x,y,z
1/2-x,-y,z
1/2+x,-y,-z
-x,y,-z
-x,-y,-z
1/2+x,y,-z
1/2-x,y,z
x,-y,z
loop_
_atom_site_type_symbol
_atom_site_label
_atom_site_fract_x
_atom_site_fract_y
_atom_site_fract_z
Si Si1 0.963444 0.281482 0.946551
Si Si2 0.871849 0.201027 0.606690
Si Si3 0.250000 0.785616 0.214722
Si Si4 0.137547 0.210511 0.759457
Si Si5 0.568364 0.781130 0.713718
Si Si6 0.135625 0.284850 0.871918
Si Si7 0.250000 0.287425 0.099128
Si Si8 0.117368 0.500000 0.473090
O O1 0.961640 0.500000 0.946768
O O2 0.852727 0.220302 0.927383
O O3 0.048484 0.222422 0.907977
O O4 0.000000 0.226210 0.000000
O O5 0.750000 0.188775 0.612887
O O6 0.910121 0.272955 0.658553
O O7 0.890070 0.327360 0.561164
O O8 0.912682 0.000000 0.599127
O O9 0.348506 0.724221 0.245933
O O10 0.250000 0.739898 0.157553
O O11 0.250000 0.000000 0.216217
O O12 0.250000 0.287797 0.749880
O O13 0.116165 0.230025 0.816660
O O14 0.042819 0.283172 0.729843
O O15 0.142182 0.000000 0.748970
O O16 0.571734 0.000000 0.713703
O O17 0.250000 0.224103 0.885635
O O18 0.135756 0.500000 0.873146
O O19 0.250000 0.500000 0.092370
O O20 0.250000 0.500000 0.489311
O O21 0.000000 0.500000 0.500000
#
# Coordination Sequence:
#
# PCOD9399305 Si02
#       8
#     8   8   4   8   8   8   4   4
#     4   9  18  30  46  64  83 110 147 193 245 293
#     4   9  17  34  58  84 117 154 198 245 287 342
#     4  10  18  30  50  72 100 132 156 194 258 317
#     4   9  17  29  45  65  93 129 162 197 246 305
#     4   9  16  29  49  73 101 134 173 208 250 316
#     4   9  17  29  45  63  84 110 150 193 236 294
#     4  10  20  32  44  68  96 114 150 204 248 301
#     4  10  22  40  62  90 124 160 206 252 298 344
#
# _framework density 19.339024999999999
#
# number of rings (size 3 to 8) (size 9 to 14) (size 15 to 20)
#    0.000    2.769    0.769    0.923    1.077    0.308 
#    2.769    0.769    0.000    2.769    0.000    0.000 
#    0.000    0.000    0.000    0.000    0.000    0.000 
#
# Total GULP energy -289564.593674 kJ/mol
# GULP energy per Si atom -5568.549878 kJ/mol
# Density = 1.929501 g / cm^3
# Si number density = 19.339025 Si / 1000 Ang^3
#
#
#
# Elastic Constant Matrix: (Units=GPa)
#
#
# Indices 1 2 3 4 5 6 
#
# 1 142.6444 22.7397 98.5376 0.0000 0.0000 0.0000
# 2 22.7397 59.3806 16.0059 0.0000 0.0000 0.0000
# 3 98.5376 16.0059 96.3649 0.0000 0.0000 0.0000
# 4 0.0000 0.0000 0.0000 20.5248 0.0000 0.0000
# 5 0.0000 0.0000 0.0000 0.0000 17.2734 0.0000
# 6 0.0000 0.0000 0.0000 0.0000 0.0000 -21.3947
#
#
#
# Elastic Compliance Matrix: (Units=1/GPa)
#
#
# Indices 1 2 3 4 5 6 
#
# 1 0.024290 -0.002729 -0.024384 0.000000 0.000000 0.000000
# 2 -0.002729 0.017936 -0.000189 0.000000 0.000000 0.000000
# 3 -0.024384 -0.000189 0.035343 0.000000 0.000000 0.000000
# 4 0.000000 0.000000 0.000000 0.048722 0.000000 0.000000
# 5 0.000000 0.000000 0.000000 0.000000 0.057892 0.000000
# 6 0.000000 0.000000 0.000000 0.000000 0.000000 -0.046740
#
#
# Mechanical properties :
#
#
# Convention : Reuss Voigt Hill
#
# Bulk Modulus (GPa) = 43.54436 63.66180 53.60308
# Shear Modulus (GPa) = 25.03731 14.02114 19.52923
#
# Velocity S-wave (km/s) = 3.60203 2.69554 3.18124
# Velocity P-wave (km/s) = 6.31385 6.53285 6.42429
#
# Compressibility (1/GPa) = 0.02296508
#
# Stress axis : x y z
#
# Youngs Moduli (GPa) = 41.16908 55.75244 28.29431
#
# Poissons Ratio (x) = 0.15215 0.68994
# Poissons Ratio (y) = 0.11235 0.00534
# Poissons Ratio (z) = 1.00389 0.01052
#
# Static dielectric constant tensor:
#      x y z
#    x 1.734620 0.000000 0.000000 
#    y 0.000000 1.734450 0.000000 
#    z 0.000000 0.000000 1.658590 
# 
# From -- ./inp_files/36585.got.cif
#   From: 2010.05.17/outbox.cif.g08.bks.cpg/sg51_19_cif.got.tgz:36585.got - 2010.06.03 11:52:47.
