data_PCOD9399855
_publ_section_title
;
Structure prediction by ZEFSAII (Michael W. Deem and Ramdas Pophale) SiO2 
 PCOD9399855
Probable space group: P M M A
;
_chemical_formula_sum "Si O2"
_cell_formula_units_Z 36
_cell_length_a 14.755182
_cell_length_b 13.697086
_cell_length_c 9.564262
_cell_angle_alpha 90.000000
_cell_angle_beta 90.000000
_cell_angle_gamma 90.000000
_cell_volume 1932.966012
_symmetry_space_group_name_H-M "P M M A"
_symmetry_group_IT_number 51
_symmetry_cell_setting 'orthorhombic'
loop_
_space_group_symop_operation_xyz
x,y,z
1/2-x,-y,z
1/2+x,-y,-z
-x,y,-z
-x,-y,-z
1/2+x,y,-z
1/2-x,y,z
x,-y,z
loop_
_atom_site_type_symbol
_atom_site_label
_atom_site_fract_x
_atom_site_fract_y
_atom_site_fract_z
Si Si1 0.500000 0.755713 0.000000
Si Si2 0.897031 0.391645 0.554281
Si Si3 0.353084 0.823261 0.499611
Si Si4 0.643078 0.387800 0.883123
Si Si5 0.499513 0.114704 0.724739
O O1 0.586139 0.685788 0.976476
O O2 0.491445 0.822692 0.864107
O O3 0.860182 0.500000 0.519134
O O4 0.852171 0.294749 0.493139
O O5 0.891097 0.382571 0.722415
O O6 0.000000 0.388906 0.500000
O O7 0.250000 0.859050 0.495256
O O8 0.411811 0.852090 0.363105
O O9 0.412580 0.864543 0.626781
O O10 0.750000 0.365783 0.882474
O O11 0.630783 0.500000 0.929669
O O12 0.505888 0.000000 0.753266
#
# Coordination Sequence:
#
# PCOD9399855 Si02
#       5
#     4   8   8   8   8
#     4  12  22  40  64  88 120 162 204 248 300 364
#     4  10  18  33  59  92 124 154 190 236 295 362
#     4  11  21  40  65  88 117 158 200 246 305 365
#     4  10  21  37  59  89 125 161 196 239 295 363
#     4  11  25  42  60  87 118 155 206 260 306 352
#
# _framework density 18.624227999999999
#
# number of rings (size 3 to 8) (size 9 to 14) (size 15 to 20)
#    0.000    1.333    4.444    2.667    0.000    4.000 
#    0.000    1.111    0.000    4.000    0.000    0.000 
#    0.000    0.000    0.000    0.000    0.000    0.000 
#
# Total GULP energy -201044.185119 kJ/mol
# GULP energy per Si atom -5584.560698 kJ/mol
# Density = 1.858184 g / cm^3
# Si number density = 18.624228 Si / 1000 Ang^3
#
#
#
# Elastic Constant Matrix: (Units=GPa)
#
#
# Indices 1 2 3 4 5 6 
#
# 1 167.8239 68.4079 75.9127 0.0000 0.0000 0.0000
# 2 68.4079 139.9084 51.0072 0.0000 0.0000 0.0000
# 3 75.9127 51.0072 107.2732 0.0000 0.0000 0.0000
# 4 0.0000 0.0000 0.0000 -20.4621 0.0000 0.0000
# 5 0.0000 0.0000 0.0000 0.0000 -12.9776 0.0000
# 6 0.0000 0.0000 0.0000 0.0000 0.0000 -2.9168
#
#
#
# Elastic Compliance Matrix: (Units=1/GPa)
#
#
# Indices 1 2 3 4 5 6 
#
# 1 0.009517 -0.002659 -0.005470 0.000000 0.000000 0.000000
# 2 -0.002659 0.009389 -0.002583 0.000000 0.000000 0.000000
# 3 -0.005470 -0.002583 0.014421 0.000000 0.000000 0.000000
# 4 0.000000 0.000000 0.000000 -0.048871 0.000000 0.000000
# 5 0.000000 0.000000 0.000000 0.000000 -0.077056 0.000000
# 6 0.000000 0.000000 0.000000 0.000000 0.000000 -0.342844
#
#
# Mechanical properties :
#
#
# Convention : Reuss Voigt Hill
#
# Bulk Modulus (GPa) = 84.01221 89.51790 86.76505
# Shear Modulus (GPa) = -12.19360 7.37386 -2.40987
#
# Velocity S-wave (km/s) = -2.56152 1.99195 -1.13875
# Velocity P-wave (km/s) = 6.03809 7.31164 6.70517
#
# Compressibility (1/GPa) = 0.01190303
#
# Stress axis : x y z
#
# Youngs Moduli (GPa) = 105.07612 106.50477 69.34166
#
# Poissons Ratio (x) = 0.28318 0.37933
# Poissons Ratio (y) = 0.27938 0.17910
# Poissons Ratio (z) = 0.57481 0.27509
#
# Static dielectric constant tensor:
#      x y z
#    x 1.484840 0.000000 0.000000 
#    y 0.000000 1.666000 0.000000 
#    z 0.000000 0.000000 1.612700 
# 
# From -- ./inp_files/7804.got.cif
#   From: 2010.05.17/outbox.cif.g08.bks.cpg/sg51_4_cif.got.tgz:7804.got - 2010.06.03 11:52:47.
