data_PCOD9399740
_publ_section_title
;
Structure prediction by ZEFSAII (Michael W. Deem and Ramdas Pophale) SiO2 
 PCOD9399740
Probable space group: P M M A
;
_chemical_formula_sum "Si O2"
_cell_formula_units_Z 48
_cell_length_a 19.615934
_cell_length_b 7.546248
_cell_length_c 15.685825
_cell_angle_alpha 90.000000
_cell_angle_beta 90.000000
_cell_angle_gamma 90.000000
_cell_volume 2321.920954
_symmetry_space_group_name_H-M "P M M A"
_symmetry_group_IT_number 51
_symmetry_cell_setting 'orthorhombic'
loop_
_space_group_symop_operation_xyz
x,y,z
1/2-x,-y,z
1/2+x,-y,-z
-x,y,-z
-x,-y,-z
1/2+x,y,-z
1/2-x,y,z
x,-y,z
loop_
_atom_site_type_symbol
_atom_site_label
_atom_site_fract_x
_atom_site_fract_y
_atom_site_fract_z
Si Si1 0.924378 0.716427 0.469700
Si Si2 0.574219 0.712543 0.277289
Si Si3 0.826866 0.210041 0.121575
Si Si4 0.671869 0.283181 0.623196
Si Si5 0.423123 0.283133 0.221620
Si Si6 0.427354 0.290486 0.031822
O O1 0.923744 0.500000 0.469589
O O2 0.911533 0.776664 0.373076
O O3 0.868950 0.773537 0.538891
O O4 0.000000 0.769048 0.500000
O O5 0.569437 0.500000 0.282115
O O6 0.631448 0.752602 0.207759
O O7 0.499791 0.773996 0.245941
O O8 0.750000 0.283468 0.123288
O O9 0.822218 0.000000 0.113737
O O10 0.871010 0.271175 0.040812
O O11 0.750000 0.225444 0.623846
O O12 0.671789 0.500000 0.623168
O O13 0.630132 0.225520 0.706668
O O14 0.422199 0.500000 0.223849
O O15 0.407718 0.222762 0.125457
O O16 0.438396 0.500000 0.044142
O O17 0.500000 0.215745 0.000000
#
# Coordination Sequence:
#
# PCOD9399740 Si02
#       6
#     8   8   8   8   8   8
#     4   9  15  25  46  75 107 141 173 213 265 313
#     4  10  18  32  56  81 106 139 180 223 265 315
#     4  11  25  41  54  75 110 146 180 224 274 318
#     4   9  16  25  39  68 109 141 167 208 264 321
#     4   9  16  28  48  76 106 135 168 213 269 322
#     4  10  19  34  58  84 106 133 176 225 269 321
#
# _framework density 20.672537999999999
#
# number of rings (size 3 to 8) (size 9 to 14) (size 15 to 20)
#    0.000    2.333    3.333    0.500    0.000    3.000 
#    0.000    3.333    0.000    0.500    0.000    0.000 
#    0.000    4.000    0.000    0.000    0.000    0.000 
#
# Total GULP energy -268028.986989 kJ/mol
# GULP energy per Si atom -5583.937229 kJ/mol
# Density = 2.062549 g / cm^3
# Si number density = 20.672538 Si / 1000 Ang^3
#
#
#
# Elastic Constant Matrix: (Units=GPa)
#
#
# Indices 1 2 3 4 5 6 
#
# 1 180.0862 -12.6156 101.8363 0.0000 0.0000 0.0000
# 2 -12.6156 41.7750 -10.1457 0.0000 0.0000 0.0000
# 3 101.8363 -10.1457 214.4606 0.0000 0.0000 0.0000
# 4 0.0000 0.0000 0.0000 -35.5197 0.0000 0.0000
# 5 0.0000 0.0000 0.0000 0.0000 34.6626 0.0000
# 6 0.0000 0.0000 0.0000 0.0000 0.0000 12.6206
#
#
#
# Elastic Compliance Matrix: (Units=1/GPa)
#
#
# Indices 1 2 3 4 5 6 
#
# 1 0.007677 0.001450 -0.003577 0.000000 0.000000 0.000000
# 2 0.001450 0.024490 0.000470 0.000000 0.000000 0.000000
# 3 -0.003577 0.000470 0.006384 0.000000 0.000000 0.000000
# 4 0.000000 0.000000 0.000000 -0.028153 0.000000 0.000000
# 5 0.000000 0.000000 0.000000 0.000000 0.028850 0.000000
# 6 0.000000 0.000000 0.000000 0.000000 0.000000 0.079236
#
#
# Mechanical properties :
#
#
# Convention : Reuss Voigt Hill
#
# Bulk Modulus (GPa) = 28.37973 66.05243 47.21608
# Shear Modulus (GPa) = 37.44144 26.16916 31.80530
#
# Velocity S-wave (km/s) = 4.26040 3.56179 3.92666
# Velocity P-wave (km/s) = 6.16112 6.99545 6.59150
#
# Compressibility (1/GPa) = 0.03523642
#
# Stress axis : x y z
#
# Youngs Moduli (GPa) = 130.25689 40.83345 156.65174
#
# Poissons Ratio (x) = -0.05920 0.56033
# Poissons Ratio (y) = -0.18883 -0.07365
# Poissons Ratio (z) = 0.46592 -0.01920
#
# Static dielectric constant tensor:
#      x y z
#    x 1.701250 0.000000 0.000000 
#    y 0.000000 1.778200 0.000000 
#    z 0.000000 0.000000 1.761870 
# 
# From -- ./inp_files/25052.got.cif
#   From: 2010.05.17/outbox.cif.g08.bks.cpg/sg51_13_cif.got.tgz:25052.got - 2010.06.03 11:52:47.
