data_PCOD9399238
_publ_section_title
;
Structure prediction by ZEFSAII (Michael W. Deem and Ramdas Pophale) SiO2 
 PCOD9399238
Probable space group: P M M A
;
_chemical_formula_sum "Si O2"
_cell_formula_units_Z 48
_cell_length_a 19.175719
_cell_length_b 9.534304
_cell_length_c 15.697303
_cell_angle_alpha 90.000000
_cell_angle_beta 90.000000
_cell_angle_gamma 90.000000
_cell_volume 2869.892925
_symmetry_space_group_name_H-M "P M M A"
_symmetry_group_IT_number 51
_symmetry_cell_setting 'orthorhombic'
loop_
_space_group_symop_operation_xyz
x,y,z
1/2-x,-y,z
1/2+x,-y,-z
-x,y,-z
-x,-y,-z
1/2+x,y,-z
1/2-x,y,z
x,-y,z
loop_
_atom_site_type_symbol
_atom_site_label
_atom_site_fract_x
_atom_site_fract_y
_atom_site_fract_z
Si Si1 0.054969 0.836075 0.269500
Si Si2 0.073568 0.662230 0.107728
Si Si3 0.905447 0.336401 0.080518
Si Si4 0.421536 0.834656 0.463629
Si Si5 0.832376 0.337533 0.403024
Si Si6 0.887589 0.834969 0.244192
O O1 0.087964 0.750845 0.191759
O O2 0.077778 0.793776 0.364252
O O3 0.970740 0.822497 0.263482
O O4 0.070812 0.000000 0.259016
O O5 0.092154 0.500000 0.120805
O O6 0.989512 0.667286 0.094043
O O7 0.106404 0.708099 0.017472
O O8 0.884534 0.500000 0.090769
O O9 0.874421 0.236672 0.152701
O O10 0.500000 0.822827 0.500000
O O11 0.372403 0.738663 0.520469
O O12 0.402298 0.000000 0.470722
O O13 0.750000 0.335067 0.418421
O O14 0.854781 0.500000 0.393803
O O15 0.849273 0.251166 0.317582
O O16 0.870222 0.000000 0.245054
#
# Coordination Sequence:
#
# PCOD9399238 Si02
#       6
#     8   8   8   8   8   8
#     4   9  17  28  45  70  99 127 160 205 249 294
#     4   8  14  24  39  62  95 130 161 194 235 287
#     4   8  14  25  40  62  94 129 161 195 236 283
#     4  10  19  35  54  74 101 131 168 212 256 306
#     4  11  24  38  51  72 101 132 170 213 254 304
#     4  10  18  30  48  70  96 129 165 202 247 299
#
# _framework density 16.725362000000001
#
# number of rings (size 3 to 8) (size 9 to 14) (size 15 to 20)
#    0.000    2.667    1.667    2.000    0.000    3.667 
#    0.000    3.333    0.000    0.000    0.000    1.167 
#    0.000    6.667    0.000    0.000    0.000    0.000 
#
# Total GULP energy -267465.923984 kJ/mol
# GULP energy per Si atom -5572.206750 kJ/mol
# Density = 1.668729 g / cm^3
# Si number density = 16.725362 Si / 1000 Ang^3
#
#
#
# Elastic Constant Matrix: (Units=GPa)
#
#
# Indices 1 2 3 4 5 6 
#
# 1 20.6929 35.2269 31.5386 0.0000 0.0000 0.0000
# 2 35.2269 104.2321 95.9088 0.0000 0.0000 0.0000
# 3 31.5386 95.9088 182.7267 0.0000 0.0000 0.0000
# 4 0.0000 0.0000 0.0000 38.0402 0.0000 0.0000
# 5 0.0000 0.0000 0.0000 0.0000 6.1661 0.0000
# 6 0.0000 0.0000 0.0000 0.0000 0.0000 14.3609
#
#
#
# Elastic Compliance Matrix: (Units=1/GPa)
#
#
# Indices 1 2 3 4 5 6 
#
# 1 0.113904 -0.039467 0.001055 0.000000 0.000000 0.000000
# 2 -0.039467 0.032231 -0.010105 0.000000 0.000000 0.000000
# 3 0.001055 -0.010105 0.010594 0.000000 0.000000 0.000000
# 4 0.000000 0.000000 0.000000 0.026288 0.000000 0.000000
# 5 0.000000 0.000000 0.000000 0.000000 0.162178 0.000000
# 6 0.000000 0.000000 0.000000 0.000000 0.000000 0.069634
#
#
# Mechanical properties :
#
#
# Convention : Reuss Voigt Hill
#
# Bulk Modulus (GPa) = 16.75151 70.33337 43.54244
# Shear Modulus (GPa) = 9.40273 21.37860 15.39066
#
# Velocity S-wave (km/s) = 2.37361 3.57909 3.03677
# Velocity P-wave (km/s) = 4.18920 7.69565 6.19566
#
# Compressibility (1/GPa) = 0.05969610
#
# Stress axis : x y z
#
# Youngs Moduli (GPa) = 8.77930 31.02644 94.38935
#
# Poissons Ratio (x) = 1.22451 -0.09961
# Poissons Ratio (y) = 0.34649 0.95381
# Poissons Ratio (z) = -0.00927 0.31352
#
# Static dielectric constant tensor:
#      x y z
#    x 1.540310 0.000000 0.000000 
#    y 0.000000 1.558410 0.000000 
#    z 0.000000 0.000000 1.569160 
# 
# From -- ./inp_files/25451.got.cif
#   From: 2010.05.17/outbox.cif.g08.bks.cpg/sg51_13_cif.got.tgz:25451.got - 2010.06.03 11:52:47.
