data_PCOD9399076
_publ_section_title
;
Structure prediction by ZEFSAII (Michael W. Deem and Ramdas Pophale) SiO2 
 PCOD9399076
Probable space group: P M M A
;
_chemical_formula_sum "Si O2"
_cell_formula_units_Z 56
_cell_length_a 21.820777
_cell_length_b 7.638739
_cell_length_c 17.460229
_cell_angle_alpha 90.000000
_cell_angle_beta 90.000000
_cell_angle_gamma 90.000000
_cell_volume 2910.327197
_symmetry_space_group_name_H-M "P M M A"
_symmetry_group_IT_number 51
_symmetry_cell_setting 'orthorhombic'
loop_
_space_group_symop_operation_xyz
x,y,z
1/2-x,-y,z
1/2+x,-y,-z
-x,y,-z
-x,-y,-z
1/2+x,y,-z
1/2-x,y,z
x,-y,z
loop_
_atom_site_type_symbol
_atom_site_label
_atom_site_fract_x
_atom_site_fract_y
_atom_site_fract_z
Si Si1 0.319768 0.214348 0.642678
Si Si2 0.681280 0.210744 0.047511
Si Si3 0.559535 0.709968 0.952204
Si Si4 0.595160 0.799425 0.485714
Si Si5 0.115958 0.787310 0.798632
Si Si6 0.484267 0.702160 0.378932
Si Si7 0.523677 0.702817 0.790966
O O1 0.250000 0.267837 0.652052
O O2 0.348907 0.275227 0.563030
O O3 0.359045 0.268782 0.716129
O O4 0.321772 0.000000 0.641423
O O5 0.750000 0.274956 0.028105
O O6 0.661073 0.266178 0.133004
O O7 0.684096 0.000000 0.048194
O O8 0.624253 0.257465 0.993082
O O9 0.551729 0.500000 0.947244
O O10 0.557385 0.779796 0.865067
O O11 0.500000 0.776110 0.000000
O O12 0.539019 0.795353 0.424566
O O13 0.572434 0.708059 0.562538
O O14 0.607709 0.000000 0.506174
O O15 0.048318 0.713816 0.811115
O O16 0.111834 0.000000 0.799121
O O17 0.503681 0.500000 0.369754
O O18 0.470820 0.777784 0.294939
O O19 0.542975 0.500000 0.784073
#
# Coordination Sequence:
#
# PCOD9399076 Si02
#       7
#     8   8   8   8   8   8   8
#     4   9  17  29  46  70 100 132 162 195 236 286
#     4  10  21  35  52  77 107 137 171 211 256 309
#     4  10  20  35  54  75 101 135 174 215 257 303
#     4  10  18  29  48  72  96 124 164 201 232 286
#     4  10  18  30  50  74 102 135 166 197 244 304
#     4  10  19  31  48  68  96 128 156 197 250 291
#     4  10  20  33  50  73 102 132 165 208 253 299
#
# _framework density 19.241823
#
# number of rings (size 3 to 8) (size 9 to 14) (size 15 to 20)
#    0.000    2.143    2.857    2.143    0.000    3.429 
#    0.000    0.000    0.000    5.571    0.000    4.000 
#    0.000    0.000    0.000    0.000    0.000    0.000 
#
# Total GULP energy -312375.073869 kJ/mol
# GULP energy per Si atom -5578.126319 kJ/mol
# Density = 1.919803 g / cm^3
# Si number density = 19.241823 Si / 1000 Ang^3
#
#
#
# Elastic Constant Matrix: (Units=GPa)
#
#
# Indices 1 2 3 4 5 6 
#
# 1 83.2613 -8.4706 45.5115 0.0000 0.0000 0.0000
# 2 -8.4706 39.3295 2.1371 0.0000 0.0000 0.0000
# 3 45.5115 2.1371 128.3970 0.0000 0.0000 0.0000
# 4 0.0000 0.0000 0.0000 2.3463 0.0000 0.0000
# 5 0.0000 0.0000 0.0000 0.0000 26.6917 0.0000
# 6 0.0000 0.0000 0.0000 0.0000 0.0000 23.4753
#
#
#
# Elastic Compliance Matrix: (Units=1/GPa)
#
#
# Indices 1 2 3 4 5 6 
#
# 1 0.015394 0.003615 -0.005517 0.000000 0.000000 0.000000
# 2 0.003615 0.026298 -0.001719 0.000000 0.000000 0.000000
# 3 -0.005517 -0.001719 0.009772 0.000000 0.000000 0.000000
# 4 0.000000 0.000000 0.000000 0.426203 0.000000 0.000000
# 5 0.000000 0.000000 0.000000 0.000000 0.037465 0.000000
# 6 0.000000 0.000000 0.000000 0.000000 0.000000 0.042598
#
#
# Mechanical properties :
#
#
# Convention : Reuss Voigt Hill
#
# Bulk Modulus (GPa) = 22.61262 36.59376 29.60319
# Shear Modulus (GPa) = 8.62497 24.62331 16.62414
#
# Velocity S-wave (km/s) = 2.11947 3.58114 2.94251
# Velocity P-wave (km/s) = 4.21507 6.01319 5.19256
#
# Compressibility (1/GPa) = 0.04422309
#
# Stress axis : x y z
#
# Youngs Moduli (GPa) = 64.96213 38.02532 102.32945
#
# Poissons Ratio (x) = -0.13747 0.56451
# Poissons Ratio (y) = -0.23485 0.17592
# Poissons Ratio (z) = 0.35837 0.06537
#
# Static dielectric constant tensor:
#      x y z
#    x 1.655720 0.000000 0.000000 
#    y 0.000000 1.725120 0.000000 
#    z 0.000000 0.000000 1.698820 
# 
# From -- ./inp_files/30449.got.cif
#   From: 2010.05.17/outbox.cif.g08.bks.cpg/sg51_16_cif.got.tgz:30449.got - 2010.06.03 11:52:47.
