data_PCOD9399555
_publ_section_title
;
Structure prediction by ZEFSAII (Michael W. Deem and Ramdas Pophale) SiO2 
 PCOD9399555
Probable space group: P M M A
;
_chemical_formula_sum "Si O2"
_cell_formula_units_Z 48
_cell_length_a 15.388437
_cell_length_b 9.441282
_cell_length_c 17.586070
_cell_angle_alpha 90.000000
_cell_angle_beta 90.000000
_cell_angle_gamma 90.000000
_cell_volume 2555.019847
_symmetry_space_group_name_H-M "P M M A"
_symmetry_group_IT_number 51
_symmetry_cell_setting 'orthorhombic'
loop_
_space_group_symop_operation_xyz
x,y,z
1/2-x,-y,z
1/2+x,-y,-z
-x,y,-z
-x,-y,-z
1/2+x,y,-z
1/2-x,y,z
x,-y,z
loop_
_atom_site_type_symbol
_atom_site_label
_atom_site_fract_x
_atom_site_fract_y
_atom_site_fract_z
Si Si1 0.104596 0.163877 0.149710
Si Si2 0.506164 0.330124 0.411986
Si Si3 0.650650 0.168398 0.317432
Si Si4 0.151252 0.666632 0.300705
Si Si5 0.106150 0.163598 0.853679
Si Si6 0.106264 0.337248 0.000980
O O1 0.136012 0.240631 0.225787
O O2 0.999068 0.166935 0.150224
O O3 0.131550 0.000000 0.147060
O O4 0.133549 0.248601 0.074837
O O5 0.500000 0.287673 0.500000
O O6 0.518775 0.500000 0.409388
O O7 0.584312 0.253328 0.369130
O O8 0.418411 0.297237 0.365360
O O9 0.750000 0.191369 0.340730
O O10 0.639867 0.209169 0.228771
O O11 0.631692 0.000000 0.321120
O O12 0.250000 0.685077 0.327599
O O13 0.139172 0.500000 0.281086
O O14 0.134441 0.261211 0.923395
O O15 0.132103 0.000000 0.867046
O O16 0.134270 0.500000 0.005242
O O17 0.000000 0.336379 0.000000
#
# Coordination Sequence:
#
# PCOD9399555 Si02
#       6
#     8   8   8   8   8   8
#     4  10  18  31  53  79 109 148 193 238 284 334
#     4  10  22  40  63  89 116 149 187 232 286 345
#     4  10  21  38  60  87 119 154 191 234 285 339
#     4  10  21  37  57  82 114 150 188 233 285 340
#     4   9  17  31  51  77 110 149 192 237 282 330
#     4   9  17  28  47  77 110 148 193 237 282 331
#
# _framework density 18.786546999999999
#
# number of rings (size 3 to 8) (size 9 to 14) (size 15 to 20)
#    0.000    2.333    1.667    1.000    0.000    5.000 
#    0.000    2.500    0.000    3.000    0.000    0.000 
#    0.000    0.000    0.000    0.000    0.000    0.000 
#
# Total GULP energy -268072.848091 kJ/mol
# GULP energy per Si atom -5584.851002 kJ/mol
# Density = 1.874379 g / cm^3
# Si number density = 18.786547 Si / 1000 Ang^3
#
#
#
# Elastic Constant Matrix: (Units=GPa)
#
#
# Indices 1 2 3 4 5 6 
#
# 1 78.1891 53.0410 70.6350 0.0000 0.0000 0.0000
# 2 53.0410 93.4844 94.5097 0.0000 0.0000 0.0000
# 3 70.6350 94.5097 183.9666 0.0000 0.0000 0.0000
# 4 0.0000 0.0000 0.0000 31.3318 0.0000 0.0000
# 5 0.0000 0.0000 0.0000 0.0000 -10.8933 0.0000
# 6 0.0000 0.0000 0.0000 0.0000 0.0000 15.4132
#
#
#
# Elastic Compliance Matrix: (Units=1/GPa)
#
#
# Indices 1 2 3 4 5 6 
#
# 1 0.022311 -0.008319 -0.004293 0.000000 0.000000 0.000000
# 2 -0.008319 0.025358 -0.009833 0.000000 0.000000 0.000000
# 3 -0.004293 -0.009833 0.012136 0.000000 0.000000 0.000000
# 4 0.000000 0.000000 0.000000 0.031916 0.000000 0.000000
# 5 0.000000 0.000000 0.000000 0.000000 -0.091799 0.000000
# 6 0.000000 0.000000 0.000000 0.000000 0.000000 0.064880
#
#
# Mechanical properties :
#
#
# Convention : Reuss Voigt Hill
#
# Bulk Modulus (GPa) = 67.04720 88.00127 77.52424
# Shear Modulus (GPa) = 43.60662 16.33396 29.97029
#
# Velocity S-wave (km/s) = 4.82307 2.95184 3.99846
# Velocity P-wave (km/s) = 8.17205 7.65260 7.91659
#
# Compressibility (1/GPa) = 0.01491487
#
# Stress axis : x y z
#
# Youngs Moduli (GPa) = 44.82156 39.43546 82.40274
#
# Poissons Ratio (x) = 0.32806 0.35372
# Poissons Ratio (y) = 0.37287 0.81027
# Poissons Ratio (z) = 0.19240 0.38777
#
# Static dielectric constant tensor:
#      x y z
#    x 1.670460 0.000000 0.000000 
#    y 0.000000 1.630870 0.000000 
#    z 0.000000 0.000000 1.607950 
# 
# From -- ./inp_files/29418.got.cif
#   From: 2010.05.17/outbox.cif.g08.bks.cpg/sg51_15_cif.got.tgz:29418.got - 2010.06.03 11:52:47.
