data_PCOD9399632
_publ_section_title
;
Structure prediction by ZEFSAII (Michael W. Deem and Ramdas Pophale) SiO2 
 PCOD9399632
Probable space group: P M M A
;
_chemical_formula_sum "Si O2"
_cell_formula_units_Z 36
_cell_length_a 8.605264
_cell_length_b 15.885857
_cell_length_c 14.674685
_cell_angle_alpha 90.000000
_cell_angle_beta 90.000000
_cell_angle_gamma 90.000000
_cell_volume 2006.058691
_symmetry_space_group_name_H-M "P M M A"
_symmetry_group_IT_number 51
_symmetry_cell_setting 'orthorhombic'
loop_
_space_group_symop_operation_xyz
x,y,z
1/2-x,-y,z
1/2+x,-y,-z
-x,y,-z
-x,-y,-z
1/2+x,y,-z
1/2-x,y,z
x,-y,z
loop_
_atom_site_type_symbol
_atom_site_label
_atom_site_fract_x
_atom_site_fract_y
_atom_site_fract_z
Si Si1 0.065342 0.676543 0.897964
Si Si2 0.562618 0.904461 0.600510
Si Si3 0.564272 0.500000 0.896622
Si Si4 0.937048 0.403989 0.397047
Si Si5 0.563368 0.251094 0.724323
O O1 0.250000 0.672120 0.902906
O O2 0.001057 0.587268 0.859682
O O3 0.008005 0.743877 0.824989
O O4 0.000000 0.688983 0.000000
O O5 0.500000 0.884444 0.500000
O O6 0.750000 0.903523 0.596981
O O7 0.513843 0.833235 0.671412
O O8 0.512877 0.000000 0.623500
O O9 0.750000 0.500000 0.895508
O O10 0.500000 0.500000 0.000000
O O11 0.750000 0.397597 0.396981
O O12 0.978720 0.500000 0.368287
O O13 0.000000 0.393147 0.500000
O O14 0.006673 0.331423 0.333933
O O15 0.750000 0.253310 0.730435
#
# Coordination Sequence:
#
# PCOD9399632 Si02
#       5
#     8   8   4   8   8
#     4  11  22  37  55  77 108 143 184 230 277 324
#     4   9  19  36  58  84 113 143 177 222 275 328
#     4  10  18  32  52  74 101 136 179 224 270 316
#     4  10  21  36  52  73 106 145 184 223 267 320
#     4  11  22  35  55  81 109 143 183 226 274 329
#
# _framework density 17.945637000000001
#
# number of rings (size 3 to 8) (size 9 to 14) (size 15 to 20)
#    0.000    1.778    0.000    6.333    1.556    4.889 
#    0.000    0.000    0.000    0.667    0.000    0.000 
#    0.000    0.000    0.000    0.000    0.000    0.000 
#
# Total GULP energy -201067.233625 kJ/mol
# GULP energy per Si atom -5585.200934 kJ/mol
# Density = 1.790479 g / cm^3
# Si number density = 17.945637 Si / 1000 Ang^3
#
#
#
# Elastic Constant Matrix: (Units=GPa)
#
#
# Indices 1 2 3 4 5 6 
#
# 1 100.6937 47.2790 42.3021 0.0000 0.0000 0.0000
# 2 47.2790 112.3024 90.8355 0.0000 0.0000 0.0000
# 3 42.3021 90.8355 122.2208 0.0000 0.0000 0.0000
# 4 0.0000 0.0000 0.0000 27.7489 0.0000 0.0000
# 5 0.0000 0.0000 0.0000 0.0000 29.4842 0.0000
# 6 0.0000 0.0000 0.0000 0.0000 0.0000 19.1000
#
#
#
# Elastic Compliance Matrix: (Units=1/GPa)
#
#
# Indices 1 2 3 4 5 6 
#
# 1 0.012430 -0.004395 -0.001035 0.000000 0.000000 0.000000
# 2 -0.004395 0.023879 -0.016226 0.000000 0.000000 0.000000
# 3 -0.001035 -0.016226 0.020600 0.000000 0.000000 0.000000
# 4 0.000000 0.000000 0.000000 0.036037 0.000000 0.000000
# 5 0.000000 0.000000 0.000000 0.000000 0.033916 0.000000
# 6 0.000000 0.000000 0.000000 0.000000 0.000000 0.052356
#
#
# Mechanical properties :
#
#
# Convention : Reuss Voigt Hill
#
# Bulk Modulus (GPa) = 73.55594 77.33890 75.44742
# Shear Modulus (GPa) = 22.02019 25.58664 23.80342
#
# Velocity S-wave (km/s) = 3.50673 3.78006 3.64595
# Velocity P-wave (km/s) = 7.58112 7.88933 7.73676
#
# Compressibility (1/GPa) = 0.01359509
#
# Stress axis : x y z
#
# Youngs Moduli (GPa) = 80.45114 41.87710 48.54466
#
# Poissons Ratio (x) = 0.18407 0.05026
# Poissons Ratio (y) = 0.35362 0.78769
# Poissons Ratio (z) = 0.08330 0.67950
#
# Static dielectric constant tensor:
#      x y z
#    x 1.601750 0.000000 0.000000 
#    y 0.000000 1.636380 0.000000 
#    z 0.000000 0.000000 1.596700 
# 
# From -- ./inp_files/20338.got.cif
#   From: 2010.05.17/outbox.cif.g08.bks.cpg/sg51_11_cif.got.tgz:20338.got - 2010.06.03 11:52:47.
