data_PCOD9399913
_publ_section_title
;
Structure prediction by ZEFSAII (Michael W. Deem and Ramdas Pophale) SiO2 
 PCOD9399913
Probable space group: P M M A
;
_chemical_formula_sum "Si O2"
_cell_formula_units_Z 48
_cell_length_a 15.344714
_cell_length_b 18.437773
_cell_length_c 8.989708
_cell_angle_alpha 90.000000
_cell_angle_beta 90.000000
_cell_angle_gamma 90.000000
_cell_volume 2543.389344
_symmetry_space_group_name_H-M "P M M A"
_symmetry_group_IT_number 51
_symmetry_cell_setting 'orthorhombic'
loop_
_space_group_symop_operation_xyz
x,y,z
1/2-x,-y,z
1/2+x,-y,-z
-x,y,-z
-x,-y,-z
1/2+x,y,-z
1/2-x,y,z
x,-y,z
loop_
_atom_site_type_symbol
_atom_site_label
_atom_site_fract_x
_atom_site_fract_y
_atom_site_fract_z
Si Si1 0.005176 0.915201 0.172822
Si Si2 0.079113 0.685481 0.407473
Si Si3 0.646431 0.582107 0.330383
Si Si4 0.153642 0.168221 0.358580
Si Si5 0.547630 0.687970 0.155718
Si Si6 0.647887 0.168940 0.284669
O O1 0.076476 0.869646 0.266446
O O2 0.908140 0.898695 0.229391
O O3 0.026866 0.000000 0.184997
O O4 0.000000 0.894058 0.000000
O O5 0.116156 0.627923 0.524014
O O6 0.145056 0.744927 0.346959
O O7 0.000000 0.723891 0.500000
O O8 0.028693 0.658091 0.264099
O O9 0.750000 0.580338 0.335863
O O10 0.612235 0.500000 0.335026
O O11 0.618096 0.624836 0.181342
O O12 0.250000 0.143278 0.311193
O O13 0.145704 0.160782 0.536745
O O14 0.595586 0.760562 0.220031
O O15 0.500000 0.701270 0.000000
O O16 0.750000 0.172731 0.241053
#
# Coordination Sequence:
#
# PCOD9399913 Si02
#       6
#     8   8   8   8   8   8
#     4  11  25  44  62  88 129 166 200 249 314 378
#     4  10  18  34  61  88 122 162 207 256 306 368
#     4  10  21  39  62  89 123 166 216 265 312 368
#     4  11  21  37  64  93 121 158 209 257 300 358
#     4  11  22  37  59  91 130 162 207 258 312 378
#     4  11  22  39  64  91 121 160 211 262 310 363
#
# _framework density 18.872456
#
# number of rings (size 3 to 8) (size 9 to 14) (size 15 to 20)
#    0.000    1.333    5.000    2.000    0.000    6.000 
#    0.000    5.833    0.000    2.000    0.000    0.000 
#    0.000    0.000    0.000    0.000    0.000    0.000 
#
# Total GULP energy -267227.902523 kJ/mol
# GULP energy per Si atom -5567.247969 kJ/mol
# Density = 1.882950 g / cm^3
# Si number density = 18.872456 Si / 1000 Ang^3
#
#
#
# Elastic Constant Matrix: (Units=GPa)
#
#
# Indices 1 2 3 4 5 6 
#
# 1 118.8793 35.2724 62.7247 0.0000 0.0000 0.0000
# 2 35.2724 71.3375 39.3977 0.0000 0.0000 0.0000
# 3 62.7247 39.3977 81.8361 0.0000 0.0000 0.0000
# 4 0.0000 0.0000 0.0000 18.4900 0.0000 0.0000
# 5 0.0000 0.0000 0.0000 0.0000 18.7635 0.0000
# 6 0.0000 0.0000 0.0000 0.0000 0.0000 20.0886
#
#
#
# Elastic Compliance Matrix: (Units=1/GPa)
#
#
# Indices 1 2 3 4 5 6 
#
# 1 0.014223 -0.001378 -0.010238 0.000000 0.000000 0.000000
# 2 -0.001378 0.019228 -0.008200 0.000000 0.000000 0.000000
# 3 -0.010238 -0.008200 0.024014 0.000000 0.000000 0.000000
# 4 0.000000 0.000000 0.000000 0.054083 0.000000 0.000000
# 5 0.000000 0.000000 0.000000 0.000000 0.053295 0.000000
# 6 0.000000 0.000000 0.000000 0.000000 0.000000 0.049779
#
#
# Mechanical properties :
#
#
# Convention : Reuss Voigt Hill
#
# Bulk Modulus (GPa) = 56.07808 60.76029 58.41918
# Shear Modulus (GPa) = 19.21605 20.44564 19.83085
#
# Velocity S-wave (km/s) = 3.19440 3.29501 3.24509
# Velocity P-wave (km/s) = 6.58668 6.83676 6.71288
#
# Compressibility (1/GPa) = 0.01783228
#
# Stress axis : x y z
#
# Youngs Moduli (GPa) = 70.31099 52.00681 41.64211
#
# Poissons Ratio (x) = 0.07168 0.42631
# Poissons Ratio (y) = 0.09691 0.34148
# Poissons Ratio (z) = 0.71981 0.42648
#
# Static dielectric constant tensor:
#      x y z
#    x 1.724910 0.000000 0.000000 
#    y 0.000000 1.695390 0.000000 
#    z 0.000000 0.000000 1.704900 
# 
# From -- ./inp_files/8232.got.cif
#   From: 2010.05.17/outbox.cif.g08.bks.cpg/sg51_5_cif.got.tgz:8232.got - 2010.06.03 11:52:47.
