data_PCOD9399434
_publ_section_title
;
Structure prediction by ZEFSAII (Michael W. Deem and Ramdas Pophale) SiO2 
 PCOD9399434
Probable space group: P M M A
;
_chemical_formula_sum "Si O2"
_cell_formula_units_Z 64
_cell_length_a 18.903006
_cell_length_b 14.518034
_cell_length_c 15.313282
_cell_angle_alpha 90.000000
_cell_angle_beta 90.000000
_cell_angle_gamma 90.000000
_cell_volume 4202.492641
_symmetry_space_group_name_H-M "P M M A"
_symmetry_group_IT_number 51
_symmetry_cell_setting 'orthorhombic'
loop_
_space_group_symop_operation_xyz
x,y,z
1/2-x,-y,z
1/2+x,-y,-z
-x,y,-z
-x,-y,-z
1/2+x,y,-z
1/2-x,y,z
x,-y,z
loop_
_atom_site_type_symbol
_atom_site_label
_atom_site_fract_x
_atom_site_fract_y
_atom_site_fract_z
Si Si1 0.550961 0.610218 0.139473
Si Si2 0.170839 0.387697 0.520914
Si Si3 0.393420 0.611047 0.337937
Si Si4 0.609372 0.897314 0.058324
Si Si5 0.329771 0.294396 0.974756
Si Si6 0.041665 0.102459 0.136579
Si Si7 0.401036 0.293985 0.159234
Si Si8 0.443383 0.388801 0.660552
O O1 0.543187 0.500000 0.132583
O O2 0.474127 0.656872 0.127682
O O3 0.573518 0.633921 0.239015
O O4 0.609862 0.646995 0.073688
O O5 0.250000 0.358863 0.544560
O O6 0.169060 0.500000 0.522544
O O7 0.151974 0.361512 0.421787
O O8 0.112254 0.354186 0.589572
O O9 0.390833 0.500000 0.329431
O O10 0.373836 0.654825 0.245278
O O11 0.475311 0.637738 0.355961
O O12 0.542310 0.883551 0.122454
O O13 0.639072 0.000000 0.072930
O O14 0.660607 0.810489 0.059422
O O15 0.575085 0.897150 0.961062
O O16 0.250000 0.326886 0.959088
O O17 0.347981 0.295082 0.077811
O O18 0.077034 0.189309 0.182412
O O19 0.053531 0.000000 0.173323
O O20 0.442248 0.500000 0.654928
#
# Coordination Sequence:
#
# PCOD9399434 Si02
#       8
#     8   8   8   8   8   8   8   8
#     4  10  20  33  47  61  81 116 159 191 214 249
#     4   9  16  26  42  63  86 110 135 171 221 265
#     4   9  17  28  43  63  85 112 146 177 205 248
#     4   8  14  27  45  63  82 105 138 180 225 265
#     4  11  22  31  41  62  90 119 149 182 219 257
#     4   8  13  24  46  68  81 101 138 184 224 254
#     4  10  18  31  47  62  85 118 151 181 212 256
#     4   8  15  28  45  61  77 103 142 184 221 252
#
# _framework density 15.229056999999999
#
# number of rings (size 3 to 8) (size 9 to 14) (size 15 to 20)
#    0.000    2.875    1.250    2.625    0.000    4.500 
#    0.000    1.250    0.000    0.000    0.000    0.000 
#    0.000    9.000    0.000    1.375    0.000    0.125 
#
# Total GULP energy -356293.396421 kJ/mol
# GULP energy per Si atom -5567.084319 kJ/mol
# Density = 1.519440 g / cm^3
# Si number density = 15.229057 Si / 1000 Ang^3
#
#
#
# Elastic Constant Matrix: (Units=GPa)
#
#
# Indices 1 2 3 4 5 6 
#
# 1 17.5580 1.7227 1.8149 0.0000 0.0000 0.0000
# 2 1.7227 47.2391 5.5336 0.0000 0.0000 0.0000
# 3 1.8149 5.5336 23.2781 0.0000 0.0000 0.0000
# 4 0.0000 0.0000 0.0000 2.6942 0.0000 0.0000
# 5 0.0000 0.0000 0.0000 0.0000 8.3707 0.0000
# 6 0.0000 0.0000 0.0000 0.0000 0.0000 10.3993
#
#
#
# Elastic Compliance Matrix: (Units=1/GPa)
#
#
# Indices 1 2 3 4 5 6 
#
# 1 0.057537 -0.001618 -0.004101 0.000000 0.000000 0.000000
# 2 -0.001618 0.021821 -0.005061 0.000000 0.000000 0.000000
# 3 -0.004101 -0.005061 0.044482 0.000000 0.000000 0.000000
# 4 0.000000 0.000000 0.000000 0.371172 0.000000 0.000000
# 5 0.000000 0.000000 0.000000 0.000000 0.119464 0.000000
# 6 0.000000 0.000000 0.000000 0.000000 0.000000 0.096160
#
#
# Mechanical properties :
#
#
# Convention : Reuss Voigt Hill
#
# Bulk Modulus (GPa) = 9.77717 11.80194 10.78956
# Shear Modulus (GPa) = 6.52495 9.55977 8.04236
#
# Velocity S-wave (km/s) = 2.07216 2.50818 2.30052
# Velocity P-wave (km/s) = 3.48700 4.01925 3.76255
#
# Compressibility (1/GPa) = 0.10227905
#
# Stress axis : x y z
#
# Youngs Moduli (GPa) = 17.38018 45.82789 22.48116
#
# Poissons Ratio (x) = 0.07414 0.09220
# Poissons Ratio (y) = 0.02812 0.11378
# Poissons Ratio (z) = 0.07128 0.23194
#
# Static dielectric constant tensor:
#      x y z
#    x 1.514300 0.000000 0.000000 
#    y 0.000000 1.519130 0.000000 
#    z 0.000000 0.000000 1.505410 
# 
# From -- ./inp_files/25396.got.cif
#   From: 2010.05.17/outbox.cif.g08.bks.cpg/sg51_13_cif.got.tgz:25396.got - 2010.06.03 11:52:47.
