data_PCOD9399911
_publ_section_title
;
Structure prediction by ZEFSAII (Michael W. Deem and Ramdas Pophale) SiO2 
 PCOD9399911
Probable space group: P M M A
;
_chemical_formula_sum "Si O2"
_cell_formula_units_Z 64
_cell_length_a 24.510872
_cell_length_b 7.746351
_cell_length_c 16.015806
_cell_angle_alpha 90.000000
_cell_angle_beta 90.000000
_cell_angle_gamma 90.000000
_cell_volume 3040.918168
_symmetry_space_group_name_H-M "P M M A"
_symmetry_group_IT_number 51
_symmetry_cell_setting 'orthorhombic'
loop_
_space_group_symop_operation_xyz
x,y,z
1/2-x,-y,z
1/2+x,-y,-z
-x,y,-z
-x,-y,-z
1/2+x,y,-z
1/2-x,y,z
x,-y,z
loop_
_atom_site_type_symbol
_atom_site_label
_atom_site_fract_x
_atom_site_fract_y
_atom_site_fract_z
Si Si1 0.188222 0.207089 0.503962
Si Si2 0.504709 0.708876 0.097486
Si Si3 0.886084 0.711472 0.843910
Si Si4 0.376026 0.201532 0.841322
Si Si5 0.384692 0.792856 0.657843
Si Si6 0.503381 0.291677 0.595747
Si Si7 0.811236 0.295861 0.994997
Si Si8 0.379417 0.708186 0.340647
O O1 0.250000 0.273816 0.508782
O O2 0.149943 0.274320 0.579069
O O3 0.161095 0.242631 0.414643
O O4 0.190377 0.000000 0.512984
O O5 0.508160 0.500000 0.101130
O O6 0.449037 0.763167 0.142701
O O7 0.560098 0.778422 0.136801
O O8 0.500000 0.757235 0.000000
O O9 0.886299 0.500000 0.846218
O O10 0.865375 0.766173 0.752898
O O11 0.849257 0.774415 0.920666
O O12 0.366895 0.274972 0.748514
O O13 0.341102 0.278177 0.916505
O O14 0.362381 0.000000 0.839478
O O15 0.448447 0.757683 0.643050
O O16 0.378225 0.000000 0.659779
O O17 0.500000 0.230311 0.500000
O O18 0.505481 0.500000 0.594337
O O19 0.559620 0.229848 0.636318
O O20 0.750000 0.223300 0.996185
O O21 0.806872 0.500000 0.978668
O O22 0.381058 0.500000 0.338918
#
# Coordination Sequence:
#
# PCOD9399911 Si02
#       8
#     8   8   8   8   8   8   8   8
#     4  10  22  40  58  76 104 145 191 233 271 319
#     4  10  18  34  61  85 111 148 185 222 271 332
#     4   9  18  34  57  85 112 143 182 223 272 330
#     4  11  23  37  56  85 117 146 182 230 283 333
#     4  10  22  38  57  81 110 150 189 222 271 334
#     4  10  19  33  56  86 117 144 174 224 280 326
#     4  10  21  39  60  80 106 145 193 236 275 328
#     4  10  20  35  57  85 114 143 177 221 277 331
#
# _framework density 21.046275000000001
#
# number of rings (size 3 to 8) (size 9 to 14) (size 15 to 20)
#    0.000    2.000    2.500    1.125    0.000    4.500 
#    0.000    3.750    0.000    0.000    0.000    0.000 
#    0.000    0.000    0.000    0.000    0.000    0.000 
#
# Total GULP energy -357519.167857 kJ/mol
# GULP energy per Si atom -5586.236998 kJ/mol
# Density = 2.099837 g / cm^3
# Si number density = 21.046275 Si / 1000 Ang^3
#
#
#
# Elastic Constant Matrix: (Units=GPa)
#
#
# Indices 1 2 3 4 5 6 
#
# 1 111.8167 -4.2923 26.3250 0.0000 0.0000 0.0000
# 2 -4.2923 26.9825 -2.4090 0.0000 0.0000 0.0000
# 3 26.3250 -2.4090 114.0329 0.0000 0.0000 0.0000
# 4 0.0000 0.0000 0.0000 23.6550 0.0000 0.0000
# 5 0.0000 0.0000 0.0000 0.0000 -0.8659 0.0000
# 6 0.0000 0.0000 0.0000 0.0000 0.0000 -8.2109
#
#
#
# Elastic Compliance Matrix: (Units=1/GPa)
#
#
# Indices 1 2 3 4 5 6 
#
# 1 0.009504 0.001318 -0.002166 0.000000 0.000000 0.000000
# 2 0.001318 0.037314 0.000484 0.000000 0.000000 0.000000
# 3 -0.002166 0.000484 0.009280 0.000000 0.000000 0.000000
# 4 0.000000 0.000000 0.000000 0.042274 0.000000 0.000000
# 5 0.000000 0.000000 0.000000 0.000000 -1.154927 0.000000
# 6 0.000000 0.000000 0.000000 0.000000 0.000000 -0.121790
#
#
# Mechanical properties :
#
#
# Convention : Reuss Voigt Hill
#
# Bulk Modulus (GPa) = 18.06037 32.45330 25.25684
# Shear Modulus (GPa) = -4.31347 18.46288 7.07471
#
# Velocity S-wave (km/s) = -1.43317 2.96506 1.83543
# Velocity P-wave (km/s) = 2.42101 5.21302 4.06428
#
# Compressibility (1/GPa) = 0.05536985
#
# Stress axis : x y z
#
# Youngs Moduli (GPa) = 105.22120 26.79960 107.76233
#
# Poissons Ratio (x) = -0.03533 0.23343
# Poissons Ratio (y) = -0.13873 -0.05215
# Poissons Ratio (z) = 0.22792 -0.01297
#
# Static dielectric constant tensor:
#      x y z
#    x 1.723870 0.000000 0.000000 
#    y 0.000000 1.792020 0.000000 
#    z 0.000000 0.000000 1.757170 
# 
# From -- ./inp_files/26242.got.cif
#   From: 2010.05.17/outbox.cif.g08.bks.cpg/sg51_14_cif.got.tgz:26242.got - 2010.06.03 11:52:47.
