data_PCOD9399947
_publ_section_title
;
Structure prediction by ZEFSAII (Michael W. Deem and Ramdas Pophale) SiO2 
 PCOD9399947
Probable space group: P M M A
;
_chemical_formula_sum "Si O2"
_cell_formula_units_Z 56
_cell_length_a 15.042201
_cell_length_b 7.823199
_cell_length_c 23.245256
_cell_angle_alpha 90.000000
_cell_angle_beta 90.000000
_cell_angle_gamma 90.000000
_cell_volume 2735.458300
_symmetry_space_group_name_H-M "P M M A"
_symmetry_group_IT_number 51
_symmetry_cell_setting 'orthorhombic'
loop_
_space_group_symop_operation_xyz
x,y,z
1/2-x,-y,z
1/2+x,-y,-z
-x,y,-z
-x,-y,-z
1/2+x,y,-z
1/2-x,y,z
x,-y,z
loop_
_atom_site_type_symbol
_atom_site_label
_atom_site_fract_x
_atom_site_fract_y
_atom_site_fract_z
Si Si1 0.512007 0.794934 0.711279
Si Si2 0.750000 0.697717 0.011427
Si Si3 0.440867 0.793462 0.945520
Si Si4 0.250000 0.801548 0.118508
Si Si5 0.349803 0.798099 0.639272
Si Si6 0.647705 0.706933 0.611513
Si Si7 0.141778 0.302318 0.513040
Si Si8 0.059677 0.210218 0.161191
O O1 0.420976 0.725115 0.683665
O O2 0.588586 0.759584 0.664982
O O3 0.535015 0.731763 0.774861
O O4 0.503437 0.000000 0.715941
O O5 0.750000 0.500000 0.995773
O O6 0.660378 0.738030 0.045955
O O7 0.750000 0.795241 0.950615
O O8 0.488460 0.736666 0.886969
O O9 0.441796 0.000000 0.946209
O O10 0.500000 0.735240 0.000000
O O11 0.342275 0.728939 0.142437
O O12 0.250000 0.000000 0.136159
O O13 0.250000 0.724392 0.643097
O O14 0.382787 0.779810 0.573523
O O15 0.343027 0.000000 0.650408
O O16 0.750000 0.763472 0.618840
O O17 0.648364 0.500000 0.608075
O O18 0.612601 0.768517 0.548928
O O19 0.250000 0.296374 0.510174
O O20 0.114484 0.500000 0.516858
O O21 0.060603 0.000000 0.160498
#
# Coordination Sequence:
#
# PCOD9399947 Si02
#       8
#     8   4   8   4   8   8   8   8
#     4  10  21  35  52  79 108 138 177 219 269 319
#     4  12  24  36  56  90 124 148 173 220 287 336
#     4  10  19  37  63  86 110 145 192 234 265 311
#     4  10  18  36  62  84 110 146 187 222 259 316
#     4   9  18  33  51  72 103 137 171 218 274 325
#     4   9  19  35  52  74 106 140 174 216 265 320
#     4   8  15  30  52  74  96 129 177 224 264 312
#     4   9  19  35  58  85 110 140 184 230 262 307
#
# _framework density 20.471889999999998
#
# number of rings (size 3 to 8) (size 9 to 14) (size 15 to 20)
#    0.000    2.571    1.429    1.500    1.000    2.286 
#    1.286    5.714    0.000    0.000    0.000    0.000 
#    0.000    0.000    0.000    0.000    0.000    0.000 
#
# Total GULP energy -312499.276408 kJ/mol
# GULP energy per Si atom -5580.344222 kJ/mol
# Density = 2.042529 g / cm^3
# Si number density = 20.471890 Si / 1000 Ang^3
#
#
#
# Elastic Constant Matrix: (Units=GPa)
#
#
# Indices 1 2 3 4 5 6 
#
# 1 162.0878 3.1807 107.5243 0.0000 0.0000 0.0000
# 2 3.1807 21.8949 2.0805 0.0000 0.0000 0.0000
# 3 107.5243 2.0805 175.9265 0.0000 0.0000 0.0000
# 4 0.0000 0.0000 0.0000 112.2816 0.0000 0.0000
# 5 0.0000 0.0000 0.0000 0.0000 32.2630 0.0000
# 6 0.0000 0.0000 0.0000 0.0000 0.0000 -4.6980
#
#
#
# Elastic Compliance Matrix: (Units=1/GPa)
#
#
# Indices 1 2 3 4 5 6 
#
# 1 0.010395 -0.000907 -0.006342 0.000000 0.000000 0.000000
# 2 -0.000907 0.045803 0.000013 0.000000 0.000000 0.000000
# 3 -0.006342 0.000013 0.009560 0.000000 0.000000 0.000000
# 4 0.000000 0.000000 0.000000 0.008906 0.000000 0.000000
# 5 0.000000 0.000000 0.000000 0.000000 0.030995 0.000000
# 6 0.000000 0.000000 0.000000 0.000000 0.000000 -0.212858
#
#
# Mechanical properties :
#
#
# Convention : Reuss Voigt Hill
#
# Bulk Modulus (GPa) = 19.49895 65.05335 42.27615
# Shear Modulus (GPa) = -66.11143 44.44424 -10.83359
#
# Velocity S-wave (km/s) = -5.68892 4.66444 -2.30292
# Velocity P-wave (km/s) = 5.79710 7.80098 3.69113
#
# Compressibility (1/GPa) = 0.05128482
#
# Stress axis : x y z
#
# Youngs Moduli (GPa) = 96.20356 21.83244 104.59804
#
# Poissons Ratio (x) = 0.01981 0.66340
# Poissons Ratio (y) = 0.08729 -0.00135
# Poissons Ratio (z) = 0.61016 -0.00028
#
# Static dielectric constant tensor:
#      x y z
#    x 1.742270 0.000000 0.000000 
#    y 0.000000 1.753270 0.000000 
#    z 0.000000 0.000000 1.706510 
# 
# From -- ./inp_files/33559.got.cif
#   From: 2010.05.17/outbox.cif.g08.bks.cpg/sg51_17_cif.got.tgz:33559.got - 2010.06.03 11:52:47.
