data_PCOD9399147
_publ_section_title
;
Structure prediction by ZEFSAII (Michael W. Deem and Ramdas Pophale) SiO2 
 PCOD9399147
Probable space group: P M M A
;
_chemical_formula_sum "Si O2"
_cell_formula_units_Z 64
_cell_length_a 29.753503
_cell_length_b 7.663003
_cell_length_c 16.214816
_cell_angle_alpha 90.000000
_cell_angle_beta 90.000000
_cell_angle_gamma 90.000000
_cell_volume 3696.997226
_symmetry_space_group_name_H-M "P M M A"
_symmetry_group_IT_number 51
_symmetry_cell_setting 'orthorhombic'
loop_
_space_group_symop_operation_xyz
x,y,z
1/2-x,-y,z
1/2+x,-y,-z
-x,y,-z
-x,-y,-z
1/2+x,y,-z
1/2-x,y,z
x,-y,z
loop_
_atom_site_type_symbol
_atom_site_label
_atom_site_fract_x
_atom_site_fract_y
_atom_site_fract_z
Si Si1 0.698710 0.710287 0.823722
Si Si2 0.352355 0.295518 0.655186
Si Si3 0.448190 0.789440 0.593118
Si Si4 0.858802 0.790262 0.664050
Si Si5 0.804623 0.701960 0.003178
Si Si6 0.951837 0.212872 0.598434
Si Si7 0.300563 0.206440 0.489338
Si Si8 0.302262 0.285992 0.817028
O O1 0.750000 0.771585 0.806710
O O2 0.701049 0.500000 0.830624
O O3 0.665588 0.751808 0.749529
O O4 0.683409 0.778408 0.913846
O O5 0.342540 0.500000 0.655040
O O6 0.405481 0.270107 0.644649
O O7 0.327478 0.224173 0.574365
O O8 0.332036 0.224919 0.740449
O O9 0.497749 0.729826 0.621022
O O10 0.443043 0.736673 0.496998
O O11 0.447774 0.000000 0.593876
O O12 0.909985 0.726968 0.653056
O O13 0.828909 0.721357 0.587634
O O14 0.860840 0.000000 0.656035
O O15 0.750000 0.700640 0.003684
O O16 0.819807 0.500000 0.003124
O O17 0.817498 0.777321 0.092223
O O18 0.952757 0.000000 0.599557
O O19 0.250000 0.279075 0.495088
O O20 0.296504 0.000000 0.474044
O O21 0.250000 0.237906 0.804004
O O22 0.303332 0.500000 0.820211
#
# Coordination Sequence:
#
# PCOD9399147 Si02
#       8
#     8   8   8   8   8   8   8   8
#     4   9  17  28  43  65  90 114 142 176 214 253
#     4  11  20  28  42  67  93 115 140 178 223 259
#     4   9  16  31  50  63  79 109 148 185 216 256
#     4  10  18  30  46  64  84 111 147 180 212 253
#     4   7  11  23  42  60  80 110 146 178 206 245
#     4   8  15  29  50  65  76 106 151 187 213 250
#     4  10  20  32  44  58  83 122 158 178 199 245
#     4   8  14  25  41  61  86 116 147 175 206 250
#
# _framework density 17.311347000000001
#
# number of rings (size 3 to 8) (size 9 to 14) (size 15 to 20)
#    0.000    3.000    1.250    3.375    0.000    2.000 
#    0.000    1.875    0.000    1.500    0.000    4.375 
#    0.000    7.000    0.000    0.000    0.000    0.000 
#
# Total GULP energy -356529.721501 kJ/mol
# GULP energy per Si atom -5570.776898 kJ/mol
# Density = 1.727195 g / cm^3
# Si number density = 17.311347 Si / 1000 Ang^3
#
#
#
# Elastic Constant Matrix: (Units=GPa)
#
#
# Indices 1 2 3 4 5 6 
#
# 1 121.9694 -1.2369 80.9705 0.0000 0.0000 0.0000
# 2 -1.2369 26.8731 -3.5078 0.0000 0.0000 0.0000
# 3 80.9705 -3.5078 150.3043 0.0000 0.0000 0.0000
# 4 0.0000 0.0000 0.0000 17.8274 0.0000 0.0000
# 5 0.0000 0.0000 0.0000 0.0000 6.2884 0.0000
# 6 0.0000 0.0000 0.0000 0.0000 0.0000 6.9555
#
#
#
# Elastic Compliance Matrix: (Units=1/GPa)
#
#
# Indices 1 2 3 4 5 6 
#
# 1 0.012766 -0.000311 -0.006884 0.000000 0.000000 0.000000
# 2 -0.000311 0.037333 0.001039 0.000000 0.000000 0.000000
# 3 -0.006884 0.001039 0.010386 0.000000 0.000000 0.000000
# 4 0.000000 0.000000 0.000000 0.056093 0.000000 0.000000
# 5 0.000000 0.000000 0.000000 0.000000 0.159022 0.000000
# 6 0.000000 0.000000 0.000000 0.000000 0.000000 0.143771
#
#
# Mechanical properties :
#
#
# Convention : Reuss Voigt Hill
#
# Bulk Modulus (GPa) = 20.75893 50.17761 35.46827
# Shear Modulus (GPa) = 11.16713 21.07567 16.12140
#
# Velocity S-wave (km/s) = 2.54259 3.49298 3.05497
# Velocity P-wave (km/s) = 4.54282 6.73173 5.74254
#
# Compressibility (1/GPa) = 0.04817204
#
# Stress axis : x y z
#
# Youngs Moduli (GPa) = 78.33381 26.78580 96.28256
#
# Poissons Ratio (x) = 0.00833 0.66285
# Poissons Ratio (y) = 0.02437 -0.10002
# Poissons Ratio (z) = 0.53928 -0.02783
#
# Static dielectric constant tensor:
#      x y z
#    x 1.586620 0.000000 0.000000 
#    y 0.000000 1.653360 0.000000 
#    z 0.000000 0.000000 1.604120 
# 
# From -- ./inp_files/26623.got.cif
#   From: 2010.05.17/outbox.cif.g08.bks.cpg/sg51_14_cif.got.tgz:26623.got - 2010.06.03 11:52:47.
