data_PCOD9399322
_publ_section_title
;
Structure prediction by ZEFSAII (Michael W. Deem and Ramdas Pophale) SiO2 
 PCOD9399322
Probable space group: P M M A
;
_chemical_formula_sum "Si O2"
_cell_formula_units_Z 44
_cell_length_a 8.560543
_cell_length_b 29.730997
_cell_length_c 9.350861
_cell_angle_alpha 90.000000
_cell_angle_beta 90.000000
_cell_angle_gamma 90.000000
_cell_volume 2379.920158
_symmetry_space_group_name_H-M "P M M A"
_symmetry_group_IT_number 51
_symmetry_cell_setting 'orthorhombic'
loop_
_space_group_symop_operation_xyz
x,y,z
1/2-x,-y,z
1/2+x,-y,-z
-x,y,-z
-x,-y,-z
1/2+x,y,-z
1/2-x,y,z
x,-y,z
loop_
_atom_site_type_symbol
_atom_site_label
_atom_site_fract_x
_atom_site_fract_y
_atom_site_fract_z
Si Si1 0.937775 0.363641 0.838411
Si Si2 0.437677 0.824267 0.162249
Si Si3 0.561475 0.450288 0.660853
Si Si4 0.438583 0.912257 0.339063
Si Si5 0.061078 0.000000 0.161299
Si Si6 0.936276 0.729919 0.163165
O O1 0.750000 0.361742 0.840983
O O2 0.990662 0.407883 0.753700
O O3 0.000875 0.316796 0.773288
O O4 0.000000 0.366819 0.000000
O O5 0.250000 0.822135 0.156123
O O6 0.486506 0.866629 0.257884
O O7 0.501422 0.777024 0.223448
O O8 0.500000 0.829781 0.000000
O O9 0.500000 0.446011 0.500000
O O10 0.750000 0.449495 0.658299
O O11 0.512985 0.500000 0.715085
O O12 0.500000 0.914123 0.500000
O O13 0.250000 0.912786 0.343222
O O14 0.489999 0.955566 0.247421
O O15 0.250000 0.000000 0.156811
O O16 0.000000 0.000000 0.000000
O O17 0.750000 0.729718 0.161329
O O18 0.000000 0.729913 0.000000
#
# Coordination Sequence:
#
# PCOD9399322 Si02
#       6
#     8   8   8   8   4   8
#     4  10  19  32  51  76 105 134 167 210 256 303
#     4  10  19  33  53  78 104 135 174 214 254 302
#     4   9  19  35  53  73  99 132 169 208 252 303
#     4  10  22  37  55  79 110 142 175 214 259 308
#     4  10  21  38  58  84 110 138 177 218 258 306
#     4  10  18  30  50  75 102 134 170 210 256 304
#
# _framework density 18.488016999999999
#
# number of rings (size 3 to 8) (size 9 to 14) (size 15 to 20)
#    0.000    2.182    0.000    5.727    0.000    4.000 
#    0.000    0.909    0.000    0.000    0.000    0.000 
#    0.000    0.000    0.000    0.000    0.000    0.000 
#
# Total GULP energy -245498.175178 kJ/mol
# GULP energy per Si atom -5579.503981 kJ/mol
# Density = 1.844594 g / cm^3
# Si number density = 18.488017 Si / 1000 Ang^3
#
#
#
# Elastic Constant Matrix: (Units=GPa)
#
#
# Indices 1 2 3 4 5 6 
#
# 1 56.3875 47.6032 19.5728 0.0000 0.0000 0.0000
# 2 47.6032 238.3313 91.0166 0.0000 0.0000 0.0000
# 3 19.5728 91.0166 87.0999 0.0000 0.0000 0.0000
# 4 0.0000 0.0000 0.0000 -16.5670 0.0000 0.0000
# 5 0.0000 0.0000 0.0000 0.0000 27.3527 0.0000
# 6 0.0000 0.0000 0.0000 0.0000 0.0000 3.5199
#
#
#
# Elastic Compliance Matrix: (Units=1/GPa)
#
#
# Indices 1 2 3 4 5 6 
#
# 1 0.021348 -0.004047 -0.000568 0.000000 0.000000 0.000000
# 2 -0.004047 0.007749 -0.007188 0.000000 0.000000 0.000000
# 3 -0.000568 -0.007188 0.019120 0.000000 0.000000 0.000000
# 4 0.000000 0.000000 0.000000 -0.060361 0.000000 0.000000
# 5 0.000000 0.000000 0.000000 0.000000 0.036560 0.000000
# 6 0.000000 0.000000 0.000000 0.000000 0.000000 0.284099
#
#
# Mechanical properties :
#
#
# Convention : Reuss Voigt Hill
#
# Bulk Modulus (GPa) = 40.63297 77.57822 59.10560
# Shear Modulus (GPa) = 14.69178 17.76951 16.23065
#
# Velocity S-wave (km/s) = 2.82204 3.10358 2.96615
# Velocity P-wave (km/s) = 5.71352 7.40914 6.61588
#
# Compressibility (1/GPa) = 0.02461055
#
# Stress axis : x y z
#
# Youngs Moduli (GPa) = 46.84234 129.04316 52.29998
#
# Poissons Ratio (x) = 0.52223 0.02973
# Poissons Ratio (y) = 0.18957 0.37595
# Poissons Ratio (z) = 0.02662 0.92762
#
# Static dielectric constant tensor:
#      x y z
#    x 1.624740 0.000000 0.000000 
#    y 0.000000 1.687220 0.000000 
#    z 0.000000 0.000000 1.610940 
# 
# From -- ./inp_files/5871.got.cif
#   From: 2010.05.17/outbox.cif.g08.bks.cpg/sg51_3_cif.got.tgz:5871.got - 2010.06.03 11:52:47.
