data_PCOD9399060
_publ_section_title
;
Structure prediction by ZEFSAII (Michael W. Deem and Ramdas Pophale) SiO2 
 PCOD9399060
Probable space group: P M M A
;
_chemical_formula_sum "Si O2"
_cell_formula_units_Z 64
_cell_length_a 22.604734
_cell_length_b 13.385036
_cell_length_c 12.660830
_cell_angle_alpha 90.000000
_cell_angle_beta 90.000000
_cell_angle_gamma 90.000000
_cell_volume 3830.726287
_symmetry_space_group_name_H-M "P M M A"
_symmetry_group_IT_number 51
_symmetry_cell_setting 'orthorhombic'
loop_
_space_group_symop_operation_xyz
x,y,z
1/2-x,-y,z
1/2+x,-y,-z
-x,y,-z
-x,-y,-z
1/2+x,y,-z
1/2-x,y,z
x,-y,z
loop_
_atom_site_type_symbol
_atom_site_label
_atom_site_fract_x
_atom_site_fract_y
_atom_site_fract_z
Si Si1 0.319071 0.380175 0.572450
Si Si2 0.143392 0.384743 0.334830
Si Si3 0.818018 0.613940 0.039872
Si Si4 0.528048 0.386408 0.802813
Si Si5 0.185329 0.761533 0.160328
Si Si6 0.439840 0.113608 0.859021
Si Si7 0.564883 0.182033 0.898429
Si Si8 0.397002 0.688301 0.766688
O O1 0.250000 0.349600 0.575803
O O2 0.320618 0.500000 0.588330
O O3 0.346416 0.360354 0.456937
O O4 0.358484 0.332309 0.663685
O O5 0.162650 0.500000 0.318849
O O6 0.075912 0.378331 0.292083
O O7 0.179579 0.310054 0.261092
O O8 0.750000 0.617520 0.079406
O O9 0.829876 0.500000 0.005003
O O10 0.861947 0.644638 0.132582
O O11 0.821398 0.689282 0.941844
O O12 0.531500 0.500000 0.844417
O O13 0.546645 0.299330 0.884991
O O14 0.461730 0.362841 0.764846
O O15 0.250000 0.809022 0.156372
O O16 0.128209 0.831580 0.155631
O O17 0.510710 0.123751 0.845246
O O18 0.407903 0.194461 0.786662
O O19 0.420836 0.000000 0.845179
O O20 0.430793 0.148712 0.980420
#
# Coordination Sequence:
#
# PCOD9399060 Si02
#       8
#     8   8   8   8   8   8   8   8
#     4  10  20  33  51  73 103 143 177 206 241 294
#     4   9  18  32  47  70 103 142 183 207 233 284
#     4  10  19  29  44  68 105 147 172 196 241 304
#     4   9  18  30  47  75 109 140 169 208 251 293
#     4  10  18  29  47  72 105 137 171 208 241 284
#     4  10  20  36  55  71  94 130 170 214 262 312
#     4   9  17  32  49  75  99 133 170 202 247 301
#     4  11  20  33  48  74 102 131 174 214 259 309
#
# _framework density 16.707014000000001
#
# number of rings (size 3 to 8) (size 9 to 14) (size 15 to 20)
#    0.000    2.250    1.250    3.000    0.000    3.250 
#    0.000    3.750    0.000    4.500    0.000   19.250 
#    0.000   10.000    0.000    0.000    0.000    0.000 
#
# Total GULP energy -356920.599854 kJ/mol
# GULP energy per Si atom -5576.884373 kJ/mol
# Density = 1.666899 g / cm^3
# Si number density = 16.707014 Si / 1000 Ang^3
#
#
#
# Elastic Constant Matrix: (Units=GPa)
#
#
# Indices 1 2 3 4 5 6 
#
# 1 89.9984 16.4018 29.5179 0.0000 0.0000 0.0000
# 2 16.4018 56.9220 13.8336 0.0000 0.0000 0.0000
# 3 29.5179 13.8336 64.4789 0.0000 0.0000 0.0000
# 4 0.0000 0.0000 0.0000 6.8037 0.0000 0.0000
# 5 0.0000 0.0000 0.0000 0.0000 20.6235 0.0000
# 6 0.0000 0.0000 0.0000 0.0000 0.0000 50.1074
#
#
#
# Elastic Compliance Matrix: (Units=1/GPa)
#
#
# Indices 1 2 3 4 5 6 
#
# 1 0.013404 -0.002501 -0.005599 0.000000 0.000000 0.000000
# 2 -0.002501 0.019001 -0.002931 0.000000 0.000000 0.000000
# 3 -0.005599 -0.002931 0.018701 0.000000 0.000000 0.000000
# 4 0.000000 0.000000 0.000000 0.146978 0.000000 0.000000
# 5 0.000000 0.000000 0.000000 0.000000 0.048488 0.000000
# 6 0.000000 0.000000 0.000000 0.000000 0.000000 0.019957
#
#
# Mechanical properties :
#
#
# Convention : Reuss Voigt Hill
#
# Bulk Modulus (GPa) = 34.43356 36.76733 35.60044
# Shear Modulus (GPa) = 16.76309 25.61667 21.18988
#
# Velocity S-wave (km/s) = 3.17102 3.91997 3.56522
# Velocity P-wave (km/s) = 5.83628 6.52251 6.18891
#
# Compressibility (1/GPa) = 0.02904144
#
# Stress axis : x y z
#
# Youngs Moduli (GPa) = 74.60638 52.62859 53.47238
#
# Poissons Ratio (x) = 0.13164 0.29941
# Poissons Ratio (y) = 0.18662 0.15675
# Poissons Ratio (z) = 0.41775 0.15428
#
# Static dielectric constant tensor:
#      x y z
#    x 1.607320 0.000000 0.000000 
#    y 0.000000 1.559600 0.000000 
#    z 0.000000 0.000000 1.539860 
# 
# From -- ./inp_files/18868.got.cif
#   From: 2010.05.17/outbox.cif.g08.bks.cpg/sg51_10_cif.got.tgz:18868.got - 2010.06.03 11:52:47.
