data_PCOD9399156
_publ_section_title
;
Structure prediction by ZEFSAII (Michael W. Deem and Ramdas Pophale) SiO2 
 PCOD9399156
Probable space group: P M M A
;
_chemical_formula_sum "Si O2"
_cell_formula_units_Z 52
_cell_length_a 8.613488
_cell_length_b 14.292689
_cell_length_c 24.359502
_cell_angle_alpha 90.000000
_cell_angle_beta 90.000000
_cell_angle_gamma 90.000000
_cell_volume 2998.895982
_symmetry_space_group_name_H-M "P M M A"
_symmetry_group_IT_number 51
_symmetry_cell_setting 'orthorhombic'
loop_
_space_group_symop_operation_xyz
x,y,z
1/2-x,-y,z
1/2+x,-y,-z
-x,y,-z
-x,-y,-z
1/2+x,y,-z
1/2-x,y,z
x,-y,z
loop_
_atom_site_type_symbol
_atom_site_label
_atom_site_fract_x
_atom_site_fract_y
_atom_site_fract_z
Si Si1 0.438558 0.609349 0.741422
Si Si2 0.930822 0.756721 0.346229
Si Si3 0.932636 0.694370 0.060817
Si Si4 0.061647 0.894377 0.561761
Si Si5 0.571491 0.890590 0.738263
Si Si6 0.430435 0.749028 0.166628
Si Si7 0.934465 0.500000 0.938146
O O1 0.250000 0.613914 0.743104
O O2 0.483518 0.500000 0.742339
O O3 0.492222 0.664587 0.685885
O O4 0.502210 0.667833 0.793373
O O5 0.750000 0.737806 0.357078
O O6 0.995740 0.808080 0.400530
O O7 0.953107 0.837709 0.301068
O O8 0.750000 0.685960 0.054962
O O9 0.981410 0.762643 0.109359
O O10 0.000008 0.596246 0.084233
O O11 0.000000 0.712282 0.000000
O O12 0.250000 0.892287 0.561737
O O13 0.000000 0.885468 0.500000
O O14 0.016319 0.000000 0.581688
O O15 0.750000 0.873217 0.718838
O O16 0.559834 0.842548 0.797294
O O17 0.544652 0.000000 0.739754
O O18 0.250000 0.728069 0.155247
O O19 0.750000 0.500000 0.937912
O O20 0.000000 0.500000 0.000000
#
# Coordination Sequence:
#
# PCOD9399156 Si02
#       7
#     8   8   8   8   8   8   4
#     4   9  18  32  49  69  94 124 159 197 237 281
#     4   9  17  30  48  70  95 125 160 197 237 282
#     4  11  21  34  50  69  95 125 158 195 236 284
#     4   9  17  28  43  66  95 125 157 194 238 286
#     4   9  18  32  50  72  97 124 155 194 240 287
#     4  10  20  33  49  71  97 125 157 193 236 286
#     4  10  18  30  46  66  90 118 152 186 225 272
#
# _framework density 17.339714000000001
#
# number of rings (size 3 to 8) (size 9 to 14) (size 15 to 20)
#    0.000    2.462    0.000    3.923    1.077    2.462 
#    0.000    1.538    0.000    0.923    0.000    0.000 
#    0.000    0.000    0.000    0.000    0.000    0.000 
#
# Total GULP energy -289541.389998 kJ/mol
# GULP energy per Si atom -5568.103654 kJ/mol
# Density = 1.730025 g / cm^3
# Si number density = 17.339714 Si / 1000 Ang^3
#
#
#
# Elastic Constant Matrix: (Units=GPa)
#
#
# Indices 1 2 3 4 5 6 
#
# 1 49.1847 3.3304 10.6316 0.0000 0.0000 0.0000
# 2 3.3304 56.4946 14.6132 0.0000 0.0000 0.0000
# 3 10.6316 14.6132 73.0445 0.0000 0.0000 0.0000
# 4 0.0000 0.0000 0.0000 19.6825 0.0000 0.0000
# 5 0.0000 0.0000 0.0000 0.0000 25.8402 0.0000
# 6 0.0000 0.0000 0.0000 0.0000 0.0000 11.3515
#
#
#
# Elastic Compliance Matrix: (Units=1/GPa)
#
#
# Indices 1 2 3 4 5 6 
#
# 1 0.021004 -0.000472 -0.002963 0.000000 0.000000 0.000000
# 2 -0.000472 0.018677 -0.003668 0.000000 0.000000 0.000000
# 3 -0.002963 -0.003668 0.014855 0.000000 0.000000 0.000000
# 4 0.000000 0.000000 0.000000 0.050807 0.000000 0.000000
# 5 0.000000 0.000000 0.000000 0.000000 0.038699 0.000000
# 6 0.000000 0.000000 0.000000 0.000000 0.000000 0.088094
#
#
# Mechanical properties :
#
#
# Convention : Reuss Voigt Hill
#
# Bulk Modulus (GPa) = 24.79440 26.20823 25.50131
# Shear Modulus (GPa) = 19.24664 21.38474 20.31569
#
# Velocity S-wave (km/s) = 3.33524 3.51562 3.42662
# Velocity P-wave (km/s) = 5.40019 5.62377 5.51311
#
# Compressibility (1/GPa) = 0.04033169
#
# Stress axis : x y z
#
# Youngs Moduli (GPa) = 47.61019 53.54070 67.31608
#
# Poissons Ratio (x) = 0.02526 0.19944
# Poissons Ratio (y) = 0.02246 0.24691
# Poissons Ratio (z) = 0.14106 0.19638
#
# Static dielectric constant tensor:
#      x y z
#    x 1.599430 0.000000 0.000000 
#    y 0.000000 1.624640 0.000000 
#    z 0.000000 0.000000 1.597190 
# 
# From -- ./inp_files/34691.got.cif
#   From: 2010.05.17/outbox.cif.g08.bks.cpg/sg51_18_cif.got.tgz:34691.got - 2010.06.03 11:52:47.
