data_PCOD9399792
_publ_section_title
;
Structure prediction by ZEFSAII (Michael W. Deem and Ramdas Pophale) SiO2 
 PCOD9399792
Probable space group: P M M A
;
_chemical_formula_sum "Si O2"
_cell_formula_units_Z 64
_cell_length_a 8.846045
_cell_length_b 25.471847
_cell_length_c 15.686292
_cell_angle_alpha 90.000000
_cell_angle_beta 90.000000
_cell_angle_gamma 90.000000
_cell_volume 3534.515389
_symmetry_space_group_name_H-M "P M M A"
_symmetry_group_IT_number 51
_symmetry_cell_setting 'orthorhombic'
loop_
_space_group_symop_operation_xyz
x,y,z
1/2-x,-y,z
1/2+x,-y,-z
-x,y,-z
-x,-y,-z
1/2+x,y,-z
1/2-x,y,z
x,-y,z
loop_
_atom_site_type_symbol
_atom_site_label
_atom_site_fract_x
_atom_site_fract_y
_atom_site_fract_z
Si Si1 0.068752 0.824852 0.087005
Si Si2 0.428695 0.439489 0.741848
Si Si3 0.931766 0.148528 0.724169
Si Si4 0.067141 0.638260 0.590104
Si Si5 0.574533 0.257661 0.322926
Si Si6 0.425883 0.287225 0.873980
Si Si7 0.932606 0.939323 0.591856
Si Si8 0.429395 0.399077 0.086664
O O1 0.250000 0.825088 0.082166
O O2 0.020066 0.851802 0.176323
O O3 0.008884 0.765138 0.094741
O O4 0.000000 0.847607 0.000000
O O5 0.250000 0.429267 0.758155
O O6 0.445141 0.500000 0.715723
O O7 0.478070 0.400593 0.666544
O O8 0.516666 0.428869 0.828904
O O9 0.750000 0.148378 0.724800
O O10 0.983387 0.099969 0.666365
O O11 0.986240 0.203289 0.683434
O O12 0.250000 0.638145 0.586868
O O13 0.017424 0.697607 0.613303
O O14 0.000000 0.621981 0.500000
O O15 0.750000 0.246102 0.342112
O O16 0.570349 0.283757 0.228842
O O17 0.250000 0.287076 0.900873
O O18 0.507035 0.339863 0.903262
O O19 0.750000 0.936979 0.586818
O O20 0.000000 0.924347 0.500000
O O21 0.975157 0.000000 0.608756
O O22 0.250000 0.398411 0.080534
O O23 0.500000 0.421622 0.000000
#
# Coordination Sequence:
#
# PCOD9399792 Si02
#       8
#     8   8   8   8   8   8   8   8
#     4  10  19  31  47  73 107 143 182 221 264 312
#     4  10  22  43  65  81 105 140 178 225 273 319
#     4   9  19  33  51  77 108 141 181 221 263 320
#     4  10  21  38  58  84 111 141 177 216 266 323
#     4   9  18  33  53  76 109 144 176 214 262 316
#     4  10  18  33  54  76 106 142 180 218 262 315
#     4   9  18  34  55  78 105 139 179 226 274 319
#     4  12  24  37  57  83 111 141 177 219 267 324
#
# _framework density 18.107149
#
# number of rings (size 3 to 8) (size 9 to 14) (size 15 to 20)
#    0.000    2.125    1.250    2.250    0.000    3.750 
#    0.000    2.500    0.000    0.375    0.000    0.000 
#    0.000    0.000    0.000    0.000    0.000    0.375 
#
# Total GULP energy -357231.030575 kJ/mol
# GULP energy per Si atom -5581.734853 kJ/mol
# Density = 1.806594 g / cm^3
# Si number density = 18.107149 Si / 1000 Ang^3
#
#
#
# Elastic Constant Matrix: (Units=GPa)
#
#
# Indices 1 2 3 4 5 6 
#
# 1 47.0831 25.5516 35.8391 0.0000 0.0000 0.0000
# 2 25.5516 73.2970 60.5604 0.0000 0.0000 0.0000
# 3 35.8391 60.5604 125.5944 0.0000 0.0000 0.0000
# 4 0.0000 0.0000 0.0000 2.5022 0.0000 0.0000
# 5 0.0000 0.0000 0.0000 0.0000 30.1830 0.0000
# 6 0.0000 0.0000 0.0000 0.0000 0.0000 18.6793
#
#
#
# Elastic Compliance Matrix: (Units=1/GPa)
#
#
# Indices 1 2 3 4 5 6 
#
# 1 0.028325 -0.005312 -0.005521 0.000000 0.000000 0.000000
# 2 -0.005312 0.023675 -0.009900 0.000000 0.000000 0.000000
# 3 -0.005521 -0.009900 0.014311 0.000000 0.000000 0.000000
# 4 0.000000 0.000000 0.000000 0.399647 0.000000 0.000000
# 5 0.000000 0.000000 0.000000 0.000000 0.033131 0.000000
# 6 0.000000 0.000000 0.000000 0.000000 0.000000 0.053535
#
#
# Mechanical properties :
#
#
# Convention : Reuss Voigt Hill
#
# Bulk Modulus (GPa) = 40.25115 54.43074 47.34094
# Shear Modulus (GPa) = 8.30053 18.54112 13.42082
#
# Velocity S-wave (km/s) = 2.14338 3.20342 2.72543
# Velocity P-wave (km/s) = 5.32946 6.61877 6.00880
#
# Compressibility (1/GPa) = 0.02484401
#
# Stress axis : x y z
#
# Youngs Moduli (GPa) = 35.30503 42.23953 69.87568
#
# Poissons Ratio (x) = 0.22439 0.38578
# Poissons Ratio (y) = 0.18755 0.69175
# Poissons Ratio (z) = 0.19492 0.41816
#
# Static dielectric constant tensor:
#      x y z
#    x 1.611870 0.000000 0.000000 
#    y 0.000000 1.604310 0.000000 
#    z 0.000000 0.000000 1.644280 
# 
# From -- ./inp_files/22213.got.cif
#   From: 2010.05.17/outbox.cif.g08.bks.cpg/sg51_12_cif.got.tgz:22213.got - 2010.06.03 11:52:47.
