data_PCOD9399413
_publ_section_title
;
Structure prediction by ZEFSAII (Michael W. Deem and Ramdas Pophale) SiO2 
 PCOD9399413
Probable space group: P M M A
;
_chemical_formula_sum "Si O2"
_cell_formula_units_Z 40
_cell_length_a 26.825568
_cell_length_b 8.847317
_cell_length_c 9.295607
_cell_angle_alpha 90.000000
_cell_angle_beta 90.000000
_cell_angle_gamma 90.000000
_cell_volume 2206.166416
_symmetry_space_group_name_H-M "P M M A"
_symmetry_group_IT_number 51
_symmetry_cell_setting 'orthorhombic'
loop_
_space_group_symop_operation_xyz
x,y,z
1/2-x,-y,z
1/2+x,-y,-z
-x,y,-z
-x,-y,-z
1/2+x,y,-z
1/2-x,y,z
x,-y,z
loop_
_atom_site_type_symbol
_atom_site_label
_atom_site_fract_x
_atom_site_fract_y
_atom_site_fract_z
Si Si1 0.140789 0.679735 0.080920
Si Si2 0.250000 0.681162 0.102968
Si Si3 0.645888 0.680774 0.578392
Si Si4 0.451177 0.817980 0.914424
Si Si5 0.750000 0.179235 0.580443
Si Si6 0.550960 0.182712 0.418301
O O1 0.132963 0.500000 0.068610
O O2 0.197305 0.713211 0.028618
O O3 0.139338 0.718046 0.251309
O O4 0.098396 0.763267 0.993503
O O5 0.250000 0.500000 0.138826
O O6 0.250000 0.772944 0.251344
O O7 0.648619 0.500000 0.567195
O O8 0.698176 0.750805 0.524661
O O9 0.598868 0.744873 0.493284
O O10 0.452304 0.770462 0.748236
O O11 0.452075 0.000000 0.916431
O O12 0.500000 0.763233 0.000000
O O13 0.750000 0.000000 0.563852
O O14 0.500000 0.224630 0.500000
O O15 0.555472 0.000000 0.424991
#
# Coordination Sequence:
#
# PCOD9399413 Si02
#       6
#     8   4   8   8   4   8
#     4   9  18  33  54  78 105 138 175 215 257 309
#     4   8  16  32  51  76 109 140 174 214 256 306
#     4  10  20  35  55  80 110 143 179 218 263 315
#     4  10  21  36  54  77 105 137 174 219 269 317
#     4  10  18  30  53  82 109 140 178 218 262 310
#     4  10  21  37  56  78 105 139 181 226 270 318
#
# _framework density 18.130998000000002
#
# number of rings (size 3 to 8) (size 9 to 14) (size 15 to 20)
#    0.000    2.400    0.000    3.900    0.000    7.200 
#    0.000    1.000    0.000    4.800    0.000    0.000 
#    0.000    0.000    0.000    0.000    0.000    0.000 
#
# Total GULP energy -223127.896399 kJ/mol
# GULP energy per Si atom -5578.197410 kJ/mol
# Density = 1.808973 g / cm^3
# Si number density = 18.130998 Si / 1000 Ang^3
#
#
#
# Elastic Constant Matrix: (Units=GPa)
#
#
# Indices 1 2 3 4 5 6 
#
# 1 212.2087 58.2645 94.7495 0.0000 0.0000 0.0000
# 2 58.2645 34.5296 38.0155 0.0000 0.0000 0.0000
# 3 94.7495 38.0155 98.6054 0.0000 0.0000 0.0000
# 4 0.0000 0.0000 0.0000 23.1669 0.0000 0.0000
# 5 0.0000 0.0000 0.0000 0.0000 30.2912 0.0000
# 6 0.0000 0.0000 0.0000 0.0000 0.0000 69.5397
#
#
#
# Elastic Compliance Matrix: (Units=1/GPa)
#
#
# Indices 1 2 3 4 5 6 
#
# 1 0.010268 -0.011230 -0.005537 0.000000 0.000000 0.000000
# 2 -0.011230 0.062601 -0.013344 0.000000 0.000000 0.000000
# 3 -0.005537 -0.013344 0.020606 0.000000 0.000000 0.000000
# 4 0.000000 0.000000 0.000000 0.043165 0.000000 0.000000
# 5 0.000000 0.000000 0.000000 0.000000 0.033013 0.000000
# 6 0.000000 0.000000 0.000000 0.000000 0.000000 0.014380
#
#
# Mechanical properties :
#
#
# Convention : Reuss Voigt Hill
#
# Bulk Modulus (GPa) = 30.07194 80.82252 55.44723
# Shear Modulus (GPa) = 19.58189 34.88717 27.23453
#
# Velocity S-wave (km/s) = 3.28993 4.39130 3.87989
# Velocity P-wave (km/s) = 5.57257 8.38958 7.12175
#
# Compressibility (1/GPa) = 0.03325359
#
# Stress axis : x y z
#
# Youngs Moduli (GPa) = 97.39219 15.97431 48.52915
#
# Poissons Ratio (x) = 0.17939 0.26870
# Poissons Ratio (y) = 1.09370 0.64756
# Poissons Ratio (z) = 0.53924 0.21316
#
# Static dielectric constant tensor:
#      x y z
#    x 1.623040 0.000000 0.000000 
#    y 0.000000 1.608290 0.000000 
#    z 0.000000 0.000000 1.611570 
# 
# From -- ./inp_files/12188.got.cif
#   From: 2010.05.17/outbox.cif.g08.bks.cpg/sg51_7_cif.got.tgz:12188.got - 2010.06.03 11:52:47.
