data_PCOD9399721
_publ_section_title
;
Structure prediction by ZEFSAII (Michael W. Deem and Ramdas Pophale) SiO2 
 PCOD9399721
Probable space group: P M M A
;
_chemical_formula_sum "Si O2"
_cell_formula_units_Z 48
_cell_length_a 21.169875
_cell_length_b 7.757553
_cell_length_c 14.994122
_cell_angle_alpha 90.000000
_cell_angle_beta 90.000000
_cell_angle_gamma 90.000000
_cell_volume 2462.431087
_symmetry_space_group_name_H-M "P M M A"
_symmetry_group_IT_number 51
_symmetry_cell_setting 'orthorhombic'
loop_
_space_group_symop_operation_xyz
x,y,z
1/2-x,-y,z
1/2+x,-y,-z
-x,y,-z
-x,-y,-z
1/2+x,y,-z
1/2-x,y,z
x,-y,z
loop_
_atom_site_type_symbol
_atom_site_label
_atom_site_fract_x
_atom_site_fract_y
_atom_site_fract_z
Si Si1 0.320756 0.211440 0.061431
Si Si2 0.178879 0.207895 0.441118
Si Si3 0.479025 0.294082 0.752559
Si Si4 0.059147 0.707241 0.559437
Si Si5 0.372955 0.206442 0.251461
Si Si6 0.561512 0.205511 0.051972
O O1 0.250000 0.266655 0.039233
O O2 0.339905 0.268636 0.161081
O O3 0.321000 0.000000 0.061752
O O4 0.374296 0.271269 0.992692
O O5 0.250000 0.268662 0.461378
O O6 0.125198 0.252406 0.512468
O O7 0.156358 0.273142 0.343785
O O8 0.180907 0.000000 0.436498
O O9 0.476194 0.500000 0.751919
O O10 0.448264 0.228316 0.660615
O O11 0.552611 0.242793 0.752998
O O12 0.446317 0.234415 0.843292
O O13 0.053505 0.500000 0.562252
O O14 0.000000 0.772057 0.500000
O O15 0.364828 0.000000 0.252415
O O16 0.561636 0.000000 0.037093
O O17 0.500000 0.275807 0.000000
#
# Coordination Sequence:
#
# PCOD9399721 Si02
#       6
#     8   8   8   8   8   8
#     4   9  17  31  53  79 107 139 173 210 258 318
#     4  10  21  35  55  86 116 141 176 226 280 327
#     4  11  22  35  54  80 108 139 181 226 267 310
#     4  10  21  38  56  76 107 148 189 224 264 323
#     4  10  18  32  55  82 112 139 170 217 273 327
#     4  10  19  34  55  80 107 139 178 216 261 320
#
# _framework density 19.492932
#
# number of rings (size 3 to 8) (size 9 to 14) (size 15 to 20)
#    0.000    2.000    3.333    1.000    0.000    4.333 
#    0.000    0.833    0.000    6.000    0.000    0.000 
#    0.000    0.000    0.000    0.000    0.000    0.000 
#
# Total GULP energy -268012.777964 kJ/mol
# GULP energy per Si atom -5583.599541 kJ/mol
# Density = 1.944856 g / cm^3
# Si number density = 19.492932 Si / 1000 Ang^3
#
#
#
# Elastic Constant Matrix: (Units=GPa)
#
#
# Indices 1 2 3 4 5 6 
#
# 1 203.8691 0.3616 115.0502 0.0000 0.0000 0.0000
# 2 0.3616 22.9979 0.5028 0.0000 0.0000 0.0000
# 3 115.0502 0.5028 175.7926 0.0000 0.0000 0.0000
# 4 0.0000 0.0000 0.0000 -4.9336 0.0000 0.0000
# 5 0.0000 0.0000 0.0000 0.0000 21.2309 0.0000
# 6 0.0000 0.0000 0.0000 0.0000 0.0000 30.0004
#
#
#
# Elastic Compliance Matrix: (Units=1/GPa)
#
#
# Indices 1 2 3 4 5 6 
#
# 1 0.007778 -0.000011 -0.005090 0.000000 0.000000 0.000000
# 2 -0.000011 0.043485 -0.000117 0.000000 0.000000 0.000000
# 3 -0.005090 -0.000117 0.009020 0.000000 0.000000 0.000000
# 4 0.000000 0.000000 0.000000 -0.202690 0.000000 0.000000
# 5 0.000000 0.000000 0.000000 0.000000 0.047101 0.000000
# 6 0.000000 0.000000 0.000000 0.000000 0.000000 0.033333
#
#
# Mechanical properties :
#
#
# Convention : Reuss Voigt Hill
#
# Bulk Modulus (GPa) = 20.06175 70.49874 45.28025
# Shear Modulus (GPa) = -143.18057 28.37587 -57.40235
#
# Velocity S-wave (km/s) = -8.57974 3.81950 -5.43247
# Velocity P-wave (km/s) = 9.37204 7.46300 4.00867
#
# Compressibility (1/GPa) = 0.04984610
#
# Stress axis : x y z
#
# Youngs Moduli (GPa) = 128.57265 22.99647 110.86203
#
# Poissons Ratio (x) = 0.00025 0.56431
# Poissons Ratio (y) = 0.00142 0.01299
# Poissons Ratio (z) = 0.65446 0.00269
#
# Static dielectric constant tensor:
#      x y z
#    x 1.654890 0.000000 0.000000 
#    y 0.000000 1.718470 0.000000 
#    z 0.000000 0.000000 1.654210 
# 
# From -- ./inp_files/24691.got.cif
#   From: 2010.05.17/outbox.cif.g08.bks.cpg/sg51_13_cif.got.tgz:24691.got - 2010.06.03 11:52:47.
