data_PCOD9399195
_publ_section_title
;
Structure prediction by ZEFSAII (Michael W. Deem and Ramdas Pophale) SiO2 
 PCOD9399195
Probable space group: P M M A
;
_chemical_formula_sum "Si O2"
_cell_formula_units_Z 64
_cell_length_a 22.108081
_cell_length_b 8.783290
_cell_length_c 19.587590
_cell_angle_alpha 90.000000
_cell_angle_beta 90.000000
_cell_angle_gamma 90.000000
_cell_volume 3803.551266
_symmetry_space_group_name_H-M "P M M A"
_symmetry_group_IT_number 51
_symmetry_cell_setting 'orthorhombic'
loop_
_space_group_symop_operation_xyz
x,y,z
1/2-x,-y,z
1/2+x,-y,-z
-x,y,-z
-x,-y,-z
1/2+x,y,-z
1/2-x,y,z
x,-y,z
loop_
_atom_site_type_symbol
_atom_site_label
_atom_site_fract_x
_atom_site_fract_y
_atom_site_fract_z
Si Si1 0.061342 0.316732 0.042804
Si Si2 0.389113 0.821275 0.586487
Si Si3 0.562255 0.680529 0.540103
Si Si4 0.180111 0.673783 0.696390
Si Si5 0.318877 0.182973 0.970952
Si Si6 0.875256 0.683094 0.159633
Si Si7 0.510101 0.817013 0.668284
Si Si8 0.506488 0.183586 0.826470
O O1 0.063681 0.500000 0.042457
O O2 0.052884 0.252509 0.119140
O O3 0.123843 0.252575 0.011631
O O4 0.000000 0.272879 0.000000
O O5 0.388783 0.739396 0.513659
O O6 0.332421 0.780495 0.632661
O O7 0.445823 0.768900 0.634534
O O8 0.396204 0.000000 0.575135
O O9 0.500000 0.723357 0.500000
O O10 0.564213 0.500000 0.546731
O O11 0.559081 0.754283 0.614654
O O12 0.250000 0.673250 0.715120
O O13 0.162390 0.500000 0.678177
O O14 0.143918 0.720690 0.763440
O O15 0.250000 0.223957 0.993260
O O16 0.329675 0.244568 0.894437
O O17 0.323516 0.000000 0.972356
O O18 0.876528 0.500000 0.151551
O O19 0.941505 0.752560 0.150153
O O20 0.516027 0.769195 0.747149
O O21 0.511613 0.000000 0.667453
O O22 0.506729 0.000000 0.829515
#
# Coordination Sequence:
#
# PCOD9399195 Si02
#       8
#     8   8   8   8   8   8   8   8
#     4  11  23  38  57  83 110 143 183 225 275 327
#     4  10  18  30  47  68  96 131 170 212 256 302
#     4   9  17  28  45  69  95 127 163 200 246 297
#     4  10  21  34  47  67  99 139 180 220 261 308
#     4  11  24  40  59  82 107 141 184 228 275 327
#     4  11  21  34  53  76 106 143 182 222 267 319
#     4   9  18  31  47  71 101 131 165 206 256 308
#     4  11  21  34  54  79 109 144 179 220 271 321
#
# _framework density 16.826378999999999
#
# number of rings (size 3 to 8) (size 9 to 14) (size 15 to 20)
#    0.000    1.750    2.500    2.625    0.000    5.750 
#    0.000    0.000    0.000    0.000    0.000    0.875 
#    0.000    1.000    0.000    0.000    0.000    0.000 
#
# Total GULP energy -356876.441523 kJ/mol
# GULP energy per Si atom -5576.194399 kJ/mol
# Density = 1.678808 g / cm^3
# Si number density = 16.826379 Si / 1000 Ang^3
#
#
#
# Elastic Constant Matrix: (Units=GPa)
#
#
# Indices 1 2 3 4 5 6 
#
# 1 71.1867 21.7368 36.7398 0.0000 0.0000 0.0000
# 2 21.7368 21.6565 24.7316 0.0000 0.0000 0.0000
# 3 36.7398 24.7316 98.8126 0.0000 0.0000 0.0000
# 4 0.0000 0.0000 0.0000 26.5857 0.0000 0.0000
# 5 0.0000 0.0000 0.0000 0.0000 17.2285 0.0000
# 6 0.0000 0.0000 0.0000 0.0000 0.0000 21.6925
#
#
#
# Elastic Compliance Matrix: (Units=1/GPa)
#
#
# Indices 1 2 3 4 5 6 
#
# 1 0.021116 -0.017122 -0.003566 0.000000 0.000000 0.000000
# 2 -0.017122 0.078540 -0.013291 0.000000 0.000000 0.000000
# 3 -0.003566 -0.013291 0.014773 0.000000 0.000000 0.000000
# 4 0.000000 0.000000 0.000000 0.037614 0.000000 0.000000
# 5 0.000000 0.000000 0.000000 0.000000 0.058043 0.000000
# 6 0.000000 0.000000 0.000000 0.000000 0.000000 0.046099
#
#
# Mechanical properties :
#
#
# Convention : Reuss Voigt Hill
#
# Bulk Modulus (GPa) = 21.51933 39.78581 30.65257
# Shear Modulus (GPa) = 14.72174 20.33119 17.52646
#
# Velocity S-wave (km/s) = 2.96111 3.47982 3.23089
# Velocity P-wave (km/s) = 4.95053 6.31203 5.67228
#
# Compressibility (1/GPa) = 0.04646984
#
# Stress axis : x y z
#
# Youngs Moduli (GPa) = 47.35708 12.73238 67.69285
#
# Poissons Ratio (x) = 0.21801 0.24137
# Poissons Ratio (y) = 0.81087 0.89973
# Poissons Ratio (z) = 0.16886 0.16923
#
# Static dielectric constant tensor:
#      x y z
#    x 1.583610 0.000000 0.000000 
#    y 0.000000 1.568100 0.000000 
#    z 0.000000 0.000000 1.583150 
# 
# From -- ./inp_files/30567.got.cif
#   From: 2010.05.17/outbox.cif.g08.bks.cpg/sg51_16_cif.got.tgz:30567.got - 2010.06.03 11:52:47.
