data_PCOD9399705
_publ_section_title
;
Structure prediction by ZEFSAII (Michael W. Deem and Ramdas Pophale) SiO2 
 PCOD9399705
Probable space group: P M M A
;
_chemical_formula_sum "Si O2"
_cell_formula_units_Z 56
_cell_length_a 8.914571
_cell_length_b 22.786168
_cell_length_c 15.300834
_cell_angle_alpha 90.000000
_cell_angle_beta 90.000000
_cell_angle_gamma 90.000000
_cell_volume 3108.041770
_symmetry_space_group_name_H-M "P M M A"
_symmetry_group_IT_number 51
_symmetry_cell_setting 'orthorhombic'
loop_
_space_group_symop_operation_xyz
x,y,z
1/2-x,-y,z
1/2+x,-y,-z
-x,y,-z
-x,-y,-z
1/2+x,y,-z
1/2-x,y,z
x,-y,z
loop_
_atom_site_type_symbol
_atom_site_label
_atom_site_fract_x
_atom_site_fract_y
_atom_site_fract_z
Si Si1 0.926564 0.684365 0.089191
Si Si2 0.068094 0.224515 0.217028
Si Si3 0.068125 0.122042 0.901785
Si Si4 0.580880 0.430359 0.871418
Si Si5 0.417229 0.395201 0.330837
Si Si6 0.928713 0.734660 0.595744
Si Si7 0.080918 0.500000 0.589780
Si Si8 0.068011 0.000000 0.097867
O O1 0.750000 0.695767 0.091850
O O2 0.008663 0.716556 0.169510
O O3 0.961197 0.614816 0.090226
O O4 0.000000 0.708253 0.000000
O O5 0.250000 0.222516 0.210497
O O6 0.026928 0.225548 0.320257
O O7 0.990828 0.172827 0.162029
O O8 0.250000 0.120319 0.906870
O O9 0.999824 0.060535 0.866067
O O10 0.000000 0.130704 0.000000
O O11 0.750000 0.422690 0.909025
O O12 0.545186 0.500000 0.874954
O O13 0.591340 0.407130 0.772107
O O14 0.250000 0.409189 0.365847
O O15 0.456149 0.331214 0.367283
O O16 0.536092 0.441933 0.360640
O O17 0.750000 0.740781 0.585439
O O18 0.000000 0.743648 0.500000
O O19 0.250000 0.500000 0.570395
O O20 0.000000 0.500000 0.500000
O O21 0.250000 0.000000 0.097406
O O22 0.000000 0.000000 0.000000
#
# Coordination Sequence:
#
# PCOD9399705 Si02
#       8
#     8   8   8   8   8   8   4   4
#     4  12  25  40  59  82 109 142 183 232 282 339
#     4  11  22  40  60  83 115 153 192 235 285 337
#     4  11  21  35  56  88 125 164 202 242 282 329
#     4  10  20  38  61  79 102 136 175 222 280 341
#     4  10  19  37  57  76 100 134 169 215 277 339
#     4  10  22  38  59  81 108 141 180 226 280 337
#     4  12  24  34  48  74 101 130 167 216 270 338
#     4  10  18  32  54  84 123 168 205 240 278 326
#
# _framework density 18.017776000000001
#
# number of rings (size 3 to 8) (size 9 to 14) (size 15 to 20)
#    0.000    1.286    2.143    6.000    0.000    4.000 
#    0.000    0.000    0.000    0.000    0.000    0.500 
#    0.000    0.000    0.000    0.000    0.000    0.000 
#
# Total GULP energy -312325.720424 kJ/mol
# GULP energy per Si atom -5577.245008 kJ/mol
# Density = 1.797677 g / cm^3
# Si number density = 18.017776 Si / 1000 Ang^3
#
#
#
# Elastic Constant Matrix: (Units=GPa)
#
#
# Indices 1 2 3 4 5 6 
#
# 1 127.9694 46.2804 47.6299 0.0000 0.0000 0.0000
# 2 46.2804 107.0717 35.5519 0.0000 0.0000 0.0000
# 3 47.6299 35.5519 114.1132 0.0000 0.0000 0.0000
# 4 0.0000 0.0000 0.0000 16.6380 0.0000 0.0000
# 5 0.0000 0.0000 0.0000 0.0000 28.5086 0.0000
# 6 0.0000 0.0000 0.0000 0.0000 0.0000 35.2543
#
#
#
# Elastic Compliance Matrix: (Units=1/GPa)
#
#
# Indices 1 2 3 4 5 6 
#
# 1 0.010226 -0.003349 -0.003225 0.000000 0.000000 0.000000
# 2 -0.003349 0.011514 -0.002189 0.000000 0.000000 0.000000
# 3 -0.003225 -0.002189 0.010791 0.000000 0.000000 0.000000
# 4 0.000000 0.000000 0.000000 0.060103 0.000000 0.000000
# 5 0.000000 0.000000 0.000000 0.000000 0.035077 0.000000
# 6 0.000000 0.000000 0.000000 0.000000 0.000000 0.028365
#
#
# Mechanical properties :
#
#
# Convention : Reuss Voigt Hill
#
# Bulk Modulus (GPa) = 66.64559 67.56430 67.10494
# Shear Modulus (GPa) = 27.99468 30.72631 29.36050
#
# Velocity S-wave (km/s) = 3.94601 4.13405 4.04112
# Velocity P-wave (km/s) = 7.60463 7.76964 7.68758
#
# Compressibility (1/GPa) = 0.01500474
#
# Stress axis : x y z
#
# Youngs Moduli (GPa) = 97.79108 86.84973 92.66749
#
# Poissons Ratio (x) = 0.29088 0.29883
# Poissons Ratio (y) = 0.32753 0.20287
# Poissons Ratio (z) = 0.31535 0.19014
#
# Static dielectric constant tensor:
#      x y z
#    x 1.676340 0.000000 0.000000 
#    y 0.000000 1.644860 0.000000 
#    z 0.000000 0.000000 1.647800 
# 
# From -- ./inp_files/21871.got.cif
#   From: 2010.05.17/outbox.cif.g08.bks.cpg/sg51_11_cif.got.tgz:21871.got - 2010.06.03 11:52:47.
