data_PCOD9399680
_publ_section_title
;
Structure prediction by ZEFSAII (Michael W. Deem and Ramdas Pophale) SiO2 
 PCOD9399680
Probable space group: P M M A
;
_chemical_formula_sum "Si O2"
_cell_formula_units_Z 56
_cell_length_a 16.295334
_cell_length_b 7.513321
_cell_length_c 20.358741
_cell_angle_alpha 90.000000
_cell_angle_beta 90.000000
_cell_angle_gamma 90.000000
_cell_volume 2492.562908
_symmetry_space_group_name_H-M "P M M A"
_symmetry_group_IT_number 51
_symmetry_cell_setting 'orthorhombic'
loop_
_space_group_symop_operation_xyz
x,y,z
1/2-x,-y,z
1/2+x,-y,-z
-x,y,-z
-x,-y,-z
1/2+x,y,-z
1/2-x,y,z
x,-y,z
loop_
_atom_site_type_symbol
_atom_site_label
_atom_site_fract_x
_atom_site_fract_y
_atom_site_fract_z
Si Si1 0.498836 0.217773 0.924136
Si Si2 0.570283 0.704880 0.286879
Si Si3 0.344991 0.784155 0.577142
Si Si4 0.888275 0.798377 0.706383
Si Si5 0.659216 0.788910 0.156433
Si Si6 0.339455 0.217850 0.153498
Si Si7 0.349237 0.206537 0.434553
O O1 0.417076 0.280064 0.886377
O O2 0.581688 0.276324 0.887483
O O3 0.498487 0.000000 0.922139
O O4 0.500000 0.270766 0.000000
O O5 0.551753 0.500000 0.274259
O O6 0.603692 0.726781 0.360281
O O7 0.484890 0.805782 0.279180
O O8 0.635786 0.764791 0.232789
O O9 0.250000 0.728995 0.585549
O O10 0.375150 0.719691 0.505529
O O11 0.345830 0.000000 0.575168
O O12 0.847638 0.719552 0.771143
O O13 0.876275 0.712804 0.634803
O O14 0.854835 0.000000 0.700313
O O15 0.750000 0.715239 0.142949
O O16 0.662695 0.000000 0.143771
O O17 0.250000 0.267956 0.126842
O O18 0.342609 0.000000 0.155064
O O19 0.250000 0.207288 0.435631
O O20 0.377918 0.000000 0.433979
#
# Coordination Sequence:
#
# PCOD9399680 Si02
#       7
#     8   8   8   8   8   8   8
#     4   9  17  30  50  82 121 147 168 209 265 322
#     4  12  24  35  50  74 106 142 184 229 272 316
#     4   9  18  34  54  75 101 134 174 222 276 329
#     4  10  18  32  54  77 104 136 177 224 272 322
#     4  10  20  36  58  82 109 145 184 221 266 318
#     4   9  16  27  49  80 109 138 175 218 263 310
#     4   8  15  29  52  80 103 128 172 227 275 323
#
# _framework density 22.466835
#
# number of rings (size 3 to 8) (size 9 to 14) (size 15 to 20)
#    0.000    2.429    1.429    3.000    0.000    5.143 
#    0.000    6.429    0.000    3.000    0.000    0.000 
#    0.000    0.000    0.000    0.000    0.000    0.000 
#
# Total GULP energy -312695.161926 kJ/mol
# GULP energy per Si atom -5583.842177 kJ/mol
# Density = 2.241570 g / cm^3
# Si number density = 22.466835 Si / 1000 Ang^3
#
#
#
# Elastic Constant Matrix: (Units=GPa)
#
#
# Indices 1 2 3 4 5 6 
#
# 1 153.5467 7.4889 86.2661 0.0000 0.0000 0.0000
# 2 7.4889 62.5109 -3.2629 0.0000 0.0000 0.0000
# 3 86.2661 -3.2629 159.5892 0.0000 0.0000 0.0000
# 4 0.0000 0.0000 0.0000 -116.2154 0.0000 0.0000
# 5 0.0000 0.0000 0.0000 0.0000 -102.8177 0.0000
# 6 0.0000 0.0000 0.0000 0.0000 0.0000 -57.2561
#
#
#
# Elastic Compliance Matrix: (Units=1/GPa)
#
#
# Indices 1 2 3 4 5 6 
#
# 1 0.009475 -0.001404 -0.005150 0.000000 0.000000 0.000000
# 2 -0.001404 0.016222 0.001091 0.000000 0.000000 0.000000
# 3 -0.005150 0.001091 0.009072 0.000000 0.000000 0.000000
# 4 0.000000 0.000000 0.000000 -0.008605 0.000000 0.000000
# 5 0.000000 0.000000 0.000000 0.000000 -0.009726 0.000000
# 6 0.000000 0.000000 0.000000 0.000000 0.000000 -0.017465
#
#
# Mechanical properties :
#
#
# Convention : Reuss Voigt Hill
#
# Bulk Modulus (GPa) = 41.94252 61.84790 51.89521
# Shear Modulus (GPa) = 280.14476 -36.24754 121.94861
#
# Velocity S-wave (km/s) = 11.17870 -4.02105 7.37545
# Velocity P-wave (km/s) = 13.61348 2.45558 9.78153
#
# Compressibility (1/GPa) = 0.02384216
#
# Stress axis : x y z
#
# Youngs Moduli (GPa) = 105.54444 61.64345 110.22492
#
# Poissons Ratio (x) = 0.08654 0.56769
# Poissons Ratio (y) = 0.14818 -0.12021
# Poissons Ratio (z) = 0.54358 -0.06723
#
# Static dielectric constant tensor:
#      x y z
#    x 1.820940 0.000000 0.000000 
#    y 0.000000 1.852540 0.000000 
#    z 0.000000 0.000000 1.815550 
# 
# From -- ./inp_files/33490.got.cif
#   From: 2010.05.17/outbox.cif.g08.bks.cpg/sg51_17_cif.got.tgz:33490.got - 2010.06.03 11:52:47.
