data_PCOD9399004
_publ_section_title
;
Structure prediction by ZEFSAII (Michael W. Deem and Ramdas Pophale) SiO2 
 PCOD9399004
Probable space group: P M M A
;
_chemical_formula_sum "Si O2"
_cell_formula_units_Z 56
_cell_length_a 25.152476
_cell_length_b 8.563059
_cell_length_c 16.819428
_cell_angle_alpha 90.000000
_cell_angle_beta 90.000000
_cell_angle_gamma 90.000000
_cell_volume 3622.604329
_symmetry_space_group_name_H-M "P M M A"
_symmetry_group_IT_number 51
_symmetry_cell_setting 'orthorhombic'
loop_
_space_group_symop_operation_xyz
x,y,z
1/2-x,-y,z
1/2+x,-y,-z
-x,y,-z
-x,-y,-z
1/2+x,y,-z
1/2-x,y,z
x,-y,z
loop_
_atom_site_type_symbol
_atom_site_label
_atom_site_fract_x
_atom_site_fract_y
_atom_site_fract_z
Si Si1 0.689045 0.314008 0.415557
Si Si2 0.559220 0.317544 0.961196
Si Si3 0.582298 0.814386 0.480693
Si Si4 0.602145 0.689425 0.122110
Si Si5 0.012288 0.687879 0.377423
Si Si6 0.488372 0.690629 0.196355
Si Si7 0.188020 0.816083 0.759137
O O1 0.750000 0.261512 0.431993
O O2 0.686982 0.500000 0.425400
O O3 0.642803 0.237349 0.467477
O O4 0.677356 0.271682 0.323701
O O5 0.573703 0.500000 0.952001
O O6 0.551756 0.251359 0.872634
O O7 0.500000 0.314835 0.000000
O O8 0.596543 0.252611 0.030891
O O9 0.556576 0.752028 0.562305
O O10 0.544490 0.744625 0.411382
O O11 0.577975 0.000000 0.478448
O O12 0.604253 0.500000 0.120682
O O13 0.547840 0.732886 0.168320
O O14 0.651077 0.755006 0.170882
O O15 0.012809 0.500000 0.380173
O O16 0.020950 0.740047 0.286658
O O17 0.486249 0.500000 0.194913
O O18 0.250000 0.792167 0.778439
O O19 0.179048 0.000000 0.745961
#
# Coordination Sequence:
#
# PCOD9399004 Si02
#       7
#     8   8   8   8   8   8   8
#     4  10  20  34  51  68  86 111 147 187 223 264
#     4   7  11  21  38  62  87 108 135 171 209 247
#     4  11  21  32  45  64  93 122 149 182 225 273
#     4   9  15  25  44  65  86 114 145 176 210 251
#     4  10  18  29  46  66  91 123 158 190 220 260
#     4   8  14  24  41  65  88 111 141 178 217 252
#     4  10  20  31  42  60  88 118 145 174 211 253
#
# _framework density 15.458492
#
# number of rings (size 3 to 8) (size 9 to 14) (size 15 to 20)
#    0.000    2.714    0.000    6.000    0.000    2.857 
#    0.000    0.714    0.000    5.571    0.000    1.000 
#    0.000    3.429    0.000    0.000    0.000    0.000 
#
# Total GULP energy -311939.910343 kJ/mol
# GULP energy per Si atom -5570.355542 kJ/mol
# Density = 1.542331 g / cm^3
# Si number density = 15.458492 Si / 1000 Ang^3
#
#
#
# Elastic Constant Matrix: (Units=GPa)
#
#
# Indices 1 2 3 4 5 6 
#
# 1 69.0669 25.3157 46.3456 0.0000 0.0000 0.0000
# 2 25.3157 38.8267 20.8516 0.0000 0.0000 0.0000
# 3 46.3456 20.8516 114.1960 0.0000 0.0000 0.0000
# 4 0.0000 0.0000 0.0000 -8.4033 0.0000 0.0000
# 5 0.0000 0.0000 0.0000 0.0000 25.4537 0.0000
# 6 0.0000 0.0000 0.0000 0.0000 0.0000 14.1354
#
#
#
# Elastic Compliance Matrix: (Units=1/GPa)
#
#
# Indices 1 2 3 4 5 6 
#
# 1 0.023726 -0.011418 -0.007544 0.000000 0.000000 0.000000
# 2 -0.011418 0.034051 -0.001583 0.000000 0.000000 0.000000
# 3 -0.007544 -0.001583 0.012108 0.000000 0.000000 0.000000
# 4 0.000000 0.000000 0.000000 -0.119001 0.000000 0.000000
# 5 0.000000 0.000000 0.000000 0.000000 0.039287 0.000000
# 6 0.000000 0.000000 0.000000 0.000000 0.000000 0.070744
#
#
# Mechanical properties :
#
#
# Convention : Reuss Voigt Hill
#
# Bulk Modulus (GPa) = 34.73090 45.23505 39.98297
# Shear Modulus (GPa) = 44.80064 14.87560 29.83812
#
# Velocity S-wave (km/s) = 5.38926 3.10545 4.39818
# Velocity P-wave (km/s) = 7.82570 6.49494 7.19117
#
# Compressibility (1/GPa) = 0.02879281
#
# Stress axis : x y z
#
# Youngs Moduli (GPa) = 42.14714 29.36785 82.59155
#
# Poissons Ratio (x) = 0.33534 0.62309
# Poissons Ratio (y) = 0.48126 0.13078
# Poissons Ratio (z) = 0.31797 0.04650
#
# Static dielectric constant tensor:
#      x y z
#    x 1.501900 0.000000 0.000000 
#    y 0.000000 1.520270 0.000000 
#    z 0.000000 0.000000 1.533130 
# 
# From -- ./inp_files/30381.got.cif
#   From: 2010.05.17/outbox.cif.g08.bks.cpg/sg51_16_cif.got.tgz:30381.got - 2010.06.03 11:52:47.
