data_PCOD9399590
_publ_section_title
;
Structure prediction by ZEFSAII (Michael W. Deem and Ramdas Pophale) SiO2 
 PCOD9399590
Probable space group: P M M A
;
_chemical_formula_sum "Si O2"
_cell_formula_units_Z 40
_cell_length_a 7.715986
_cell_length_b 12.358419
_cell_length_c 20.990141
_cell_angle_alpha 90.000000
_cell_angle_beta 90.000000
_cell_angle_gamma 90.000000
_cell_volume 2001.565019
_symmetry_space_group_name_H-M "P M M A"
_symmetry_group_IT_number 51
_symmetry_cell_setting 'orthorhombic'
loop_
_space_group_symop_operation_xyz
x,y,z
1/2-x,-y,z
1/2+x,-y,-z
-x,y,-z
-x,-y,-z
1/2+x,y,-z
1/2-x,y,z
x,-y,z
loop_
_atom_site_type_symbol
_atom_site_label
_atom_site_fract_x
_atom_site_fract_y
_atom_site_fract_z
Si Si1 0.956177 0.768417 0.572126
Si Si2 0.041818 0.623147 0.927623
Si Si3 0.037280 0.765603 0.809705
Si Si4 0.543172 0.000000 0.618189
Si Si5 0.956019 0.621899 0.309192
Si Si6 0.959522 0.000000 0.232147
O O1 0.750000 0.772981 0.578322
O O2 0.000000 0.738752 0.500000
O O3 0.018234 0.683202 0.624409
O O4 0.027145 0.888674 0.588332
O O5 0.250000 0.618858 0.922012
O O6 0.976498 0.500000 0.917354
O O7 0.979466 0.705896 0.873961
O O8 0.000000 0.654740 0.000000
O O9 0.250000 0.766647 0.809634
O O10 0.977967 0.695797 0.748733
O O11 0.980303 0.889208 0.800634
O O12 0.750000 0.000000 0.607492
O O13 0.511031 0.000000 0.693698
O O14 0.750000 0.613658 0.298911
O O15 0.027379 0.500000 0.309312
O O16 0.750000 0.000000 0.230614
#
# Coordination Sequence:
#
# PCOD9399590 Si02
#       6
#     8   8   8   4   8   4
#     4  11  23  38  56  78 106 138 174 217 265 317
#     4   9  17  31  51  75 105 139 175 214 255 302
#     4   9  17  31  53  80 105 134 173 217 260 307
#     4  10  21  37  55  79 107 135 169 217 269 312
#     4  10  20  35  56  80 105 136 176 219 265 316
#     4  10  18  31  56  81 102 133 174 215 260 318
#
# _framework density 19.984362999999998
#
# number of rings (size 3 to 8) (size 9 to 14) (size 15 to 20)
#    0.000    2.200    2.000    1.500    0.000    4.000 
#    0.000    2.500    0.000    2.400    0.000    0.000 
#    0.000    0.000    0.000    0.000    0.000    0.000 
#
# Total GULP energy -223361.961426 kJ/mol
# GULP energy per Si atom -5584.049036 kJ/mol
# Density = 1.993888 g / cm^3
# Si number density = 19.984363 Si / 1000 Ang^3
#
#
#
# Elastic Constant Matrix: (Units=GPa)
#
#
# Indices 1 2 3 4 5 6 
#
# 1 29.0331 6.0583 -12.0975 0.0000 0.0000 0.0000
# 2 6.0583 187.6039 108.8509 0.0000 0.0000 0.0000
# 3 -12.0975 108.8509 167.0364 0.0000 0.0000 0.0000
# 4 0.0000 0.0000 0.0000 12.9441 0.0000 0.0000
# 5 0.0000 0.0000 0.0000 0.0000 24.9360 0.0000
# 6 0.0000 0.0000 0.0000 0.0000 0.0000 6.6085
#
#
#
# Elastic Compliance Matrix: (Units=1/GPa)
#
#
# Indices 1 2 3 4 5 6 
#
# 1 0.037749 -0.004511 0.005673 0.000000 0.000000 0.000000
# 2 -0.004511 0.009110 -0.006263 0.000000 0.000000 0.000000
# 3 0.005673 -0.006263 0.010479 0.000000 0.000000 0.000000
# 4 0.000000 0.000000 0.000000 0.077255 0.000000 0.000000
# 5 0.000000 0.000000 0.000000 0.000000 0.040103 0.000000
# 6 0.000000 0.000000 0.000000 0.000000 0.000000 0.151321
#
#
# Mechanical properties :
#
#
# Convention : Reuss Voigt Hill
#
# Bulk Modulus (GPa) = 21.21501 65.47742 43.34621
# Shear Modulus (GPa) = 14.20734 27.62183 20.91458
#
# Velocity S-wave (km/s) = 2.66921 3.72179 3.23855
# Velocity P-wave (km/s) = 4.48758 7.16271 5.97674
#
# Compressibility (1/GPa) = 0.04713645
#
# Stress axis : x y z
#
# Youngs Moduli (GPa) = 26.49100 109.76699 95.42667
#
# Poissons Ratio (x) = 0.49514 -0.54140
# Poissons Ratio (y) = 0.11950 0.59770
# Poissons Ratio (z) = -0.15030 0.68752
#
# Static dielectric constant tensor:
#      x y z
#    x 1.746020 0.000000 0.000000 
#    y 0.000000 1.712590 0.000000 
#    z 0.000000 0.000000 1.636140 
# 
# From -- ./inp_files/31394.got.cif
#   From: 2010.05.17/outbox.cif.g08.bks.cpg/sg51_16_cif.got.tgz:31394.got - 2010.06.03 11:52:47.
