data_PCOD9399637
_publ_section_title
;
Structure prediction by ZEFSAII (Michael W. Deem and Ramdas Pophale) SiO2 
 PCOD9399637
Probable space group: P M M A
;
_chemical_formula_sum "Si O2"
_cell_formula_units_Z 32
_cell_length_a 8.584688
_cell_length_b 15.937793
_cell_length_c 14.664461
_cell_angle_alpha 90.000000
_cell_angle_beta 90.000000
_cell_angle_gamma 90.000000
_cell_volume 2006.405930
_symmetry_space_group_name_H-M "P M M A"
_symmetry_group_IT_number 51
_symmetry_cell_setting 'orthorhombic'
loop_
_space_group_symop_operation_xyz
x,y,z
1/2-x,-y,z
1/2+x,-y,-z
-x,y,-z
-x,-y,-z
1/2+x,y,-z
1/2-x,y,z
x,-y,z
loop_
_atom_site_type_symbol
_atom_site_label
_atom_site_fract_x
_atom_site_fract_y
_atom_site_fract_z
Si Si1 0.437898 0.836980 0.708372
Si Si2 0.436923 0.000000 0.397202
Si Si3 0.436066 0.323938 0.396519
Si Si4 0.062628 0.902690 0.902590
Si Si5 0.563833 0.500000 0.396359
O O1 0.250000 0.835410 0.702890
O O2 0.506234 0.753663 0.663360
O O3 0.484421 0.850095 0.814017
O O4 0.499547 0.917726 0.653747
O O5 0.500000 0.000000 0.500000
O O6 0.250000 0.000000 0.397107
O O7 0.500000 0.313713 0.500000
O O8 0.250000 0.326822 0.400742
O O9 0.500369 0.412366 0.357978
O O10 0.250000 0.903137 0.905791
O O11 0.011068 0.000000 0.890211
O O12 0.000000 0.873050 0.000000
O O13 0.750000 0.500000 0.396793
O O14 0.500000 0.500000 0.500000
#
# Coordination Sequence:
#
# PCOD9399637 Si02
#       5
#     8   4   8   8   4
#     4  11  21  36  52  72 101 134 170 208 250 298
#     4  12  24  36  49  68  97 136 173 208 246 294
#     4  11  21  34  51  75 103 135 171 210 251 297
#     4   9  18  33  52  73  97 128 164 209 255 296
#     4  10  18  32  52  74  99 132 167 208 254 296
#
# _framework density 15.948917
#
# number of rings (size 3 to 8) (size 9 to 14) (size 15 to 20)
#    0.000    1.500    1.250    7.500    0.000    2.000 
#    0.000    0.000    0.000    0.000    0.000    0.875 
#    0.000    0.000    0.000    0.000    0.000    0.000 
#
# Total GULP energy -178670.199442 kJ/mol
# GULP energy per Si atom -5583.443733 kJ/mol
# Density = 1.591262 g / cm^3
# Si number density = 15.948917 Si / 1000 Ang^3
#
#
#
# Elastic Constant Matrix: (Units=GPa)
#
#
# Indices 1 2 3 4 5 6 
#
# 1 119.9646 57.7010 46.3032 0.0000 0.0000 0.0000
# 2 57.7010 155.7680 74.8722 0.0000 0.0000 0.0000
# 3 46.3032 74.8722 125.5526 0.0000 0.0000 0.0000
# 4 0.0000 0.0000 0.0000 1.3365 0.0000 0.0000
# 5 0.0000 0.0000 0.0000 0.0000 25.3379 0.0000
# 6 0.0000 0.0000 0.0000 0.0000 0.0000 28.1789
#
#
#
# Elastic Compliance Matrix: (Units=1/GPa)
#
#
# Indices 1 2 3 4 5 6 
#
# 1 0.010555 -0.002858 -0.002188 0.000000 0.000000 0.000000
# 2 -0.002858 0.009773 -0.004774 0.000000 0.000000 0.000000
# 3 -0.002188 -0.004774 0.011619 0.000000 0.000000 0.000000
# 4 0.000000 0.000000 0.000000 0.748195 0.000000 0.000000
# 5 0.000000 0.000000 0.000000 0.000000 0.039467 0.000000
# 6 0.000000 0.000000 0.000000 0.000000 0.000000 0.035488
#
#
# Mechanical properties :
#
#
# Convention : Reuss Voigt Hill
#
# Bulk Modulus (GPa) = 81.26000 84.33757 82.79879
# Shear Modulus (GPa) = 5.68932 25.79792 15.74362
#
# Velocity S-wave (km/s) = 1.89076 4.02622 3.14527
# Velocity P-wave (km/s) = 7.47177 8.63762 8.07576
#
# Compressibility (1/GPa) = 0.01230618
#
# Stress axis : x y z
#
# Youngs Moduli (GPa) = 94.74094 102.31957 86.06706
#
# Poissons Ratio (x) = 0.29244 0.18834
# Poissons Ratio (y) = 0.27078 0.41090
# Poissons Ratio (z) = 0.20732 0.48849
#
# Static dielectric constant tensor:
#      x y z
#    x 1.535960 0.000000 0.000000 
#    y 0.000000 1.537250 0.000000 
#    z 0.000000 0.000000 1.512570 
# 
# From -- ./inp_files/13817.got.cif
#   From: 2010.05.17/outbox.cif.g08.bks.cpg/sg51_7_cif.got.tgz:13817.got - 2010.06.03 11:52:47.
