data_PCOD9399248
_publ_section_title
;
Structure prediction by ZEFSAII (Michael W. Deem and Ramdas Pophale) SiO2 
 PCOD9399248
Probable space group: P M M A
;
_chemical_formula_sum "Si O2"
_cell_formula_units_Z 64
_cell_length_a 8.931650
_cell_length_b 20.359714
_cell_length_c 20.157834
_cell_angle_alpha 90.000000
_cell_angle_beta 90.000000
_cell_angle_gamma 90.000000
_cell_volume 3665.618247
_symmetry_space_group_name_H-M "P M M A"
_symmetry_group_IT_number 51
_symmetry_cell_setting 'orthorhombic'
loop_
_space_group_symop_operation_xyz
x,y,z
1/2-x,-y,z
1/2+x,-y,-z
-x,y,-z
-x,-y,-z
1/2+x,y,-z
1/2-x,y,z
x,-y,z
loop_
_atom_site_type_symbol
_atom_site_label
_atom_site_fract_x
_atom_site_fract_y
_atom_site_fract_z
Si Si1 0.421812 0.603863 0.431933
Si Si2 0.927888 0.388930 0.294778
Si Si3 0.071144 0.817317 0.162337
Si Si4 0.573842 0.078649 0.070503
Si Si5 0.076665 0.763975 0.432034
Si Si6 0.567916 0.571485 0.149272
Si Si7 0.072803 0.768688 0.705377
Si Si8 0.569012 0.702752 0.072613
O O1 0.500000 0.581742 0.500000
O O2 0.250000 0.583549 0.432442
O O3 0.497766 0.585621 0.362272
O O4 0.427484 0.683957 0.432569
O O5 0.750000 0.399823 0.300593
O O6 0.981655 0.419427 0.225591
O O7 0.951495 0.310210 0.287955
O O8 0.250000 0.814232 0.158479
O O9 0.009776 0.883714 0.129158
O O10 0.015147 0.805955 0.237062
O O11 0.996271 0.759226 0.119406
O O12 0.750000 0.095651 0.069990
O O13 0.560113 0.000000 0.077115
O O14 0.500000 0.097637 0.000000
O O15 0.250000 0.783241 0.428738
O O16 0.000000 0.786142 0.500000
O O17 0.987203 0.786360 0.367320
O O18 0.750000 0.572785 0.151039
O O19 0.520077 0.500000 0.124352
O O20 0.523472 0.632783 0.104417
O O21 0.250000 0.780147 0.711570
O O22 0.750000 0.706928 0.070832
O O23 0.500000 0.709568 0.000000
#
# Coordination Sequence:
#
# PCOD9399248 Si02
#       8
#     8   8   8   8   8   8   8   8
#     4   9  16  25  40  64  92 123 157 199 246 299
#     4   9  16  29  48  69  93 125 162 205 255 309
#     4  12  23  35  54  80 110 143 177 217 259 308
#     4  10  21  38  59  82 110 144 180 217 258 307
#     4   9  16  26  40  64  97 135 172 211 257 310
#     4   9  18  34  55  75  96 127 167 211 263 321
#     4  10  18  30  48  72 101 136 173 216 264 311
#     4  11  22  38  56  78 103 132 168 212 262 316
#
# _framework density 17.459537999999998
#
# number of rings (size 3 to 8) (size 9 to 14) (size 15 to 20)
#    0.000    2.125    1.250    3.375    0.000    4.500 
#    0.000    0.000    0.000    3.375    0.000    0.000 
#    0.000    0.500    0.000    1.875    0.000    2.875 
#
# Total GULP energy -357278.505273 kJ/mol
# GULP energy per Si atom -5582.476645 kJ/mol
# Density = 1.741980 g / cm^3
# Si number density = 17.459538 Si / 1000 Ang^3
#
#
#
# Elastic Constant Matrix: (Units=GPa)
#
#
# Indices 1 2 3 4 5 6 
#
# 1 94.5382 31.2697 46.3560 0.0000 0.0000 0.0000
# 2 31.2697 36.8428 30.5653 0.0000 0.0000 0.0000
# 3 46.3560 30.5653 122.2162 0.0000 0.0000 0.0000
# 4 0.0000 0.0000 0.0000 44.3671 0.0000 0.0000
# 5 0.0000 0.0000 0.0000 0.0000 32.7699 0.0000
# 6 0.0000 0.0000 0.0000 0.0000 0.0000 428.5157
#
#
#
# Elastic Compliance Matrix: (Units=1/GPa)
#
#
# Indices 1 2 3 4 5 6 
#
# 1 0.015700 -0.010580 -0.003309 0.000000 0.000000 0.000000
# 2 -0.010580 0.041378 -0.006335 0.000000 0.000000 0.000000
# 3 -0.003309 -0.006335 0.011022 0.000000 0.000000 0.000000
# 4 0.000000 0.000000 0.000000 0.022539 0.000000 0.000000
# 5 0.000000 0.000000 0.000000 0.000000 0.030516 0.000000
# 6 0.000000 0.000000 0.000000 0.000000 0.000000 0.002334
#
#
# Mechanical properties :
#
#
# Convention : Reuss Voigt Hill
#
# Bulk Modulus (GPa) = 36.16505 52.21991 44.19248
# Shear Modulus (GPa) = 28.87630 110.82429 69.85029
#
# Velocity S-wave (km/s) = 4.07123 7.97576 6.33197
# Velocity P-wave (km/s) = 6.54664 10.71406 8.87833
#
# Compressibility (1/GPa) = 0.02765101
#
# Stress axis : x y z
#
# Youngs Moduli (GPa) = 63.69600 24.16767 90.73012
#
# Poissons Ratio (x) = 0.25569 0.30022
# Poissons Ratio (y) = 0.67388 0.57481
# Poissons Ratio (z) = 0.21076 0.15311
#
# Static dielectric constant tensor:
#      x y z
#    x 1.583020 0.000000 0.000000 
#    y 0.000000 1.596790 0.000000 
#    z 0.000000 0.000000 1.580170 
# 
# From -- ./inp_files/28490.got.cif
#   From: 2010.05.17/outbox.cif.g08.bks.cpg/sg51_15_cif.got.tgz:28490.got - 2010.06.03 11:52:47.
