data_PCOD9399235
_publ_section_title
;
Structure prediction by ZEFSAII (Michael W. Deem and Ramdas Pophale) SiO2 
 PCOD9399235
Probable space group: P M M A
;
_chemical_formula_sum "Si O2"
_cell_formula_units_Z 52
_cell_length_a 8.385321
_cell_length_b 14.949937
_cell_length_c 21.124825
_cell_angle_alpha 90.000000
_cell_angle_beta 90.000000
_cell_angle_gamma 90.000000
_cell_volume 2648.208499
_symmetry_space_group_name_H-M "P M M A"
_symmetry_group_IT_number 51
_symmetry_cell_setting 'orthorhombic'
loop_
_space_group_symop_operation_xyz
x,y,z
1/2-x,-y,z
1/2+x,-y,-z
-x,y,-z
-x,-y,-z
1/2+x,y,-z
1/2-x,y,z
x,-y,z
loop_
_atom_site_type_symbol
_atom_site_label
_atom_site_fract_x
_atom_site_fract_y
_atom_site_fract_z
Si Si1 0.554419 0.396447 0.690991
Si Si2 0.941450 0.807048 0.928243
Si Si3 0.439953 0.000000 0.927365
Si Si4 0.562318 0.279178 0.806163
Si Si5 0.438072 0.708989 0.432996
Si Si6 0.562912 0.900042 0.250946
Si Si7 0.562948 0.901921 0.403730
O O1 0.750000 0.392059 0.691505
O O2 0.509657 0.500000 0.687039
O O3 0.496023 0.350167 0.755911
O O4 0.497885 0.341173 0.629511
O O5 0.750000 0.807973 0.929258
O O6 0.000551 0.733636 0.877567
O O7 0.998074 0.904600 0.903570
O O8 0.000000 0.794154 0.000000
O O9 0.250000 0.000000 0.924669
O O10 0.500000 0.000000 0.000000
O O11 0.750000 0.298217 0.812170
O O12 0.538003 0.182024 0.774542
O O13 0.500000 0.673706 0.500000
O O14 0.250000 0.697760 0.432419
O O15 0.477359 0.814155 0.428463
O O16 0.750000 0.888286 0.233605
O O17 0.554374 0.898969 0.327272
O O18 0.513880 0.000000 0.230258
O O19 0.750000 0.896778 0.420978
O O20 0.500655 0.000000 0.423408
#
# Coordination Sequence:
#
# PCOD9399235 Si02
#       7
#     8   8   4   8   8   8   8
#     4   9  19  38  61  83 106 133 172 223 277 330
#     4  10  20  33  49  73 108 144 182 222 261 309
#     4  10  18  30  48  70 104 148 189 220 257 306
#     4  10  20  34  55  81 105 137 181 225 266 313
#     4  11  22  36  57  82 110 143 179 220 267 318
#     4   9  18  31  49  76 109 143 176 215 265 318
#     4   9  18  34  54  77 110 148 183 219 260 310
#
# _framework density 19.635918
#
# number of rings (size 3 to 8) (size 9 to 14) (size 15 to 20)
#    0.000    2.308    1.538    3.462    1.077    2.462 
#    0.000    1.538    0.000    4.154    0.000    0.000 
#    0.000    0.000    0.000    0.000    0.000    0.615 
#
# Total GULP energy -290111.625924 kJ/mol
# GULP energy per Si atom -5579.069729 kJ/mol
# Density = 1.959123 g / cm^3
# Si number density = 19.635918 Si / 1000 Ang^3
#
#
#
# Elastic Constant Matrix: (Units=GPa)
#
#
# Indices 1 2 3 4 5 6 
#
# 1 25.1009 6.1105 20.5158 0.0000 0.0000 0.0000
# 2 6.1105 102.9424 67.6651 0.0000 0.0000 0.0000
# 3 20.5158 67.6651 138.0116 0.0000 0.0000 0.0000
# 4 0.0000 0.0000 0.0000 -22.9177 0.0000 0.0000
# 5 0.0000 0.0000 0.0000 0.0000 20.3215 0.0000
# 6 0.0000 0.0000 0.0000 0.0000 0.0000 7.3811
#
#
#
# Elastic Compliance Matrix: (Units=1/GPa)
#
#
# Indices 1 2 3 4 5 6 
#
# 1 0.045813 0.002593 -0.008081 0.000000 0.000000 0.000000
# 2 0.002593 0.014480 -0.007485 0.000000 0.000000 0.000000
# 3 -0.008081 -0.007485 0.012117 0.000000 0.000000 0.000000
# 4 0.000000 0.000000 0.000000 -0.043634 0.000000 0.000000
# 5 0.000000 0.000000 0.000000 0.000000 0.049209 0.000000
# 6 0.000000 0.000000 0.000000 0.000000 0.000000 0.135481
#
#
# Mechanical properties :
#
#
# Convention : Reuss Voigt Hill
#
# Bulk Modulus (GPa) = 21.52253 50.51529 36.01891
# Shear Modulus (GPa) = 19.61553 12.40789 16.01171
#
# Velocity S-wave (km/s) = 3.16406 2.51648 2.85867
# Velocity P-wave (km/s) = 4.93285 5.85025 5.41103
#
# Compressibility (1/GPa) = 0.04646293
#
# Stress axis : x y z
#
# Youngs Moduli (GPa) = 21.82777 69.06033 82.53038
#
# Poissons Ratio (x) = -0.17904 0.66695
# Poissons Ratio (y) = -0.05659 0.61772
# Poissons Ratio (z) = 0.17640 0.51690
#
# Static dielectric constant tensor:
#      x y z
#    x 1.729110 0.000000 0.000000 
#    y 0.000000 1.672500 0.000000 
#    z 0.000000 0.000000 1.749450 
# 
# From -- ./inp_files/31694.got.cif
#   From: 2010.05.17/outbox.cif.g08.bks.cpg/sg51_16_cif.got.tgz:31694.got - 2010.06.03 11:52:47.
