data_PCOD9399977
_publ_section_title
;
Structure prediction by ZEFSAII (Michael W. Deem and Ramdas Pophale) SiO2 
 PCOD9399977
Probable space group: P M M A
;
_chemical_formula_sum "Si O2"
_cell_formula_units_Z 64
_cell_length_a 9.203673
_cell_length_b 26.824225
_cell_length_c 18.747960
_cell_angle_alpha 90.000000
_cell_angle_beta 90.000000
_cell_angle_gamma 90.000000
_cell_volume 4628.522525
_symmetry_space_group_name_H-M "P M M A"
_symmetry_group_IT_number 51
_symmetry_cell_setting 'orthorhombic'
loop_
_space_group_symop_operation_xyz
x,y,z
1/2-x,-y,z
1/2+x,-y,-z
-x,y,-z
-x,-y,-z
1/2+x,y,-z
1/2-x,y,z
x,-y,z
loop_
_atom_site_type_symbol
_atom_site_label
_atom_site_fract_x
_atom_site_fract_y
_atom_site_fract_z
Si Si1 0.417825 0.294358 0.303408
Si Si2 0.921402 0.059086 0.574830
Si Si3 0.421952 0.760971 0.575943
Si Si4 0.078491 0.138692 0.668610
Si Si5 0.575140 0.442632 0.924367
Si Si6 0.925469 0.252970 0.923968
Si Si7 0.426612 0.650342 0.167887
Si Si8 0.916941 0.192126 0.789419
O O1 0.250000 0.304558 0.323473
O O2 0.512267 0.281212 0.372049
O O3 0.474210 0.336146 0.248181
O O4 0.416411 0.244034 0.255192
O O5 0.750000 0.069614 0.568774
O O6 0.000000 0.070887 0.500000
O O7 0.993042 0.092355 0.635771
O O8 0.940013 0.000000 0.587933
O O9 0.500000 0.761180 0.500000
O O10 0.250000 0.754546 0.567388
O O11 0.446470 0.813881 0.616063
O O12 0.250000 0.129138 0.670992
O O13 0.017738 0.154927 0.745573
O O14 0.750000 0.438898 0.932792
O O15 0.540779 0.500000 0.905369
O O16 0.529323 0.402246 0.865546
O O17 0.500000 0.431548 0.000000
O O18 0.750000 0.253635 0.930760
O O19 0.969569 0.304990 0.885767
O O20 0.962576 0.208674 0.868567
O O21 0.000000 0.247999 0.000000
O O22 0.250000 0.651661 0.170823
O O23 0.750000 0.174229 0.790661
#
# Coordination Sequence:
#
# PCOD9399977 Si02
#       8
#     8   8   8   8   8   8   8   8
#     4   8  14  26  41  53  70  99 131 162 194 229
#     4  10  20  32  45  61  82 108 137 168 198 227
#     4  10  19  28  39  58  81 103 129 158 190 230
#     4  10  19  29  43  61  80 105 135 165 196 230
#     4   9  16  25  37  54  77 104 134 167 198 229
#     4   9  16  25  38  56  78 105 135 166 199 235
#     4   8  14  25  39  54  74 103 136 164 196 236
#     4   8  15  27  40  54  75 103 132 162 197 235
#
# _framework density 13.827306
#
# number of rings (size 3 to 8) (size 9 to 14) (size 15 to 20)
#    0.000    3.000    0.000    3.375    0.000    3.750 
#    0.000    2.500    0.000    0.000    0.000    0.000 
#    0.000    1.000    0.000    2.500    0.000    3.250 
#
# Total GULP energy -356376.913936 kJ/mol
# GULP energy per Si atom -5568.389280 kJ/mol
# Density = 1.379583 g / cm^3
# Si number density = 13.827306 Si / 1000 Ang^3
#
#
#
# Elastic Constant Matrix: (Units=GPa)
#
#
# Indices 1 2 3 4 5 6 
#
# 1 48.8591 35.5122 47.2162 0.0000 0.0000 0.0000
# 2 35.5122 51.7677 32.5073 0.0000 0.0000 0.0000
# 3 47.2162 32.5073 89.7715 0.0000 0.0000 0.0000
# 4 0.0000 0.0000 0.0000 25.4110 0.0000 0.0000
# 5 0.0000 0.0000 0.0000 0.0000 25.4711 0.0000
# 6 0.0000 0.0000 0.0000 0.0000 0.0000 12.3793
#
#
#
# Elastic Compliance Matrix: (Units=1/GPa)
#
#
# Indices 1 2 3 4 5 6 
#
# 1 0.064321 -0.029614 -0.023107 0.000000 0.000000 0.000000
# 2 -0.029614 0.038637 0.001585 0.000000 0.000000 0.000000
# 3 -0.023107 0.001585 0.022719 0.000000 0.000000 0.000000
# 4 0.000000 0.000000 0.000000 0.039353 0.000000 0.000000
# 5 0.000000 0.000000 0.000000 0.000000 0.039260 0.000000
# 6 0.000000 0.000000 0.000000 0.000000 0.000000 0.080780
#
#
# Mechanical properties :
#
#
# Convention : Reuss Voigt Hill
#
# Bulk Modulus (GPa) = 42.72596 46.76331 44.74464
# Shear Modulus (GPa) = 12.65364 17.66312 15.15838
#
# Velocity S-wave (km/s) = 3.02838 3.57796 3.31458
# Velocity P-wave (km/s) = 6.57228 7.13877 6.86137
#
# Compressibility (1/GPa) = 0.02340497
#
# Stress axis : x y z
#
# Youngs Moduli (GPa) = 15.54696 25.88206 44.01653
#
# Poissons Ratio (x) = 0.76647 1.01708
# Poissons Ratio (y) = 0.46041 -0.06977
# Poissons Ratio (z) = 0.35924 -0.04102
#
# Static dielectric constant tensor:
#      x y z
#    x 1.459390 0.000000 0.000000 
#    y 0.000000 1.451010 0.000000 
#    z 0.000000 0.000000 1.446530 
# 
# From -- ./inp_files/28668.got.cif
#   From: 2010.05.17/outbox.cif.g08.bks.cpg/sg51_15_cif.got.tgz:28668.got - 2010.06.03 11:52:47.
