data_PCOD9399523
_publ_section_title
;
Structure prediction by ZEFSAII (Michael W. Deem and Ramdas Pophale) SiO2 
 PCOD9399523
Probable space group: P M M A
;
_chemical_formula_sum "Si O2"
_cell_formula_units_Z 48
_cell_length_a 26.941829
_cell_length_b 8.409183
_cell_length_c 12.304951
_cell_angle_alpha 90.000000
_cell_angle_beta 90.000000
_cell_angle_gamma 90.000000
_cell_volume 2787.794569
_symmetry_space_group_name_H-M "P M M A"
_symmetry_group_IT_number 51
_symmetry_cell_setting 'orthorhombic'
loop_
_space_group_symop_operation_xyz
x,y,z
1/2-x,-y,z
1/2+x,-y,-z
-x,y,-z
-x,-y,-z
1/2+x,y,-z
1/2-x,y,z
x,-y,z
loop_
_atom_site_type_symbol
_atom_site_label
_atom_site_fract_x
_atom_site_fract_y
_atom_site_fract_z
Si Si1 0.379830 0.309369 0.018124
Si Si2 0.944963 0.805943 0.539384
Si Si3 0.459381 0.312272 0.836737
Si Si4 0.434738 0.810710 0.211096
Si Si5 0.885835 0.186594 0.336271
Si Si6 0.193708 0.308564 0.831318
O O1 0.376593 0.500000 0.030312
O O2 0.388300 0.233814 0.135488
O O3 0.428430 0.273492 0.944655
O O4 0.334409 0.254436 0.941503
O O5 0.933215 0.759283 0.662893
O O6 0.903149 0.751722 0.453788
O O7 0.000000 0.754007 0.500000
O O8 0.945499 0.000000 0.535637
O O9 0.452098 0.500000 0.816167
O O10 0.516841 0.272139 0.839814
O O11 0.433819 0.214942 0.739916
O O12 0.441864 0.000000 0.208893
O O13 0.840291 0.264002 0.271682
O O14 0.875541 0.000000 0.344623
O O15 0.250000 0.249383 0.823507
O O16 0.194740 0.500000 0.836408
#
# Coordination Sequence:
#
# PCOD9399523 Si02
#       6
#     8   8   8   8   8   8
#     4   9  19  33  47  68  98 128 159 199 248 299
#     4   9  17  31  47  67 101 139 168 198 241 289
#     4  10  19  31  46  67 100 136 166 200 243 291
#     4  11  20  30  47  69  97 135 172 202 238 285
#     4  10  18  31  52  75 100 130 168 209 244 286
#     4   9  19  37  58  76  98 127 157 200 260 309
#
# _framework density 17.217911000000001
#
# number of rings (size 3 to 8) (size 9 to 14) (size 15 to 20)
#    0.000    2.333    1.667    3.000    0.000    5.667 
#    0.000    4.167    0.000    1.000    0.000    4.667 
#    0.000    0.000    0.000    0.000    0.000    0.000 
#
# Total GULP energy -267581.401656 kJ/mol
# GULP energy per Si atom -5574.612534 kJ/mol
# Density = 1.717872 g / cm^3
# Si number density = 17.217911 Si / 1000 Ang^3
#
#
#
# Elastic Constant Matrix: (Units=GPa)
#
#
# Indices 1 2 3 4 5 6 
#
# 1 104.9100 5.8798 56.6319 0.0000 0.0000 0.0000
# 2 5.8798 7.4340 16.4739 0.0000 0.0000 0.0000
# 3 56.6319 16.4739 113.2849 0.0000 0.0000 0.0000
# 4 0.0000 0.0000 0.0000 32.1699 0.0000 0.0000
# 5 0.0000 0.0000 0.0000 0.0000 10.0632 0.0000
# 6 0.0000 0.0000 0.0000 0.0000 0.0000 22.1057
#
#
#
# Elastic Compliance Matrix: (Units=1/GPa)
#
#
# Indices 1 2 3 4 5 6 
#
# 1 0.013245 0.006193 -0.007522 0.000000 0.000000 0.000000
# 2 0.006193 0.201372 -0.032379 0.000000 0.000000 0.000000
# 3 -0.007522 -0.032379 0.017296 0.000000 0.000000 0.000000
# 4 0.000000 0.000000 0.000000 0.031085 0.000000 0.000000
# 5 0.000000 0.000000 0.000000 0.000000 0.099372 0.000000
# 6 0.000000 0.000000 0.000000 0.000000 0.000000 0.045237
#
#
# Mechanical properties :
#
#
# Convention : Reuss Voigt Hill
#
# Bulk Modulus (GPa) = 6.07918 42.62225 24.35072
# Shear Modulus (GPa) = 9.43652 22.64397 16.04024
#
# Velocity S-wave (km/s) = 2.34362 3.63042 3.05553
# Velocity P-wave (km/s) = 3.29572 6.51012 5.15962
#
# Compressibility (1/GPa) = 0.16449595
#
# Stress axis : x y z
#
# Youngs Moduli (GPa) = 75.49799 4.96595 57.81616
#
# Poissons Ratio (x) = -0.03075 0.43489
# Poissons Ratio (y) = -0.46754 1.87205
# Poissons Ratio (z) = 0.56790 0.16079
#
# Static dielectric constant tensor:
#      x y z
#    x 1.574660 0.000000 0.000000 
#    y 0.000000 1.596830 0.000000 
#    z 0.000000 0.000000 1.608930 
# 
# From -- ./inp_files/18962.got.cif
#   From: 2010.05.17/outbox.cif.g08.bks.cpg/sg51_10_cif.got.tgz:18962.got - 2010.06.03 11:52:47.
