data_PCOD9399175
_publ_section_title
;
Structure prediction by ZEFSAII (Michael W. Deem and Ramdas Pophale) SiO2 
 PCOD9399175
Probable space group: P M M A
;
_chemical_formula_sum "Si O2"
_cell_formula_units_Z 52
_cell_length_a 28.356055
_cell_length_b 8.344832
_cell_length_c 11.908175
_cell_angle_alpha 90.000000
_cell_angle_beta 90.000000
_cell_angle_gamma 90.000000
_cell_volume 2817.789952
_symmetry_space_group_name_H-M "P M M A"
_symmetry_group_IT_number 51
_symmetry_cell_setting 'orthorhombic'
loop_
_space_group_symop_operation_xyz
x,y,z
1/2-x,-y,z
1/2+x,-y,-z
-x,y,-z
-x,-y,-z
1/2+x,y,-z
1/2-x,y,z
x,-y,z
loop_
_atom_site_type_symbol
_atom_site_label
_atom_site_fract_x
_atom_site_fract_y
_atom_site_fract_z
Si Si1 0.485647 0.811637 0.838627
Si Si2 0.694528 0.178265 0.644314
Si Si3 0.045249 0.176118 0.582510
Si Si4 0.074859 0.311955 0.040556
Si Si5 0.826008 0.827643 0.911141
Si Si6 0.442309 0.500000 0.486737
Si Si7 0.301038 0.500000 0.114938
Si Si8 0.857966 0.500000 0.657752
O O1 0.472670 0.797576 0.708882
O O2 0.532471 0.716226 0.872141
O O3 0.493502 0.000000 0.862586
O O4 0.445147 0.746580 0.920811
O O5 0.750000 0.198076 0.619033
O O6 0.688869 0.171031 0.780237
O O7 0.665093 0.335663 0.610594
O O8 0.679360 0.000000 0.603649
O O9 0.072757 0.334393 0.545443
O O10 0.000000 0.167879 0.500000
O O11 0.068570 0.000000 0.576285
O O12 0.086553 0.500000 0.033775
O O13 0.118403 0.202431 0.077116
O O14 0.804565 0.662216 0.955506
O O15 0.812656 0.000000 0.959631
O O16 0.500000 0.500000 0.500000
O O17 0.413907 0.500000 0.368618
O O18 0.250000 0.500000 0.174338
O O19 0.341418 0.500000 0.211388
#
# Coordination Sequence:
#
# PCOD9399175 Si02
#       8
#     8   8   8   8   8   4   4   4
#     4  10  20  35  54  72 100 143 188 231 273 319
#     4   9  18  32  52  78 108 141 175 219 278 344
#     4   9  20  37  53  70  95 134 183 235 282 317
#     4  11  21  32  49  78 108 141 181 227 271 316
#     4  10  18  30  46  70 105 141 175 208 254 320
#     4  10  22  34  47  70 100 138 184 229 267 321
#     4  10  20  34  51  78 111 141 179 223 277 345
#     4  10  18  30  48  70  99 141 178 218 263 316
#
# _framework density 18.454179
#
# number of rings (size 3 to 8) (size 9 to 14) (size 15 to 20)
#    0.000    2.154    0.769    4.846    2.154    6.462 
#    0.000    6.154    0.000    0.000    0.000    0.000 
#    0.000   11.077    0.000   26.923    0.000    0.923 
#
# Total GULP energy -289519.957457 kJ/mol
# GULP energy per Si atom -5567.691490 kJ/mol
# Density = 1.841218 g / cm^3
# Si number density = 18.454179 Si / 1000 Ang^3
#
#
#
# Elastic Constant Matrix: (Units=GPa)
#
#
# Indices 1 2 3 4 5 6 
#
# 1 74.4715 18.3828 21.0614 0.0000 0.0000 0.0000
# 2 18.3828 182.3817 18.9293 0.0000 0.0000 0.0000
# 3 21.0614 18.9293 48.8986 0.0000 0.0000 0.0000
# 4 0.0000 0.0000 0.0000 19.5160 0.0000 0.0000
# 5 0.0000 0.0000 0.0000 0.0000 18.0502 0.0000
# 6 0.0000 0.0000 0.0000 0.0000 0.0000 42.4824
#
#
#
# Elastic Compliance Matrix: (Units=1/GPa)
#
#
# Indices 1 2 3 4 5 6 
#
# 1 0.015432 -0.000902 -0.006298 0.000000 0.000000 0.000000
# 2 -0.000902 0.005765 -0.001843 0.000000 0.000000 0.000000
# 3 -0.006298 -0.001843 0.023877 0.000000 0.000000 0.000000
# 4 0.000000 0.000000 0.000000 0.051240 0.000000 0.000000
# 5 0.000000 0.000000 0.000000 0.000000 0.055401 0.000000
# 6 0.000000 0.000000 0.000000 0.000000 0.000000 0.023539
#
#
# Mechanical properties :
#
#
# Convention : Reuss Voigt Hill
#
# Bulk Modulus (GPa) = 37.05360 46.94432 41.99896
# Shear Modulus (GPa) = 24.71149 32.50161 28.60655
#
# Velocity S-wave (km/s) = 3.66330 4.20123 3.94145
# Velocity P-wave (km/s) = 6.16566 7.00195 6.59707
#
# Compressibility (1/GPa) = 0.02698793
#
# Stress axis : x y z
#
# Youngs Moduli (GPa) = 64.80223 173.45386 41.88208
#
# Poissons Ratio (x) = 0.15642 0.26375
# Poissons Ratio (y) = 0.05844 0.07720
# Poissons Ratio (z) = 0.40810 0.31974
#
# Static dielectric constant tensor:
#      x y z
#    x 1.670300 0.000000 0.000000 
#    y 0.000000 1.750710 0.000000 
#    z 0.000000 0.000000 1.598670 
# 
# From -- ./inp_files/19116.got.cif
#   From: 2010.05.17/outbox.cif.g08.bks.cpg/sg51_10_cif.got.tgz:19116.got - 2010.06.03 11:52:47.
