data_PCOD9399987
_publ_section_title
;
Structure prediction by ZEFSAII (Michael W. Deem and Ramdas Pophale) SiO2 
 PCOD9399987
Probable space group: P M M A
;
_chemical_formula_sum "Si O2"
_cell_formula_units_Z 64
_cell_length_a 9.300047
_cell_length_b 26.240544
_cell_length_c 18.605422
_cell_angle_alpha 90.000000
_cell_angle_beta 90.000000
_cell_angle_gamma 90.000000
_cell_volume 4540.435416
_symmetry_space_group_name_H-M "P M M A"
_symmetry_group_IT_number 51
_symmetry_cell_setting 'orthorhombic'
loop_
_space_group_symop_operation_xyz
x,y,z
1/2-x,-y,z
1/2+x,-y,-z
-x,y,-z
-x,-y,-z
1/2+x,y,-z
1/2-x,y,z
x,-y,z
loop_
_atom_site_type_symbol
_atom_site_label
_atom_site_fract_x
_atom_site_fract_y
_atom_site_fract_z
Si Si1 0.415247 0.298049 0.305168
Si Si2 0.918808 0.060688 0.574564
Si Si3 0.419355 0.758138 0.575648
Si Si4 0.080676 0.139467 0.670682
Si Si5 0.419324 0.560733 0.925472
Si Si6 0.922623 0.258236 0.924170
Si Si7 0.422870 0.640637 0.168301
Si Si8 0.915522 0.194479 0.790301
O O1 0.250000 0.306740 0.327992
O O2 0.514837 0.285174 0.372393
O O3 0.459848 0.342207 0.249547
O O4 0.414489 0.246872 0.256129
O O5 0.750000 0.073392 0.568338
O O6 0.000000 0.072567 0.500000
O O7 0.993308 0.092999 0.636751
O O8 0.931575 0.000000 0.586711
O O9 0.500000 0.759579 0.500000
O O10 0.250000 0.750623 0.565181
O O11 0.439406 0.811913 0.617440
O O12 0.250000 0.128662 0.674624
O O13 0.016838 0.156208 0.747426
O O14 0.250000 0.572561 0.931583
O O15 0.434562 0.500000 0.914507
O O16 0.492794 0.592579 0.862188
O O17 0.500000 0.573748 0.000000
O O18 0.750000 0.256878 0.932717
O O19 0.956918 0.311437 0.883903
O O20 0.961767 0.212557 0.869386
O O21 0.000000 0.255124 0.000000
O O22 0.250000 0.633064 0.165624
O O23 0.750000 0.176248 0.792245
#
# Coordination Sequence:
#
# PCOD9399987 Si02
#       8
#     8   8   8   8   8   8   8   8
#     4   8  15  28  43  58  79 106 135 168 204 242
#     4  10  20  32  45  61  82 109 140 173 207 241
#     4  10  19  28  40  60  84 110 140 170 202 241
#     4  10  19  29  43  62  82 108 141 173 206 242
#     4  10  20  31  42  58  81 109 141 176 210 242
#     4   9  17  27  40  60  84 110 139 170 205 244
#     4   9  17  29  44  61  81 108 140 171 207 247
#     4   8  15  28  42  56  79 109 137 167 203 242
#
# _framework density 14.095564
#
# number of rings (size 3 to 8) (size 9 to 14) (size 15 to 20)
#    0.000    2.750    0.000    3.750    0.000    6.500 
#    0.000    2.500    0.000    0.000    0.000    0.000 
#    0.000    1.000    0.000    3.250    0.000    4.375 
#
# Total GULP energy -356629.954228 kJ/mol
# GULP energy per Si atom -5572.343035 kJ/mol
# Density = 1.406348 g / cm^3
# Si number density = 14.095564 Si / 1000 Ang^3
#
#
#
# Elastic Constant Matrix: (Units=GPa)
#
#
# Indices 1 2 3 4 5 6 
#
# 1 76.4394 34.2143 48.5251 0.0000 0.0000 0.0000
# 2 34.2143 32.6564 17.9710 0.0000 0.0000 0.0000
# 3 48.5251 17.9710 73.9930 0.0000 0.0000 0.0000
# 4 0.0000 0.0000 0.0000 26.4626 0.0000 0.0000
# 5 0.0000 0.0000 0.0000 0.0000 27.5261 0.0000
# 6 0.0000 0.0000 0.0000 0.0000 0.0000 20.5387
#
#
#
# Elastic Compliance Matrix: (Units=1/GPa)
#
#
# Indices 1 2 3 4 5 6 
#
# 1 0.037264 -0.029542 -0.017263 0.000000 0.000000 0.000000
# 2 -0.029542 0.058766 0.005101 0.000000 0.000000 0.000000
# 3 -0.017263 0.005101 0.023597 0.000000 0.000000 0.000000
# 4 0.000000 0.000000 0.000000 0.037789 0.000000 0.000000
# 5 0.000000 0.000000 0.000000 0.000000 0.036329 0.000000
# 6 0.000000 0.000000 0.000000 0.000000 0.000000 0.048689
#
#
# Mechanical properties :
#
#
# Convention : Reuss Voigt Hill
#
# Bulk Modulus (GPa) = 27.60963 42.72329 35.16646
# Shear Modulus (GPa) = 14.79663 20.39738 17.59701
#
# Velocity S-wave (km/s) = 3.24348 3.80817 3.53711
# Velocity P-wave (km/s) = 5.80145 7.05066 6.45634
#
# Compressibility (1/GPa) = 0.03621925
#
# Stress axis : x y z
#
# Youngs Moduli (GPa) = 26.83551 17.01668 42.37805
#
# Poissons Ratio (x) = 0.50270 0.73157
# Poissons Ratio (y) = 0.79277 -0.21617
# Poissons Ratio (z) = 0.46326 -0.08680
#
# Static dielectric constant tensor:
#      x y z
#    x 1.467640 0.000000 0.000000 
#    y 0.000000 1.454110 0.000000 
#    z 0.000000 0.000000 1.455290 
# 
# From -- ./inp_files/28611.got.cif
#   From: 2010.05.17/outbox.cif.g08.bks.cpg/sg51_15_cif.got.tgz:28611.got - 2010.06.03 11:52:47.
