data_PCOD9399017
_publ_section_title
;
Structure prediction by ZEFSAII (Michael W. Deem and Ramdas Pophale) SiO2 
 PCOD9399017
Probable space group: P M M A
;
_chemical_formula_sum "Si O2"
_cell_formula_units_Z 64
_cell_length_a 19.408681
_cell_length_b 8.456068
_cell_length_c 22.330343
_cell_angle_alpha 90.000000
_cell_angle_beta 90.000000
_cell_angle_gamma 90.000000
_cell_volume 3664.881044
_symmetry_space_group_name_H-M "P M M A"
_symmetry_group_IT_number 51
_symmetry_cell_setting 'orthorhombic'
loop_
_space_group_symop_operation_xyz
x,y,z
1/2-x,-y,z
1/2+x,-y,-z
-x,y,-z
-x,-y,-z
1/2+x,y,-z
1/2-x,y,z
x,-y,z
loop_
_atom_site_type_symbol
_atom_site_label
_atom_site_fract_x
_atom_site_fract_y
_atom_site_fract_z
Si Si1 0.008585 0.688581 0.688132
Si Si2 0.441656 0.308745 0.811558
Si Si3 0.973948 0.811328 0.565273
Si Si4 0.829265 0.691522 0.094399
Si Si5 0.675296 0.687056 0.600543
Si Si6 0.903177 0.311046 0.845804
Si Si7 0.361405 0.816622 0.275723
Si Si8 0.830302 0.810697 0.963211
O O1 0.993425 0.500000 0.692122
O O2 0.063056 0.726671 0.740494
O O3 0.017776 0.732353 0.619007
O O4 0.941369 0.786694 0.707644
O O5 0.330039 0.500000 0.906138
O O6 0.380756 0.250325 0.854000
O O7 0.517440 0.258547 0.834887
O O8 0.106513 0.767183 0.425247
O O9 0.000000 0.761144 0.500000
O O10 0.980815 0.000000 0.570361
O O11 0.750000 0.742261 0.104176
O O12 0.940840 0.500000 0.184090
O O13 0.851348 0.750417 0.028855
O O14 0.750000 0.741927 0.576868
O O15 0.669270 0.500000 0.590641
O O16 0.675115 0.719969 0.671878
O O17 0.901841 0.500000 0.840364
O O18 0.856216 0.241121 0.792363
O O19 0.875490 0.259233 0.909920
O O20 0.343253 0.000000 0.280661
O O21 0.750000 0.763629 0.954763
O O22 0.834122 0.000000 0.961669
#
# Coordination Sequence:
#
# PCOD9399017 Si02
#       8
#     8   8   8   8   8   8   8   8
#     4   9  16  29  49  71  97 126 156 193 236 280
#     4   8  16  30  49  74  97 119 152 197 242 279
#     4  10  20  33  51  76 104 135 170 204 242 290
#     4   9  17  32  53  71  89 119 158 195 237 292
#     4  10  20  33  50  73 100 131 169 208 243 285
#     4  10  19  32  49  68  94 126 161 198 237 286
#     4  10  18  29  46  68  96 126 156 192 236 284
#     4  10  21  35  47  63  91 122 155 198 244 290
#
# _framework density 17.463048000000001
#
# number of rings (size 3 to 8) (size 9 to 14) (size 15 to 20)
#    0.000    2.500    0.000    5.250    0.000    3.750 
#    0.000    6.250    0.000    0.750    0.000    1.750 
#    0.000    0.000    0.000    0.000    0.000    0.000 
#
# Total GULP energy -356580.559276 kJ/mol
# GULP energy per Si atom -5571.571239 kJ/mol
# Density = 1.742330 g / cm^3
# Si number density = 17.463048 Si / 1000 Ang^3
#
#
#
# Elastic Constant Matrix: (Units=GPa)
#
#
# Indices 1 2 3 4 5 6 
#
# 1 58.8181 6.8672 60.0674 0.0000 0.0000 0.0000
# 2 6.8672 27.1481 14.9929 0.0000 0.0000 0.0000
# 3 60.0674 14.9929 150.6943 0.0000 0.0000 0.0000
# 4 0.0000 0.0000 0.0000 -430.3917 0.0000 0.0000
# 5 0.0000 0.0000 0.0000 0.0000 9.0029 0.0000
# 6 0.0000 0.0000 0.0000 0.0000 0.0000 37.0597
#
#
#
# Elastic Compliance Matrix: (Units=1/GPa)
#
#
# Indices 1 2 3 4 5 6 
#
# 1 0.028699 -0.000997 -0.011341 0.000000 0.000000 0.000000
# 2 -0.000997 0.039011 -0.003484 0.000000 0.000000 0.000000
# 3 -0.011341 -0.003484 0.011503 0.000000 0.000000 0.000000
# 4 0.000000 0.000000 0.000000 -0.002323 0.000000 0.000000
# 5 0.000000 0.000000 0.000000 0.000000 0.111076 0.000000
# 6 0.000000 0.000000 0.000000 0.000000 0.000000 0.026983
#
#
# Mechanical properties :
#
#
# Convention : Reuss Voigt Hill
#
# Bulk Modulus (GPa) = 21.02119 44.50173 32.76146
# Shear Modulus (GPa) = 19.05135 -66.55029 -23.74947
#
# Velocity S-wave (km/s) = 3.30654 -6.17996 -3.69180
# Velocity P-wave (km/s) = 5.16152 5.03824 0.79290
#
# Compressibility (1/GPa) = 0.04757104
#
# Stress axis : x y z
#
# Youngs Moduli (GPa) = 34.84400 25.63369 86.93404
#
# Poissons Ratio (x) = 0.02555 0.98588
# Poissons Ratio (y) = 0.03473 0.30288
# Poissons Ratio (z) = 0.39515 0.08931
#
# Static dielectric constant tensor:
#      x y z
#    x 1.617510 0.000000 0.000000 
#    y 0.000000 1.592110 0.000000 
#    z 0.000000 0.000000 1.608880 
# 
# From -- ./inp_files/33891.got.cif
#   From: 2010.05.17/outbox.cif.g08.bks.cpg/sg51_17_cif.got.tgz:33891.got - 2010.06.03 11:52:47.
