data_PCOD9399490
_publ_section_title
;
Structure prediction by ZEFSAII (Michael W. Deem and Ramdas Pophale) SiO2 
 PCOD9399490
Probable space group: P M M A
;
_chemical_formula_sum "Si O2"
_cell_formula_units_Z 64
_cell_length_a 24.006234
_cell_length_b 9.032292
_cell_length_c 18.714734
_cell_angle_alpha 90.000000
_cell_angle_beta 90.000000
_cell_angle_gamma 90.000000
_cell_volume 4057.940389
_symmetry_space_group_name_H-M "P M M A"
_symmetry_group_IT_number 51
_symmetry_cell_setting 'orthorhombic'
loop_
_space_group_symop_operation_xyz
x,y,z
1/2-x,-y,z
1/2+x,-y,-z
-x,y,-z
-x,-y,-z
1/2+x,y,-z
1/2-x,y,z
x,-y,z
loop_
_atom_site_type_symbol
_atom_site_label
_atom_site_fract_x
_atom_site_fract_y
_atom_site_fract_z
Si Si1 0.881136 0.820423 0.866538
Si Si2 0.501909 0.820263 0.082781
Si Si3 0.623648 0.820513 0.132800
Si Si4 0.817802 0.828935 0.568596
Si Si5 0.816046 0.676146 0.998324
Si Si6 0.685118 0.822129 0.277561
Si Si7 0.685653 0.180463 0.726343
Si Si8 0.682227 0.669987 0.424534
O O1 0.945505 0.776061 0.876976
O O2 0.853741 0.775155 0.791414
O O3 0.877991 0.000000 0.871447
O O4 0.846439 0.751151 0.931299
O O5 0.559535 0.775733 0.119822
O O6 0.502075 0.000000 0.081002
O O7 0.500000 0.770164 0.000000
O O8 0.659816 0.748702 0.070070
O O9 0.648179 0.777778 0.209767
O O10 0.627136 0.000000 0.126935
O O11 0.750000 0.827752 0.568941
O O12 0.833410 0.770537 0.647283
O O13 0.836976 0.741054 0.499028
O O14 0.835093 0.000000 0.561980
O O15 0.750000 0.701710 0.993806
O O16 0.826097 0.500000 0.998514
O O17 0.750000 0.778492 0.265711
O O18 0.665642 0.755331 0.352762
O O19 0.683903 0.000000 0.282947
O O20 0.750000 0.226755 0.738606
O O21 0.686212 0.000000 0.723798
O O22 0.750000 0.676305 0.426038
O O23 0.665437 0.500000 0.420151
#
# Coordination Sequence:
#
# PCOD9399490 Si02
#       8
#     8   8   8   8   8   8   8   8
#     4  10  18  31  51  69  89 120 156 190 227 274
#     4   9  16  29  49  72  91 111 148 199 238 262
#     4  10  19  33  51  68  88 118 156 191 227 274
#     4   8  13  23  39  59  86 116 145 178 213 255
#     4  11  23  34  44  64  94 122 149 186 232 275
#     4   9  17  28  43  64  88 115 148 184 221 264
#     4   8  14  24  41  67  92 115 148 186 221 262
#     4   9  16  25  39  61  89 119 146 172 212 267
#
# _framework density 15.771547
#
# number of rings (size 3 to 8) (size 9 to 14) (size 15 to 20)
#    0.000    2.750    1.250    2.250    0.000    4.000 
#    0.000    3.125    0.000    2.250    0.000    0.875 
#    0.000    7.000    0.000    0.000    0.000    0.000 
#
# Total GULP energy -356517.867459 kJ/mol
# GULP energy per Si atom -5570.591679 kJ/mol
# Density = 1.573565 g / cm^3
# Si number density = 15.771547 Si / 1000 Ang^3
#
#
#
# Elastic Constant Matrix: (Units=GPa)
#
#
# Indices 1 2 3 4 5 6 
#
# 1 71.8014 22.2818 54.0004 0.0000 0.0000 0.0000
# 2 22.2818 20.5779 34.9370 0.0000 0.0000 0.0000
# 3 54.0004 34.9370 157.8028 0.0000 0.0000 0.0000
# 4 0.0000 0.0000 0.0000 -0.0060 0.0000 0.0000
# 5 0.0000 0.0000 0.0000 0.0000 2.0225 0.0000
# 6 0.0000 0.0000 0.0000 0.0000 0.0000 9.1598
#
#
#
# Elastic Compliance Matrix: (Units=1/GPa)
#
#
# Indices 1 2 3 4 5 6 
#
# 1 0.022213 -0.017860 -0.003647 0.000000 0.000000 0.000000
# 2 -0.017860 0.092224 -0.014306 0.000000 0.000000 0.000000
# 3 -0.003647 -0.014306 0.010752 0.000000 0.000000 0.000000
# 4 0.000000 0.000000 0.000000********** 0.000000 0.000000
# 5 0.000000 0.000000 0.000000 0.000000 0.494442 0.000000
# 6 0.000000 0.000000 0.000000 0.000000 0.000000 0.109173
#
#
# Mechanical properties :
#
#
# Convention : Reuss Voigt Hill
#
# Bulk Modulus (GPa) = 18.66987 52.51340 35.59163
# Shear Modulus (GPa) = -0.02990 11.49946 5.73478
#
# Velocity S-wave (km/s) = -0.13784 2.70316 1.90894
# Velocity P-wave (km/s) = 3.44065 6.56593 5.24163
#
# Compressibility (1/GPa) = 0.05356224
#
# Stress axis : x y z
#
# Youngs Moduli (GPa) = 45.01965 10.84320 93.00214
#
# Poissons Ratio (x) = 0.19366 0.33919
# Poissons Ratio (y) = 0.80404 1.33052
# Poissons Ratio (z) = 0.16419 0.15513
#
# Static dielectric constant tensor:
#      x y z
#    x 1.510500 0.000000 0.000000 
#    y 0.000000 1.520930 0.000000 
#    z 0.000000 0.000000 1.526660 
# 
# From -- ./inp_files/30836.got.cif
#   From: 2010.05.17/outbox.cif.g08.bks.cpg/sg51_16_cif.got.tgz:30836.got - 2010.06.03 11:52:47.
