data_PCOD9399678
_publ_section_title
;
Structure prediction by ZEFSAII (Michael W. Deem and Ramdas Pophale) SiO2 
 PCOD9399678
Probable space group: P M M A
;
_chemical_formula_sum "Si O2"
_cell_formula_units_Z 64
_cell_length_a 7.466268
_cell_length_b 21.041679
_cell_length_c 20.426337
_cell_angle_alpha 90.000000
_cell_angle_beta 90.000000
_cell_angle_gamma 90.000000
_cell_volume 3209.035034
_symmetry_space_group_name_H-M "P M M A"
_symmetry_group_IT_number 51
_symmetry_cell_setting 'orthorhombic'
loop_
_space_group_symop_operation_xyz
x,y,z
1/2-x,-y,z
1/2+x,-y,-z
-x,y,-z
-x,-y,-z
1/2+x,y,-z
1/2-x,y,z
x,-y,z
loop_
_atom_site_type_symbol
_atom_site_label
_atom_site_fract_x
_atom_site_fract_y
_atom_site_fract_z
Si Si1 0.467927 0.067788 0.394969
Si Si2 0.456430 0.931412 0.896057
Si Si3 0.962960 0.792083 0.073573
Si Si4 0.464969 0.427714 0.074421
Si Si5 0.042771 0.320918 0.170170
Si Si6 0.465726 0.896607 0.248738
Si Si7 0.468894 0.245308 0.288164
Si Si8 0.463816 0.793269 0.428731
O O1 0.250000 0.068156 0.398961
O O2 0.513790 0.071944 0.317829
O O3 0.533187 0.133750 0.425858
O O4 0.531721 0.000000 0.421572
O O5 0.250000 0.931951 0.918309
O O6 0.535829 0.864223 0.919374
O O7 0.459173 0.926155 0.817110
O O8 0.536500 0.000000 0.914813
O O9 0.750000 0.794212 0.084989
O O10 0.039081 0.742185 0.125133
O O11 0.000000 0.770043 0.000000
O O12 0.250000 0.429743 0.080958
O O13 0.532657 0.500000 0.081544
O O14 0.536807 0.378067 0.127552
O O15 0.500000 0.406423 0.000000
O O16 0.250000 0.337651 0.182006
O O17 0.965224 0.300432 0.240220
O O18 0.250000 0.900029 0.243377
O O19 0.517859 0.822785 0.256631
O O20 0.250000 0.247076 0.287798
O O21 0.528222 0.242975 0.363725
O O22 0.500000 0.765478 0.500000
O O23 0.250000 0.797325 0.421632
#
# Coordination Sequence:
#
# PCOD9399678 Si02
#       8
#     8   8   8   8   8   8   8   8
#     4   8  14  24  39  59  81 106 138 177 219 269
#     4  10  21  34  45  60  85 112 139 185 246 289
#     4  11  23  36  49  66  89 117 152 194 236 280
#     4   9  18  31  48  73 104 135 161 185 219 265
#     4  10  18  32  54  74  95 123 156 193 228 268
#     4   9  15  27  47  66  81 103 143 185 224 277
#     4   8  15  28  47  68  89 114 147 187 229 269
#     4   9  17  29  43  60  85 115 145 181 225 275
#
# _framework density 19.943688999999999
#
# number of rings (size 3 to 8) (size 9 to 14) (size 15 to 20)
#    0.000    2.750    1.250    2.625    0.000    3.250 
#    0.000    3.125    0.000    0.750    0.000    0.000 
#    0.000    0.500    0.000    0.375    0.000    0.750 
#
# Total GULP energy -357121.624807 kJ/mol
# GULP energy per Si atom -5580.025388 kJ/mol
# Density = 1.989830 g / cm^3
# Si number density = 19.943689 Si / 1000 Ang^3
#
#
#
# Elastic Constant Matrix: (Units=GPa)
#
#
# Indices 1 2 3 4 5 6 
#
# 1 61.4389 4.2288 -4.9394 0.0000 0.0000 0.0000
# 2 4.2288 90.9475 57.4043 0.0000 0.0000 0.0000
# 3 -4.9394 57.4043 135.7519 0.0000 0.0000 0.0000
# 4 0.0000 0.0000 0.0000 38.0087 0.0000 0.0000
# 5 0.0000 0.0000 0.0000 0.0000 14.2190 0.0000
# 6 0.0000 0.0000 0.0000 0.0000 0.0000 5.1567
#
#
#
# Elastic Compliance Matrix: (Units=1/GPa)
#
#
# Indices 1 2 3 4 5 6 
#
# 1 0.016485 -0.001562 0.001260 0.000000 0.000000 0.000000
# 2 -0.001562 0.015146 -0.006462 0.000000 0.000000 0.000000
# 3 0.001260 -0.006462 0.010145 0.000000 0.000000 0.000000
# 4 0.000000 0.000000 0.000000 0.026310 0.000000 0.000000
# 5 0.000000 0.000000 0.000000 0.000000 0.070328 0.000000
# 6 0.000000 0.000000 0.000000 0.000000 0.000000 0.193923
#
#
# Mechanical properties :
#
#
# Convention : Reuss Voigt Hill
#
# Bulk Modulus (GPa) = 35.39881 44.61396 40.00638
# Shear Modulus (GPa) = 14.07339 26.90652 20.48995
#
# Velocity S-wave (km/s) = 2.65930 3.67703 3.20877
# Velocity P-wave (km/s) = 5.21700 6.35971 5.81648
#
# Compressibility (1/GPa) = 0.02824954
#
# Stress axis : x y z
#
# Youngs Moduli (GPa) = 60.66056 66.02187 98.57413
#
# Poissons Ratio (x) = 0.10313 -0.12424
# Poissons Ratio (y) = 0.09475 0.63696
# Poissons Ratio (z) = -0.07645 0.42661
#
# Static dielectric constant tensor:
#      x y z
#    x 1.818800 0.000000 0.000000 
#    y 0.000000 1.714340 0.000000 
#    z 0.000000 0.000000 1.719840 
# 
# From -- ./inp_files/32673.got.cif
#   From: 2010.05.17/outbox.cif.g08.bks.cpg/sg51_17_cif.got.tgz:32673.got - 2010.06.03 11:52:47.
