data_PCOD9399330
_publ_section_title
;
Structure prediction by ZEFSAII (Michael W. Deem and Ramdas Pophale) SiO2 
 PCOD9399330
Probable space group: P M M A
;
_chemical_formula_sum "Si O2"
_cell_formula_units_Z 52
_cell_length_a 8.571706
_cell_length_b 18.773766
_cell_length_c 17.647653
_cell_angle_alpha 90.000000
_cell_angle_beta 90.000000
_cell_angle_gamma 90.000000
_cell_volume 2839.916840
_symmetry_space_group_name_H-M "P M M A"
_symmetry_group_IT_number 51
_symmetry_cell_setting 'orthorhombic'
loop_
_space_group_symop_operation_xyz
x,y,z
1/2-x,-y,z
1/2+x,-y,-z
-x,y,-z
-x,-y,-z
1/2+x,y,-z
1/2-x,y,z
x,-y,z
loop_
_atom_site_type_symbol
_atom_site_label
_atom_site_fract_x
_atom_site_fract_y
_atom_site_fract_z
Si Si1 0.065966 0.719823 0.690397
Si Si2 0.935181 0.228894 0.138172
Si Si3 0.437937 0.420847 0.246306
Si Si4 0.061471 0.076431 0.914462
Si Si5 0.938402 0.849717 0.414170
Si Si6 0.934440 0.628274 0.919908
Si Si7 0.936743 0.000000 0.586736
O O1 0.250000 0.710359 0.676718
O O2 0.045052 0.752488 0.774039
O O3 0.009007 0.779466 0.631515
O O4 0.990979 0.641970 0.697950
O O5 0.750000 0.233994 0.120273
O O6 0.991132 0.148875 0.124410
O O7 0.023435 0.288325 0.089684
O O8 0.250000 0.419219 0.243612
O O9 0.488763 0.500000 0.268932
O O10 0.493659 0.405874 0.159389
O O11 0.250000 0.077362 0.914932
O O12 0.012016 0.000000 0.880755
O O13 0.000000 0.078464 0.000000
O O14 0.750000 0.852629 0.413779
O O15 0.000000 0.844618 0.500000
O O16 0.000677 0.924988 0.380804
O O17 0.750000 0.618561 0.921826
O O18 0.000000 0.601628 0.000000
O O19 0.000000 0.000000 0.500000
O O20 0.750000 0.000000 0.586166
#
# Coordination Sequence:
#
# PCOD9399330 Si02
#       7
#     8   8   8   8   8   8   4
#     4   9  19  34  52  76 101 128 164 205 249 300
#     4   9  17  31  47  65  90 120 158 201 244 295
#     4   9  19  35  53  73  99 132 167 204 252 307
#     4   9  17  28  42  60  82 113 153 195 237 279
#     4  10  19  33  53  79 108 138 171 207 249 298
#     4  10  19  30  46  69  95 125 160 202 247 296
#     4  10  18  30  50  76 106 138 171 204 243 290
#
# _framework density 18.310395
#
# number of rings (size 3 to 8) (size 9 to 14) (size 15 to 20)
#    0.000    2.615    0.000    3.000    0.000    4.308 
#    1.385    0.000    0.000    0.462    0.000    0.000 
#    0.000    0.000    0.000    0.000    0.000    0.000 
#
# Total GULP energy -289745.592711 kJ/mol
# GULP energy per Si atom -5572.030629 kJ/mol
# Density = 1.826872 g / cm^3
# Si number density = 18.310395 Si / 1000 Ang^3
#
#
#
# Elastic Constant Matrix: (Units=GPa)
#
#
# Indices 1 2 3 4 5 6 
#
# 1 31.7714 30.2901 19.9715 0.0000 0.0000 0.0000
# 2 30.2901 172.7805 36.6132 0.0000 0.0000 0.0000
# 3 19.9715 36.6132 33.1646 0.0000 0.0000 0.0000
# 4 0.0000 0.0000 0.0000 54.9274 0.0000 0.0000
# 5 0.0000 0.0000 0.0000 0.0000 20.5016 0.0000
# 6 0.0000 0.0000 0.0000 0.0000 0.0000 24.3341
#
#
#
# Elastic Compliance Matrix: (Units=1/GPa)
#
#
# Indices 1 2 3 4 5 6 
#
# 1 0.051998 -0.003238 -0.027738 0.000000 0.000000 0.000000
# 2 -0.003238 0.007757 -0.006613 0.000000 0.000000 0.000000
# 3 -0.027738 -0.006613 0.054158 0.000000 0.000000 0.000000
# 4 0.000000 0.000000 0.000000 0.018206 0.000000 0.000000
# 5 0.000000 0.000000 0.000000 0.000000 0.048777 0.000000
# 6 0.000000 0.000000 0.000000 0.000000 0.000000 0.041095
#
#
# Mechanical properties :
#
#
# Convention : Reuss Voigt Hill
#
# Bulk Modulus (GPa) = 25.81775 45.71847 35.76811
# Shear Modulus (GPa) = 16.12486 30.00873 23.06680
#
# Velocity S-wave (km/s) = 2.97078 4.05271 3.55317
# Velocity P-wave (km/s) = 5.08901 6.84997 6.03407
#
# Compressibility (1/GPa) = 0.03873304
#
# Stress axis : x y z
#
# Youngs Moduli (GPa) = 19.23147 128.91986 18.46460
#
# Poissons Ratio (x) = 0.41743 0.51218
# Poissons Ratio (y) = 0.06227 0.12212
# Poissons Ratio (z) = 0.53345 0.85261
#
# Static dielectric constant tensor:
#      x y z
#    x 1.626860 0.000000 0.000000 
#    y 0.000000 1.677650 0.000000 
#    z 0.000000 0.000000 1.619030 
# 
# From -- ./inp_files/27949.got.cif
#   From: 2010.05.17/outbox.cif.g08.bks.cpg/sg51_14_cif.got.tgz:27949.got - 2010.06.03 11:52:47.
