data_PCOD9399622
_publ_section_title
;
Structure prediction by ZEFSAII (Michael W. Deem and Ramdas Pophale) SiO2 
 PCOD9399622
Probable space group: P M M A
;
_chemical_formula_sum "Si O2"
_cell_formula_units_Z 28
_cell_length_a 8.776556
_cell_length_b 12.864040
_cell_length_c 15.421730
_cell_angle_alpha 90.000000
_cell_angle_beta 90.000000
_cell_angle_gamma 90.000000
_cell_volume 1741.143658
_symmetry_space_group_name_H-M "P M M A"
_symmetry_group_IT_number 51
_symmetry_cell_setting 'orthorhombic'
loop_
_space_group_symop_operation_xyz
x,y,z
1/2-x,-y,z
1/2+x,-y,-z
-x,y,-z
-x,-y,-z
1/2+x,y,-z
1/2-x,y,z
x,-y,z
loop_
_atom_site_type_symbol
_atom_site_label
_atom_site_fract_x
_atom_site_fract_y
_atom_site_fract_z
Si Si1 0.931530 0.785685 0.096534
Si Si2 0.930568 0.376622 0.772995
Si Si3 0.432636 0.000000 0.097736
Si Si4 0.574766 0.373648 0.410115
O O1 0.750000 0.796353 0.090196
O O2 0.979189 0.690327 0.156926
O O3 0.003579 0.892143 0.134865
O O4 0.000000 0.771054 0.000000
O O5 0.750000 0.360476 0.783341
O O6 0.961396 0.500000 0.782990
O O7 0.982473 0.345489 0.676146
O O8 0.250000 0.000000 0.096113
O O9 0.500000 0.000000 0.000000
O O10 0.500000 0.337489 0.500000
O O11 0.750000 0.339960 0.403394
O O12 0.574495 0.500000 0.413103
#
# Coordination Sequence:
#
# PCOD9399622 Si02
#       4
#     8   8   4   8
#     4  11  21  34  51  71  96 126 161 199 240 284
#     4  10  20  33  48  69  98 130 163 198 238 286
#     4  10  18  32  52  72  93 118 155 200 242 280
#     4   9  16  27  44  66  92 123 158 196 237 280
#
# _framework density 16.081385000000001
#
# number of rings (size 3 to 8) (size 9 to 14) (size 15 to 20)
#    0.000    2.000    0.000    7.286    0.000    5.714 
#    0.000    0.000    0.000    0.000    0.000    1.000 
#    0.000    0.000    0.000    0.000    0.000    0.000 
#
# Total GULP energy -156153.406224 kJ/mol
# GULP energy per Si atom -5576.907365 kJ/mol
# Density = 1.604478 g / cm^3
# Si number density = 16.081385 Si / 1000 Ang^3
#
#
#
# Elastic Constant Matrix: (Units=GPa)
#
#
# Indices 1 2 3 4 5 6 
#
# 1 146.7643 48.9250 45.1766 0.0000 0.0000 0.0000
# 2 48.9250 54.0009 38.4181 0.0000 0.0000 0.0000
# 3 45.1766 38.4181 82.9579 0.0000 0.0000 0.0000
# 4 0.0000 0.0000 0.0000 -2.6593 0.0000 0.0000
# 5 0.0000 0.0000 0.0000 0.0000 30.3138 0.0000
# 6 0.0000 0.0000 0.0000 0.0000 0.0000 24.1097
#
#
#
# Elastic Compliance Matrix: (Units=1/GPa)
#
#
# Indices 1 2 3 4 5 6 
#
# 1 0.009950 -0.007695 -0.001855 0.000000 0.000000 0.000000
# 2 -0.007695 0.033568 -0.011355 0.000000 0.000000 0.000000
# 3 -0.001855 -0.011355 0.018323 0.000000 0.000000 0.000000
# 4 0.000000 0.000000 0.000000 -0.376037 0.000000 0.000000
# 5 0.000000 0.000000 0.000000 0.000000 0.032988 0.000000
# 6 0.000000 0.000000 0.000000 0.000000 0.000000 0.041477
#
#
# Mechanical properties :
#
#
# Convention : Reuss Voigt Hill
#
# Bulk Modulus (GPa) = 49.92202 60.97364 55.44783
# Shear Modulus (GPa) = -26.14465 20.43306 -2.85579
#
# Velocity S-wave (km/s) = -4.03646 3.56842 -1.33405
# Velocity P-wave (km/s) = 3.06378 7.41459 5.67287
#
# Compressibility (1/GPa) = 0.02003124
#
# Stress axis : x y z
#
# Youngs Moduli (GPa) = 100.50494 29.79001 54.57621
#
# Poissons Ratio (x) = 0.22923 0.10123
# Poissons Ratio (y) = 0.77338 0.61972
# Poissons Ratio (z) = 0.18642 0.33827
#
# Static dielectric constant tensor:
#      x y z
#    x 1.539500 0.000000 0.000000 
#    y 0.000000 1.553790 0.000000 
#    z 0.000000 0.000000 1.528020 
# 
# From -- ./inp_files/13634.got.cif
#   From: 2010.05.17/outbox.cif.g08.bks.cpg/sg51_7_cif.got.tgz:13634.got - 2010.06.03 11:52:47.
