data_PCOD9399046
_publ_section_title
;
Structure prediction by ZEFSAII (Michael W. Deem and Ramdas Pophale) SiO2 
 PCOD9399046
Probable space group: P M M A
;
_chemical_formula_sum "Si O2"
_cell_formula_units_Z 64
_cell_length_a 9.134620
_cell_length_b 20.333805
_cell_length_c 20.325716
_cell_angle_alpha 90.000000
_cell_angle_beta 90.000000
_cell_angle_gamma 90.000000
_cell_volume 3775.330642
_symmetry_space_group_name_H-M "P M M A"
_symmetry_group_IT_number 51
_symmetry_cell_setting 'orthorhombic'
loop_
_space_group_symop_operation_xyz
x,y,z
1/2-x,-y,z
1/2+x,-y,-z
-x,y,-z
-x,-y,-z
1/2+x,y,-z
1/2-x,y,z
x,-y,z
loop_
_atom_site_type_symbol
_atom_site_label
_atom_site_fract_x
_atom_site_fract_y
_atom_site_fract_z
Si Si1 0.421024 0.888113 0.749971
Si Si2 0.424056 0.210720 0.434402
Si Si3 0.576012 0.208780 0.934848
Si Si4 0.577741 0.578418 0.431360
Si Si5 0.577854 0.073058 0.100230
Si Si6 0.426496 0.071348 0.380988
Si Si7 0.076178 0.673783 0.332266
Si Si8 0.925544 0.753278 0.789276
O O1 0.250000 0.884253 0.732461
O O2 0.432504 0.923494 0.820435
O O3 0.509259 0.922689 0.692144
O O4 0.488849 0.816107 0.761393
O O5 0.500000 0.235778 0.500000
O O6 0.250000 0.208775 0.444514
O O7 0.476897 0.136739 0.418728
O O8 0.451610 0.259367 0.373785
O O9 0.750000 0.206741 0.943040
O O10 0.515164 0.134463 0.925248
O O11 0.542668 0.247846 0.867176
O O12 0.500000 0.236323 0.000000
O O13 0.500000 0.597452 0.500000
O O14 0.750000 0.592135 0.436862
O O15 0.557258 0.500000 0.423172
O O16 0.510141 0.617233 0.370021
O O17 0.750000 0.082358 0.083290
O O18 0.531785 0.000000 0.078646
O O19 0.250000 0.074336 0.377779
O O20 0.468579 0.000000 0.409132
O O21 0.250000 0.659969 0.336012
O O22 0.038324 0.691120 0.256759
O O23 0.750000 0.764818 0.781952
#
# Coordination Sequence:
#
# PCOD9399046 Si02
#       8
#     8   8   8   8   8   8   8   8
#     4  10  18  29  47  70  93 116 149 201 257 304
#     4  10  21  35  49  68  93 122 160 206 252 298
#     4  10  20  33  50  69  94 126 160 199 248 304
#     4  10  21  36  54  80 115 150 182 211 244 293
#     4   9  18  31  45  63  89 118 152 197 248 305
#     4  10  20  34  49  62  84 121 160 202 256 313
#     4  10  19  34  56  78 103 133 171 215 250 291
#     4   9  18  34  53  73  98 129 164 202 246 298
#
# _framework density 16.952158000000001
#
# number of rings (size 3 to 8) (size 9 to 14) (size 15 to 20)
#    0.000    2.250    1.250    1.875    0.000    5.750 
#    0.000    0.000    0.000    0.000    0.000    0.000 
#    0.000    0.500    0.000    1.125    0.000    2.000 
#
# Total GULP energy -357031.515498 kJ/mol
# GULP energy per Si atom -5578.617430 kJ/mol
# Density = 1.691357 g / cm^3
# Si number density = 16.952158 Si / 1000 Ang^3
#
#
#
# Elastic Constant Matrix: (Units=GPa)
#
#
# Indices 1 2 3 4 5 6 
#
# 1 33.4162 36.5146 42.6593 0.0000 0.0000 0.0000
# 2 36.5146 59.1591 38.2561 0.0000 0.0000 0.0000
# 3 42.6593 38.2561 107.6395 0.0000 0.0000 0.0000
# 4 0.0000 0.0000 0.0000 31.1561 0.0000 0.0000
# 5 0.0000 0.0000 0.0000 0.0000 26.4099 0.0000
# 6 0.0000 0.0000 0.0000 0.0000 0.0000 16.6645
#
#
#
# Elastic Compliance Matrix: (Units=1/GPa)
#
#
# Indices 1 2 3 4 5 6 
#
# 1 0.153791 -0.072075 -0.035334 0.000000 0.000000 0.000000
# 2 -0.072075 0.055726 0.008759 0.000000 0.000000 0.000000
# 3 -0.035334 0.008759 0.020181 0.000000 0.000000 0.000000
# 4 0.000000 0.000000 0.000000 0.032096 0.000000 0.000000
# 5 0.000000 0.000000 0.000000 0.000000 0.037865 0.000000
# 6 0.000000 0.000000 0.000000 0.000000 0.000000 0.060008
#
#
# Mechanical properties :
#
#
# Convention : Reuss Voigt Hill
#
# Bulk Modulus (GPa) = 30.86602 48.34163 39.60383
# Shear Modulus (GPa) = 8.80647 20.36508 14.58577
#
# Velocity S-wave (km/s) = 2.28170 3.46978 2.93645
# Velocity P-wave (km/s) = 5.01885 6.68063 5.90846
#
# Compressibility (1/GPa) = 0.03239809
#
# Stress axis : x y z
#
# Youngs Moduli (GPa) = 6.50235 17.94498 49.55231
#
# Poissons Ratio (x) = 1.29338 1.75087
# Poissons Ratio (y) = 0.46865 -0.43402
# Poissons Ratio (z) = 0.22975 -0.15718
#
# Static dielectric constant tensor:
#      x y z
#    x 1.564250 0.000000 0.000000 
#    y 0.000000 1.572250 0.000000 
#    z 0.000000 0.000000 1.589450 
# 
# From -- ./inp_files/32320.got.cif
#   From: 2010.05.17/outbox.cif.g08.bks.cpg/sg51_17_cif.got.tgz:32320.got - 2010.06.03 11:52:47.
