data_PCOD9399422
_publ_section_title
;
Structure prediction by ZEFSAII (Michael W. Deem and Ramdas Pophale) SiO2 
 PCOD9399422
Probable space group: P M M A
;
_chemical_formula_sum "Si O2"
_cell_formula_units_Z 36
_cell_length_a 8.752025
_cell_length_b 23.455579
_cell_length_c 9.354922
_cell_angle_alpha 90.000000
_cell_angle_beta 90.000000
_cell_angle_gamma 90.000000
_cell_volume 1920.414066
_symmetry_space_group_name_H-M "P M M A"
_symmetry_group_IT_number 51
_symmetry_cell_setting 'orthorhombic'
loop_
_space_group_symop_operation_xyz
x,y,z
1/2-x,-y,z
1/2+x,-y,-z
-x,y,-z
-x,-y,-z
1/2+x,y,-z
1/2-x,y,z
x,-y,z
loop_
_atom_site_type_symbol
_atom_site_label
_atom_site_fract_x
_atom_site_fract_y
_atom_site_fract_z
Si Si1 0.567740 0.066982 0.343498
Si Si2 0.432417 0.382847 0.840683
Si Si3 0.567516 0.500000 0.838687
Si Si4 0.432769 0.730336 0.658458
Si Si5 0.067654 0.166199 0.157932
O O1 0.500000 0.080413 0.500000
O O2 0.750000 0.076067 0.344890
O O3 0.490527 0.107550 0.228058
O O4 0.538568 0.000000 0.315653
O O5 0.250000 0.390304 0.852970
O O6 0.505079 0.440695 0.776947
O O7 0.464754 0.328031 0.744084
O O8 0.500000 0.374122 0.000000
O O9 0.750000 0.500000 0.842256
O O10 0.500000 0.500000 0.000000
O O11 0.500000 0.727608 0.500000
O O12 0.250000 0.738117 0.652663
O O13 0.506487 0.782674 0.743600
O O14 0.250000 0.167247 0.152678
O O15 0.000000 0.172718 0.000000
#
# Coordination Sequence:
#
# PCOD9399422 Si02
#       5
#     8   8   4   8   8
#     4  10  21  39  63  90 121 157 196 237 284 340
#     4  10  20  35  57  84 114 148 188 234 283 337
#     4  10  18  30  53  82 113 148 186 230 280 336
#     4  11  24  41  61  85 115 152 193 238 289 345
#     4  12  25  41  62  87 118 153 193 241 290 343
#
# _framework density 18.745958999999999
#
# number of rings (size 3 to 8) (size 9 to 14) (size 15 to 20)
#    0.000    1.333    0.000    7.667    0.000    7.111 
#    0.000    0.556    0.000    0.000    0.000    0.000 
#    0.000    0.000    0.000    0.000    0.000    0.000 
#
# Total GULP energy -201302.215566 kJ/mol
# GULP energy per Si atom -5591.728210 kJ/mol
# Density = 1.870329 g / cm^3
# Si number density = 18.745959 Si / 1000 Ang^3
#
#
#
# Elastic Constant Matrix: (Units=GPa)
#
#
# Indices 1 2 3 4 5 6 
#
# 1 137.2802 86.7169 74.0986 0.0000 0.0000 0.0000
# 2 86.7169 115.6497 83.5977 0.0000 0.0000 0.0000
# 3 74.0986 83.5977 135.0984 0.0000 0.0000 0.0000
# 4 0.0000 0.0000 0.0000 38.4583 0.0000 0.0000
# 5 0.0000 0.0000 0.0000 0.0000 34.6397 0.0000
# 6 0.0000 0.0000 0.0000 0.0000 0.0000 33.1322
#
#
#
# Elastic Compliance Matrix: (Units=1/GPa)
#
#
# Indices 1 2 3 4 5 6 
#
# 1 0.014182 -0.009067 -0.002168 0.000000 0.000000 0.000000
# 2 -0.009067 0.021441 -0.008295 0.000000 0.000000 0.000000
# 3 -0.002168 -0.008295 0.013724 0.000000 0.000000 0.000000
# 4 0.000000 0.000000 0.000000 0.026002 0.000000 0.000000
# 5 0.000000 0.000000 0.000000 0.000000 0.028869 0.000000
# 6 0.000000 0.000000 0.000000 0.000000 0.000000 0.030182
#
#
# Mechanical properties :
#
#
# Convention : Reuss Voigt Hill
#
# Bulk Modulus (GPa) = 97.20154 97.42830 97.31492
# Shear Modulus (GPa) = 28.26654 30.82038 29.54346
#
# Velocity S-wave (km/s) = 3.88735 4.05916 3.97418
# Velocity P-wave (km/s) = 8.49195 8.60551 8.54892
#
# Compressibility (1/GPa) = 0.01028790
#
# Stress axis : x y z
#
# Youngs Moduli (GPa) = 70.51272 46.63958 72.86632
#
# Poissons Ratio (x) = 0.42287 0.15798
# Poissons Ratio (y) = 0.63932 0.60440
# Poissons Ratio (z) = 0.15287 0.38686
#
# Static dielectric constant tensor:
#      x y z
#    x 1.623970 0.000000 0.000000 
#    y 0.000000 1.660710 0.000000 
#    z 0.000000 0.000000 1.612090 
# 
# From -- ./inp_files/5238.got.cif
#   From: 2010.05.17/outbox.cif.g08.bks.cpg/sg51_3_cif.got.tgz:5238.got - 2010.06.03 11:52:47.
