data_PCOD9399454
_publ_section_title
;
Structure prediction by ZEFSAII (Michael W. Deem and Ramdas Pophale) SiO2 
 PCOD9399454
Probable space group: P M M A
;
_chemical_formula_sum "Si O2"
_cell_formula_units_Z 48
_cell_length_a 18.886319
_cell_length_b 7.590852
_cell_length_c 16.840474
_cell_angle_alpha 90.000000
_cell_angle_beta 90.000000
_cell_angle_gamma 90.000000
_cell_volume 2414.305124
_symmetry_space_group_name_H-M "P M M A"
_symmetry_group_IT_number 51
_symmetry_cell_setting 'orthorhombic'
loop_
_space_group_symop_operation_xyz
x,y,z
1/2-x,-y,z
1/2+x,-y,-z
-x,y,-z
-x,-y,-z
1/2+x,y,-z
1/2-x,y,z
x,-y,z
loop_
_atom_site_type_symbol
_atom_site_label
_atom_site_fract_x
_atom_site_fract_y
_atom_site_fract_z
Si Si1 0.168774 0.283804 0.154301
Si Si2 0.170693 0.215756 0.669596
Si Si3 0.953575 0.294066 0.733865
Si Si4 0.906868 0.211051 0.172357
Si Si5 0.535383 0.204185 0.421812
Si Si6 0.920283 0.707464 0.996223
O O1 0.250000 0.226740 0.158782
O O2 0.168999 0.500000 0.154416
O O3 0.118869 0.227462 0.227355
O O4 0.129855 0.223439 0.073453
O O5 0.250000 0.272696 0.651181
O O6 0.146639 0.268232 0.758297
O O7 0.109533 0.279926 0.610109
O O8 0.169520 0.000000 0.668576
O O9 0.945404 0.500000 0.716416
O O10 0.015438 0.274258 0.799881
O O11 0.982700 0.208860 0.653512
O O12 0.889273 0.272507 0.084275
O O13 0.908640 0.000000 0.172260
O O14 0.500000 0.284430 0.500000
O O15 0.550655 0.000000 0.440890
O O16 0.928201 0.500000 0.978927
O O17 0.000000 0.784097 0.000000
#
# Coordination Sequence:
#
# PCOD9399454 Si02
#       6
#     8   8   8   8   8   8
#     4   9  18  32  49  69  96 132 170 208 248 287
#     4   8  15  29  48  69  96 130 162 194 238 292
#     4  10  18  32  53  73  95 127 166 202 240 292
#     4  10  19  30  48  73  98 128 165 203 247 293
#     4   9  18  33  53  77 102 127 159 199 244 297
#     4  10  18  31  49  70  95 128 170 207 242 289
#
# _framework density 19.881497
#
# number of rings (size 3 to 8) (size 9 to 14) (size 15 to 20)
#    0.000    2.667    1.667    2.000    0.000    1.333 
#    0.000    0.833    0.000   17.000    0.000    0.000 
#    0.000    0.000    0.000    0.000    0.000    0.000 
#
# Total GULP energy -267732.270411 kJ/mol
# GULP energy per Si atom -5577.755634 kJ/mol
# Density = 1.983625 g / cm^3
# Si number density = 19.881497 Si / 1000 Ang^3
#
#
#
# Elastic Constant Matrix: (Units=GPa)
#
#
# Indices 1 2 3 4 5 6 
#
# 1 179.8136 3.1864 85.4084 0.0000 0.0000 0.0000
# 2 3.1864 37.3053 -14.1121 0.0000 0.0000 0.0000
# 3 85.4084 -14.1121 112.3449 0.0000 0.0000 0.0000
# 4 0.0000 0.0000 0.0000 17.8692 0.0000 0.0000
# 5 0.0000 0.0000 0.0000 0.0000 21.9516 0.0000
# 6 0.0000 0.0000 0.0000 0.0000 0.0000 7.3318
#
#
#
# Elastic Compliance Matrix: (Units=1/GPa)
#
#
# Indices 1 2 3 4 5 6 
#
# 1 0.009138 -0.003578 -0.007396 0.000000 0.000000 0.000000
# 2 -0.003578 0.029544 0.006432 0.000000 0.000000 0.000000
# 3 -0.007396 0.006432 0.015332 0.000000 0.000000 0.000000
# 4 0.000000 0.000000 0.000000 0.055962 0.000000 0.000000
# 5 0.000000 0.000000 0.000000 0.000000 0.045555 0.000000
# 6 0.000000 0.000000 0.000000 0.000000 0.000000 0.136392
#
#
# Mechanical properties :
#
#
# Convention : Reuss Voigt Hill
#
# Bulk Modulus (GPa) = 22.25785 53.15879 37.70832
# Shear Modulus (GPa) = 15.82346 26.42925 21.12635
#
# Velocity S-wave (km/s) = 2.82421 3.64997 3.26331
# Velocity P-wave (km/s) = 4.67487 6.67524 5.76252
#
# Compressibility (1/GPa) = 0.04492797
#
# Stress axis : x y z
#
# Youngs Moduli (GPa) = 109.43409 33.84729 65.22260
#
# Poissons Ratio (x) = 0.12112 0.48242
# Poissons Ratio (y) = 0.39161 -0.41949
# Poissons Ratio (z) = 0.80943 -0.21769
#
# Static dielectric constant tensor:
#      x y z
#    x 1.698980 0.000000 0.000000 
#    y 0.000000 1.739820 0.000000 
#    z 0.000000 0.000000 1.690460 
# 
# From -- ./inp_files/30077.got.cif
#   From: 2010.05.17/outbox.cif.g08.bks.cpg/sg51_16_cif.got.tgz:30077.got - 2010.06.03 11:52:47.
