data_PCOD9399474
_publ_section_title
;
Structure prediction by ZEFSAII (Michael W. Deem and Ramdas Pophale) SiO2 
 PCOD9399474
Probable space group: P M M A
;
_chemical_formula_sum "Si O2"
_cell_formula_units_Z 56
_cell_length_a 20.381512
_cell_length_b 7.513978
_cell_length_c 17.804064
_cell_angle_alpha 90.000000
_cell_angle_beta 90.000000
_cell_angle_gamma 90.000000
_cell_volume 2726.625330
_symmetry_space_group_name_H-M "P M M A"
_symmetry_group_IT_number 51
_symmetry_cell_setting 'orthorhombic'
loop_
_space_group_symop_operation_xyz
x,y,z
1/2-x,-y,z
1/2+x,-y,-z
-x,y,-z
-x,-y,-z
1/2+x,y,-z
1/2-x,y,z
x,-y,z
loop_
_atom_site_type_symbol
_atom_site_label
_atom_site_fract_x
_atom_site_fract_y
_atom_site_fract_z
Si Si1 0.824143 0.781879 0.407570
Si Si2 0.456240 0.710703 0.306001
Si Si3 0.921877 0.717023 0.858701
Si Si4 0.174863 0.282216 0.013911
Si Si5 0.564990 0.296991 0.100677
Si Si6 0.929327 0.786417 0.528282
Si Si7 0.400764 0.203230 0.733842
O O1 0.750000 0.727958 0.421200
O O2 0.872789 0.721273 0.472982
O O3 0.849901 0.722246 0.326164
O O4 0.826507 0.000000 0.405838
O O5 0.466696 0.500000 0.299002
O O6 0.422268 0.771747 0.228606
O O7 0.420421 0.744947 0.384090
O O8 0.528566 0.795209 0.307299
O O9 0.924072 0.500000 0.859725
O O10 0.859373 0.769408 0.907549
O O11 0.991101 0.779984 0.895474
O O12 0.250000 0.221688 0.005159
O O13 0.177034 0.500000 0.010755
O O14 0.122608 0.220377 0.950897
O O15 0.556450 0.500000 0.074136
O O16 0.589256 0.297056 0.186811
O O17 0.000000 0.718702 0.500000
O O18 0.930690 0.000000 0.521859
O O19 0.382922 0.000000 0.751553
#
# Coordination Sequence:
#
# PCOD9399474 Si02
#       7
#     8   8   8   8   8   8   8
#     4   9  18  32  49  69  96 130 165 197 235 289
#     4  10  19  31  50  76 100 124 159 205 255 294
#     4   8  15  28  45  66  94 126 159 193 235 288
#     4   9  16  27  46  70  94 125 165 203 240 286
#     4   9  17  29  47  72  98 123 156 201 248 290
#     4  10  18  32  53  75  96 125 167 207 238 284
#     4  10  18  31  50  72  97 127 164 200 239 292
#
# _framework density 20.538208000000001
#
# number of rings (size 3 to 8) (size 9 to 14) (size 15 to 20)
#    0.000    2.714    1.429    2.143    0.000    2.571 
#    0.000    0.714    0.000   12.000    0.000    0.000 
#    0.000    0.000    0.000    0.000    0.000    0.000 
#
# Total GULP energy -312413.740446 kJ/mol
# GULP energy per Si atom -5578.816794 kJ/mol
# Density = 2.049146 g / cm^3
# Si number density = 20.538208 Si / 1000 Ang^3
#
#
#
# Elastic Constant Matrix: (Units=GPa)
#
#
# Indices 1 2 3 4 5 6 
#
# 1 111.3876 2.4134 57.3804 0.0000 0.0000 0.0000
# 2 2.4134 55.8885 -4.1137 0.0000 0.0000 0.0000
# 3 57.3804 -4.1137 91.0497 0.0000 0.0000 0.0000
# 4 0.0000 0.0000 0.0000 20.2498 0.0000 0.0000
# 5 0.0000 0.0000 0.0000 0.0000 28.8098 0.0000
# 6 0.0000 0.0000 0.0000 0.0000 0.0000 4.6985
#
#
#
# Elastic Compliance Matrix: (Units=1/GPa)
#
#
# Indices 1 2 3 4 5 6 
#
# 1 0.013373 -0.001202 -0.008482 0.000000 0.000000 0.000000
# 2 -0.001202 0.018060 0.001573 0.000000 0.000000 0.000000
# 3 -0.008482 0.001573 0.016400 0.000000 0.000000 0.000000
# 4 0.000000 0.000000 0.000000 0.049383 0.000000 0.000000
# 5 0.000000 0.000000 0.000000 0.000000 0.034710 0.000000
# 6 0.000000 0.000000 0.000000 0.000000 0.000000 0.212834
#
#
# Mechanical properties :
#
#
# Convention : Reuss Voigt Hill
#
# Bulk Modulus (GPa) = 31.63351 41.07624 36.35487
# Shear Modulus (GPa) = 13.45822 24.26132 18.85977
#
# Velocity S-wave (km/s) = 2.56261 3.44070 3.03360
# Velocity P-wave (km/s) = 4.91851 5.98564 5.47812
#
# Compressibility (1/GPa) = 0.03161204
#
# Stress axis : x y z
#
# Youngs Moduli (GPa) = 74.77602 55.36953 60.97664
#
# Poissons Ratio (x) = 0.06655 0.51722
# Poissons Ratio (y) = 0.08987 -0.09594
# Poissons Ratio (z) = 0.63427 -0.08712
#
# Static dielectric constant tensor:
#      x y z
#    x 1.703870 0.000000 0.000000 
#    y 0.000000 1.794080 0.000000 
#    z 0.000000 0.000000 1.729190 
# 
# From -- ./inp_files/30342.got.cif
#   From: 2010.05.17/outbox.cif.g08.bks.cpg/sg51_16_cif.got.tgz:30342.got - 2010.06.03 11:52:47.
