data_PCOD9399103
_publ_section_title
;
Structure prediction by ZEFSAII (Michael W. Deem and Ramdas Pophale) SiO2 
 PCOD9399103
Probable space group: P M M A
;
_chemical_formula_sum "Si O2"
_cell_formula_units_Z 56
_cell_length_a 7.705907
_cell_length_b 16.083886
_cell_length_c 20.982598
_cell_angle_alpha 90.000000
_cell_angle_beta 90.000000
_cell_angle_gamma 90.000000
_cell_volume 2600.602704
_symmetry_space_group_name_H-M "P M M A"
_symmetry_group_IT_number 51
_symmetry_cell_setting 'orthorhombic'
loop_
_space_group_symop_operation_xyz
x,y,z
1/2-x,-y,z
1/2+x,-y,-z
-x,y,-z
-x,-y,-z
1/2+x,y,-z
1/2-x,y,z
x,-y,z
loop_
_atom_site_type_symbol
_atom_site_label
_atom_site_fract_x
_atom_site_fract_y
_atom_site_fract_z
Si Si1 0.048292 0.911152 0.405302
Si Si2 0.459961 0.318831 0.294452
Si Si3 0.954588 0.731011 0.927827
Si Si4 0.545087 0.130094 0.264973
Si Si5 0.541562 0.089382 0.123795
Si Si6 0.962780 0.592556 0.829580
Si Si7 0.041588 0.727748 0.431077
O O1 0.250000 0.911842 0.424739
O O2 0.971043 0.823112 0.427840
O O3 0.040895 0.905677 0.328422
O O4 0.969205 0.000000 0.424759
O O5 0.250000 0.320505 0.295301
O O6 0.515941 0.228931 0.268043
O O7 0.517022 0.386003 0.242755
O O8 0.520014 0.320584 0.367967
O O9 0.750000 0.726022 0.921066
O O10 0.027222 0.665059 0.876752
O O11 0.000415 0.826567 0.913318
O O12 0.000000 0.709184 0.000000
O O13 0.750000 0.111690 0.269482
O O14 0.479204 0.098740 0.196948
O O15 0.750000 0.086689 0.126688
O O16 0.480056 0.000000 0.097733
O O17 0.750000 0.593527 0.830366
O O18 0.017490 0.500000 0.848391
O O19 0.250000 0.733460 0.425751
O O20 0.000000 0.691654 0.500000
#
# Coordination Sequence:
#
# PCOD9399103 Si02
#       7
#     8   8   8   8   8   8   8
#     4   9  18  31  45  64  95 135 180 228 273 321
#     4   9  17  33  55  78 106 139 178 221 266 319
#     4  11  23  39  60  84 114 149 184 224 273 325
#     4  10  18  29  49  76 106 137 175 224 277 322
#     4  10  21  36  54  78 111 149 189 231 273 320
#     4   9  18  35  62  91 113 138 179 225 269 326
#     4   9  18  30  46  69  99 137 179 221 267 320
#
# _framework density 21.533470999999999
#
# number of rings (size 3 to 8) (size 9 to 14) (size 15 to 20)
#    0.000    2.429    1.429    2.143    0.000    4.857 
#    0.000    0.000    0.000    3.857    0.000    0.000 
#    0.000    0.000    0.000    0.000    0.000    0.286 
#
# Total GULP energy -312463.578393 kJ/mol
# GULP energy per Si atom -5579.706757 kJ/mol
# Density = 2.148446 g / cm^3
# Si number density = 21.533471 Si / 1000 Ang^3
#
#
#
# Elastic Constant Matrix: (Units=GPa)
#
#
# Indices 1 2 3 4 5 6 
#
# 1 34.6738 2.0631 5.8480 0.0000 0.0000 0.0000
# 2 2.0631 110.9168 60.4594 0.0000 0.0000 0.0000
# 3 5.8480 60.4594 131.4114 0.0000 0.0000 0.0000
# 4 0.0000 0.0000 0.0000 -48.2519 0.0000 0.0000
# 5 0.0000 0.0000 0.0000 0.0000 22.0344 0.0000
# 6 0.0000 0.0000 0.0000 0.0000 0.0000 0.0621
#
#
#
# Elastic Compliance Matrix: (Units=1/GPa)
#
#
# Indices 1 2 3 4 5 6 
#
# 1 0.029062 0.000219 -0.001394 0.000000 0.000000 0.000000
# 2 0.000219 0.012035 -0.005547 0.000000 0.000000 0.000000
# 3 -0.001394 -0.005547 0.010224 0.000000 0.000000 0.000000
# 4 0.000000 0.000000 0.000000 -0.020725 0.000000 0.000000
# 5 0.000000 0.000000 0.000000 0.000000 0.045384 0.000000
# 6 0.000000 0.000000 0.000000 0.000000 0.000000 16.114537
#
#
# Mechanical properties :
#
#
# Convention : Reuss Voigt Hill
#
# Bulk Modulus (GPa) = 26.40067 45.97146 36.18606
# Shear Modulus (GPa) = 0.30833 8.67768 4.49301
#
# Velocity S-wave (km/s) = 0.37881 2.00963 1.44605
# Velocity P-wave (km/s) = 3.53245 5.17494 4.43048
#
# Compressibility (1/GPa) = 0.03787783
#
# Stress axis : x y z
#
# Youngs Moduli (GPa) = 34.40877 83.08939 97.81156
#
# Poissons Ratio (x) = -0.01823 0.13638
# Poissons Ratio (y) = -0.00755 0.54255
# Poissons Ratio (z) = 0.04798 0.46089
#
# Static dielectric constant tensor:
#      x y z
#    x 1.785370 0.000000 0.000000 
#    y 0.000000 1.804150 0.000000 
#    z 0.000000 0.000000 1.782880 
# 
# From -- ./inp_files/31912.got.cif
#   From: 2010.05.17/outbox.cif.g08.bks.cpg/sg51_16_cif.got.tgz:31912.got - 2010.06.03 11:52:47.
