data_PCOD9399457
_publ_section_title
;
Structure prediction by ZEFSAII (Michael W. Deem and Ramdas Pophale) SiO2 
 PCOD9399457
Probable space group: P M M A
;
_chemical_formula_sum "Si O2"
_cell_formula_units_Z 40
_cell_length_a 21.048125
_cell_length_b 7.742682
_cell_length_c 14.662936
_cell_angle_alpha 90.000000
_cell_angle_beta 90.000000
_cell_angle_gamma 90.000000
_cell_volume 2389.603116
_symmetry_space_group_name_H-M "P M M A"
_symmetry_group_IT_number 51
_symmetry_cell_setting 'orthorhombic'
loop_
_space_group_symop_operation_xyz
x,y,z
1/2-x,-y,z
1/2+x,-y,-z
-x,y,-z
-x,-y,-z
1/2+x,y,-z
1/2-x,y,z
x,-y,z
loop_
_atom_site_type_symbol
_atom_site_label
_atom_site_fract_x
_atom_site_fract_y
_atom_site_fract_z
Si Si1 0.534681 0.000000 0.096585
Si Si2 0.680926 0.207169 0.490656
Si Si3 0.548124 0.703996 0.577080
Si Si4 0.991657 0.299653 0.238317
Si Si5 0.344645 0.306605 0.716513
Si Si6 0.180475 0.000000 0.855079
O O1 0.513088 0.831404 0.154253
O O2 0.612534 0.000000 0.092099
O O3 0.500000 0.000000 0.000000
O O4 0.750000 0.262716 0.526929
O O5 0.619788 0.273578 0.544001
O O6 0.676391 0.265656 0.385719
O O7 0.678293 0.000000 0.491711
O O8 0.500000 0.776744 0.500000
O O9 0.533530 0.500000 0.583696
O O10 0.535845 0.768402 0.679498
O O11 0.006998 0.500000 0.213364
O O12 0.921108 0.300761 0.281622
O O13 0.325082 0.500000 0.741856
O O14 0.321902 0.165450 0.788294
O O15 0.250000 0.000000 0.902768
#
# Coordination Sequence:
#
# PCOD9399457 Si02
#       6
#     4   8   8   8   8   4
#     4  10  22  38  58  80 101 135 174 210 272 327
#     4  11  22  31  42  68 107 147 184 219 250 293
#     4  10  19  32  50  73 102 138 180 213 248 303
#     4   9  19  34  54  81 105 132 173 217 257 308
#     4  10  18  31  49  72 106 141 169 203 255 312
#     4  10  20  34  51  77 106 128 163 213 258 317
#
# _framework density 16.739183000000001
#
# number of rings (size 3 to 8) (size 9 to 14) (size 15 to 20)
#    0.000    2.000    3.000    1.200    1.400    3.600 
#    0.000    0.000    0.000    1.200    0.000    0.000 
#    0.000    0.000    0.000    0.000    0.000    0.000 
#
# Total GULP energy -223036.733018 kJ/mol
# GULP energy per Si atom -5575.918325 kJ/mol
# Density = 1.670108 g / cm^3
# Si number density = 16.739183 Si / 1000 Ang^3
#
#
#
# Elastic Constant Matrix: (Units=GPa)
#
#
# Indices 1 2 3 4 5 6 
#
# 1 112.7958 11.7726 62.6942 0.0000 0.0000 0.0000
# 2 11.7726 62.0200 28.5600 0.0000 0.0000 0.0000
# 3 62.6942 28.5600 88.2462 0.0000 0.0000 0.0000
# 4 0.0000 0.0000 0.0000 13.8023 0.0000 0.0000
# 5 0.0000 0.0000 0.0000 0.0000 22.3808 0.0000
# 6 0.0000 0.0000 0.0000 0.0000 0.0000 103.4577
#
#
#
# Elastic Compliance Matrix: (Units=1/GPa)
#
#
# Indices 1 2 3 4 5 6 
#
# 1 0.014952 0.002413 -0.011404 0.000000 0.000000 0.000000
# 2 0.002413 0.019337 -0.007973 0.000000 0.000000 0.000000
# 3 -0.011404 -0.007973 0.022014 0.000000 0.000000 0.000000
# 4 0.000000 0.000000 0.000000 0.072452 0.000000 0.000000
# 5 0.000000 0.000000 0.000000 0.000000 0.044681 0.000000
# 6 0.000000 0.000000 0.000000 0.000000 0.000000 0.009666
#
#
# Mechanical properties :
#
#
# Convention : Reuss Voigt Hill
#
# Bulk Modulus (GPa) = 44.68918 52.12393 48.40656
# Shear Modulus (GPa) = 22.27300 38.59718 30.43509
#
# Velocity S-wave (km/s) = 3.65168 4.80708 4.26865
# Velocity P-wave (km/s) = 6.67346 7.87510 7.29905
#
# Compressibility (1/GPa) = 0.02237678
#
# Stress axis : x y z
#
# Youngs Moduli (GPa) = 66.88024 51.71386 45.42586
#
# Poissons Ratio (x) = -0.12479 0.51802
# Poissons Ratio (y) = -0.16139 0.36217
# Poissons Ratio (z) = 0.76268 0.41230
#
# Static dielectric constant tensor:
#      x y z
#    x 1.622820 0.000000 0.000000 
#    y 0.000000 1.599000 0.000000 
#    z 0.000000 0.000000 1.527200 
# 
# From -- ./inp_files/17996.got.cif
#   From: 2010.05.17/outbox.cif.g08.bks.cpg/sg51_9_cif.got.tgz:17996.got - 2010.06.03 11:52:47.
