data_PCOD9399058
_publ_section_title
;
Structure prediction by ZEFSAII (Michael W. Deem and Ramdas Pophale) SiO2 
 PCOD9399058
Probable space group: P M M A
;
_chemical_formula_sum "Si O2"
_cell_formula_units_Z 64
_cell_length_a 8.769096
_cell_length_b 15.326848
_cell_length_c 25.635232
_cell_angle_alpha 90.000000
_cell_angle_beta 90.000000
_cell_angle_gamma 90.000000
_cell_volume 3445.441871
_symmetry_space_group_name_H-M "P M M A"
_symmetry_group_IT_number 51
_symmetry_cell_setting 'orthorhombic'
loop_
_space_group_symop_operation_xyz
x,y,z
1/2-x,-y,z
1/2+x,-y,-z
-x,y,-z
-x,-y,-z
1/2+x,y,-z
1/2-x,y,z
x,-y,z
loop_
_atom_site_type_symbol
_atom_site_label
_atom_site_fract_x
_atom_site_fract_y
_atom_site_fract_z
Si Si1 0.933192 0.097619 0.732091
Si Si2 0.431964 0.778391 0.646102
Si Si3 0.433889 0.597765 0.692716
Si Si4 0.073644 0.837555 0.159295
Si Si5 0.068216 0.784577 0.946341
Si Si6 0.433078 0.406700 0.914389
Si Si7 0.573275 0.363455 0.805691
Si Si8 0.432701 0.099761 0.442450
O O1 0.750000 0.114088 0.729865
O O2 0.978972 0.103247 0.792759
O O3 0.018436 0.168209 0.697491
O O4 0.960421 0.000000 0.711987
O O5 0.250000 0.780874 0.640340
O O6 0.480157 0.677935 0.655479
O O7 0.506660 0.829131 0.597997
O O8 0.250000 0.601847 0.697870
O O9 0.474669 0.500000 0.674734
O O10 0.505102 0.613106 0.749801
O O11 0.250000 0.857860 0.147281
O O12 0.067637 0.740328 0.183997
O O13 0.981939 0.835198 0.105668
O O14 0.250000 0.782917 0.949454
O O15 0.009622 0.683963 0.938999
O O16 0.000000 0.819604 0.000000
O O17 0.250000 0.405399 0.918542
O O18 0.489533 0.500000 0.935781
O O19 0.479691 0.402829 0.853733
O O20 0.750000 0.390430 0.808562
O O21 0.500000 0.114283 0.500000
O O22 0.250000 0.103606 0.444265
O O23 0.475699 0.000000 0.426737
#
# Coordination Sequence:
#
# PCOD9399058 Si02
#       8
#     8   8   8   8   8   8   8   8
#     4  10  20  35  56  82 113 147 177 212 268 332
#     4  11  22  35  55  83 117 153 190 232 274 318
#     4  10  21  35  50  71 105 150 193 230 271 318
#     4   9  18  33  51  72 101 133 167 210 259 317
#     4  10  20  33  50  69  90 123 166 211 262 319
#     4   9  18  31  45  63  91 126 162 204 259 322
#     4  10  18  29  47  71  98 131 173 220 265 312
#     4  10  21  38  61  88 119 154 190 229 275 328
#
# _framework density 18.575265000000002
#
# number of rings (size 3 to 8) (size 9 to 14) (size 15 to 20)
#    0.000    2.125    1.250    2.250    0.000    6.750 
#    0.000    0.000    0.000    0.750    0.000    0.000 
#    0.000    0.000    0.000    0.000    0.000    0.000 
#
# Total GULP energy -357125.171663 kJ/mol
# GULP energy per Si atom -5580.080807 kJ/mol
# Density = 1.853299 g / cm^3
# Si number density = 18.575265 Si / 1000 Ang^3
#
#
#
# Elastic Constant Matrix: (Units=GPa)
#
#
# Indices 1 2 3 4 5 6 
#
# 1 30.4579 23.7604 31.4394 0.0000 0.0000 0.0000
# 2 23.7604 82.5097 51.3418 0.0000 0.0000 0.0000
# 3 31.4394 51.3418 113.0186 0.0000 0.0000 0.0000
# 4 0.0000 0.0000 0.0000 1.7857 0.0000 0.0000
# 5 0.0000 0.0000 0.0000 0.0000 30.4681 0.0000
# 6 0.0000 0.0000 0.0000 0.0000 0.0000 11.9185
#
#
#
# Elastic Compliance Matrix: (Units=1/GPa)
#
#
# Indices 1 2 3 4 5 6 
#
# 1 0.049519 -0.007930 -0.010173 0.000000 0.000000 0.000000
# 2 -0.007930 0.018166 -0.006046 0.000000 0.000000 0.000000
# 3 -0.010173 -0.006046 0.014425 0.000000 0.000000 0.000000
# 4 0.000000 0.000000 0.000000 0.560002 0.000000 0.000000
# 5 0.000000 0.000000 0.000000 0.000000 0.032821 0.000000
# 6 0.000000 0.000000 0.000000 0.000000 0.000000 0.083903
#
#
# Mechanical properties :
#
#
# Convention : Reuss Voigt Hill
#
# Bulk Modulus (GPa) = 29.57594 48.78548 39.18071
# Shear Modulus (GPa) = 6.10945 16.79745 11.45345
#
# Velocity S-wave (km/s) = 1.81553 3.01041 2.48583
# Velocity P-wave (km/s) = 4.51128 6.19710 5.42014
#
# Compressibility (1/GPa) = 0.03381126
#
# Stress axis : x y z
#
# Youngs Moduli (GPa) = 20.19427 55.04873 69.32586
#
# Poissons Ratio (x) = 0.43654 0.70523
# Poissons Ratio (y) = 0.16014 0.41917
# Poissons Ratio (z) = 0.20543 0.33284
#
# Static dielectric constant tensor:
#      x y z
#    x 1.625060 0.000000 0.000000 
#    y 0.000000 1.692960 0.000000 
#    z 0.000000 0.000000 1.616350 
# 
# From -- ./inp_files/34847.got.cif
#   From: 2010.05.17/outbox.cif.g08.bks.cpg/sg51_18_cif.got.tgz:34847.got - 2010.06.03 11:52:47.
