data_PCOD9399753
_publ_section_title
;
Structure prediction by ZEFSAII (Michael W. Deem and Ramdas Pophale) SiO2 
 PCOD9399753
Probable space group: P M M A
;
_chemical_formula_sum "Si O2"
_cell_formula_units_Z 56
_cell_length_a 27.826686
_cell_length_b 14.296357
_cell_length_c 7.095508
_cell_angle_alpha 90.000000
_cell_angle_beta 90.000000
_cell_angle_gamma 90.000000
_cell_volume 2822.736675
_symmetry_space_group_name_H-M "P M M A"
_symmetry_group_IT_number 51
_symmetry_cell_setting 'orthorhombic'
loop_
_space_group_symop_operation_xyz
x,y,z
1/2-x,-y,z
1/2+x,-y,-z
-x,y,-z
-x,-y,-z
1/2+x,y,-z
1/2-x,y,z
x,-y,z
loop_
_atom_site_type_symbol
_atom_site_label
_atom_site_fract_x
_atom_site_fract_y
_atom_site_fract_z
Si Si1 0.383934 0.110385 0.132002
Si Si2 0.949437 0.779422 0.577896
Si Si3 0.631774 0.209519 0.264142
Si Si4 0.307242 0.811614 0.409595
Si Si5 0.306508 0.601204 0.325422
Si Si6 0.644628 0.603091 0.063752
Si Si7 0.957943 0.608501 0.851393
O O1 0.425240 0.156975 0.260840
O O2 0.334602 0.135936 0.242088
O O3 0.390151 0.000000 0.121206
O O4 0.382235 0.155623 0.925568
O O5 0.913431 0.776362 0.401586
O O6 0.957210 0.678680 0.676403
O O7 0.000000 0.814982 0.500000
O O8 0.671697 0.156769 0.389594
O O9 0.651134 0.310513 0.199806
O O10 0.250000 0.817977 0.396118
O O11 0.323413 0.701948 0.396563
O O12 0.250000 0.598387 0.366021
O O13 0.327722 0.500000 0.387341
O O14 0.316218 0.605208 0.101924
O O15 0.645480 0.500000 0.152696
O O16 0.593211 0.614702 0.958662
O O17 0.964812 0.500000 0.795270
O O18 0.000000 0.633068 0.000000
#
# Coordination Sequence:
#
# PCOD9399753 Si02
#       7
#     8   8   8   8   8   8   8
#     4  11  25  46  66  87 121 158 202 265 325 369
#     4  11  24  40  67  94 125 161 205 255 307 370
#     4  11  22  39  61  94 123 163 205 253 308 367
#     4  10  22  40  65  94 125 161 205 253 307 372
#     4   9  17  32  56  87 125 164 199 239 290 355
#     4  10  18  32  56  85 122 166 207 239 288 358
#     4  10  20  36  61  92 130 171 205 241 293 361
#
# _framework density 19.838903999999999
#
# number of rings (size 3 to 8) (size 9 to 14) (size 15 to 20)
#    0.000    1.714    2.857    1.714    0.000    5.429 
#    0.000    0.714    0.000    0.000    0.000    0.000 
#    0.000    0.000    0.000    0.000    0.000    0.000 
#
# Total GULP energy -312602.496202 kJ/mol
# GULP energy per Si atom -5582.187432 kJ/mol
# Density = 1.979375 g / cm^3
# Si number density = 19.838904 Si / 1000 Ang^3
#
#
#
# Elastic Constant Matrix: (Units=GPa)
#
#
# Indices 1 2 3 4 5 6 
#
# 1 63.8664 11.4818 34.1676 0.0000 0.0000 0.0000
# 2 11.4818 97.7470 59.4410 0.0000 0.0000 0.0000
# 3 34.1676 59.4410 142.2677 0.0000 0.0000 0.0000
# 4 0.0000 0.0000 0.0000 0.6436 0.0000 0.0000
# 5 0.0000 0.0000 0.0000 0.0000 8.4412 0.0000
# 6 0.0000 0.0000 0.0000 0.0000 0.0000 14.0730
#
#
#
# Elastic Compliance Matrix: (Units=1/GPa)
#
#
# Indices 1 2 3 4 5 6 
#
# 1 0.018001 0.000690 -0.004611 0.000000 0.000000 0.000000
# 2 0.000690 0.013742 -0.005907 0.000000 0.000000 0.000000
# 3 -0.004611 -0.005907 0.010604 0.000000 0.000000 0.000000
# 4 0.000000 0.000000 0.000000 1.553827 0.000000 0.000000
# 5 0.000000 0.000000 0.000000 0.000000 0.118467 0.000000
# 6 0.000000 0.000000 0.000000 0.000000 0.000000 0.071058
#
#
# Mechanical properties :
#
#
# Convention : Reuss Voigt Hill
#
# Bulk Modulus (GPa) = 44.07310 57.11797 50.59554
# Shear Modulus (GPa) = 2.75798 17.88427 10.32112
#
# Velocity S-wave (km/s) = 1.18034 3.00571 2.28337
# Velocity P-wave (km/s) = 4.91135 6.39524 5.70177
#
# Compressibility (1/GPa) = 0.02268958
#
# Stress axis : x y z
#
# Youngs Moduli (GPa) = 55.55353 72.77168 94.29964
#
# Poissons Ratio (x) = -0.05019 0.43484
# Poissons Ratio (y) = -0.03832 0.55703
# Poissons Ratio (z) = 0.25617 0.42987
#
# Static dielectric constant tensor:
#      x y z
#    x 1.719650 0.000000 0.000000 
#    y 0.000000 1.713820 0.000000 
#    z 0.000000 0.000000 1.698560 
# 
# From -- ./inp_files/3993.got.cif
#   From: 2010.05.17/outbox.cif.g08.bks.cpg/sg51_2_cif.got.tgz:3993.got - 2010.06.03 11:52:47.
