data_PCOD9399346
_publ_section_title
;
Structure prediction by ZEFSAII (Michael W. Deem and Ramdas Pophale) SiO2 
 PCOD9399346
Probable space group: P M M A
;
_chemical_formula_sum "Si O2"
_cell_formula_units_Z 56
_cell_length_a 9.089575
_cell_length_b 19.048258
_cell_length_c 19.373097
_cell_angle_alpha 90.000000
_cell_angle_beta 90.000000
_cell_angle_gamma 90.000000
_cell_volume 3354.269052
_symmetry_space_group_name_H-M "P M M A"
_symmetry_group_IT_number 51
_symmetry_cell_setting 'orthorhombic'
loop_
_space_group_symop_operation_xyz
x,y,z
1/2-x,-y,z
1/2+x,-y,-z
-x,y,-z
-x,-y,-z
1/2+x,y,-z
1/2-x,y,z
x,-y,z
loop_
_atom_site_type_symbol
_atom_site_label
_atom_site_fract_x
_atom_site_fract_y
_atom_site_fract_z
Si Si1 0.074137 0.714396 0.573940
Si Si2 0.424343 0.207860 0.303346
Si Si3 0.076117 0.346526 0.211415
Si Si4 0.573616 0.919347 0.792471
Si Si5 0.075983 0.140694 0.928274
Si Si6 0.426118 0.579357 0.663307
Si Si7 0.075749 0.690932 0.928069
O O1 0.250000 0.718560 0.568393
O O2 0.034491 0.638277 0.606882
O O3 0.000000 0.722995 0.500000
O O4 0.014290 0.770540 0.629207
O O5 0.250000 0.205790 0.319623
O O6 0.445603 0.270126 0.247321
O O7 0.468877 0.135292 0.267376
O O8 0.250000 0.357846 0.203589
O O9 0.006718 0.400625 0.265740
O O10 0.996835 0.345592 0.137909
O O11 0.750000 0.911894 0.802227
O O12 0.494899 0.897628 0.863154
O O13 0.541718 0.000000 0.775147
O O14 0.250000 0.127827 0.931620
O O15 0.052863 0.224775 0.920229
O O16 0.000000 0.119339 0.000000
O O17 0.250000 0.584287 0.674142
O O18 0.461714 0.500000 0.641983
O O19 0.250000 0.678304 0.930568
O O20 0.000000 0.670175 0.000000
#
# Coordination Sequence:
#
# PCOD9399346 Si02
#       7
#     8   8   8   8   8   8   8
#     4  10  20  34  55  81 107 136 168 202 244 292
#     4   9  18  33  52  74 101 131 167 209 251 299
#     4  10  18  30  51  75 100 132 170 213 255 299
#     4  10  20  34  52  73 100 135 172 213 262 311
#     4  10  20  32  48  69  98 134 173 216 262 310
#     4   9  19  35  53  76 108 142 171 200 239 292
#     4  10  19  30  47  71  98 130 170 217 264 306
#
# _framework density 16.695142000000001
#
# number of rings (size 3 to 8) (size 9 to 14) (size 15 to 20)
#    0.000    2.286    1.429    1.714    0.000    4.000 
#    0.000    0.000    0.000    0.857    0.000    0.000 
#    0.000    0.000    0.000    0.000    0.000    0.000 
#
# Total GULP energy -312480.334688 kJ/mol
# GULP energy per Si atom -5580.005977 kJ/mol
# Density = 1.665714 g / cm^3
# Si number density = 16.695142 Si / 1000 Ang^3
#
#
#
# Elastic Constant Matrix: (Units=GPa)
#
#
# Indices 1 2 3 4 5 6 
#
# 1 43.3285 29.4640 59.8829 0.0000 0.0000 0.0000
# 2 29.4640 68.5929 52.0410 0.0000 0.0000 0.0000
# 3 59.8829 52.0410 145.4939 0.0000 0.0000 0.0000
# 4 0.0000 0.0000 0.0000 13.9523 0.0000 0.0000
# 5 0.0000 0.0000 0.0000 0.0000 31.6454 0.0000
# 6 0.0000 0.0000 0.0000 0.0000 0.0000 19.0586
#
#
#
# Elastic Compliance Matrix: (Units=1/GPa)
#
#
# Indices 1 2 3 4 5 6 
#
# 1 0.057515 -0.009258 -0.020361 0.000000 0.000000 0.000000
# 2 -0.009258 0.021499 -0.003879 0.000000 0.000000 0.000000
# 3 -0.020361 -0.003879 0.016641 0.000000 0.000000 0.000000
# 4 0.000000 0.000000 0.000000 0.071673 0.000000 0.000000
# 5 0.000000 0.000000 0.000000 0.000000 0.031600 0.000000
# 6 0.000000 0.000000 0.000000 0.000000 0.000000 0.052470
#
#
# Mechanical properties :
#
#
# Convention : Reuss Voigt Hill
#
# Bulk Modulus (GPa) = 34.89370 60.02124 47.45747
# Shear Modulus (GPa) = 15.24639 20.66642 17.95641
#
# Velocity S-wave (km/s) = 3.02524 3.52215 3.28311
# Velocity P-wave (km/s) = 5.75748 7.25053 6.54671
#
# Compressibility (1/GPa) = 0.02865847
#
# Stress axis : x y z
#
# Youngs Moduli (GPa) = 17.38676 46.51437 60.09282
#
# Poissons Ratio (x) = 0.43062 1.22354
# Poissons Ratio (y) = 0.16096 0.23312
# Poissons Ratio (z) = 0.35401 0.18045
#
# Static dielectric constant tensor:
#      x y z
#    x 1.551090 0.000000 0.000000 
#    y 0.000000 1.561800 0.000000 
#    z 0.000000 0.000000 1.526700 
# 
# From -- ./inp_files/28170.got.cif
#   From: 2010.05.17/outbox.cif.g08.bks.cpg/sg51_15_cif.got.tgz:28170.got - 2010.06.03 11:52:47.
