data_PCOD9399232
_publ_section_title
;
Structure prediction by ZEFSAII (Michael W. Deem and Ramdas Pophale) SiO2 
 PCOD9399232
Probable space group: P M M A
;
_chemical_formula_sum "Si O2"
_cell_formula_units_Z 64
_cell_length_a 20.838402
_cell_length_b 7.778218
_cell_length_c 20.367558
_cell_angle_alpha 90.000000
_cell_angle_beta 90.000000
_cell_angle_gamma 90.000000
_cell_volume 3301.288542
_symmetry_space_group_name_H-M "P M M A"
_symmetry_group_IT_number 51
_symmetry_cell_setting 'orthorhombic'
loop_
_space_group_symop_operation_xyz
x,y,z
1/2-x,-y,z
1/2+x,-y,-z
-x,y,-z
-x,-y,-z
1/2+x,y,-z
1/2-x,y,z
x,-y,z
loop_
_atom_site_type_symbol
_atom_site_label
_atom_site_fract_x
_atom_site_fract_y
_atom_site_fract_z
Si Si1 0.321915 0.289886 0.113046
Si Si2 0.568592 0.296913 0.526307
Si Si3 0.468766 0.799390 0.338726
Si Si4 0.581470 0.704437 0.148978
Si Si5 0.943877 0.703206 0.807817
Si Si6 0.392582 0.792836 0.609715
Si Si7 0.822335 0.709855 0.038838
Si Si8 0.178813 0.791849 0.736668
O O1 0.250000 0.233504 0.131925
O O2 0.321196 0.500000 0.114824
O O3 0.379410 0.226788 0.158927
O O4 0.332932 0.241581 0.036924
O O5 0.500000 0.224824 0.500000
O O6 0.562278 0.500000 0.534784
O O7 0.577898 0.222686 0.598733
O O8 0.615507 0.263408 0.465481
O O9 0.445827 0.721317 0.270676
O O10 0.538270 0.728897 0.362460
O O11 0.477948 0.000000 0.325781
O O12 0.574705 0.500000 0.138277
O O13 0.510431 0.775785 0.162553
O O14 0.622839 0.773715 0.087937
O O15 0.624918 0.730121 0.213291
O O16 0.944254 0.500000 0.822253
O O17 0.340072 0.739116 0.662826
O O18 0.394820 0.000000 0.608985
O O19 0.750000 0.764281 0.058363
O O20 0.822515 0.500000 0.041117
O O21 0.250000 0.731590 0.754804
O O22 0.178348 0.000000 0.738586
#
# Coordination Sequence:
#
# PCOD9399232 Si02
#       8
#     8   8   8   8   8   8   8   8
#     4   8  15  29  48  69  94 125 161 201 248 300
#     4   9  17  28  46  71  96 121 152 196 240 279
#     4  10  18  30  48  69  96 129 158 192 240 291
#     4  10  19  29  45  71 101 127 158 204 250 291
#     4  10  19  29  46  73 100 125 158 205 252 291
#     4   9  17  30  46  66  92 125 163 197 231 280
#     4   8  14  26  44  66  94 128 163 198 239 290
#     4  10  20  33  48  67  96 136 174 202 233 283
#
# _framework density 19.386368999999998
#
# number of rings (size 3 to 8) (size 9 to 14) (size 15 to 20)
#    0.000    2.750    1.250    1.875    0.000    3.750 
#    0.000    2.500    0.000    1.875    0.000    3.500 
#    0.000    0.000    0.000    0.000    0.000    0.000 
#
# Total GULP energy -356750.944320 kJ/mol
# GULP energy per Si atom -5574.233505 kJ/mol
# Density = 1.934224 g / cm^3
# Si number density = 19.386369 Si / 1000 Ang^3
#
#
#
# Elastic Constant Matrix: (Units=GPa)
#
#
# Indices 1 2 3 4 5 6 
#
# 1 126.5638 5.6976 85.4931 0.0000 0.0000 0.0000
# 2 5.6976 25.6296 -3.4616 0.0000 0.0000 0.0000
# 3 85.4931 -3.4616 115.2019 0.0000 0.0000 0.0000
# 4 0.0000 0.0000 0.0000 95.3814 0.0000 0.0000
# 5 0.0000 0.0000 0.0000 0.0000 22.0749 0.0000
# 6 0.0000 0.0000 0.0000 0.0000 0.0000 4.6944
#
#
#
# Elastic Compliance Matrix: (Units=1/GPa)
#
#
# Indices 1 2 3 4 5 6 
#
# 1 0.016545 -0.005358 -0.012439 0.000000 0.000000 0.000000
# 2 -0.005358 0.040912 0.005206 0.000000 0.000000 0.000000
# 3 -0.012439 0.005206 0.018068 0.000000 0.000000 0.000000
# 4 0.000000 0.000000 0.000000 0.010484 0.000000 0.000000
# 5 0.000000 0.000000 0.000000 0.000000 0.045300 0.000000
# 6 0.000000 0.000000 0.000000 0.000000 0.000000 0.213020
#
#
# Mechanical properties :
#
#
# Convention : Reuss Voigt Hill
#
# Bulk Modulus (GPa) = 19.86437 49.20592 34.53515
# Shear Modulus (GPa) = 12.94351 36.40789 24.67570
#
# Velocity S-wave (km/s) = 2.58672 4.33831 3.57156
# Velocity P-wave (km/s) = 4.38067 7.10854 5.90431
#
# Compressibility (1/GPa) = 0.05034139
#
# Stress axis : x y z
#
# Youngs Moduli (GPa) = 60.44096 24.44290 55.34565
#
# Poissons Ratio (x) = 0.13097 0.68846
# Poissons Ratio (y) = 0.32385 -0.28811
# Poissons Ratio (z) = 0.75185 -0.12724
#
# Static dielectric constant tensor:
#      x y z
#    x 1.687460 0.000000 0.000000 
#    y 0.000000 1.708190 0.000000 
#    z 0.000000 0.000000 1.679690 
# 
# From -- ./inp_files/30691.got.cif
#   From: 2010.05.17/outbox.cif.g08.bks.cpg/sg51_16_cif.got.tgz:30691.got - 2010.06.03 11:52:47.
