data_PCOD9399077
_publ_section_title
;
Structure prediction by ZEFSAII (Michael W. Deem and Ramdas Pophale) SiO2 
 PCOD9399077
Probable space group: P M M A
;
_chemical_formula_sum "Si O2"
_cell_formula_units_Z 64
_cell_length_a 26.007160
_cell_length_b 8.647135
_cell_length_c 17.802641
_cell_angle_alpha 90.000000
_cell_angle_beta 90.000000
_cell_angle_gamma 90.000000
_cell_volume 4003.590066
_symmetry_space_group_name_H-M "P M M A"
_symmetry_group_IT_number 51
_symmetry_cell_setting 'orthorhombic'
loop_
_space_group_symop_operation_xyz
x,y,z
1/2-x,-y,z
1/2+x,-y,-z
-x,y,-z
-x,-y,-z
1/2+x,y,-z
1/2-x,y,z
x,-y,z
loop_
_atom_site_type_symbol
_atom_site_label
_atom_site_fract_x
_atom_site_fract_y
_atom_site_fract_z
Si Si1 0.502112 0.186814 0.912562
Si Si2 0.439713 0.812342 0.335096
Si Si3 0.598427 0.683734 0.819158
Si Si4 0.809487 0.814953 0.914384
Si Si5 0.600955 0.813115 0.178651
Si Si6 0.060035 0.188761 0.662496
Si Si7 0.437481 0.819515 0.499339
Si Si8 0.809349 0.684716 0.078779
O O1 0.550987 0.255178 0.869611
O O2 0.449595 0.230158 0.869718
O O3 0.506402 0.000000 0.909546
O O4 0.500000 0.232958 0.000000
O O5 0.409191 0.747748 0.264765
O O6 0.500046 0.769675 0.326271
O O7 0.422107 0.755808 0.417859
O O8 0.437557 0.000000 0.334479
O O9 0.597394 0.500000 0.818303
O O10 0.650902 0.742898 0.856220
O O11 0.750000 0.770112 0.900497
O O12 0.813164 0.000000 0.911703
O O13 0.822911 0.758909 0.998357
O O14 0.591693 0.763041 0.264624
O O15 0.651184 0.743582 0.140746
O O16 0.604301 0.000000 0.177173
O O17 0.078045 0.246639 0.580460
O O18 0.060974 0.000000 0.659775
O O19 0.500000 0.817357 0.500000
O O20 0.422026 0.000000 0.499133
O O21 0.750000 0.727003 0.095530
O O22 0.812386 0.500000 0.072075
#
# Coordination Sequence:
#
# PCOD9399077 Si02
#       8
#     8   8   8   8   8   8   8   8
#     4  10  20  33  48  67  94 129 165 197 233 281
#     4   9  15  28  47  67  95 129 163 197 234 281
#     4  12  23  32  47  72 102 131 157 191 237 289
#     4  10  21  38  58  74  89 117 161 207 246 284
#     4  10  18  29  48  72  98 129 163 202 240 279
#     4   8  13  24  43  70  97 123 160 202 242 278
#     4   7  11  20  41  68  91 120 159 200 238 275
#     4  10  21  36  52  71  97 126 158 200 246 289
#
# _framework density 15.985652
#
# number of rings (size 3 to 8) (size 9 to 14) (size 15 to 20)
#    0.000    2.500    1.250    4.125    0.000    3.250 
#    0.000    0.000    0.000    4.125    0.000    0.875 
#    0.000    3.000    0.000    0.000    0.000    0.000 
#
# Total GULP energy -356737.273720 kJ/mol
# GULP energy per Si atom -5574.019902 kJ/mol
# Density = 1.594927 g / cm^3
# Si number density = 15.985652 Si / 1000 Ang^3
#
#
#
# Elastic Constant Matrix: (Units=GPa)
#
#
# Indices 1 2 3 4 5 6 
#
# 1 65.3706 20.9478 72.7070 0.0000 0.0000 0.0000
# 2 20.9478 21.1012 33.5788 0.0000 0.0000 0.0000
# 3 72.7070 33.5788 184.2144 0.0000 0.0000 0.0000
# 4 0.0000 0.0000 0.0000 -4.1077 0.0000 0.0000
# 5 0.0000 0.0000 0.0000 0.0000 17.5199 0.0000
# 6 0.0000 0.0000 0.0000 0.0000 0.0000 13.7598
#
#
#
# Elastic Compliance Matrix: (Units=1/GPa)
#
#
# Indices 1 2 3 4 5 6 
#
# 1 0.030561 -0.015698 -0.009201 0.000000 0.000000 0.000000
# 2 -0.015698 0.074817 -0.007442 0.000000 0.000000 0.000000
# 3 -0.009201 -0.007442 0.010416 0.000000 0.000000 0.000000
# 4 0.000000 0.000000 0.000000 -0.243445 0.000000 0.000000
# 5 0.000000 0.000000 0.000000 0.000000 0.057078 0.000000
# 6 0.000000 0.000000 0.000000 0.000000 0.000000 0.072675
#
#
# Mechanical properties :
#
#
# Convention : Reuss Voigt Hill
#
# Bulk Modulus (GPa) = 19.56425 58.35037 38.95731
# Shear Modulus (GPa) = 59.65145 14.99792 37.32469
#
# Velocity S-wave (km/s) = 6.11528 3.06635 4.83731
# Velocity P-wave (km/s) = 7.88209 7.00839 7.45805
#
# Compressibility (1/GPa) = 0.05111365
#
# Stress axis : x y z
#
# Youngs Moduli (GPa) = 32.72173 13.36594 96.00303
#
# Poissons Ratio (x) = 0.20981 0.88328
# Poissons Ratio (y) = 0.51365 0.71446
# Poissons Ratio (z) = 0.30106 0.09947
#
# Static dielectric constant tensor:
#      x y z
#    x 1.507370 0.000000 0.000000 
#    y 0.000000 1.533530 0.000000 
#    z 0.000000 0.000000 1.560910 
# 
# From -- ./inp_files/30890.got.cif
#   From: 2010.05.17/outbox.cif.g08.bks.cpg/sg51_16_cif.got.tgz:30890.got - 2010.06.03 11:52:47.
