data_PCOD9399165
_publ_section_title
;
Structure prediction by ZEFSAII (Michael W. Deem and Ramdas Pophale) SiO2 
 PCOD9399165
Probable space group: P M M A
;
_chemical_formula_sum "Si O2"
_cell_formula_units_Z 52
_cell_length_a 8.776124
_cell_length_b 26.520109
_cell_length_c 13.435938
_cell_angle_alpha 90.000000
_cell_angle_beta 90.000000
_cell_angle_gamma 90.000000
_cell_volume 3127.130797
_symmetry_space_group_name_H-M "P M M A"
_symmetry_group_IT_number 51
_symmetry_cell_setting 'orthorhombic'
loop_
_space_group_symop_operation_xyz
x,y,z
1/2-x,-y,z
1/2+x,-y,-z
-x,y,-z
-x,-y,-z
1/2+x,y,-z
1/2-x,y,z
x,-y,z
loop_
_atom_site_type_symbol
_atom_site_label
_atom_site_fract_x
_atom_site_fract_y
_atom_site_fract_z
Si Si1 0.419388 0.724189 0.406915
Si Si2 0.066318 0.000000 0.388392
Si Si3 0.568325 0.558788 0.607797
Si Si4 0.429699 0.645504 0.725798
Si Si5 0.933255 0.893749 0.386974
Si Si6 0.922459 0.189381 0.756297
Si Si7 0.433290 0.271849 0.890655
O O1 0.500000 0.749115 0.500000
O O2 0.250000 0.827401 0.217377
O O3 0.526885 0.680056 0.368517
O O4 0.408206 0.765429 0.322469
O O5 0.000000 0.000000 0.500000
O O6 0.999773 0.052567 0.348991
O O7 0.250000 0.000000 0.387683
O O8 0.500000 0.574042 0.500000
O O9 0.750000 0.562980 0.601675
O O10 0.526975 0.500000 0.622766
O O11 0.509549 0.593126 0.698551
O O12 0.250000 0.637877 0.733389
O O13 0.478908 0.680549 0.819485
O O14 0.750000 0.895156 0.395202
O O15 0.000000 0.884671 0.500000
O O16 0.986783 0.852987 0.305231
O O17 0.750000 0.294827 0.570517
O O18 0.005588 0.218648 0.846251
O O19 0.250000 0.270402 0.891321
O O20 0.500000 0.279222 0.000000
#
# Coordination Sequence:
#
# PCOD9399165 Si02
#       7
#     8   4   8   8   8   8   8
#     4  10  19  29  43  64  94 128 160 194 234 283
#     4  10  18  30  46  66  95 134 177 214 248 290
#     4  10  20  33  50  73 102 135 168 201 238 282
#     4  10  20  33  50  71  96 126 161 199 241 289
#     4  11  20  31  47  70 102 138 174 211 250 294
#     4  10  20  33  49  71  97 128 164 203 247 296
#     4  10  21  37  56  77  99 126 160 203 253 303
#
# _framework density 16.628661000000001
#
# number of rings (size 3 to 8) (size 9 to 14) (size 15 to 20)
#    0.000    1.846    0.000    6.231    0.000    5.846 
#    0.000    0.000    0.000    0.462    0.000    0.538 
#    0.000    0.000    0.000    0.000    0.000    0.000 
#
# Total GULP energy -289698.919730 kJ/mol
# GULP energy per Si atom -5571.133072 kJ/mol
# Density = 1.659081 g / cm^3
# Si number density = 16.628661 Si / 1000 Ang^3
#
#
#
# Elastic Constant Matrix: (Units=GPa)
#
#
# Indices 1 2 3 4 5 6 
#
# 1 94.7166 46.4219 48.2227 0.0000 0.0000 0.0000
# 2 46.4219 108.0977 42.9612 0.0000 0.0000 0.0000
# 3 48.2227 42.9612 78.7190 0.0000 0.0000 0.0000
# 4 0.0000 0.0000 0.0000 20.6815 0.0000 0.0000
# 5 0.0000 0.0000 0.0000 0.0000 23.7070 0.0000
# 6 0.0000 0.0000 0.0000 0.0000 0.0000 42.8848
#
#
#
# Elastic Compliance Matrix: (Units=1/GPa)
#
#
# Indices 1 2 3 4 5 6 
#
# 1 0.016556 -0.003932 -0.007996 0.000000 0.000000 0.000000
# 2 -0.003932 0.012747 -0.004548 0.000000 0.000000 0.000000
# 3 -0.007996 -0.004548 0.020084 0.000000 0.000000 0.000000
# 4 0.000000 0.000000 0.000000 0.048352 0.000000 0.000000
# 5 0.000000 0.000000 0.000000 0.000000 0.042182 0.000000
# 6 0.000000 0.000000 0.000000 0.000000 0.000000 0.023318
#
#
# Mechanical properties :
#
#
# Convention : Reuss Voigt Hill
#
# Bulk Modulus (GPa) = 60.84748 61.86054 61.35401
# Shear Modulus (GPa) = 24.79303 27.04984 25.92143
#
# Velocity S-wave (km/s) = 3.86551 4.03761 3.95250
# Velocity P-wave (km/s) = 7.52292 7.68234 7.60305
#
# Compressibility (1/GPa) = 0.01643454
#
# Stress axis : x y z
#
# Youngs Moduli (GPa) = 60.40111 78.45002 49.79107
#
# Poissons Ratio (x) = 0.30846 0.39814
# Poissons Ratio (y) = 0.23749 0.22645
# Poissons Ratio (z) = 0.48298 0.35679
#
# Static dielectric constant tensor:
#      x y z
#    x 1.585890 0.000000 0.000000 
#    y 0.000000 1.599350 0.000000 
#    z 0.000000 0.000000 1.750090 
# 
# From -- ./inp_files/14593.got.cif
#   From: 2010.05.17/outbox.cif.g08.bks.cpg/sg51_8_cif.got.tgz:14593.got - 2010.06.03 11:52:47.
