data_PCOD9399186
_publ_section_title
;
Structure prediction by ZEFSAII (Michael W. Deem and Ramdas Pophale) SiO2 
 PCOD9399186
Probable space group: P M M A
;
_chemical_formula_sum "Si O2"
_cell_formula_units_Z 64
_cell_length_a 8.884953
_cell_length_b 24.227333
_cell_length_c 19.683439
_cell_angle_alpha 90.000000
_cell_angle_beta 90.000000
_cell_angle_gamma 90.000000
_cell_volume 4237.031786
_symmetry_space_group_name_H-M "P M M A"
_symmetry_group_IT_number 51
_symmetry_cell_setting 'orthorhombic'
loop_
_space_group_symop_operation_xyz
x,y,z
1/2-x,-y,z
1/2+x,-y,-z
-x,y,-z
-x,-y,-z
1/2+x,y,-z
1/2-x,y,z
x,-y,z
loop_
_atom_site_type_symbol
_atom_site_label
_atom_site_fract_x
_atom_site_fract_y
_atom_site_fract_z
Si Si1 0.069960 0.226135 0.073621
Si Si2 0.431581 0.333373 0.161443
Si Si3 0.069304 0.112568 0.570710
Si Si4 0.930626 0.164038 0.793141
Si Si5 0.431365 0.563163 0.073557
Si Si6 0.569153 0.269855 0.281571
Si Si7 0.431525 0.063572 0.715429
Si Si8 0.430484 0.757961 0.570438
O O1 0.250000 0.226396 0.066929
O O2 0.026780 0.284566 0.108409
O O3 0.029261 0.179612 0.129181
O O4 0.000000 0.219098 0.000000
O O5 0.250000 0.331849 0.168994
O O6 0.476739 0.391661 0.129126
O O7 0.505952 0.317337 0.232739
O O8 0.250000 0.109840 0.565715
O O9 0.023557 0.080287 0.638473
O O10 0.026395 0.177241 0.578610
O O11 0.000000 0.092174 0.500000
O O12 0.750000 0.166686 0.786909
O O13 0.002787 0.212589 0.747641
O O14 0.992337 0.106178 0.766764
O O15 0.250000 0.565371 0.068053
O O16 0.474382 0.500000 0.090311
O O17 0.500000 0.576706 0.000000
O O18 0.750000 0.267684 0.277537
O O19 0.525139 0.273254 0.360703
O O20 0.250000 0.069865 0.719418
O O21 0.469329 0.000000 0.728660
O O22 0.500000 0.737709 0.500000
O O23 0.250000 0.756322 0.565184
#
# Coordination Sequence:
#
# PCOD9399186 Si02
#       8
#     8   8   8   8   8   8   8   8
#     4   9  18  30  45  67  90 113 140 178 222 264
#     4   9  18  30  43  66  97 124 155 191 227 263
#     4   9  17  30  44  63  88 114 145 180 216 257
#     4  10  20  33  48  67  91 114 142 180 223 270
#     4   9  17  29  45  65  94 132 169 201 230 264
#     4  10  18  30  47  67  90 118 152 186 225 269
#     4  10  20  34  50  66  87 115 147 183 220 263
#     4   9  17  28  43  63  88 116 147 180 218 267
#
# _framework density 15.104913
#
# number of rings (size 3 to 8) (size 9 to 14) (size 15 to 20)
#    0.000    2.625    1.250    1.875    0.000    5.000 
#    0.000    0.000    0.000    0.375    0.000    0.000 
#    0.000    0.500    0.000    1.125    0.000    1.750 
#
# Total GULP energy -356707.509212 kJ/mol
# GULP energy per Si atom -5573.554831 kJ/mol
# Density = 1.507053 g / cm^3
# Si number density = 15.104913 Si / 1000 Ang^3
#
#
#
# Elastic Constant Matrix: (Units=GPa)
#
#
# Indices 1 2 3 4 5 6 
#
# 1 20.2920 29.6739 39.9927 0.0000 0.0000 0.0000
# 2 29.6739 89.9665 68.0916 0.0000 0.0000 0.0000
# 3 39.9927 68.0916 146.3354 0.0000 0.0000 0.0000
# 4 0.0000 0.0000 0.0000 26.0470 0.0000 0.0000
# 5 0.0000 0.0000 0.0000 0.0000 29.8580 0.0000
# 6 0.0000 0.0000 0.0000 0.0000 0.0000 17.1389
#
#
#
# Elastic Compliance Matrix: (Units=1/GPa)
#
#
# Indices 1 2 3 4 5 6 
#
# 1 0.137711 -0.026144 -0.025471 0.000000 0.000000 0.000000
# 2 -0.026144 0.022121 -0.003148 0.000000 0.000000 0.000000
# 3 -0.025471 -0.003148 0.015259 0.000000 0.000000 0.000000
# 4 0.000000 0.000000 0.000000 0.038392 0.000000 0.000000
# 5 0.000000 0.000000 0.000000 0.000000 0.033492 0.000000
# 6 0.000000 0.000000 0.000000 0.000000 0.000000 0.058347
#
#
# Mechanical properties :
#
#
# Convention : Reuss Voigt Hill
#
# Bulk Modulus (GPa) = 15.25178 59.12337 37.18757
# Shear Modulus (GPa) = 11.44941 22.53116 16.99028
#
# Velocity S-wave (km/s) = 2.75615 3.86637 3.35747
# Velocity P-wave (km/s) = 4.49974 7.69146 6.30104
#
# Compressibility (1/GPa) = 0.06556613
#
# Stress axis : x y z
#
# Youngs Moduli (GPa) = 7.26157 45.20559 65.53302
#
# Poissons Ratio (x) = 1.18186 1.66917
# Poissons Ratio (y) = 0.18985 0.20631
# Poissons Ratio (z) = 0.18496 0.14232
#
# Static dielectric constant tensor:
#      x y z
#    x 1.508130 0.000000 0.000000 
#    y 0.000000 1.492620 0.000000 
#    z 0.000000 0.000000 1.498630 
# 
# From -- ./inp_files/28569.got.cif
#   From: 2010.05.17/outbox.cif.g08.bks.cpg/sg51_15_cif.got.tgz:28569.got - 2010.06.03 11:52:47.
