data_PCOD9399530
_publ_section_title
;
Structure prediction by ZEFSAII (Michael W. Deem and Ramdas Pophale) SiO2 
 PCOD9399530
Probable space group: P M M A
;
_chemical_formula_sum "Si O2"
_cell_formula_units_Z 64
_cell_length_a 20.021871
_cell_length_b 9.298394
_cell_length_c 19.789785
_cell_angle_alpha 90.000000
_cell_angle_beta 90.000000
_cell_angle_gamma 90.000000
_cell_volume 3684.288915
_symmetry_space_group_name_H-M "P M M A"
_symmetry_group_IT_number 51
_symmetry_cell_setting 'orthorhombic'
loop_
_space_group_symop_operation_xyz
x,y,z
1/2-x,-y,z
1/2+x,-y,-z
-x,y,-z
-x,-y,-z
1/2+x,y,-z
1/2-x,y,z
x,-y,z
loop_
_atom_site_type_symbol
_atom_site_label
_atom_site_fract_x
_atom_site_fract_y
_atom_site_fract_z
Si Si1 0.327777 0.830096 0.122550
Si Si2 0.673125 0.830396 0.257589
Si Si3 0.557909 0.671802 0.796863
Si Si4 0.826947 0.171153 0.037752
Si Si5 0.577346 0.665296 0.525542
Si Si6 0.885374 0.832870 0.398147
Si Si7 0.586480 0.671185 0.147306
Si Si8 0.038065 0.168695 0.345126
O O1 0.250000 0.801487 0.138352
O O2 0.377960 0.734783 0.165385
O O3 0.340199 0.000000 0.134787
O O4 0.336540 0.805298 0.042186
O O5 0.750000 0.811897 0.237614
O O6 0.663145 0.795482 0.336482
O O7 0.625680 0.735478 0.211480
O O8 0.655733 0.000000 0.249679
O O9 0.562202 0.500000 0.788091
O O10 0.491583 0.703130 0.841211
O O11 0.549284 0.748055 0.724506
O O12 0.750000 0.211844 0.054591
O O13 0.879898 0.255634 0.082481
O O14 0.832948 0.000000 0.050591
O O15 0.500000 0.667699 0.500000
O O16 0.595541 0.500000 0.537963
O O17 0.618258 0.735312 0.464222
O O18 0.578630 0.758513 0.593590
O O19 0.960051 0.820564 0.366693
O O20 0.875684 0.000000 0.416954
O O21 0.594761 0.500000 0.144183
O O22 0.053900 0.000000 0.338198
#
# Coordination Sequence:
#
# PCOD9399530 Si02
#       8
#     8   8   8   8   8   8   8   8
#     4   9  20  40  63  84 104 132 175 222 269 326
#     4  10  20  34  52  74 104 145 189 229 269 316
#     4  11  23  36  53  80 114 146 175 218 273 323
#     4   9  19  37  59  80 105 140 182 225 266 314
#     4   9  17  28  46  72 102 134 167 212 267 318
#     4   9  17  30  48  72 100 134 178 223 264 312
#     4  11  23  35  50  77 113 146 180 222 267 318
#     4  10  18  31  52  76 103 137 176 220 266 313
#
# _framework density 17.371058000000001
#
# number of rings (size 3 to 8) (size 9 to 14) (size 15 to 20)
#    0.000    2.250    1.250    2.625    0.000    7.250 
#    0.000    3.750    0.000    0.750    0.000    1.750 
#    0.000    0.000    0.000    0.000    0.000    0.000 
#
# Total GULP energy -357140.487179 kJ/mol
# GULP energy per Si atom -5580.320112 kJ/mol
# Density = 1.733152 g / cm^3
# Si number density = 17.371058 Si / 1000 Ang^3
#
#
#
# Elastic Constant Matrix: (Units=GPa)
#
#
# Indices 1 2 3 4 5 6 
#
# 1 63.7941 56.8953 47.2054 0.0000 0.0000 0.0000
# 2 56.8953 95.6968 65.4104 0.0000 0.0000 0.0000
# 3 47.2054 65.4104 82.8802 0.0000 0.0000 0.0000
# 4 0.0000 0.0000 0.0000 -0.0937 0.0000 0.0000
# 5 0.0000 0.0000 0.0000 0.0000 16.5338 0.0000
# 6 0.0000 0.0000 0.0000 0.0000 0.0000 22.9306
#
#
#
# Elastic Compliance Matrix: (Units=1/GPa)
#
#
# Indices 1 2 3 4 5 6 
#
# 1 0.035517 -0.015827 -0.007738 0.000000 0.000000 0.000000
# 2 -0.015827 0.029742 -0.014458 0.000000 0.000000 0.000000
# 3 -0.007738 -0.014458 0.027884 0.000000 0.000000 0.000000
# 4 0.000000 0.000000 0.000000-10.676169 0.000000 0.000000
# 5 0.000000 0.000000 0.000000 0.000000 0.060482 0.000000
# 6 0.000000 0.000000 0.000000 0.000000 0.000000 0.043610
#
#
# Mechanical properties :
#
#
# Convention : Reuss Voigt Hill
#
# Bulk Modulus (GPa) = 58.49477 64.59925 61.54701
# Shear Modulus (GPa) = -0.48090 12.73150 6.12530
#
# Velocity S-wave (km/s) = -0.52673 2.71018 1.87984
# Velocity P-wave (km/s) = 5.77727 6.86017 6.34188
#
# Compressibility (1/GPa) = 0.01709555
#
# Stress axis : x y z
#
# Youngs Moduli (GPa) = 28.15581 33.62267 35.86323
#
# Poissons Ratio (x) = 0.53214 0.27751
# Poissons Ratio (y) = 0.44562 0.51852
# Poissons Ratio (z) = 0.21787 0.48613
#
# Static dielectric constant tensor:
#      x y z
#    x 1.579030 0.000000 0.000000 
#    y 0.000000 1.576250 0.000000 
#    z 0.000000 0.000000 1.579530 
# 
# From -- ./inp_files/30681.got.cif
#   From: 2010.05.17/outbox.cif.g08.bks.cpg/sg51_16_cif.got.tgz:30681.got - 2010.06.03 11:52:47.
