data_PCOD9399549
_publ_section_title
;
Structure prediction by ZEFSAII (Michael W. Deem and Ramdas Pophale) SiO2 
 PCOD9399549
Probable space group: P M M A
;
_chemical_formula_sum "Si O2"
_cell_formula_units_Z 48
_cell_length_a 7.684829
_cell_length_b 14.131825
_cell_length_c 20.507677
_cell_angle_alpha 90.000000
_cell_angle_beta 90.000000
_cell_angle_gamma 90.000000
_cell_volume 2227.147228
_symmetry_space_group_name_H-M "P M M A"
_symmetry_group_IT_number 51
_symmetry_cell_setting 'orthorhombic'
loop_
_space_group_symop_operation_xyz
x,y,z
1/2-x,-y,z
1/2+x,-y,-z
-x,y,-z
-x,-y,-z
1/2+x,y,-z
1/2-x,y,z
x,-y,z
loop_
_atom_site_type_symbol
_atom_site_label
_atom_site_fract_x
_atom_site_fract_y
_atom_site_fract_z
Si Si1 0.554278 0.814290 0.071814
Si Si2 0.547257 0.603346 0.915147
Si Si3 0.951720 0.397463 0.759615
Si Si4 0.962111 0.889225 0.210631
Si Si5 0.556766 0.236644 0.324359
Si Si6 0.540637 0.607486 0.423961
O O1 0.750000 0.847547 0.078794
O O2 0.544690 0.700296 0.066633
O O3 0.471380 0.842831 0.142093
O O4 0.500000 0.850540 0.000000
O O5 0.750000 0.608505 0.935849
O O6 0.474451 0.500000 0.933824
O O7 0.546325 0.603435 0.837050
O O8 0.750000 0.384398 0.739850
O O9 0.012505 0.500000 0.737372
O O10 0.067249 0.316372 0.731374
O O11 0.750000 0.876850 0.213644
O O12 0.027609 0.845559 0.279755
O O13 0.999769 0.000000 0.207267
O O14 0.750000 0.205619 0.346215
O O15 0.475879 0.301839 0.382021
O O16 0.500000 0.621457 0.500000
O O17 0.750000 0.606177 0.414812
O O18 0.476225 0.500000 0.407683
#
# Coordination Sequence:
#
# PCOD9399549 Si02
#       6
#     8   8   8   8   8   8
#     4  11  22  36  55  77 101 134 172 214 265 319
#     4   9  18  33  51  72 102 136 168 204 248 304
#     4   9  17  28  45  72 104 134 162 199 249 301
#     4   9  19  36  56  78 102 128 167 220 273 320
#     4  10  18  31  53  78 102 134 175 217 256 297
#     4   9  18  31  48  75 111 145 175 207 243 292
#
# _framework density 21.552233999999999
#
# number of rings (size 3 to 8) (size 9 to 14) (size 15 to 20)
#    0.000    2.500    1.667    2.000    0.000    2.667 
#    0.000    3.333    0.000    4.500    0.000    0.000 
#    0.000    0.000    0.000    0.000    0.000    0.000 
#
# Total GULP energy -267204.148286 kJ/mol
# GULP energy per Si atom -5566.753089 kJ/mol
# Density = 2.150318 g / cm^3
# Si number density = 21.552234 Si / 1000 Ang^3
#
#
#
# Elastic Constant Matrix: (Units=GPa)
#
#
# Indices 1 2 3 4 5 6 
#
# 1 30.8590 -3.4575 -0.2786 0.0000 0.0000 0.0000
# 2 -3.4575 104.6222 54.1241 0.0000 0.0000 0.0000
# 3 -0.2786 54.1241 155.7744 0.0000 0.0000 0.0000
# 4 0.0000 0.0000 0.0000 -41.0512 0.0000 0.0000
# 5 0.0000 0.0000 0.0000 0.0000 19.1216 0.0000
# 6 0.0000 0.0000 0.0000 0.0000 0.0000 5.3000
#
#
#
# Elastic Compliance Matrix: (Units=1/GPa)
#
#
# Indices 1 2 3 4 5 6 
#
# 1 0.032545 0.001274 -0.000385 0.000000 0.000000 0.000000
# 2 0.001274 0.011703 -0.004064 0.000000 0.000000 0.000000
# 3 -0.000385 -0.004064 0.007831 0.000000 0.000000 0.000000
# 4 0.000000 0.000000 0.000000 -0.024360 0.000000 0.000000
# 5 0.000000 0.000000 0.000000 0.000000 0.052297 0.000000
# 6 0.000000 0.000000 0.000000 0.000000 0.000000 0.188678
#
#
# Mechanical properties :
#
#
# Convention : Reuss Voigt Hill
#
# Bulk Modulus (GPa) = 21.86731 43.55907 32.71319
# Shear Modulus (GPa) = 17.22448 12.73191 14.97820
#
# Velocity S-wave (km/s) = 2.83007 2.43317 2.63909
# Velocity P-wave (km/s) = 4.56589 5.30552 4.94954
#
# Compressibility (1/GPa) = 0.04573037
#
# Stress axis : x y z
#
# Youngs Moduli (GPa) = 30.72687 85.45072 127.70026
#
# Poissons Ratio (x) = -0.10891 0.04912
# Poissons Ratio (y) = -0.03916 0.51895
# Poissons Ratio (z) = 0.01182 0.34726
#
# Static dielectric constant tensor:
#      x y z
#    x 1.881020 0.000000 0.000000 
#    y 0.000000 1.794320 0.000000 
#    z 0.000000 0.000000 1.855630 
# 
# From -- ./inp_files/31607.got.cif
#   From: 2010.05.17/outbox.cif.g08.bks.cpg/sg51_16_cif.got.tgz:31607.got - 2010.06.03 11:52:47.
