data_PCOD9399461
_publ_section_title
;
Structure prediction by ZEFSAII (Michael W. Deem and Ramdas Pophale) SiO2 
 PCOD9399461
Probable space group: P M M A
;
_chemical_formula_sum "Si O2"
_cell_formula_units_Z 48
_cell_length_a 21.142392
_cell_length_b 7.536925
_cell_length_c 15.879217
_cell_angle_alpha 90.000000
_cell_angle_beta 90.000000
_cell_angle_gamma 90.000000
_cell_volume 2530.331360
_symmetry_space_group_name_H-M "P M M A"
_symmetry_group_IT_number 51
_symmetry_cell_setting 'orthorhombic'
loop_
_space_group_symop_operation_xyz
x,y,z
1/2-x,-y,z
1/2+x,-y,-z
-x,y,-z
-x,-y,-z
1/2+x,y,-z
1/2-x,y,z
x,-y,z
loop_
_atom_site_type_symbol
_atom_site_label
_atom_site_fract_x
_atom_site_fract_y
_atom_site_fract_z
Si Si1 0.451847 0.706658 0.430501
Si Si2 0.994583 0.710048 0.263283
Si Si3 0.348736 0.290587 0.690596
Si Si4 0.818633 0.716613 0.121712
Si Si5 0.318454 0.796206 0.503646
Si Si6 0.958764 0.717592 0.079710
O O1 0.500000 0.785213 0.500000
O O2 0.470824 0.500000 0.422105
O O3 0.460138 0.782705 0.336436
O O4 0.381014 0.712290 0.464853
O O5 0.007980 0.500000 0.252215
O O6 0.924279 0.728625 0.301995
O O7 0.989398 0.779907 0.168145
O O8 0.334418 0.500000 0.684533
O O9 0.322492 0.227421 0.780162
O O10 0.324680 0.207818 0.604885
O O11 0.750000 0.771560 0.086971
O O12 0.819773 0.500000 0.121872
O O13 0.884694 0.772396 0.079186
O O14 0.250000 0.717631 0.481150
O O15 0.319200 0.000000 0.476272
O O16 0.958293 0.500000 0.080813
O O17 0.000000 0.773557 0.000000
#
# Coordination Sequence:
#
# PCOD9399461 Si02
#       6
#     8   8   8   8   8   8
#     4  10  18  31  50  67  85 116 157 191 218 255
#     4   8  14  25  42  64  85 107 145 187 216 258
#     4   9  15  27  45  63  84 113 147 181 219 265
#     4   8  13  20  34  57  81 106 140 177 210 257
#     4  11  23  33  41  61  94 124 150 186 229 270
#     4   8  13  21  35  56  85 116 137 164 220 273
#
# _framework density 18.969847999999999
#
# number of rings (size 3 to 8) (size 9 to 14) (size 15 to 20)
#    0.000    3.000    1.667    3.000    0.000    2.333 
#    0.000    0.000    0.000    1.000    0.000    4.667 
#    0.000   16.667    0.000   15.000    0.000   11.333 
#
# Total GULP energy -267402.921956 kJ/mol
# GULP energy per Si atom -5570.894207 kJ/mol
# Density = 1.892667 g / cm^3
# Si number density = 18.969848 Si / 1000 Ang^3
#
#
#
# Elastic Constant Matrix: (Units=GPa)
#
#
# Indices 1 2 3 4 5 6 
#
# 1 130.1786 3.6895 85.9564 0.0000 0.0000 0.0000
# 2 3.6895 39.4592 5.0168 0.0000 0.0000 0.0000
# 3 85.9564 5.0168 120.2507 0.0000 0.0000 0.0000
# 4 0.0000 0.0000 0.0000 -28.1900 0.0000 0.0000
# 5 0.0000 0.0000 0.0000 0.0000 8.1749 0.0000
# 6 0.0000 0.0000 0.0000 0.0000 0.0000 -4.3919
#
#
#
# Elastic Compliance Matrix: (Units=1/GPa)
#
#
# Indices 1 2 3 4 5 6 
#
# 1 0.014548 -0.000038 -0.010398 0.000000 0.000000 0.000000
# 2 -0.000038 0.025478 -0.001035 0.000000 0.000000 0.000000
# 3 -0.010398 -0.001035 0.015792 0.000000 0.000000 0.000000
# 4 0.000000 0.000000 0.000000 -0.035474 0.000000 0.000000
# 5 0.000000 0.000000 0.000000 0.000000 0.122326 0.000000
# 6 0.000000 0.000000 0.000000 0.000000 0.000000 -0.227693
#
#
# Mechanical properties :
#
#
# Convention : Reuss Voigt Hill
#
# Bulk Modulus (GPa) = 30.41857 53.24599 41.83228
# Shear Modulus (GPa) = -97.80711 8.13365 -44.83673
#
# Velocity S-wave (km/s) = -7.18827 2.07292 -4.86694
# Velocity P-wave (km/s) = 7.26807 5.81885 3.07944
#
# Compressibility (1/GPa) = 0.03287466
#
# Stress axis : x y z
#
# Youngs Moduli (GPa) = 68.73577 39.24972 63.32478
#
# Poissons Ratio (x) = 0.00151 0.65844
# Poissons Ratio (y) = 0.00264 0.06557
# Poissons Ratio (z) = 0.71470 0.04064
#
# Static dielectric constant tensor:
#      x y z
#    x 1.668610 0.000000 0.000000 
#    y 0.000000 1.699970 0.000000 
#    z 0.000000 0.000000 1.656750 
# 
# From -- ./inp_files/30335.got.cif
#   From: 2010.05.17/outbox.cif.g08.bks.cpg/sg51_16_cif.got.tgz:30335.got - 2010.06.03 11:52:47.
