data_PCOD9399300
_publ_section_title
;
Structure prediction by ZEFSAII (Michael W. Deem and Ramdas Pophale) SiO2 
 PCOD9399300
Probable space group: P M M A
;
_chemical_formula_sum "Si O2"
_cell_formula_units_Z 44
_cell_length_a 8.679818
_cell_length_b 21.838217
_cell_length_c 14.505285
_cell_angle_alpha 90.000000
_cell_angle_beta 90.000000
_cell_angle_gamma 90.000000
_cell_volume 2749.502142
_symmetry_space_group_name_H-M "P M M A"
_symmetry_group_IT_number 51
_symmetry_cell_setting 'orthorhombic'
loop_
_space_group_symop_operation_xyz
x,y,z
1/2-x,-y,z
1/2+x,-y,-z
-x,y,-z
-x,-y,-z
1/2+x,y,-z
1/2-x,y,z
x,-y,z
loop_
_atom_site_type_symbol
_atom_site_label
_atom_site_fract_x
_atom_site_fract_y
_atom_site_fract_z
Si Si1 0.566026 0.685139 0.212799
Si Si2 0.435123 0.568986 0.103876
Si Si3 0.934968 0.799775 0.896071
Si Si4 0.434006 0.500000 0.395842
Si Si5 0.935897 0.065773 0.895900
Si Si6 0.566220 0.372295 0.397887
O O1 0.750000 0.686343 0.202675
O O2 0.503537 0.624546 0.162017
O O3 0.495884 0.744936 0.166097
O O4 0.529705 0.678402 0.321409
O O5 0.250000 0.573900 0.102276
O O6 0.474098 0.500000 0.138112
O O7 0.500000 0.573576 0.000000
O O8 0.750000 0.796959 0.900833
O O9 0.981811 0.867442 0.858534
O O10 0.000000 0.793451 0.000000
O O11 0.250000 0.500000 0.394727
O O12 0.500000 0.500000 0.500000
O O13 0.497104 0.436045 0.358915
O O14 0.750000 0.065730 0.899105
O O15 0.984243 0.000000 0.853373
O O16 0.000000 0.065429 0.000000
O O17 0.500000 0.361088 0.500000
O O18 0.750000 0.379313 0.405641
#
# Coordination Sequence:
#
# PCOD9399300 Si02
#       6
#     8   8   8   4   8   8
#     4  11  23  35  49  68  93 123 155 192 234 281
#     4  10  21  36  52  69  89 117 155 196 236 275
#     4  10  19  31  48  69  97 130 162 195 229 269
#     4  10  18  30  50  70  89 110 137 178 228 282
#     4   8  14  25  42  65  92 123 157 190 224 263
#     4  10  21  36  52  70  91 117 148 189 238 286
#
# _framework density 16.002897999999998
#
# number of rings (size 3 to 8) (size 9 to 14) (size 15 to 20)
#    0.000    2.182    0.000    4.636    1.273    4.727 
#    0.000    0.000    0.000    0.000    0.000    0.000 
#    0.000    0.727    0.000    1.636    0.000    2.909 
#
# Total GULP energy -245255.564548 kJ/mol
# GULP energy per Si atom -5573.990103 kJ/mol
# Density = 1.596647 g / cm^3
# Si number density = 16.002898 Si / 1000 Ang^3
#
#
#
# Elastic Constant Matrix: (Units=GPa)
#
#
# Indices 1 2 3 4 5 6 
#
# 1 56.2936 46.9711 32.6122 0.0000 0.0000 0.0000
# 2 46.9711 164.0648 69.3373 0.0000 0.0000 0.0000
# 3 32.6122 69.3373 70.0168 0.0000 0.0000 0.0000
# 4 0.0000 0.0000 0.0000 7.8882 0.0000 0.0000
# 5 0.0000 0.0000 0.0000 0.0000 17.9119 0.0000
# 6 0.0000 0.0000 0.0000 0.0000 0.0000 12.1165
#
#
#
# Elastic Compliance Matrix: (Units=1/GPa)
#
#
# Indices 1 2 3 4 5 6 
#
# 1 0.025743 -0.003960 -0.008069 0.000000 0.000000 0.000000
# 2 -0.003960 0.011091 -0.009139 0.000000 0.000000 0.000000
# 3 -0.008069 -0.009139 0.027091 0.000000 0.000000 0.000000
# 4 0.000000 0.000000 0.000000 0.126772 0.000000 0.000000
# 5 0.000000 0.000000 0.000000 0.000000 0.055829 0.000000
# 6 0.000000 0.000000 0.000000 0.000000 0.000000 0.082532
#
#
# Mechanical properties :
#
#
# Convention : Reuss Voigt Hill
#
# Bulk Modulus (GPa) = 46.31971 65.35737 55.83854
# Shear Modulus (GPa) = 13.20691 17.01363 15.11027
#
# Velocity S-wave (km/s) = 2.87589 3.26415 3.07615
# Velocity P-wave (km/s) = 6.32733 7.42535 6.89822
#
# Compressibility (1/GPa) = 0.02158908
#
# Stress axis : x y z
#
# Youngs Moduli (GPa) = 38.84609 90.16079 36.91260
#
# Poissons Ratio (x) = 0.35704 0.29784
# Poissons Ratio (y) = 0.15383 0.33735
# Poissons Ratio (z) = 0.31344 0.82400
#
# Static dielectric constant tensor:
#      x y z
#    x 1.533490 0.000000 0.000000 
#    y 0.000000 1.579690 0.000000 
#    z 0.000000 0.000000 1.519530 
# 
# From -- ./inp_files/21417.got.cif
#   From: 2010.05.17/outbox.cif.g08.bks.cpg/sg51_11_cif.got.tgz:21417.got - 2010.06.03 11:52:47.
