data_PCOD9399498
_publ_section_title
;
Structure prediction by ZEFSAII (Michael W. Deem and Ramdas Pophale) SiO2 
 PCOD9399498
Probable space group: P M M A
;
_chemical_formula_sum "Si O2"
_cell_formula_units_Z 64
_cell_length_a 24.822103
_cell_length_b 8.754940
_cell_length_c 16.618635
_cell_angle_alpha 90.000000
_cell_angle_beta 90.000000
_cell_angle_gamma 90.000000
_cell_volume 3611.495657
_symmetry_space_group_name_H-M "P M M A"
_symmetry_group_IT_number 51
_symmetry_cell_setting 'orthorhombic'
loop_
_space_group_symop_operation_xyz
x,y,z
1/2-x,-y,z
1/2+x,-y,-z
-x,y,-z
-x,-y,-z
1/2+x,y,-z
1/2-x,y,z
x,-y,z
loop_
_atom_site_type_symbol
_atom_site_label
_atom_site_fract_x
_atom_site_fract_y
_atom_site_fract_z
Si Si1 0.613843 0.678975 0.104924
Si Si2 0.100249 0.180085 0.637741
Si Si3 0.976715 0.683490 0.225588
Si Si4 0.688818 0.182029 0.972104
Si Si5 0.940958 0.185309 0.529656
Si Si6 0.188810 0.682769 0.206100
Si Si7 0.687945 0.322314 0.261801
Si Si8 0.415318 0.183677 0.289290
O O1 0.608173 0.500000 0.083495
O O2 0.557765 0.731568 0.146424
O O3 0.656417 0.690958 0.178043
O O4 0.641403 0.766495 0.031654
O O5 0.057413 0.263255 0.696090
O O6 0.096726 0.229229 0.545003
O O7 0.157959 0.217005 0.674617
O O8 0.087877 0.000000 0.641711
O O9 0.978741 0.500000 0.224986
O O10 0.035973 0.752288 0.234732
O O11 0.750000 0.220846 0.002298
O O12 0.682643 0.262343 0.885983
O O13 0.686852 0.000000 0.961564
O O14 0.926014 0.237900 0.618776
O O15 0.000000 0.234134 0.500000
O O16 0.941537 0.000000 0.534225
O O17 0.250000 0.724681 0.231266
O O18 0.183893 0.500000 0.209588
O O19 0.142043 0.758675 0.258223
O O20 0.750000 0.284516 0.251607
O O21 0.682951 0.500000 0.286990
O O22 0.417099 0.000000 0.287409
#
# Coordination Sequence:
#
# PCOD9399498 Si02
#       8
#     8   8   8   8   8   8   8   8
#     4   9  18  32  51  75 106 144 181 216 261 317
#     4  10  18  31  51  74 103 138 179 224 264 310
#     4  10  20  34  51  77 113 147 179 216 265 324
#     4  10  20  34  55  83 110 137 178 229 271 312
#     4   9  17  32  53  79 108 137 174 217 267 322
#     4  10  22  41  62  82 108 142 178 219 270 326
#     4   9  18  32  48  69 104 146 181 216 265 322
#     4  11  21  36  60  84 108 140 179 226 273 319
#
# _framework density 17.721191000000001
#
# number of rings (size 3 to 8) (size 9 to 14) (size 15 to 20)
#    0.000    2.250    1.250    3.000    0.000    4.750 
#    0.000    4.375    0.000    7.500    0.000    0.000 
#    0.000    0.000    0.000    0.000    0.000    0.000 
#
# Total GULP energy -356874.667872 kJ/mol
# GULP energy per Si atom -5576.166685 kJ/mol
# Density = 1.768086 g / cm^3
# Si number density = 17.721191 Si / 1000 Ang^3
#
#
#
# Elastic Constant Matrix: (Units=GPa)
#
#
# Indices 1 2 3 4 5 6 
#
# 1 113.8061 36.7354 49.8153 0.0000 0.0000 0.0000
# 2 36.7354 43.2921 26.2357 0.0000 0.0000 0.0000
# 3 49.8153 26.2357 70.8344 0.0000 0.0000 0.0000
# 4 0.0000 0.0000 0.0000 44.0597 0.0000 0.0000
# 5 0.0000 0.0000 0.0000 0.0000 26.5004 0.0000
# 6 0.0000 0.0000 0.0000 0.0000 0.0000 28.9455
#
#
#
# Elastic Compliance Matrix: (Units=1/GPa)
#
#
# Indices 1 2 3 4 5 6 
#
# 1 0.014532 -0.007914 -0.007288 0.000000 0.000000 0.000000
# 2 -0.007914 0.034094 -0.007062 0.000000 0.000000 0.000000
# 3 -0.007288 -0.007062 0.021859 0.000000 0.000000 0.000000
# 4 0.000000 0.000000 0.000000 0.022696 0.000000 0.000000
# 5 0.000000 0.000000 0.000000 0.000000 0.037735 0.000000
# 6 0.000000 0.000000 0.000000 0.000000 0.000000 0.034548
#
#
# Mechanical properties :
#
#
# Convention : Reuss Voigt Hill
#
# Bulk Modulus (GPa) = 38.52760 50.38951 44.45855
# Shear Modulus (GPa) = 22.86812 27.57755 25.22283
#
# Velocity S-wave (km/s) = 3.59617 3.94914 3.77678
# Velocity P-wave (km/s) = 6.24751 7.02073 6.64537
#
# Compressibility (1/GPa) = 0.02595542
#
# Stress axis : x y z
#
# Youngs Moduli (GPa) = 68.81490 29.33064 45.74807
#
# Poissons Ratio (x) = 0.23212 0.33343
# Poissons Ratio (y) = 0.54460 0.32308
# Poissons Ratio (z) = 0.50156 0.20714
#
# Static dielectric constant tensor:
#      x y z
#    x 1.613330 0.000000 0.000000 
#    y 0.000000 1.605510 0.000000 
#    z 0.000000 0.000000 1.597010 
# 
# From -- ./inp_files/26166.got.cif
#   From: 2010.05.17/outbox.cif.g08.bks.cpg/sg51_14_cif.got.tgz:26166.got - 2010.06.03 11:52:47.
