data_PCOD9399234
_publ_section_title
;
Structure prediction by ZEFSAII (Michael W. Deem and Ramdas Pophale) SiO2 
 PCOD9399234
Probable space group: P M M A
;
_chemical_formula_sum "Si O2"
_cell_formula_units_Z 64
_cell_length_a 25.855964
_cell_length_b 8.933432
_cell_length_c 17.513148
_cell_angle_alpha 90.000000
_cell_angle_beta 90.000000
_cell_angle_gamma 90.000000
_cell_volume 4045.230641
_symmetry_space_group_name_H-M "P M M A"
_symmetry_group_IT_number 51
_symmetry_cell_setting 'orthorhombic'
loop_
_space_group_symop_operation_xyz
x,y,z
1/2-x,-y,z
1/2+x,-y,-z
-x,y,-z
-x,-y,-z
1/2+x,y,-z
1/2-x,y,z
x,-y,z
loop_
_atom_site_type_symbol
_atom_site_label
_atom_site_fract_x
_atom_site_fract_y
_atom_site_fract_z
Si Si1 0.309990 0.820693 0.924207
Si Si2 0.899058 0.179816 0.813513
Si Si3 0.062308 0.678450 0.657770
Si Si4 0.560521 0.678592 0.660220
Si Si5 0.062814 0.172706 0.498772
Si Si6 0.810694 0.678407 0.912362
Si Si7 0.000978 0.818058 0.087497
Si Si8 0.401646 0.819366 0.812172
O O1 0.250000 0.787261 0.906268
O O2 0.349372 0.779844 0.857119
O O3 0.314545 0.000000 0.936457
O O4 0.323813 0.739813 0.003249
O O5 0.910022 0.244797 0.729957
O O6 0.847335 0.243215 0.851231
O O7 0.947315 0.226444 0.867637
O O8 0.897772 0.000000 0.810909
O O9 0.067330 0.500000 0.654451
O O10 0.079393 0.749637 0.577420
O O11 0.092047 0.745384 0.729903
O O12 0.000963 0.713526 0.668305
O O13 0.566279 0.500000 0.662728
O O14 0.578047 0.741186 0.578147
O O15 0.000000 0.175901 0.500000
O O16 0.079095 0.000000 0.496086
O O17 0.750000 0.712280 0.899513
O O18 0.817506 0.500000 0.909970
O O19 0.950359 0.772952 0.135051
O O20 0.000594 0.000000 0.085287
O O21 0.000000 0.765016 0.000000
O O22 0.403593 0.000000 0.803817
#
# Coordination Sequence:
#
# PCOD9399234 Si02
#       8
#     8   8   8   8   8   8   8   8
#     4   9  18  33  53  74  94 123 167 213 251 287
#     4  11  20  31  50  72  97 128 165 203 240 288
#     4  10  19  30  45  68 100 132 163 198 240 289
#     4  10  19  31  46  68 101 132 160 197 242 289
#     4   9  17  29  47  68  93 127 167 200 235 284
#     4  10  21  36  52  70  95 127 163 206 254 296
#     4   9  17  28  43  65  93 126 160 193 236 286
#     4  10  18  30  48  69  98 130 163 202 243 289
#
# _framework density 15.821101000000001
#
# number of rings (size 3 to 8) (size 9 to 14) (size 15 to 20)
#    0.000    2.250    1.250    2.625    0.000    5.750 
#    0.000    0.000    0.000    1.875    0.000    0.875 
#    0.000    5.000    0.000    0.000    0.000    0.000 
#
# Total GULP energy -357045.539956 kJ/mol
# GULP energy per Si atom -5578.836562 kJ/mol
# Density = 1.578509 g / cm^3
# Si number density = 15.821101 Si / 1000 Ang^3
#
#
#
# Elastic Constant Matrix: (Units=GPa)
#
#
# Indices 1 2 3 4 5 6 
#
# 1 62.5260 40.4293 67.1807 0.0000 0.0000 0.0000
# 2 40.4293 53.4645 63.2320 0.0000 0.0000 0.0000
# 3 67.1807 63.2320 174.4328 0.0000 0.0000 0.0000
# 4 0.0000 0.0000 0.0000 10.4244 0.0000 0.0000
# 5 0.0000 0.0000 0.0000 0.0000 20.0436 0.0000
# 6 0.0000 0.0000 0.0000 0.0000 0.0000 16.4279
#
#
#
# Elastic Compliance Matrix: (Units=1/GPa)
#
#
# Indices 1 2 3 4 5 6 
#
# 1 0.035473 -0.018671 -0.006894 0.000000 0.000000 0.000000
# 2 -0.018671 0.042569 -0.008240 0.000000 0.000000 0.000000
# 3 -0.006894 -0.008240 0.011375 0.000000 0.000000 0.000000
# 4 0.000000 0.000000 0.000000 0.095929 0.000000 0.000000
# 5 0.000000 0.000000 0.000000 0.000000 0.049891 0.000000
# 6 0.000000 0.000000 0.000000 0.000000 0.000000 0.060872
#
#
# Mechanical properties :
#
#
# Convention : Reuss Voigt Hill
#
# Bulk Modulus (GPa) = 45.85802 70.23414 58.04608
# Shear Modulus (GPa) = 13.47755 17.35126 15.41440
#
# Velocity S-wave (km/s) = 2.92185 3.31526 3.12475
# Velocity P-wave (km/s) = 6.35856 7.69049 7.05602
#
# Compressibility (1/GPa) = 0.02180644
#
# Stress axis : x y z
#
# Youngs Moduli (GPa) = 28.19041 23.49153 87.91252
#
# Poissons Ratio (x) = 0.43862 0.60604
# Poissons Ratio (y) = 0.52635 0.72441
# Poissons Ratio (z) = 0.19434 0.19357
#
# Static dielectric constant tensor:
#      x y z
#    x 1.514360 0.000000 0.000000 
#    y 0.000000 1.526460 0.000000 
#    z 0.000000 0.000000 1.510260 
# 
# From -- ./inp_files/26202.got.cif
#   From: 2010.05.17/outbox.cif.g08.bks.cpg/sg51_14_cif.got.tgz:26202.got - 2010.06.03 11:52:47.
