data_PCOD9399204
_publ_section_title
;
Structure prediction by ZEFSAII (Michael W. Deem and Ramdas Pophale) SiO2 
 PCOD9399204
Probable space group: P M M A
;
_chemical_formula_sum "Si O2"
_cell_formula_units_Z 48
_cell_length_a 15.096468
_cell_length_b 17.158897
_cell_length_c 9.057412
_cell_angle_alpha 90.000000
_cell_angle_beta 90.000000
_cell_angle_gamma 90.000000
_cell_volume 2346.220587
_symmetry_space_group_name_H-M "P M M A"
_symmetry_group_IT_number 51
_symmetry_cell_setting 'orthorhombic'
loop_
_space_group_symop_operation_xyz
x,y,z
1/2-x,-y,z
1/2+x,-y,-z
-x,y,-z
-x,-y,-z
1/2+x,y,-z
1/2-x,y,z
x,-y,z
loop_
_atom_site_type_symbol
_atom_site_label
_atom_site_fract_x
_atom_site_fract_y
_atom_site_fract_z
Si Si1 0.849307 0.127302 0.212262
Si Si2 0.606841 0.000000 0.984801
Si Si3 0.346871 0.302228 0.689366
Si Si4 0.490680 0.588582 0.321357
Si Si5 0.148452 0.000000 0.359743
Si Si6 0.466134 0.854789 0.354083
Si Si7 0.148703 0.715990 0.331368
O O1 0.750000 0.108333 0.277047
O O2 0.852929 0.221146 0.220972
O O3 0.946610 0.108871 0.280847
O O4 0.855007 0.077144 0.063574
O O5 0.636111 0.000000 0.816495
O O6 0.500000 0.000000 0.000000
O O7 0.250000 0.337264 0.717028
O O8 0.425684 0.360124 0.728509
O O9 0.349317 0.283126 0.512472
O O10 0.500000 0.585609 0.500000
O O11 0.489822 0.500000 0.266896
O O12 0.402398 0.637541 0.288034
O O13 0.098303 0.922721 0.408453
O O14 0.250000 0.000000 0.402061
O O15 0.500000 0.811709 0.500000
O O16 0.407907 0.789940 0.272878
O O17 0.250000 0.719944 0.281864
#
# Coordination Sequence:
#
# PCOD9399204 Si02
#       7
#     8   4   8   8   4   8   8
#     4  11  21  36  58  78 103 140 185 230 272 321
#     4  12  24  43  60  76 103 142 180 232 278 321
#     4   9  17  30  48  72 102 139 179 224 269 318
#     4   9  16  27  43  67 101 140 180 219 264 325
#     4  12  27  41  56  79 109 142 180 225 276 325
#     4  12  21  37  56  80 110 143 181 224 271 329
#     4  10  18  30  47  70 105 142 179 219 265 321
#
# _framework density 20.458435000000001
#
# number of rings (size 3 to 8) (size 9 to 14) (size 15 to 20)
#    0.000    1.500    5.000    2.000    0.000    1.333 
#    0.000    3.333    0.000    0.000    0.000    0.000 
#    0.000    6.000    0.000    9.333    0.000    2.333 
#
# Total GULP energy -267462.719248 kJ/mol
# GULP energy per Si atom -5572.139984 kJ/mol
# Density = 2.041187 g / cm^3
# Si number density = 20.458435 Si / 1000 Ang^3
#
#
#
# Elastic Constant Matrix: (Units=GPa)
#
#
# Indices 1 2 3 4 5 6 
#
# 1 202.3748 63.4966 8.1183 0.0000 0.0000 0.0000
# 2 63.4966 119.4731 13.9378 0.0000 0.0000 0.0000
# 3 8.1183 13.9378 27.9082 0.0000 0.0000 0.0000
# 4 0.0000 0.0000 0.0000 -7.7902 0.0000 0.0000
# 5 0.0000 0.0000 0.0000 0.0000 15.1329 0.0000
# 6 0.0000 0.0000 0.0000 0.0000 0.0000 0.6126
#
#
#
# Elastic Compliance Matrix: (Units=1/GPa)
#
#
# Indices 1 2 3 4 5 6 
#
# 1 0.005931 -0.003133 -0.000160 0.000000 0.000000 0.000000
# 2 -0.003133 0.010543 -0.004354 0.000000 0.000000 0.000000
# 3 -0.000160 -0.004354 0.038053 0.000000 0.000000 0.000000
# 4 0.000000 0.000000 0.000000 -0.128367 0.000000 0.000000
# 5 0.000000 0.000000 0.000000 0.000000 0.066081 0.000000
# 6 0.000000 0.000000 0.000000 0.000000 0.000000 1.632351
#
#
# Mechanical properties :
#
#
# Convention : Reuss Voigt Hill
#
# Bulk Modulus (GPa) = 25.48974 57.87351 41.68163
# Shear Modulus (GPa) = 3.02487 19.20463 11.11475
#
# Velocity S-wave (km/s) = 1.21727 3.06717 2.33337
# Velocity P-wave (km/s) = 3.80289 6.39477 5.26095
#
# Compressibility (1/GPa) = 0.03923147
#
# Stress axis : x y z
#
# Youngs Moduli (GPa) = 168.60885 94.84654 26.27923
#
# Poissons Ratio (x) = 0.29719 0.00421
# Poissons Ratio (y) = 0.52832 0.11442
# Poissons Ratio (z) = 0.02704 0.41297
#
# Static dielectric constant tensor:
#      x y z
#    x 1.773220 0.000000 0.000000 
#    y 0.000000 1.704400 0.000000 
#    z 0.000000 0.000000 1.721570 
# 
# From -- ./inp_files/8363.got.cif
#   From: 2010.05.17/outbox.cif.g08.bks.cpg/sg51_5_cif.got.tgz:8363.got - 2010.06.03 11:52:47.
