data_PCOD9399159
_publ_section_title
;
Structure prediction by ZEFSAII (Michael W. Deem and Ramdas Pophale) SiO2 
 PCOD9399159
Probable space group: P M M A
;
_chemical_formula_sum "Si O2"
_cell_formula_units_Z 52
_cell_length_a 7.701902
_cell_length_b 15.687162
_cell_length_c 20.791748
_cell_angle_alpha 90.000000
_cell_angle_beta 90.000000
_cell_angle_gamma 90.000000
_cell_volume 2512.079460
_symmetry_space_group_name_H-M "P M M A"
_symmetry_group_IT_number 51
_symmetry_cell_setting 'orthorhombic'
loop_
_space_group_symop_operation_xyz
x,y,z
1/2-x,-y,z
1/2+x,-y,-z
-x,y,-z
-x,-y,-z
1/2+x,y,-z
1/2-x,y,z
x,-y,z
loop_
_atom_site_type_symbol
_atom_site_label
_atom_site_fract_x
_atom_site_fract_y
_atom_site_fract_z
Si Si1 0.040332 0.775095 0.816447
Si Si2 0.541422 0.903699 0.073689
Si Si3 0.543554 0.158055 0.574762
Si Si4 0.043514 0.500000 0.427056
Si Si5 0.543005 0.598237 0.776836
Si Si6 0.462879 0.668505 0.359610
Si Si7 0.456871 0.907734 0.710681
O O1 0.250000 0.774867 0.814509
O O2 0.979522 0.834535 0.875113
O O3 0.976958 0.826168 0.751616
O O4 0.987782 0.676294 0.825593
O O5 0.750000 0.906711 0.080149
O O6 0.475623 0.000000 0.086011
O O7 0.500000 0.881918 0.000000
O O8 0.500000 0.140126 0.500000
O O9 0.750000 0.159781 0.576309
O O10 0.475746 0.249232 0.601216
O O11 0.487421 0.098682 0.634115
O O12 0.250000 0.500000 0.415434
O O13 0.976665 0.413913 0.397490
O O14 0.000000 0.500000 0.500000
O O15 0.750000 0.589509 0.769753
O O16 0.477833 0.500000 0.785644
O O17 0.476375 0.644974 0.711990
O O18 0.250000 0.673592 0.358084
O O19 0.250000 0.908035 0.720584
O O20 0.524408 0.000000 0.733616
#
# Coordination Sequence:
#
# PCOD9399159 Si02
#       7
#     8   8   8   4   8   8   8
#     4  10  20  35  57  84 115 146 178 222 272 318
#     4   9  18  34  57  87 122 156 185 216 261 317
#     4  11  22  36  53  72  98 134 177 226 278 330
#     4  10  18  30  46  66  92 124 161 206 265 326
#     4  10  19  34  56  79 106 142 182 224 271 323
#     4   9  17  31  50  69  94 128 166 212 267 323
#     4  10  21  37  56  78 104 137 178 222 271 328
#
# _framework density 20.699981999999999
#
# number of rings (size 3 to 8) (size 9 to 14) (size 15 to 20)
#    0.000    2.154    2.308    1.385    0.000    3.385 
#    0.000    1.538    0.000    3.231    0.000    0.000 
#    0.000    0.000    0.000    0.000    0.000    0.000 
#
# Total GULP energy -289706.606182 kJ/mol
# GULP energy per Si atom -5571.280888 kJ/mol
# Density = 2.065287 g / cm^3
# Si number density = 20.699982 Si / 1000 Ang^3
#
#
#
# Elastic Constant Matrix: (Units=GPa)
#
#
# Indices 1 2 3 4 5 6 
#
# 1 35.2237 5.6853 -5.5358 0.0000 0.0000 0.0000
# 2 5.6853 168.1140 61.8246 0.0000 0.0000 0.0000
# 3 -5.5358 61.8246 95.3207 0.0000 0.0000 0.0000
# 4 0.0000 0.0000 0.0000 30.7467 0.0000 0.0000
# 5 0.0000 0.0000 0.0000 0.0000 16.5258 0.0000
# 6 0.0000 0.0000 0.0000 0.0000 0.0000 15.6009
#
#
#
# Elastic Compliance Matrix: (Units=1/GPa)
#
#
# Indices 1 2 3 4 5 6 
#
# 1 0.029214 -0.002117 0.003070 0.000000 0.000000 0.000000
# 2 -0.002117 0.007965 -0.005289 0.000000 0.000000 0.000000
# 3 0.003070 -0.005289 0.014100 0.000000 0.000000 0.000000
# 4 0.000000 0.000000 0.000000 0.032524 0.000000 0.000000
# 5 0.000000 0.000000 0.000000 0.000000 0.060512 0.000000
# 6 0.000000 0.000000 0.000000 0.000000 0.000000 0.064099
#
#
# Mechanical properties :
#
#
# Convention : Reuss Voigt Hill
#
# Bulk Modulus (GPa) = 23.47078 46.95629 35.21354
# Shear Modulus (GPa) = 21.61810 28.35360 24.98585
#
# Velocity S-wave (km/s) = 3.23515 3.70502 3.47803
# Velocity P-wave (km/s) = 5.03171 6.40596 5.75997
#
# Compressibility (1/GPa) = 0.04260617
#
# Stress axis : x y z
#
# Youngs Moduli (GPa) = 34.23009 125.54963 70.92406
#
# Poissons Ratio (x) = 0.26576 -0.21771
# Poissons Ratio (y) = 0.07246 0.37512
# Poissons Ratio (z) = -0.10507 0.66403
#
# Static dielectric constant tensor:
#      x y z
#    x 1.769820 0.000000 0.000000 
#    y 0.000000 1.796260 0.000000 
#    z 0.000000 0.000000 1.790240 
# 
# From -- ./inp_files/31795.got.cif
#   From: 2010.05.17/outbox.cif.g08.bks.cpg/sg51_16_cif.got.tgz:31795.got - 2010.06.03 11:52:47.
