data_PCOD9399033
_publ_section_title
;
Structure prediction by ZEFSAII (Michael W. Deem and Ramdas Pophale) SiO2 
 PCOD9399033
Probable space group: P M M A
;
_chemical_formula_sum "Si O2"
_cell_formula_units_Z 64
_cell_length_a 29.148657
_cell_length_b 7.427733
_cell_length_c 15.049125
_cell_angle_alpha 90.000000
_cell_angle_beta 90.000000
_cell_angle_gamma 90.000000
_cell_volume 3258.262600
_symmetry_space_group_name_H-M "P M M A"
_symmetry_group_IT_number 51
_symmetry_cell_setting 'orthorhombic'
loop_
_space_group_symop_operation_xyz
x,y,z
1/2-x,-y,z
1/2+x,-y,-z
-x,y,-z
-x,-y,-z
1/2+x,y,-z
1/2-x,y,z
x,-y,z
loop_
_atom_site_type_symbol
_atom_site_label
_atom_site_fract_x
_atom_site_fract_y
_atom_site_fract_z
Si Si1 0.884265 0.220459 0.522669
Si Si2 0.882414 0.793041 0.973212
Si Si3 0.961219 0.710019 0.837456
Si Si4 0.573215 0.219961 0.344933
Si Si5 0.529235 0.207491 0.633700
Si Si6 0.802724 0.780174 0.848582
Si Si7 0.067077 0.782133 0.855566
Si Si8 0.302427 0.780549 0.352975
O O1 0.890916 0.273358 0.420326
O O2 0.929386 0.283376 0.576199
O O3 0.839076 0.280463 0.574601
O O4 0.883852 0.000000 0.525385
O O5 0.925095 0.792368 0.905176
O O6 0.839089 0.714102 0.920801
O O7 0.870042 0.000000 0.993003
O O8 0.901014 0.713139 0.065174
O O9 0.950882 0.500000 0.831508
O O10 0.958263 0.787391 0.738016
O O11 0.013724 0.732985 0.868818
O O12 0.522087 0.283489 0.372738
O O13 0.581040 0.277487 0.243529
O O14 0.571778 0.000000 0.343310
O O15 0.525152 0.000000 0.605314
O O16 0.750000 0.728040 0.865490
O O17 0.815116 0.725624 0.747717
O O18 0.804111 0.000000 0.848772
O O19 0.068324 0.000000 0.856978
O O20 0.250000 0.724570 0.370047
O O21 0.302652 0.000000 0.353299
#
# Coordination Sequence:
#
# PCOD9399033 Si02
#       8
#     8   8   8   8   8   8   8   8
#     4   9  14  21  39  62  81 106 141 176 206 242
#     4  10  18  29  47  66  84 112 149 182 212 251
#     4  11  21  30  42  63  91 118 142 174 217 260
#     4   8  14  24  38  58  81 104 137 178 211 240
#     4   9  16  27  43  62  83 109 142 176 209 249
#     4   8  14  25  42  65  89 109 135 175 217 255
#     4   9  18  31  45  61  84 115 149 182 213 249
#     4   8  13  20  31  53  85 112 131 159 205 255
#
# _framework density 19.642372000000002
#
# number of rings (size 3 to 8) (size 9 to 14) (size 15 to 20)
#    0.000    3.000    0.000    4.125    0.000    5.500 
#    0.000    0.000    0.000    7.125    0.000    5.250 
#    0.000    0.000    0.000    0.375    0.000    2.500 
#
# Total GULP energy -357072.930887 kJ/mol
# GULP energy per Si atom -5579.264545 kJ/mol
# Density = 1.959766 g / cm^3
# Si number density = 19.642372 Si / 1000 Ang^3
#
#
#
# Elastic Constant Matrix: (Units=GPa)
#
#
# Indices 1 2 3 4 5 6 
#
# 1 104.6470 -2.9563 100.0194 0.0000 0.0000 0.0000
# 2 -2.9563 65.1776 -6.0849 0.0000 0.0000 0.0000
# 3 100.0194 -6.0849 128.5429 0.0000 0.0000 0.0000
# 4 0.0000 0.0000 0.0000 -22.4468 0.0000 0.0000
# 5 0.0000 0.0000 0.0000 0.0000 36.9120 0.0000
# 6 0.0000 0.0000 0.0000 0.0000 0.0000 -33.1043
#
#
#
# Elastic Compliance Matrix: (Units=1/GPa)
#
#
# Indices 1 2 3 4 5 6 
#
# 1 0.037351 -0.001024 -0.029111 0.000000 0.000000 0.000000
# 2 -0.001024 0.015439 0.001527 0.000000 0.000000 0.000000
# 3 -0.029111 0.001527 0.030503 0.000000 0.000000 0.000000
# 4 0.000000 0.000000 0.000000 -0.044550 0.000000 0.000000
# 5 0.000000 0.000000 0.000000 0.000000 0.027091 0.000000
# 6 0.000000 0.000000 0.000000 0.000000 0.000000 -0.030208
#
#
# Mechanical properties :
#
#
# Convention : Reuss Voigt Hill
#
# Bulk Modulus (GPa) = 38.34653 53.36931 45.85792
# Shear Modulus (GPa) = 49.24389 10.09813 29.67101
#
# Velocity S-wave (km/s) = 5.01245 2.26984 3.89081
# Velocity P-wave (km/s) = 7.28452 5.83944 6.60164
#
# Compressibility (1/GPa) = 0.02607798
#
# Stress axis : x y z
#
# Youngs Moduli (GPa) = 26.77300 64.77160 32.78323
#
# Poissons Ratio (x) = 0.06630 0.95436
# Poissons Ratio (y) = 0.02741 -0.05007
# Poissons Ratio (z) = 0.77940 -0.09893
#
# Static dielectric constant tensor:
#      x y z
#    x 1.664390 0.000000 0.000000 
#    y 0.000000 1.778830 0.000000 
#    z 0.000000 0.000000 1.691480 
# 
# From -- ./inp_files/26616.got.cif
#   From: 2010.05.17/outbox.cif.g08.bks.cpg/sg51_14_cif.got.tgz:26616.got - 2010.06.03 11:52:47.
