data_PCOD9399658
_publ_section_title
;
Structure prediction by ZEFSAII (Michael W. Deem and Ramdas Pophale) SiO2 
 PCOD9399658
Probable space group: P M M A
;
_chemical_formula_sum "Si O2"
_cell_formula_units_Z 40
_cell_length_a 8.487857
_cell_length_b 13.488216
_cell_length_c 19.773690
_cell_angle_alpha 90.000000
_cell_angle_beta 90.000000
_cell_angle_gamma 90.000000
_cell_volume 2263.811634
_symmetry_space_group_name_H-M "P M M A"
_symmetry_group_IT_number 51
_symmetry_cell_setting 'orthorhombic'
loop_
_space_group_symop_operation_xyz
x,y,z
1/2-x,-y,z
1/2+x,-y,-z
-x,y,-z
-x,-y,-z
1/2+x,y,-z
1/2-x,y,z
x,-y,z
loop_
_atom_site_type_symbol
_atom_site_label
_atom_site_fract_x
_atom_site_fract_y
_atom_site_fract_z
Si Si1 0.560209 0.500000 0.576985
Si Si2 0.941986 0.888610 0.676289
Si Si3 0.441013 0.283692 0.423067
Si Si4 0.062707 0.500000 0.077217
Si Si5 0.559623 0.886772 0.832728
Si Si6 0.063123 0.291671 0.923368
O O1 0.750000 0.500000 0.577379
O O2 0.500000 0.500000 0.500000
O O3 0.509699 0.392723 0.604483
O O4 0.750000 0.887860 0.675113
O O5 0.997469 0.804443 0.625088
O O6 0.986780 0.870783 0.754306
O O7 0.992288 0.000000 0.657184
O O8 0.500000 0.272894 0.500000
O O9 0.250000 0.281326 0.424585
O O10 0.250000 0.500000 0.076760
O O11 0.002711 0.395619 0.106302
O O12 0.000000 0.500000 0.000000
O O13 0.750000 0.881393 0.836316
O O14 0.488998 0.802635 0.879987
O O15 0.514431 0.000000 0.851279
O O16 0.250000 0.298848 0.926243
O O17 0.000000 0.281171 0.000000
#
# Coordination Sequence:
#
# PCOD9399658 Si02
#       6
#     4   8   8   4   8   8
#     4   8  14  24  39  60  87 117 147 183 225 272
#     4   8  15  29  48  67  90 122 157 194 238 287
#     4   9  16  27  44  66  91 119 154 193 234 280
#     4  10  18  32  53  76 103 133 165 199 241 290
#     4   9  18  34  53  71  95 130 169 206 248 299
#     4  11  21  34  53  77 104 131 163 203 247 294
#
# _framework density 17.669315999999998
#
# number of rings (size 3 to 8) (size 9 to 14) (size 15 to 20)
#    0.000    2.800    0.000    5.100    0.000    1.200 
#    0.000    2.000    0.000    4.800    0.000    2.800 
#    0.000    0.000    0.000    0.000    0.000    0.000 
#
# Total GULP energy -222816.971176 kJ/mol
# GULP energy per Si atom -5570.424279 kJ/mol
# Density = 1.762910 g / cm^3
# Si number density = 17.669316 Si / 1000 Ang^3
#
#
#
# Elastic Constant Matrix: (Units=GPa)
#
#
# Indices 1 2 3 4 5 6 
#
# 1 57.7037 48.6308 22.2957 0.0000 0.0000 0.0000
# 2 48.6308 214.5292 94.4923 0.0000 0.0000 0.0000
# 3 22.2957 94.4923 64.1712 0.0000 0.0000 0.0000
# 4 0.0000 0.0000 0.0000 -26.6521 0.0000 0.0000
# 5 0.0000 0.0000 0.0000 0.0000 17.1857 0.0000
# 6 0.0000 0.0000 0.0000 0.0000 0.0000 21.7167
#
#
#
# Elastic Compliance Matrix: (Units=1/GPa)
#
#
# Indices 1 2 3 4 5 6 
#
# 1 0.021438 -0.004493 -0.000832 0.000000 0.000000 0.000000
# 2 -0.004493 0.014206 -0.019358 0.000000 0.000000 0.000000
# 3 -0.000832 -0.019358 0.044377 0.000000 0.000000 0.000000
# 4 0.000000 0.000000 0.000000 -0.037521 0.000000 0.000000
# 5 0.000000 0.000000 0.000000 0.000000 0.058188 0.000000
# 6 0.000000 0.000000 0.000000 0.000000 0.000000 0.046048
#
#
# Mechanical properties :
#
#
# Convention : Reuss Voigt Hill
#
# Bulk Modulus (GPa) = 32.62132 74.13796 53.37964
# Shear Modulus (GPa) = 24.23417 13.84910 19.04163
#
# Velocity S-wave (km/s) = 3.70745 2.80267 3.28634
# Velocity P-wave (km/s) = 6.06870 7.24727 6.68401
#
# Compressibility (1/GPa) = 0.03065480
#
# Stress axis : x y z
#
# Youngs Moduli (GPa) = 46.64580 70.39189 22.53438
#
# Poissons Ratio (x) = 0.31628 0.01876
# Poissons Ratio (y) = 0.20958 0.43621
# Poissons Ratio (z) = 0.03883 1.36262
#
# Static dielectric constant tensor:
#      x y z
#    x 1.600790 0.000000 0.000000 
#    y 0.000000 1.644250 0.000000 
#    z 0.000000 0.000000 1.566440 
# 
# From -- ./inp_files/31392.got.cif
#   From: 2010.05.17/outbox.cif.g08.bks.cpg/sg51_16_cif.got.tgz:31392.got - 2010.06.03 11:52:47.
