data_PCOD9399372
_publ_section_title
;
Structure prediction by ZEFSAII (Michael W. Deem and Ramdas Pophale) SiO2 
 PCOD9399372
Probable space group: P M M A
;
_chemical_formula_sum "Si O2"
_cell_formula_units_Z 64
_cell_length_a 29.560213
_cell_length_b 7.623704
_cell_length_c 12.654254
_cell_angle_alpha 90.000000
_cell_angle_beta 90.000000
_cell_angle_gamma 90.000000
_cell_volume 2851.741347
_symmetry_space_group_name_H-M "P M M A"
_symmetry_group_IT_number 51
_symmetry_cell_setting 'orthorhombic'
loop_
_space_group_symop_operation_xyz
x,y,z
1/2-x,-y,z
1/2+x,-y,-z
-x,y,-z
-x,-y,-z
1/2+x,y,-z
1/2-x,y,z
x,-y,z
loop_
_atom_site_type_symbol
_atom_site_label
_atom_site_fract_x
_atom_site_fract_y
_atom_site_fract_z
Si Si1 0.038633 0.709086 0.754502
Si Si2 0.298356 0.213982 0.696660
Si Si3 0.657410 0.702574 0.756183
Si Si4 0.943211 0.713197 0.705070
Si Si5 0.322677 0.201155 0.472865
Si Si6 0.199813 0.203661 0.030227
Si Si7 0.371577 0.211151 0.862282
Si Si8 0.924657 0.286869 0.471900
O O1 0.034953 0.500000 0.743352
O O2 0.076499 0.740122 0.842846
O O3 0.056549 0.775226 0.640364
O O4 0.987239 0.773599 0.769089
O O5 0.250000 0.259708 0.746881
O O6 0.299148 0.277332 0.576288
O O7 0.341489 0.273564 0.762510
O O8 0.300691 0.000000 0.693039
O O9 0.653652 0.500000 0.787020
O O10 0.606222 0.776448 0.742132
O O11 0.680316 0.712316 0.641123
O O12 0.686089 0.790948 0.847469
O O13 0.940186 0.500000 0.709754
O O14 0.950830 0.755598 0.580723
O O15 0.375154 0.210961 0.507053
O O16 0.308451 0.000000 0.459656
O O17 0.250000 0.281803 0.014802
O O18 0.203263 0.000000 0.997436
O O19 0.157473 0.275628 0.962584
O O20 0.371607 0.000000 0.863199
O O21 0.921388 0.500000 0.468254
#
# Coordination Sequence:
#
# PCOD9399372 Si02
#       8
#     8   8   8   8   8   8   8   8
#     4  10  18  30  52  79 110 147 187 225 268 322
#     4   9  17  30  50  75 104 139 175 213 264 327
#     4  10  21  38  59  81 110 143 182 232 279 322
#     4   8  16  31  51  77 108 148 189 222 263 322
#     4  10  18  30  51  79 111 144 179 219 269 328
#     4  10  22  41  64  84 103 137 185 231 277 333
#     4  10  20  36  56  80 109 139 179 229 276 324
#     4   9  16  28  48  74 108 147 186 223 261 309
#
# _framework density 22.442428
#
# number of rings (size 3 to 8) (size 9 to 14) (size 15 to 20)
#    0.000    2.500    1.250    2.250    0.000    4.250 
#    0.000    5.000    0.000   11.250    0.000    0.000 
#    0.000    0.000    0.000    0.000    0.000    0.000 
#
# Total GULP energy -357006.824308 kJ/mol
# GULP energy per Si atom -5578.231630 kJ/mol
# Density = 2.239135 g / cm^3
# Si number density = 22.442428 Si / 1000 Ang^3
#
#
#
# Elastic Constant Matrix: (Units=GPa)
#
#
# Indices 1 2 3 4 5 6 
#
# 1 48.4460 2.9004 7.7302 0.0000 0.0000 0.0000
# 2 2.9004 45.3605 -1.5768 0.0000 0.0000 0.0000
# 3 7.7302 -1.5768 65.5277 0.0000 0.0000 0.0000
# 4 0.0000 0.0000 0.0000 -1.3698 0.0000 0.0000
# 5 0.0000 0.0000 0.0000 0.0000 16.3283 0.0000
# 6 0.0000 0.0000 0.0000 0.0000 0.0000 13.6557
#
#
#
# Elastic Compliance Matrix: (Units=1/GPa)
#
#
# Indices 1 2 3 4 5 6 
#
# 1 0.021131 -0.001439 -0.002527 0.000000 0.000000 0.000000
# 2 -0.001439 0.022162 0.000703 0.000000 0.000000 0.000000
# 3 -0.002527 0.000703 0.015576 0.000000 0.000000 0.000000
# 4 0.000000 0.000000 0.000000 -0.730058 0.000000 0.000000
# 5 0.000000 0.000000 0.000000 0.000000 0.061243 0.000000
# 6 0.000000 0.000000 0.000000 0.000000 0.000000 0.073229
#
#
# Mechanical properties :
#
#
# Convention : Reuss Voigt Hill
#
# Bulk Modulus (GPa) = 19.10504 19.71571 19.41038
# Shear Modulus (GPa) = -9.75148 15.74155 2.99504
#
# Velocity S-wave (km/s) = -2.08675 2.65131 1.15648
# Velocity P-wave (km/s) = 1.65086 4.26341 3.23280
#
# Compressibility (1/GPa) = 0.05234222
#
# Stress axis : x y z
#
# Youngs Moduli (GPa) = 47.32388 45.12211 64.20219
#
# Poissons Ratio (x) = 0.06493 0.16226
# Poissons Ratio (y) = 0.06810 -0.04514
# Poissons Ratio (z) = 0.11961 -0.03172
#
# Static dielectric constant tensor:
#      x y z
#    x 1.882710 0.000000 0.000000 
#    y 0.000000 1.847900 0.000000 
#    z 0.000000 0.000000 1.816120 
# 
# From -- ./inp_files/19461.got.cif
#   From: 2010.05.17/outbox.cif.g08.bks.cpg/sg51_10_cif.got.tgz:19461.got - 2010.06.03 11:52:47.
