data_PCOD9399152
_publ_section_title
;
Structure prediction by ZEFSAII (Michael W. Deem and Ramdas Pophale) SiO2 
 PCOD9399152
Probable space group: P M M A
;
_chemical_formula_sum "Si O2"
_cell_formula_units_Z 64
_cell_length_a 30.436781
_cell_length_b 8.714882
_cell_length_c 15.424365
_cell_angle_alpha 90.000000
_cell_angle_beta 90.000000
_cell_angle_gamma 90.000000
_cell_volume 4091.358393
_symmetry_space_group_name_H-M "P M M A"
_symmetry_group_IT_number 51
_symmetry_cell_setting 'orthorhombic'
loop_
_space_group_symop_operation_xyz
x,y,z
1/2-x,-y,z
1/2+x,-y,-z
-x,y,-z
-x,-y,-z
1/2+x,y,-z
1/2-x,y,z
x,-y,z
loop_
_atom_site_type_symbol
_atom_site_label
_atom_site_fract_x
_atom_site_fract_y
_atom_site_fract_z
Si Si1 0.881245 0.318013 0.296470
Si Si2 0.530364 0.813698 0.626852
Si Si3 0.109986 0.185440 0.038310
Si Si4 0.199211 0.179943 0.798008
Si Si5 0.462110 0.187161 0.176778
Si Si6 0.938649 0.185474 0.139965
Si Si7 0.934294 0.814796 0.446674
Si Si8 0.799593 0.683671 0.009269
O O1 0.882344 0.500000 0.293409
O O2 0.833839 0.256329 0.268603
O O3 0.914680 0.251741 0.224153
O O4 0.896328 0.258379 0.389906
O O5 0.541234 0.760146 0.723450
O O6 0.480667 0.772881 0.599291
O O7 0.561364 0.766170 0.546999
O O8 0.531365 0.000000 0.628336
O O9 0.077693 0.236555 0.115407
O O10 0.112028 0.000000 0.038868
O O11 0.087196 0.231252 0.947037
O O12 0.159213 0.249541 0.042760
O O13 0.250000 0.194330 0.771837
O O14 0.194599 0.257628 0.892097
O O15 0.188404 0.000000 0.807499
O O16 0.510093 0.231011 0.140043
O O17 0.461520 0.000000 0.177155
O O18 0.937168 0.000000 0.145523
O O19 0.930836 0.000000 0.443662
O O20 0.750000 0.730988 0.981766
O O21 0.801438 0.500000 0.008294
#
# Coordination Sequence:
#
# PCOD9399152 Si02
#       8
#     8   8   8   8   8   8   8   8
#     4  12  22  30  45  70 100 130 157 190 236 286
#     4   8  14  26  48  72  91 118 160 205 239 268
#     4  10  19  29  47  72  95 126 163 197 235 277
#     4  10  20  34  52  71  91 119 157 198 237 281
#     4   9  16  28  47  71  96 124 164 206 238 271
#     4  10  18  30  46  65  95 132 167 196 222 272
#     4   9  16  29  49  69  90 122 162 198 234 279
#     4  10  20  33  48  67  94 125 155 192 238 283
#
# _framework density 15.642726
#
# number of rings (size 3 to 8) (size 9 to 14) (size 15 to 20)
#    0.000    2.250    2.500    3.000    0.000    3.000 
#    0.000    1.875    0.000    1.500    0.000    0.875 
#    0.000    3.000    0.000    0.000    0.000    0.000 
#
# Total GULP energy -356874.707597 kJ/mol
# GULP energy per Si atom -5576.167306 kJ/mol
# Density = 1.560712 g / cm^3
# Si number density = 15.642726 Si / 1000 Ang^3
#
#
#
# Elastic Constant Matrix: (Units=GPa)
#
#
# Indices 1 2 3 4 5 6 
#
# 1 106.5227 28.0316 51.9053 0.0000 0.0000 0.0000
# 2 28.0316 23.1137 17.3542 0.0000 0.0000 0.0000
# 3 51.9053 17.3542 77.6947 0.0000 0.0000 0.0000
# 4 0.0000 0.0000 0.0000 -3.2814 0.0000 0.0000
# 5 0.0000 0.0000 0.0000 0.0000 25.3742 0.0000
# 6 0.0000 0.0000 0.0000 0.0000 0.0000 3.0896
#
#
#
# Elastic Compliance Matrix: (Units=1/GPa)
#
#
# Indices 1 2 3 4 5 6 
#
# 1 0.017301 -0.014783 -0.008256 0.000000 0.000000 0.000000
# 2 -0.014783 0.064614 -0.004556 0.000000 0.000000 0.000000
# 3 -0.008256 -0.004556 0.019404 0.000000 0.000000 0.000000
# 4 0.000000 0.000000 0.000000 -0.304749 0.000000 0.000000
# 5 0.000000 0.000000 0.000000 0.000000 0.039410 0.000000
# 6 0.000000 0.000000 0.000000 0.000000 0.000000 0.323668
#
#
# Mechanical properties :
#
#
# Convention : Reuss Voigt Hill
#
# Bulk Modulus (GPa) = 21.67889 44.65702 33.16795
# Shear Modulus (GPa) = 21.71883 12.37248 17.04565
#
# Velocity S-wave (km/s) = 3.73021 2.81542 3.30462
# Velocity P-wave (km/s) = 5.69574 6.25930 5.98416
#
# Compressibility (1/GPa) = 0.04612782
#
# Stress axis : x y z
#
# Youngs Moduli (GPa) = 57.80084 15.47662 51.53514
#
# Poissons Ratio (x) = 0.22879 0.42548
# Poissons Ratio (y) = 0.85447 0.23481
# Poissons Ratio (z) = 0.47721 0.07052
#
# Static dielectric constant tensor:
#      x y z
#    x 1.525980 0.000000 0.000000 
#    y 0.000000 1.524830 0.000000 
#    z 0.000000 0.000000 1.515550 
# 
# From -- ./inp_files/26673.got.cif
#   From: 2010.05.17/outbox.cif.g08.bks.cpg/sg51_14_cif.got.tgz:26673.got - 2010.06.03 11:52:47.
