data_PCOD9399696
_publ_section_title
;
Structure prediction by ZEFSAII (Michael W. Deem and Ramdas Pophale) SiO2 
 PCOD9399696
Probable space group: P M M A
;
_chemical_formula_sum "Si O2"
_cell_formula_units_Z 64
_cell_length_a 15.077536
_cell_length_b 8.466760
_cell_length_c 25.296637
_cell_angle_alpha 90.000000
_cell_angle_beta 90.000000
_cell_angle_gamma 90.000000
_cell_volume 3229.315018
_symmetry_space_group_name_H-M "P M M A"
_symmetry_group_IT_number 51
_symmetry_cell_setting 'orthorhombic'
loop_
_space_group_symop_operation_xyz
x,y,z
1/2-x,-y,z
1/2+x,-y,-z
-x,y,-z
-x,-y,-z
1/2+x,y,-z
1/2-x,y,z
x,-y,z
loop_
_atom_site_type_symbol
_atom_site_label
_atom_site_fract_x
_atom_site_fract_y
_atom_site_fract_z
Si Si1 0.964542 0.311739 0.120969
Si Si2 0.349268 0.809520 0.096641
Si Si3 0.476136 0.690678 0.680624
Si Si4 0.601139 0.314968 0.520464
Si Si5 0.649893 0.187802 0.635240
Si Si6 0.154697 0.307834 0.591157
Si Si7 0.647646 0.306950 0.221960
Si Si8 0.350044 0.809684 0.973712
O O1 0.965745 0.500000 0.122139
O O2 0.898837 0.256000 0.167488
O O3 0.923208 0.256200 0.065533
O O4 0.065104 0.252285 0.127132
O O5 0.250000 0.758458 0.113639
O O6 0.350418 0.000000 0.098013
O O7 0.360414 0.761600 0.034907
O O8 0.475805 0.500000 0.680300
O O9 0.576710 0.745819 0.675395
O O10 0.424741 0.746966 0.627867
O O11 0.416862 0.742400 0.730218
O O12 0.500000 0.307918 0.500000
O O13 0.623081 0.500000 0.528721
O O14 0.621020 0.231671 0.575388
O O15 0.651638 0.251243 0.469014
O O16 0.750000 0.247982 0.643948
O O17 0.650555 0.000000 0.639936
O O18 0.250000 0.270776 0.615748
O O19 0.147792 0.500000 0.588215
O O20 0.750000 0.254604 0.226761
O O21 0.649596 0.500000 0.222609
O O22 0.250000 0.762470 0.956860
O O23 0.354641 0.000000 0.972484
#
# Coordination Sequence:
#
# PCOD9399696 Si02
#       8
#     8   8   8   8   8   8   8   8
#     4  11  21  32  51  82 116 146 176 219 278 336
#     4   9  19  36  55  75 104 146 193 233 268 312
#     4  10  19  36  60  80  99 132 181 226 263 306
#     4  10  18  32  54  82 110 137 175 219 256 302
#     4  11  24  39  54  76 110 148 179 213 266 323
#     4   9  16  27  49  80 106 128 163 213 260 300
#     4   9  19  36  58  84 112 139 170 215 271 327
#     4   9  18  33  53  77 107 146 190 230 267 317
#
# _framework density 19.818444
#
# number of rings (size 3 to 8) (size 9 to 14) (size 15 to 20)
#    0.000    2.250    1.250    3.000    0.000    6.250 
#    0.000    3.125    0.000    6.750    0.000    0.000 
#    0.000    0.000    0.000    0.000    0.000    0.000 
#
# Total GULP energy -357057.770042 kJ/mol
# GULP energy per Si atom -5579.027657 kJ/mol
# Density = 1.977334 g / cm^3
# Si number density = 19.818444 Si / 1000 Ang^3
#
#
#
# Elastic Constant Matrix: (Units=GPa)
#
#
# Indices 1 2 3 4 5 6 
#
# 1 165.0685 19.6838 51.8323 0.0000 0.0000 0.0000
# 2 19.6838 11.0429 10.4991 0.0000 0.0000 0.0000
# 3 51.8323 10.4991 55.0333 0.0000 0.0000 0.0000
# 4 0.0000 0.0000 0.0000 41.6507 0.0000 0.0000
# 5 0.0000 0.0000 0.0000 0.0000 31.3256 0.0000
# 6 0.0000 0.0000 0.0000 0.0000 0.0000 19.4546
#
#
#
# Elastic Compliance Matrix: (Units=1/GPa)
#
#
# Indices 1 2 3 4 5 6 
#
# 1 0.009466 -0.010258 -0.006959 0.000000 0.000000 0.000000
# 2 -0.010258 0.121736 -0.013563 0.000000 0.000000 0.000000
# 3 -0.006959 -0.013563 0.027313 0.000000 0.000000 0.000000
# 4 0.000000 0.000000 0.000000 0.024009 0.000000 0.000000
# 5 0.000000 0.000000 0.000000 0.000000 0.031923 0.000000
# 6 0.000000 0.000000 0.000000 0.000000 0.000000 0.051402
#
#
# Mechanical properties :
#
#
# Convention : Reuss Voigt Hill
#
# Bulk Modulus (GPa) = 10.31408 43.90835 27.11122
# Shear Modulus (GPa) = 13.89946 28.42816 21.16381
#
# Velocity S-wave (km/s) = 2.65116 3.79149 3.27140
# Velocity P-wave (km/s) = 3.81930 6.43200 5.28950
#
# Compressibility (1/GPa) = 0.09695484
#
# Stress axis : x y z
#
# Youngs Moduli (GPa) = 105.63691 8.21452 36.61325
#
# Poissons Ratio (x) = 0.08426 0.25479
# Poissons Ratio (y) = 1.08358 0.49660
# Poissons Ratio (z) = 0.73511 0.11142
#
# Static dielectric constant tensor:
#      x y z
#    x 1.751320 0.000000 0.000000 
#    y 0.000000 1.683210 0.000000 
#    z 0.000000 0.000000 1.691990 
# 
# From -- ./inp_files/35730.got.cif
#   From: 2010.05.17/outbox.cif.g08.bks.cpg/sg51_18_cif.got.tgz:35730.got - 2010.06.03 11:52:47.
