data_PCOD9399218
_publ_section_title
;
Structure prediction by ZEFSAII (Michael W. Deem and Ramdas Pophale) SiO2 
 PCOD9399218
Probable space group: P M M A
;
_chemical_formula_sum "Si O2"
_cell_formula_units_Z 64
_cell_length_a 8.676769
_cell_length_b 24.332414
_cell_length_c 19.571225
_cell_angle_alpha 90.000000
_cell_angle_beta 90.000000
_cell_angle_gamma 90.000000
_cell_volume 4132.008844
_symmetry_space_group_name_H-M "P M M A"
_symmetry_group_IT_number 51
_symmetry_cell_setting 'orthorhombic'
loop_
_space_group_symop_operation_xyz
x,y,z
1/2-x,-y,z
1/2+x,-y,-z
-x,y,-z
-x,-y,-z
1/2+x,y,-z
1/2-x,y,z
x,-y,z
loop_
_atom_site_type_symbol
_atom_site_label
_atom_site_fract_x
_atom_site_fract_y
_atom_site_fract_z
Si Si1 0.063105 0.668332 0.344278
Si Si2 0.434238 0.936567 0.212344
Si Si3 0.434575 0.888669 0.926728
Si Si4 0.563467 0.437780 0.575939
Si Si5 0.935122 0.266748 0.785822
Si Si6 0.933927 0.837248 0.295761
Si Si7 0.935287 0.778669 0.575634
Si Si8 0.933770 0.758622 0.072851
O O1 0.250000 0.666967 0.344189
O O2 0.009073 0.610157 0.373357
O O3 0.016183 0.686109 0.268009
O O4 0.018754 0.718618 0.394344
O O5 0.250000 0.929745 0.214228
O O6 0.493799 0.920269 0.137065
O O7 0.510043 0.895029 0.266051
O O8 0.471943 0.000000 0.226323
O O9 0.250000 0.893973 0.925925
O O10 0.473343 0.823666 0.919559
O O11 0.500000 0.907062 0.000000
O O12 0.500000 0.427275 0.500000
O O13 0.750000 0.436110 0.573216
O O14 0.518099 0.500000 0.595673
O O15 0.750000 0.263572 0.786233
O O16 0.000270 0.210174 0.754171
O O17 0.996777 0.272268 0.862157
O O18 0.750000 0.834484 0.295560
O O19 0.998986 0.822505 0.370406
O O20 0.750000 0.781395 0.575495
O O21 0.000000 0.785852 0.500000
O O22 0.750000 0.754219 0.072865
O O23 0.000000 0.740415 0.000000
#
# Coordination Sequence:
#
# PCOD9399218 Si02
#       8
#     8   8   8   8   8   8   8   8
#     4   8  16  28  43  67  96 127 161 195 234 272
#     4  11  23  37  53  71  92 120 153 189 229 275
#     4  10  20  33  50  70  94 123 154 190 226 271
#     4   9  16  27  43  63  92 130 169 203 232 268
#     4  10  18  30  48  67  93 124 154 194 236 278
#     4  11  21  34  51  71  94 120 151 187 230 281
#     4  10  19  32  50  72  97 123 152 191 234 280
#     4  10  19  30  46  69  94 123 155 187 227 280
#
# _framework density 15.488834000000001
#
# number of rings (size 3 to 8) (size 9 to 14) (size 15 to 20)
#    0.000    2.125    1.250    4.125    0.000    2.250 
#    0.000    3.125    0.000    0.375    0.000    0.000 
#    0.000    0.500    0.000    0.875    0.000    1.250 
#
# Total GULP energy -357076.608808 kJ/mol
# GULP energy per Si atom -5579.322013 kJ/mol
# Density = 1.545358 g / cm^3
# Si number density = 15.488834 Si / 1000 Ang^3
#
#
#
# Elastic Constant Matrix: (Units=GPa)
#
#
# Indices 1 2 3 4 5 6 
#
# 1 48.9558 36.2296 44.2436 0.0000 0.0000 0.0000
# 2 36.2296 99.3544 74.0262 0.0000 0.0000 0.0000
# 3 44.2436 74.0262 151.4721 0.0000 0.0000 0.0000
# 4 0.0000 0.0000 0.0000 26.2077 0.0000 0.0000
# 5 0.0000 0.0000 0.0000 0.0000 29.6768 0.0000
# 6 0.0000 0.0000 0.0000 0.0000 0.0000 10.2001
#
#
#
# Elastic Compliance Matrix: (Units=1/GPa)
#
#
# Indices 1 2 3 4 5 6 
#
# 1 0.030623 -0.007080 -0.005484 0.000000 0.000000 0.000000
# 2 -0.007080 0.017466 -0.006468 0.000000 0.000000 0.000000
# 3 -0.005484 -0.006468 0.011365 0.000000 0.000000 0.000000
# 4 0.000000 0.000000 0.000000 0.038157 0.000000 0.000000
# 5 0.000000 0.000000 0.000000 0.000000 0.033696 0.000000
# 6 0.000000 0.000000 0.000000 0.000000 0.000000 0.098038
#
#
# Mechanical properties :
#
#
# Convention : Reuss Voigt Hill
#
# Bulk Modulus (GPa) = 46.75418 67.64234 57.19826
# Shear Modulus (GPa) = 18.21241 22.90246 20.55744
#
# Velocity S-wave (km/s) = 3.43277 3.84949 3.64709
# Velocity P-wave (km/s) = 6.77962 7.97023 7.39891
#
# Compressibility (1/GPa) = 0.02138846
#
# Stress axis : x y z
#
# Youngs Moduli (GPa) = 32.65535 57.25539 87.99269
#
# Poissons Ratio (x) = 0.40539 0.48259
# Poissons Ratio (y) = 0.23121 0.56910
# Poissons Ratio (z) = 0.17910 0.37030
#
# Static dielectric constant tensor:
#      x y z
#    x 1.517980 0.000000 0.000000 
#    y 0.000000 1.509600 0.000000 
#    z 0.000000 0.000000 1.509910 
# 
# From -- ./inp_files/28574.got.cif
#   From: 2010.05.17/outbox.cif.g08.bks.cpg/sg51_15_cif.got.tgz:28574.got - 2010.06.03 11:52:47.
