data_PCOD9399715
_publ_section_title
;
Structure prediction by ZEFSAII (Michael W. Deem and Ramdas Pophale) SiO2 
 PCOD9399715
Probable space group: P M M A
;
_chemical_formula_sum "Si O2"
_cell_formula_units_Z 64
_cell_length_a 24.655780
_cell_length_b 7.540743
_cell_length_c 15.954680
_cell_angle_alpha 90.000000
_cell_angle_beta 90.000000
_cell_angle_gamma 90.000000
_cell_volume 2966.340381
_symmetry_space_group_name_H-M "P M M A"
_symmetry_group_IT_number 51
_symmetry_cell_setting 'orthorhombic'
loop_
_space_group_symop_operation_xyz
x,y,z
1/2-x,-y,z
1/2+x,-y,-z
-x,y,-z
-x,-y,-z
1/2+x,y,-z
1/2-x,y,z
x,-y,z
loop_
_atom_site_type_symbol
_atom_site_label
_atom_site_fract_x
_atom_site_fract_y
_atom_site_fract_z
Si Si1 0.381017 0.216723 0.905656
Si Si2 0.687981 0.217483 0.253934
Si Si3 0.610974 0.205834 0.402082
Si Si4 0.113362 0.212520 0.091343
Si Si5 0.501475 0.215658 0.159107
Si Si6 0.311637 0.713163 0.250505
Si Si7 0.505919 0.214625 0.644830
Si Si8 0.874522 0.704251 0.586672
O O1 0.339939 0.272809 0.833045
O O2 0.442037 0.273151 0.881377
O O3 0.380577 0.000000 0.904465
O O4 0.368124 0.275950 0.999944
O O5 0.750000 0.275423 0.260744
O O6 0.650979 0.279756 0.331572
O O7 0.688455 0.000000 0.255042
O O8 0.549603 0.278306 0.398436
O O9 0.633943 0.214231 0.495447
O O10 0.604091 0.000000 0.378689
O O11 0.153671 0.249006 0.167653
O O12 0.053035 0.279129 0.113829
O O13 0.108919 0.000000 0.085423
O O14 0.498643 0.261542 0.257121
O O15 0.501489 0.000000 0.155330
O O16 0.250000 0.778723 0.244538
O O17 0.309913 0.500000 0.257526
O O18 0.342067 0.781209 0.333949
O O19 0.561780 0.285074 0.608083
O O20 0.509961 0.000000 0.637161
O O21 0.858582 0.500000 0.578324
#
# Coordination Sequence:
#
# PCOD9399715 Si02
#       8
#     8   8   8   8   8   8   8   8
#     4   9  16  28  49  81 115 142 169 208 261 313
#     4   9  17  30  48  73 107 141 172 211 257 303
#     4  10  20  34  54  79 106 138 174 209 256 317
#     4  10  19  31  55  86 110 133 173 223 261 300
#     4   9  15  27  49  78 111 142 168 204 257 312
#     4  10  23  42  57  70  99 144 183 215 263 323
#     4  10  18  32  55  79 107 141 172 206 256 318
#     4  11  23  37  55  78 103 133 173 220 267 311
#
# _framework density 21.575406999999998
#
# number of rings (size 3 to 8) (size 9 to 14) (size 15 to 20)
#    0.000    2.250    2.500    1.125    0.000    5.250 
#    0.000    1.250    0.000    3.000    0.000    0.000 
#    0.000    0.000    0.000    0.000    0.000    0.000 
#
# Total GULP energy -357497.316223 kJ/mol
# GULP energy per Si atom -5585.895566 kJ/mol
# Density = 2.152630 g / cm^3
# Si number density = 21.575407 Si / 1000 Ang^3
#
#
#
# Elastic Constant Matrix: (Units=GPa)
#
#
# Indices 1 2 3 4 5 6 
#
# 1 130.0456 -7.3343 53.3346 0.0000 0.0000 0.0000
# 2 -7.3343 46.8298 -11.1493 0.0000 0.0000 0.0000
# 3 53.3346 -11.1493 137.1127 0.0000 0.0000 0.0000
# 4 0.0000 0.0000 0.0000 77.8040 0.0000 0.0000
# 5 0.0000 0.0000 0.0000 0.0000 3.0048 0.0000
# 6 0.0000 0.0000 0.0000 0.0000 0.0000 20.8971
#
#
#
# Elastic Compliance Matrix: (Units=1/GPa)
#
#
# Indices 1 2 3 4 5 6 
#
# 1 0.009166 0.000598 -0.003517 0.000000 0.000000 0.000000
# 2 0.000598 0.021815 0.001541 0.000000 0.000000 0.000000
# 3 -0.003517 0.001541 0.008786 0.000000 0.000000 0.000000
# 4 0.000000 0.000000 0.000000 0.012853 0.000000 0.000000
# 5 0.000000 0.000000 0.000000 0.000000 0.332805 0.000000
# 6 0.000000 0.000000 0.000000 0.000000 0.000000 0.047853
#
#
# Mechanical properties :
#
#
# Convention : Reuss Voigt Hill
#
# Bulk Modulus (GPa) = 27.01817 42.63222 34.82519
# Shear Modulus (GPa) = 11.15152 38.95033 25.05093
#
# Velocity S-wave (km/s) = 2.27593 4.25351 3.41117
# Velocity P-wave (km/s) = 4.41093 6.62764 5.62947
#
# Compressibility (1/GPa) = 0.03701213
#
# Stress axis : x y z
#
# Youngs Moduli (GPa) = 109.10365 45.84104 113.81102
#
# Poissons Ratio (x) = -0.02742 0.40023
# Poissons Ratio (y) = -0.06527 -0.17540
# Poissons Ratio (z) = 0.38368 -0.07065
#
# Static dielectric constant tensor:
#      x y z
#    x 1.751570 0.000000 0.000000 
#    y 0.000000 1.835030 0.000000 
#    z 0.000000 0.000000 1.758720 
# 
# From -- ./inp_files/26310.got.cif
#   From: 2010.05.17/outbox.cif.g08.bks.cpg/sg51_14_cif.got.tgz:26310.got - 2010.06.03 11:52:47.
