data_PCOD9399201
_publ_section_title
;
Structure prediction by ZEFSAII (Michael W. Deem and Ramdas Pophale) SiO2 
 PCOD9399201
Probable space group: P M M A
;
_chemical_formula_sum "Si O2"
_cell_formula_units_Z 56
_cell_length_a 8.488776
_cell_length_b 19.317393
_cell_length_c 19.724366
_cell_angle_alpha 90.000000
_cell_angle_beta 90.000000
_cell_angle_gamma 90.000000
_cell_volume 3234.421697
_symmetry_space_group_name_H-M "P M M A"
_symmetry_group_IT_number 51
_symmetry_cell_setting 'orthorhombic'
loop_
_space_group_symop_operation_xyz
x,y,z
1/2-x,-y,z
1/2+x,-y,-z
-x,y,-z
-x,-y,-z
1/2+x,y,-z
1/2-x,y,z
x,-y,z
loop_
_atom_site_type_symbol
_atom_site_label
_atom_site_fract_x
_atom_site_fract_y
_atom_site_fract_z
Si Si1 0.559696 0.922523 0.842600
Si Si2 0.940761 0.710161 0.792721
Si Si3 0.060295 0.788503 0.075105
Si Si4 0.062809 0.155844 0.714723
Si Si5 0.438568 0.188093 0.427056
Si Si6 0.942460 0.578207 0.711027
Si Si7 0.939714 0.650578 0.572543
O O1 0.750000 0.921501 0.842502
O O2 0.506775 0.862985 0.894963
O O3 0.503347 0.899607 0.768196
O O4 0.506399 0.000000 0.859547
O O5 0.750000 0.712856 0.789669
O O6 0.989032 0.732097 0.868488
O O7 0.991857 0.635343 0.766095
O O8 0.002142 0.770080 0.742893
O O9 0.250000 0.789047 0.073614
O O10 0.000000 0.776164 0.000000
O O11 0.250000 0.154578 0.716175
O O12 0.002644 0.148214 0.638189
O O13 0.500000 0.163501 0.500000
O O14 0.250000 0.186706 0.426373
O O15 0.490267 0.269018 0.420140
O O16 0.750000 0.577585 0.711094
O O17 0.996117 0.500000 0.723223
O O18 0.991978 0.606184 0.637072
O O19 0.750000 0.650168 0.571765
O O20 0.000000 0.624883 0.500000
#
# Coordination Sequence:
#
# PCOD9399201 Si02
#       7
#     8   8   8   8   8   8   8
#     4   9  19  36  55  75 102 136 166 193 233 287
#     4   9  17  33  51  69  95 129 166 207 248 294
#     4   9  18  31  51  76 102 130 162 196 238 288
#     4  11  20  30  49  75 100 130 167 207 248 291
#     4  10  18  30  47  69  97 129 167 214 258 297
#     4   9  16  28  48  70  91 123 169 214 253 294
#     4   9  17  28  43  64  92 125 160 202 249 295
#
# _framework density 17.313759000000001
#
# number of rings (size 3 to 8) (size 9 to 14) (size 15 to 20)
#    0.000    2.571    1.429    2.571    0.000    3.714 
#    0.000    0.000    0.000    2.143    0.000    0.000 
#    0.000    0.000    0.000    0.000    0.000    0.286 
#
# Total GULP energy -312228.854442 kJ/mol
# GULP energy per Si atom -5575.515258 kJ/mol
# Density = 1.727435 g / cm^3
# Si number density = 17.313759 Si / 1000 Ang^3
#
#
#
# Elastic Constant Matrix: (Units=GPa)
#
#
# Indices 1 2 3 4 5 6 
#
# 1 7.3151 6.7908 13.0451 0.0000 0.0000 0.0000
# 2 6.7908 66.5529 46.7827 0.0000 0.0000 0.0000
# 3 13.0451 46.7827 147.9864 0.0000 0.0000 0.0000
# 4 0.0000 0.0000 0.0000 14.9794 0.0000 0.0000
# 5 0.0000 0.0000 0.0000 0.0000 29.0572 0.0000
# 6 0.0000 0.0000 0.0000 0.0000 0.0000 7.0027
#
#
#
# Elastic Compliance Matrix: (Units=1/GPa)
#
#
# Indices 1 2 3 4 5 6 
#
# 1 0.165899 -0.008547 -0.011922 0.000000 0.000000 0.000000
# 2 -0.008547 0.019759 -0.005493 0.000000 0.000000 0.000000
# 3 -0.011922 -0.005493 0.009545 0.000000 0.000000 0.000000
# 4 0.000000 0.000000 0.000000 0.066758 0.000000 0.000000
# 5 0.000000 0.000000 0.000000 0.000000 0.034415 0.000000
# 6 0.000000 0.000000 0.000000 0.000000 0.000000 0.142801
#
#
# Mechanical properties :
#
#
# Convention : Reuss Voigt Hill
#
# Bulk Modulus (GPa) = 6.97944 39.45463 23.21704
# Shear Modulus (GPa) = 9.27884 20.55691 14.91787
#
# Velocity S-wave (km/s) = 2.31751 3.44948 2.93852
# Velocity P-wave (km/s) = 3.34680 6.22115 4.99519
#
# Compressibility (1/GPa) = 0.14327789
#
# Stress axis : x y z
#
# Youngs Moduli (GPa) = 6.02778 50.60993 104.76920
#
# Poissons Ratio (x) = 0.43257 1.24907
# Poissons Ratio (y) = 0.05152 0.57549
# Poissons Ratio (z) = 0.07186 0.27800
#
# Static dielectric constant tensor:
#      x y z
#    x 1.585530 0.000000 0.000000 
#    y 0.000000 1.591360 0.000000 
#    z 0.000000 0.000000 1.581580 
# 
# From -- ./inp_files/21766.got.cif
#   From: 2010.05.17/outbox.cif.g08.bks.cpg/sg51_11_cif.got.tgz:21766.got - 2010.06.03 11:52:47.
