data_PCOD9399914
_publ_section_title
;
Structure prediction by ZEFSAII (Michael W. Deem and Ramdas Pophale) SiO2 
 PCOD9399914
Probable space group: P M M A
;
_chemical_formula_sum "Si O2"
_cell_formula_units_Z 56
_cell_length_a 15.647395
_cell_length_b 8.745631
_cell_length_c 21.777188
_cell_angle_alpha 90.000000
_cell_angle_beta 90.000000
_cell_angle_gamma 90.000000
_cell_volume 2980.128534
_symmetry_space_group_name_H-M "P M M A"
_symmetry_group_IT_number 51
_symmetry_cell_setting 'orthorhombic'
loop_
_space_group_symop_operation_xyz
x,y,z
1/2-x,-y,z
1/2+x,-y,-z
-x,y,-z
-x,-y,-z
1/2+x,y,-z
1/2-x,y,z
x,-y,z
loop_
_atom_site_type_symbol
_atom_site_label
_atom_site_fract_x
_atom_site_fract_y
_atom_site_fract_z
Si Si1 0.652913 0.681187 0.873911
Si Si2 0.602705 0.180080 0.001663
Si Si3 0.348515 0.316111 0.445964
Si Si4 0.507436 0.683187 0.651775
Si Si5 0.348429 0.816967 0.580801
Si Si6 0.345134 0.186289 0.861505
Si Si7 0.509994 0.817017 0.786295
O O1 0.750000 0.717422 0.855404
O O2 0.639452 0.500000 0.867306
O O3 0.640238 0.728630 0.944648
O O4 0.584798 0.769289 0.832613
O O5 0.624517 0.000000 0.994490
O O6 0.500000 0.192358 0.000000
O O7 0.635180 0.232083 0.068286
O O8 0.250000 0.280611 0.428849
O O9 0.354721 0.500000 0.453711
O O10 0.416712 0.268864 0.394747
O O11 0.366448 0.239130 0.511474
O O12 0.505882 0.500000 0.652794
O O13 0.417937 0.744790 0.625611
O O14 0.522753 0.745479 0.719707
O O15 0.250000 0.772773 0.595065
O O16 0.354139 0.000000 0.583554
O O17 0.250000 0.235415 0.843544
O O18 0.420511 0.236571 0.816548
O O19 0.346839 0.000000 0.861554
O O20 0.507348 0.000000 0.781137
#
# Coordination Sequence:
#
# PCOD9399914 Si02
#       7
#     8   8   8   8   8   8   8
#     4  11  24  40  58  83 116 153 192 238 293 347
#     4  10  18  34  61  89 113 142 185 236 289 347
#     4   9  19  37  60  85 115 150 186 230 287 349
#     4  11  23  38  58  85 117 155 195 234 288 349
#     4  10  21  37  59  88 119 151 191 239 285 332
#     4   9  18  34  57  83 111 144 183 231 287 343
#     4  11  23  40  59  82 113 152 198 242 286 340
#
# _framework density 18.791136000000002
#
# number of rings (size 3 to 8) (size 9 to 14) (size 15 to 20)
#    0.000    1.857    1.429    2.571    0.000    6.857 
#    0.000    2.857    0.000    2.143    0.000    0.000 
#    0.000    0.000    0.000    0.000    0.000    0.000 
#
# Total GULP energy -312861.927598 kJ/mol
# GULP energy per Si atom -5586.820136 kJ/mol
# Density = 1.874837 g / cm^3
# Si number density = 18.791136 Si / 1000 Ang^3
#
#
#
# Elastic Constant Matrix: (Units=GPa)
#
#
# Indices 1 2 3 4 5 6 
#
# 1 49.2219 16.4120 -2.1476 0.0000 0.0000 0.0000
# 2 16.4120 24.3221 9.0807 0.0000 0.0000 0.0000
# 3 -2.1476 9.0807 35.6057 0.0000 0.0000 0.0000
# 4 0.0000 0.0000 0.0000 35.7985 0.0000 0.0000
# 5 0.0000 0.0000 0.0000 0.0000 -3.5467 0.0000
# 6 0.0000 0.0000 0.0000 0.0000 0.0000 24.8663
#
#
#
# Elastic Compliance Matrix: (Units=1/GPa)
#
#
# Indices 1 2 3 4 5 6 
#
# 1 0.027761 -0.021395 0.007131 0.000000 0.000000 0.000000
# 2 -0.021395 0.061930 -0.017085 0.000000 0.000000 0.000000
# 3 0.007131 -0.017085 0.032873 0.000000 0.000000 0.000000
# 4 0.000000 0.000000 0.000000 0.027934 0.000000 0.000000
# 5 0.000000 0.000000 0.000000 0.000000 -0.281950 0.000000
# 6 0.000000 0.000000 0.000000 0.000000 0.000000 0.040215
#
#
# Mechanical properties :
#
#
# Convention : Reuss Voigt Hill
#
# Bulk Modulus (GPa) = 16.70386 17.31554 17.00970
# Shear Modulus (GPa) = -582.51582 17.14392 -282.68595
#
# Velocity S-wave (km/s) = -17.62578 3.02377 -12.27853
# Velocity P-wave (km/s) = 20.13245 4.62879 13.85442
#
# Compressibility (1/GPa) = 0.05986641
#
# Stress axis : x y z
#
# Youngs Moduli (GPa) = 36.02186 16.14716 30.42034
#
# Poissons Ratio (x) = 0.34547 -0.21692
# Poissons Ratio (y) = 0.77068 0.51973
# Poissons Ratio (z) = -0.25687 0.27587
#
# Static dielectric constant tensor:
#      x y z
#    x 1.656340 0.000000 0.000000 
#    y 0.000000 1.632990 0.000000 
#    z 0.000000 0.000000 1.609860 
# 
# From -- ./inp_files/33313.got.cif
#   From: 2010.05.17/outbox.cif.g08.bks.cpg/sg51_17_cif.got.tgz:33313.got - 2010.06.03 11:52:47.
