data_PCOD9399304
_publ_section_title
;
Structure prediction by ZEFSAII (Michael W. Deem and Ramdas Pophale) SiO2 
 PCOD9399304
Probable space group: P M M A
;
_chemical_formula_sum "Si O2"
_cell_formula_units_Z 44
_cell_length_a 10.366564
_cell_length_b 13.390349
_cell_length_c 20.934068
_cell_angle_alpha 90.000000
_cell_angle_beta 90.000000
_cell_angle_gamma 90.000000
_cell_volume 2905.897961
_symmetry_space_group_name_H-M "P M M A"
_symmetry_group_IT_number 51
_symmetry_cell_setting 'orthorhombic'
loop_
_space_group_symop_operation_xyz
x,y,z
1/2-x,-y,z
1/2+x,-y,-z
-x,y,-z
-x,-y,-z
1/2+x,y,-z
1/2-x,y,z
x,-y,z
loop_
_atom_site_type_symbol
_atom_site_label
_atom_site_fract_x
_atom_site_fract_y
_atom_site_fract_z
Si Si1 0.595533 0.112668 0.198667
Si Si2 0.595159 0.822389 0.342058
Si Si3 0.012379 0.315092 0.850462
Si Si4 0.750000 0.619519 0.062338
Si Si5 0.593419 0.613333 0.290168
Si Si6 0.250000 0.619579 0.084096
Si Si7 0.908649 0.000000 0.438249
O O1 0.750000 0.130280 0.192418
O O2 0.564692 0.128456 0.273467
O O3 0.522435 0.196780 0.159936
O O4 0.567612 0.000000 0.179503
O O5 0.750000 0.817851 0.346509
O O6 0.551544 0.706212 0.335667
O O7 0.557439 0.900079 0.397189
O O8 0.876690 0.346338 0.878815
O O9 0.124596 0.346726 0.898924
O O10 0.041075 0.363948 0.781035
O O11 0.750000 0.500000 0.061120
O O12 0.750000 0.656117 0.989313
O O13 0.750000 0.617098 0.285979
O O14 0.557830 0.500000 0.309515
O O15 0.250000 0.500000 0.081965
O O16 0.000000 0.000000 0.500000
O O17 0.750000 0.000000 0.448938
#
# Coordination Sequence:
#
# PCOD9399304 Si02
#       7
#     8   8   8   4   8   4   4
#     4   9  15  28  53  77  95 118 158 207 247 282
#     4   8  14  25  44  71  97 122 155 195 234 275
#     4  11  19  32  49  72  94 124 161 201 246 298
#     4  11  20  34  51  67  89 123 166 209 242 286
#     4   9  15  25  47  74  95 115 153 209 249 277
#     4  11  24  34  45  65  99 133 158 193 246 306
#     4  10  18  30  50  72 100 130 157 191 224 270
#
# _framework density 15.141617999999999
#
# number of rings (size 3 to 8) (size 9 to 14) (size 15 to 20)
#    0.000    2.364    2.727    3.273    0.000    1.455 
#    0.000    0.455    8.000    3.818    0.000    0.000 
#    0.000    0.000    0.000    0.000    0.000    0.000 
#
# Total GULP energy -244955.787940 kJ/mol
# GULP energy per Si atom -5567.176999 kJ/mol
# Density = 1.510715 g / cm^3
# Si number density = 15.141618 Si / 1000 Ang^3
#
#
#
# Elastic Constant Matrix: (Units=GPa)
#
#
# Indices 1 2 3 4 5 6 
#
# 1 70.0505 36.8902 38.4096 0.0000 0.0000 0.0000
# 2 36.8902 137.6479 58.7026 0.0000 0.0000 0.0000
# 3 38.4096 58.7026 84.1442 0.0000 0.0000 0.0000
# 4 0.0000 0.0000 0.0000 26.5879 0.0000 0.0000
# 5 0.0000 0.0000 0.0000 0.0000 39.8061 0.0000
# 6 0.0000 0.0000 0.0000 0.0000 0.0000 19.2621
#
#
#
# Elastic Compliance Matrix: (Units=1/GPa)
#
#
# Indices 1 2 3 4 5 6 
#
# 1 0.019431 -0.002028 -0.007455 0.000000 0.000000 0.000000
# 2 -0.002028 0.010554 -0.006437 0.000000 0.000000 0.000000
# 3 -0.007455 -0.006437 0.019778 0.000000 0.000000 0.000000
# 4 0.000000 0.000000 0.000000 0.037611 0.000000 0.000000
# 5 0.000000 0.000000 0.000000 0.000000 0.025122 0.000000
# 6 0.000000 0.000000 0.000000 0.000000 0.000000 0.051915
#
#
# Mechanical properties :
#
#
# Convention : Reuss Voigt Hill
#
# Bulk Modulus (GPa) = 55.79474 62.20525 59.00000
# Shear Modulus (GPa) = 24.72497 27.65390 26.18943
#
# Velocity S-wave (km/s) = 4.04532 4.27822 4.16340
# Velocity P-wave (km/s) = 7.66473 8.09788 7.88428
#
# Compressibility (1/GPa) = 0.01792284
#
# Stress axis : x y z
#
# Youngs Moduli (GPa) = 51.46384 94.75436 50.56186
#
# Poissons Ratio (x) = 0.19220 0.37692
# Poissons Ratio (y) = 0.10439 0.32545
# Poissons Ratio (z) = 0.38365 0.60991
#
# Static dielectric constant tensor:
#      x y z
#    x 1.483740 0.000000 0.000000 
#    y 0.000000 1.538320 0.000000 
#    z 0.000000 0.000000 1.489080 
# 
# From -- ./inp_files/27439.got.cif
#   From: 2010.05.17/outbox.cif.g08.bks.cpg/sg51_14_cif.got.tgz:27439.got - 2010.06.03 11:52:47.
