data_PCOD9399192
_publ_section_title
;
Structure prediction by ZEFSAII (Michael W. Deem and Ramdas Pophale) SiO2 
 PCOD9399192
Probable space group: P M M A
;
_chemical_formula_sum "Si O2"
_cell_formula_units_Z 48
_cell_length_a 21.540467
_cell_length_b 7.622185
_cell_length_c 15.513419
_cell_angle_alpha 90.000000
_cell_angle_beta 90.000000
_cell_angle_gamma 90.000000
_cell_volume 2547.077283
_symmetry_space_group_name_H-M "P M M A"
_symmetry_group_IT_number 51
_symmetry_cell_setting 'orthorhombic'
loop_
_space_group_symop_operation_xyz
x,y,z
1/2-x,-y,z
1/2+x,-y,-z
-x,y,-z
-x,-y,-z
1/2+x,y,-z
1/2-x,y,z
x,-y,z
loop_
_atom_site_type_symbol
_atom_site_label
_atom_site_fract_x
_atom_site_fract_y
_atom_site_fract_z
Si Si1 0.976797 0.708225 0.770225
Si Si2 0.542633 0.290688 0.577264
Si Si3 0.683284 0.215055 0.996997
Si Si4 0.681829 0.211988 0.615835
Si Si5 0.947779 0.788844 0.068196
Si Si6 0.341546 0.201616 0.191865
O O1 0.965575 0.500000 0.767219
O O2 0.979369 0.773955 0.671699
O O3 0.915960 0.794116 0.811728
O O4 0.032846 0.742360 0.834790
O O5 0.500000 0.219742 0.500000
O O6 0.533983 0.500000 0.578250
O O7 0.616972 0.260717 0.570307
O O8 0.750000 0.264527 0.035316
O O9 0.620730 0.274762 0.043285
O O10 0.680956 0.000000 0.994931
O O11 0.681324 0.277679 0.897731
O O12 0.750000 0.267340 0.581968
O O13 0.676319 0.278046 0.715170
O O14 0.681681 0.000000 0.618087
O O15 0.947608 0.000000 0.061780
O O16 0.000000 0.724390 0.000000
O O17 0.320528 0.000000 0.194140
#
# Coordination Sequence:
#
# PCOD9399192 Si02
#       6
#     8   8   8   8   8   8
#     4  10  19  30  47  70  93 120 155 197 240 275
#     4   9  19  35  52  70  94 126 165 202 240 290
#     4   9  16  26  43  65  89 120 158 193 222 261
#     4   9  17  28  46  74 103 126 151 190 242 294
#     4  10  18  30  47  68  92 123 161 192 221 272
#     4   9  15  27  45  66  94 125 154 182 224 282
#
# _framework density 18.845130000000001
#
# number of rings (size 3 to 8) (size 9 to 14) (size 15 to 20)
#    0.000    2.667    1.667    1.000    0.000    3.667 
#    0.000    0.000    0.000    4.000    0.000    4.667 
#    0.000    0.000    0.000    0.000    0.000    0.000 
#
# Total GULP energy -267491.672989 kJ/mol
# GULP energy per Si atom -5572.743187 kJ/mol
# Density = 1.880224 g / cm^3
# Si number density = 18.845130 Si / 1000 Ang^3
#
#
#
# Elastic Constant Matrix: (Units=GPa)
#
#
# Indices 1 2 3 4 5 6 
#
# 1 178.4583 4.5045 84.8337 0.0000 0.0000 0.0000
# 2 4.5045 40.5235 2.9809 0.0000 0.0000 0.0000
# 3 84.8337 2.9809 87.5314 0.0000 0.0000 0.0000
# 4 0.0000 0.0000 0.0000 24.5302 0.0000 0.0000
# 5 0.0000 0.0000 0.0000 0.0000 21.3079 0.0000
# 6 0.0000 0.0000 0.0000 0.0000 0.0000 43.9384
#
#
#
# Elastic Compliance Matrix: (Units=1/GPa)
#
#
# Indices 1 2 3 4 5 6 
#
# 1 0.010398 -0.000416 -0.010063 0.000000 0.000000 0.000000
# 2 -0.000416 0.024756 -0.000440 0.000000 0.000000 0.000000
# 3 -0.010063 -0.000440 0.021192 0.000000 0.000000 0.000000
# 4 0.000000 0.000000 0.000000 0.040766 0.000000 0.000000
# 5 0.000000 0.000000 0.000000 0.000000 0.046931 0.000000
# 6 0.000000 0.000000 0.000000 0.000000 0.000000 0.022759
#
#
# Mechanical properties :
#
#
# Convention : Reuss Voigt Hill
#
# Bulk Modulus (GPa) = 28.97892 54.57237 41.77565
# Shear Modulus (GPa) = 24.98218 32.23491 28.60854
#
# Velocity S-wave (km/s) = 3.64491 4.14033 3.90049
# Velocity P-wave (km/s) = 5.75540 7.20261 6.51929
#
# Compressibility (1/GPa) = 0.03450784
#
# Stress axis : x y z
#
# Youngs Moduli (GPa) = 96.17461 40.39487 47.18658
#
# Poissons Ratio (x) = 0.01679 0.47485
# Poissons Ratio (y) = 0.03997 0.02078
# Poissons Ratio (z) = 0.96782 0.01779
#
# Static dielectric constant tensor:
#      x y z
#    x 1.686480 0.000000 0.000000 
#    y 0.000000 1.713010 0.000000 
#    z 0.000000 0.000000 1.654080 
# 
# From -- ./inp_files/25449.got.cif
#   From: 2010.05.17/outbox.cif.g08.bks.cpg/sg51_13_cif.got.tgz:25449.got - 2010.06.03 11:52:47.
