data_PCOD9399785
_publ_section_title
;
Structure prediction by ZEFSAII (Michael W. Deem and Ramdas Pophale) SiO2 
 PCOD9399785
Probable space group: P M M A
;
_chemical_formula_sum "Si O2"
_cell_formula_units_Z 34
_cell_length_a 19.688212
_cell_length_b 8.762559
_cell_length_c 7.264314
_cell_angle_alpha 90.000000
_cell_angle_beta 90.000000
_cell_angle_gamma 90.000000
_cell_volume 1253.233053
_symmetry_space_group_name_H-M "P M M A"
_symmetry_group_IT_number 51
_symmetry_cell_setting 'orthorhombic'
loop_
_space_group_symop_operation_xyz
x,y,z
1/2-x,-y,z
1/2+x,-y,-z
-x,y,-z
-x,-y,-z
1/2+x,y,-z
1/2-x,y,z
x,-y,z
loop_
_atom_site_type_symbol
_atom_site_label
_atom_site_fract_x
_atom_site_fract_y
_atom_site_fract_z
Si Si1 0.100405 0.660983 0.685825
Si Si2 0.750000 0.262636 0.353612
Si Si3 0.750000 0.000000 0.052276
Si Si4 0.750000 0.329362 0.740920
Si Si5 0.401506 0.331092 0.115640
Si Si6 0.440207 0.000000 0.644238
Si Si7 0.593977 0.000000 0.921674
O O1 0.073057 0.500000 0.607570
O O2 0.180914 0.650816 0.676466
O O3 0.080640 0.665098 0.900171
O O4 0.089383 0.829564 0.605618
O O5 0.750000 0.137726 0.195175
O O6 0.750000 0.214221 0.569269
O O7 0.677231 0.000000 0.946904
O O8 0.750000 0.500000 0.657788
O O9 0.680200 0.322458 0.853552
O O10 0.421934 0.500000 0.189337
O O11 0.425847 0.161117 0.174032
O O12 0.500000 0.000000 0.500000
O O13 0.436433 0.000000 0.870060
#
# Coordination Sequence:
#
# PCOD9399785 Si02
#       7
#     8   4   2   4   8   4   4
#     4  10  19  33  54  75 101 140 171 200 255 315
#     4  12  19  31  48  77 112 139 162 201 254 318
#     4  12  18  30  48  72 104 134 172 198 244 322
#     4  10  20  29  42  73 111 138 163 202 249 301
#     4   9  17  30  47  68  96 131 168 200 236 291
#     4  10  20  34  51  76 103 126 169 230 261 284
#     4  10  18  33  52  73  96 132 170 208 251 302
#
# _framework density 27.129830999999999
#
# number of rings (size 3 to 8) (size 9 to 14) (size 15 to 20)
#    0.000    1.882    4.706    2.471    0.000    3.294 
#    0.000    0.000    0.000    0.000    0.000   13.176 
#    0.000   24.471    0.000    0.000    0.000    0.000 
#
# Total GULP energy -189621.124264 kJ/mol
# GULP energy per Si atom -5577.091890 kJ/mol
# Density = 2.706808 g / cm^3
# Si number density = 27.129831 Si / 1000 Ang^3
#
#
#
# Elastic Constant Matrix: (Units=GPa)
#
#
# Indices 1 2 3 4 5 6 
#
# 1 87.7161 46.0143 13.3006 0.0000 0.0000 0.0000
# 2 46.0143 341.8175 43.0910 0.0000 0.0000 0.0000
# 3 13.3006 43.0910 95.6783 0.0000 0.0000 0.0000
# 4 0.0000 0.0000 0.0000 38.9199 0.0000 0.0000
# 5 0.0000 0.0000 0.0000 0.0000 26.6572 0.0000
# 6 0.0000 0.0000 0.0000 0.0000 0.0000 -24.1785
#
#
#
# Elastic Compliance Matrix: (Units=1/GPa)
#
#
# Indices 1 2 3 4 5 6 
#
# 1 0.012361 -0.001535 -0.001027 0.000000 0.000000 0.000000
# 2 -0.001535 0.003292 -0.001269 0.000000 0.000000 0.000000
# 3 -0.001027 -0.001269 0.011166 0.000000 0.000000 0.000000
# 4 0.000000 0.000000 0.000000 0.025694 0.000000 0.000000
# 5 0.000000 0.000000 0.000000 0.000000 0.037513 0.000000
# 6 0.000000 0.000000 0.000000 0.000000 0.000000 -0.041359
#
#
# Mechanical properties :
#
#
# Convention : Reuss Voigt Hill
#
# Bulk Modulus (GPa) = 52.19978 81.11376 66.65677
# Shear Modulus (GPa) = 79.72495 36.46678 58.09587
#
# Velocity S-wave (km/s) = 5.42681 3.67025 4.63255
# Velocity P-wave (km/s) = 7.65176 6.92274 7.29636
#
# Compressibility (1/GPa) = 0.01915717
#
# Stress axis : x y z
#
# Youngs Moduli (GPa) = 80.89853 303.75460 89.55612
#
# Poissons Ratio (x) = 0.46612 0.09200
# Poissons Ratio (y) = 0.12414 0.11368
# Poissons Ratio (z) = 0.08310 0.38558
#
# Static dielectric constant tensor:
#      x y z
#    x 2.137130 0.000000 0.000000 
#    y 0.000000 1.958360 0.000000 
#    z 0.000000 0.000000 2.078590 
# 
# From -- ./inp_files/10492.got.cif
#   From: 2010.05.17/outbox.cif.g08.bks.cpg/sg51_6_cif.got.tgz:10492.got - 2010.06.03 11:52:47.
