data_PCOD9399282
_publ_section_title
;
Structure prediction by ZEFSAII (Michael W. Deem and Ramdas Pophale) SiO2 
 PCOD9399282
Probable space group: P M M A
;
_chemical_formula_sum "Si O2"
_cell_formula_units_Z 48
_cell_length_a 20.042516
_cell_length_b 7.478300
_cell_length_c 15.445606
_cell_angle_alpha 90.000000
_cell_angle_beta 90.000000
_cell_angle_gamma 90.000000
_cell_volume 2315.048397
_symmetry_space_group_name_H-M "P M M A"
_symmetry_group_IT_number 51
_symmetry_cell_setting 'orthorhombic'
loop_
_space_group_symop_operation_xyz
x,y,z
1/2-x,-y,z
1/2+x,-y,-z
-x,y,-z
-x,-y,-z
1/2+x,y,-z
1/2-x,y,z
x,-y,z
loop_
_atom_site_type_symbol
_atom_site_label
_atom_site_fract_x
_atom_site_fract_y
_atom_site_fract_z
Si Si1 0.085671 0.208421 0.265530
Si Si2 0.826444 0.218976 0.894812
Si Si3 0.929258 0.217736 0.040709
Si Si4 0.063767 0.780760 0.760780
Si Si5 0.674441 0.287756 0.572594
Si Si6 0.174563 0.214031 0.626320
O O1 0.133657 0.281667 0.190345
O O2 0.122523 0.219906 0.357008
O O3 0.010616 0.280810 0.264870
O O4 0.077702 0.000000 0.243025
O O5 0.750000 0.278748 0.895300
O O6 0.825004 0.000000 0.893703
O O7 0.868930 0.273235 0.978669
O O8 0.923028 0.273222 0.140202
O O9 0.930128 0.000000 0.040443
O O10 0.000000 0.274930 0.000000
O O11 0.120132 0.718354 0.694047
O O12 0.064833 0.000000 0.758285
O O13 0.750000 0.216857 0.587033
O O14 0.676978 0.500000 0.582913
O O15 0.655801 0.248701 0.473450
O O16 0.250000 0.283837 0.639435
O O17 0.177602 0.000000 0.636606
#
# Coordination Sequence:
#
# PCOD9399282 Si02
#       6
#     8   8   8   8   8   8
#     4  10  18  30  49  73 101 130 161 199 243 292
#     4   9  16  24  39  67  98 127 161 198 235 282
#     4   9  14  24  40  62  97 133 156 185 237 287
#     4   9  17  28  46  71  99 132 164 197 243 292
#     4  10  21  36  52  70  95 128 163 201 248 296
#     4   9  18  33  51  71  96 127 165 206 244 286
#
# _framework density 20.733908
#
# number of rings (size 3 to 8) (size 9 to 14) (size 15 to 20)
#    0.000    2.667    1.667    1.000    0.000    3.000 
#    0.000    7.500    0.000    0.000    0.000    3.500 
#    0.000    2.667    0.000    0.000    0.000    0.000 
#
# Total GULP energy -267984.355998 kJ/mol
# GULP energy per Si atom -5583.007417 kJ/mol
# Density = 2.068672 g / cm^3
# Si number density = 20.733908 Si / 1000 Ang^3
#
#
#
# Elastic Constant Matrix: (Units=GPa)
#
#
# Indices 1 2 3 4 5 6 
#
# 1 195.8050 2.0033 140.0888 0.0000 0.0000 0.0000
# 2 2.0033 55.6608 -11.4036 0.0000 0.0000 0.0000
# 3 140.0888 -11.4036 180.9180 0.0000 0.0000 0.0000
# 4 0.0000 0.0000 0.0000 -57.9755 0.0000 0.0000
# 5 0.0000 0.0000 0.0000 0.0000 43.2071 0.0000
# 6 0.0000 0.0000 0.0000 0.0000 0.0000 -8.9765
#
#
#
# Elastic Compliance Matrix: (Units=1/GPa)
#
#
# Indices 1 2 3 4 5 6 
#
# 1 0.011738 -0.002314 -0.009235 0.000000 0.000000 0.000000
# 2 -0.002314 0.018657 0.002968 0.000000 0.000000 0.000000
# 3 -0.009235 0.002968 0.012865 0.000000 0.000000 0.000000
# 4 0.000000 0.000000 0.000000 -0.017249 0.000000 0.000000
# 5 0.000000 0.000000 0.000000 0.000000 0.023144 0.000000
# 6 0.000000 0.000000 0.000000 0.000000 0.000000 -0.111402
#
#
# Mechanical properties :
#
#
# Convention : Reuss Voigt Hill
#
# Bulk Modulus (GPa) = 38.31680 77.08455 57.70068
# Shear Modulus (GPa) = -137.41998 15.36402 -61.02798
#
# Velocity S-wave (km/s) = -8.14996 2.72510 -5.43119
# Velocity P-wave (km/s) = 8.36911 6.86734 3.38243
#
# Compressibility (1/GPa) = 0.02609821
#
# Stress axis : x y z
#
# Youngs Moduli (GPa) = 85.19499 53.59810 77.72973
#
# Poissons Ratio (x) = 0.12405 0.71781
# Poissons Ratio (y) = 0.19718 -0.23071
# Poissons Ratio (z) = 0.78675 -0.15909
#
# Static dielectric constant tensor:
#      x y z
#    x 1.717690 0.000000 0.000000 
#    y 0.000000 1.779650 0.000000 
#    z 0.000000 0.000000 1.693290 
# 
# From -- ./inp_files/24776.got.cif
#   From: 2010.05.17/outbox.cif.g08.bks.cpg/sg51_13_cif.got.tgz:24776.got - 2010.06.03 11:52:47.
