data_PCOD9399370
_publ_section_title
;
Structure prediction by ZEFSAII (Michael W. Deem and Ramdas Pophale) SiO2 
 PCOD9399370
Probable space group: P M M A
;
_chemical_formula_sum "Si O2"
_cell_formula_units_Z 64
_cell_length_a 20.524301
_cell_length_b 18.649520
_cell_length_c 9.716250
_cell_angle_alpha 90.000000
_cell_angle_beta 90.000000
_cell_angle_gamma 90.000000
_cell_volume 3719.073097
_symmetry_space_group_name_H-M "P M M A"
_symmetry_group_IT_number 51
_symmetry_cell_setting 'orthorhombic'
loop_
_space_group_symop_operation_xyz
x,y,z
1/2-x,-y,z
1/2+x,-y,-z
-x,y,-z
-x,-y,-z
1/2+x,y,-z
1/2-x,y,z
x,-y,z
loop_
_atom_site_type_symbol
_atom_site_label
_atom_site_fract_x
_atom_site_fract_y
_atom_site_fract_z
Si Si1 0.998392 0.697085 0.341193
Si Si2 0.865716 0.220354 0.362145
Si Si3 0.551114 0.415802 0.124835
Si Si4 0.619308 0.792229 0.678832
Si Si5 0.324599 0.824119 0.035104
Si Si6 0.883343 0.916470 0.189184
Si Si7 0.020769 0.921615 0.339522
Si Si8 0.675921 0.678837 0.131993
O O1 0.942564 0.759433 0.337731
O O2 0.977010 0.631408 0.248717
O O3 0.000000 0.675650 0.500000
O O4 0.068530 0.727200 0.296921
O O5 0.853089 0.216881 0.524796
O O6 0.851096 0.143744 0.290211
O O7 0.830619 0.286007 0.284494
O O8 0.556494 0.500000 0.154794
O O9 0.622225 0.380985 0.100983
O O10 0.500000 0.406887 0.000000
O O11 0.666936 0.807296 0.804407
O O12 0.572644 0.860791 0.679932
O O13 0.250000 0.844563 0.004826
O O14 0.370365 0.883648 0.962548
O O15 0.338660 0.748376 0.961377
O O16 0.958299 0.915868 0.240113
O O17 0.861640 0.000000 0.199879
O O18 0.000000 0.917638 0.500000
O O19 0.050275 0.000000 0.317140
O O20 0.750000 0.655107 0.109059
#
# Coordination Sequence:
#
# PCOD9399370 Si02
#       8
#     8   8   8   8   8   8   8   8
#     4   9  17  31  51  77 105 135 162 198 257 318
#     4   9  17  31  52  79 101 128 171 216 261 311
#     4  10  20  33  52  81 111 136 170 216 259 305
#     4  11  18  31  54  77 104 132 166 217 268 310
#     4  10  23  37  49  69  99 136 177 216 253 304
#     4  10  19  34  52  69  99 137 169 209 263 317
#     4  10  18  30  51  79 103 124 163 219 269 315
#     4   9  19  37  55  73 102 141 181 214 254 316
#
# _framework density 17.208589
#
# number of rings (size 3 to 8) (size 9 to 14) (size 15 to 20)
#    0.000    2.250    2.500    1.125    0.000    2.250 
#    0.000    1.250    0.000    0.000    0.000    0.000 
#    0.000    6.000    0.000    0.000    0.000    0.000 
#
# Total GULP energy -356469.164608 kJ/mol
# GULP energy per Si atom -5569.830697 kJ/mol
# Density = 1.716942 g / cm^3
# Si number density = 17.208589 Si / 1000 Ang^3
#
#
#
# Elastic Constant Matrix: (Units=GPa)
#
#
# Indices 1 2 3 4 5 6 
#
# 1 34.3276 43.4233 21.1213 0.0000 0.0000 0.0000
# 2 43.4233 116.0299 48.4540 0.0000 0.0000 0.0000
# 3 21.1213 48.4540 83.4679 0.0000 0.0000 0.0000
# 4 0.0000 0.0000 0.0000 18.6851 0.0000 0.0000
# 5 0.0000 0.0000 0.0000 0.0000 13.8933 0.0000
# 6 0.0000 0.0000 0.0000 0.0000 0.0000 -77.2280
#
#
#
# Elastic Compliance Matrix: (Units=1/GPa)
#
#
# Indices 1 2 3 4 5 6 
#
# 1 0.055755 -0.019766 -0.002634 0.000000 0.000000 0.000000
# 2 -0.019766 0.018383 -0.005670 0.000000 0.000000 0.000000
# 3 -0.002634 -0.005670 0.015939 0.000000 0.000000 0.000000
# 4 0.000000 0.000000 0.000000 0.053519 0.000000 0.000000
# 5 0.000000 0.000000 0.000000 0.000000 0.071977 0.000000
# 6 0.000000 0.000000 0.000000 0.000000 0.000000 -0.012949
#
#
# Mechanical properties :
#
#
# Convention : Reuss Voigt Hill
#
# Bulk Modulus (GPa) = 29.46662 51.09138 40.27900
# Shear Modulus (GPa) = 18.51323 -0.87480 8.81922
#
# Velocity S-wave (km/s) = 3.28352 -0.71376 2.26628
# Velocity P-wave (km/s) = 5.61567 5.39209 5.50501
#
# Compressibility (1/GPa) = 0.03393670
#
# Stress axis : x y z
#
# Youngs Moduli (GPa) = 17.93565 54.39668 62.73972
#
# Poissons Ratio (x) = 1.07519 0.16528
# Poissons Ratio (y) = 0.35451 0.35574
# Poissons Ratio (z) = 0.04725 0.30844
#
# Static dielectric constant tensor:
#      x y z
#    x 1.601470 0.000000 0.000000 
#    y 0.000000 1.569070 0.000000 
#    z 0.000000 0.000000 1.998080 
# 
# From -- ./inp_files/11195.got.cif
#   From: 2010.05.17/outbox.cif.g08.bks.cpg/sg51_6_cif.got.tgz:11195.got - 2010.06.03 11:52:47.
