data_PCOD9399875
_publ_section_title
;
Structure prediction by ZEFSAII (Michael W. Deem and Ramdas Pophale) SiO2 
 PCOD9399875
Probable space group: P M M A
;
_chemical_formula_sum "Si O2"
_cell_formula_units_Z 56
_cell_length_a 14.769534
_cell_length_b 8.560292
_cell_length_c 24.352589
_cell_angle_alpha 90.000000
_cell_angle_beta 90.000000
_cell_angle_gamma 90.000000
_cell_volume 3078.934934
_symmetry_space_group_name_H-M "P M M A"
_symmetry_group_IT_number 51
_symmetry_cell_setting 'orthorhombic'
loop_
_space_group_symop_operation_xyz
x,y,z
1/2-x,-y,z
1/2+x,-y,-z
-x,y,-z
-x,-y,-z
1/2+x,y,-z
1/2-x,y,z
x,-y,z
loop_
_atom_site_type_symbol
_atom_site_label
_atom_site_fract_x
_atom_site_fract_y
_atom_site_fract_z
Si Si1 0.144692 0.184630 0.021511
Si Si2 0.039719 0.813202 0.129616
Si Si3 0.250000 0.315625 0.401560
Si Si4 0.571560 0.813708 0.654849
Si Si5 0.352456 0.314287 0.899981
Si Si6 0.854914 0.686713 0.765688
Si Si7 0.750000 0.187836 0.477913
Si Si8 0.449338 0.810770 0.556031
O O1 0.250000 0.200420 0.038564
O O2 0.080879 0.238637 0.070821
O O3 0.127456 0.000000 0.011296
O O4 0.133346 0.272444 0.964171
O O5 0.100913 0.745984 0.178157
O O6 0.935375 0.761515 0.132571
O O7 0.045344 0.000000 0.131039
O O8 0.250000 0.500000 0.388787
O O9 0.163120 0.233118 0.376223
O O10 0.250000 0.283221 0.465952
O O11 0.583303 0.742446 0.715018
O O12 0.494243 0.755836 0.612763
O O13 0.563989 0.000000 0.660369
O O14 0.250000 0.259765 0.885904
O O15 0.355621 0.500000 0.893022
O O16 0.750000 0.742292 0.759343
O O17 0.852619 0.500000 0.765711
O O18 0.843248 0.224023 0.447311
O O19 0.750000 0.000000 0.490311
O O20 0.500000 0.755454 0.500000
O O21 0.459239 0.000000 0.555650
#
# Coordination Sequence:
#
# PCOD9399875 Si02
#       8
#     8   8   4   8   8   8   4   8
#     4   9  18  33  53  80 114 147 181 225 274 331
#     4  11  22  36  57  83 111 146 189 231 276 328
#     4  12  22  32  50  82 116 146 182 223 272 325
#     4  11  21  36  58  81 108 146 188 226 270 328
#     4  10  21  36  55  80 111 148 187 229 282 336
#     4  11  24  40  58  83 114 144 179 225 279 335
#     4  10  18  34  56  80 114 146 178 223 270 325
#     4   9  17  30  54  86 110 139 182 224 269 317
#
# _framework density 18.188106000000001
#
# number of rings (size 3 to 8) (size 9 to 14) (size 15 to 20)
#    0.000    1.714    2.143    3.214    0.000    5.143 
#    0.000    3.571    1.571    0.000    0.000    0.000 
#    0.000    0.000    0.000    0.000    0.000    0.000 
#
# Total GULP energy -312605.290551 kJ/mol
# GULP energy per Si atom -5582.237331 kJ/mol
# Density = 1.814671 g / cm^3
# Si number density = 18.188106 Si / 1000 Ang^3
#
#
#
# Elastic Constant Matrix: (Units=GPa)
#
#
# Indices 1 2 3 4 5 6 
#
# 1 98.5655 14.9951 34.5371 0.0000 0.0000 0.0000
# 2 14.9951 31.0687 14.0775 0.0000 0.0000 0.0000
# 3 34.5371 14.0775 56.3709 0.0000 0.0000 0.0000
# 4 0.0000 0.0000 0.0000 43.7261 0.0000 0.0000
# 5 0.0000 0.0000 0.0000 0.0000 31.1550 0.0000
# 6 0.0000 0.0000 0.0000 0.0000 0.0000 17.1693
#
#
#
# Elastic Compliance Matrix: (Units=1/GPa)
#
#
# Indices 1 2 3 4 5 6 
#
# 1 0.013170 -0.003045 -0.007308 0.000000 0.000000 0.000000
# 2 -0.003045 0.036997 -0.007374 0.000000 0.000000 0.000000
# 3 -0.007308 -0.007374 0.024059 0.000000 0.000000 0.000000
# 4 0.000000 0.000000 0.000000 0.022870 0.000000 0.000000
# 5 0.000000 0.000000 0.000000 0.000000 0.032098 0.000000
# 6 0.000000 0.000000 0.000000 0.000000 0.000000 0.058243
#
#
# Mechanical properties :
#
#
# Convention : Reuss Voigt Hill
#
# Bulk Modulus (GPa) = 25.79195 34.80273 30.29734
# Shear Modulus (GPa) = 21.20312 26.56977 23.88644
#
# Velocity S-wave (km/s) = 3.41804 3.82623 3.62788
# Velocity P-wave (km/s) = 5.45791 6.22065 5.85172
#
# Compressibility (1/GPa) = 0.03877179
#
# Stress axis : x y z
#
# Youngs Moduli (GPa) = 75.93264 27.02889 41.56486
#
# Poissons Ratio (x) = 0.08230 0.30377
# Poissons Ratio (y) = 0.23119 0.30650
# Poissons Ratio (z) = 0.55494 0.19931
#
# Static dielectric constant tensor:
#      x y z
#    x 1.637070 0.000000 0.000000 
#    y 0.000000 1.621140 0.000000 
#    z 0.000000 0.000000 1.617890 
# 
# From -- ./inp_files/33553.got.cif
#   From: 2010.05.17/outbox.cif.g08.bks.cpg/sg51_17_cif.got.tgz:33553.got - 2010.06.03 11:52:47.
