data_PCOD9399253
_publ_section_title
;
Structure prediction by ZEFSAII (Michael W. Deem and Ramdas Pophale) SiO2 
 PCOD9399253
Probable space group: P M M A
;
_chemical_formula_sum "Si O2"
_cell_formula_units_Z 34
_cell_length_a 9.947751
_cell_length_b 19.593188
_cell_length_c 6.983700
_cell_angle_alpha 90.000000
_cell_angle_beta 90.000000
_cell_angle_gamma 90.000000
_cell_volume 1361.180086
_symmetry_space_group_name_H-M "P M M A"
_symmetry_group_IT_number 51
_symmetry_cell_setting 'orthorhombic'
loop_
_space_group_symop_operation_xyz
x,y,z
1/2-x,-y,z
1/2+x,-y,-z
-x,y,-z
-x,-y,-z
1/2+x,y,-z
1/2-x,y,z
x,-y,z
loop_
_atom_site_type_symbol
_atom_site_label
_atom_site_fract_x
_atom_site_fract_y
_atom_site_fract_z
Si Si1 0.250000 0.282757 0.641582
Si Si2 0.527769 0.925395 0.770840
Si Si3 0.250000 0.174487 0.145911
Si Si4 0.031723 0.618122 0.726024
Si Si5 0.250000 0.128075 0.702123
Si Si6 0.750000 0.667204 0.791854
Si Si7 0.750000 0.500000 0.198496
O O1 0.385009 0.310899 0.740399
O O2 0.250000 0.202813 0.612045
O O3 0.250000 0.319449 0.436405
O O4 0.622356 0.859784 0.751327
O O5 0.386095 0.912967 0.667710
O O6 0.584780 0.000000 0.722043
O O7 0.500000 0.928316 0.000000
O O8 0.250000 0.255756 0.131200
O O9 0.250000 0.146067 0.929569
O O10 0.131883 0.559235 0.789284
O O11 0.000000 0.605405 0.500000
O O12 0.887774 0.626563 0.828827
#
# Coordination Sequence:
#
# PCOD9399253 Si02
#       7
#     4   8   4   8   4   4   2
#     4   9  18  32  47  67  99 131 154 188 241 289
#     4   9  17  29  46  69  95 122 158 206 249 280
#     4  10  19  30  49  73  95 123 162 202 238 278
#     4   9  18  30  47  71  98 127 156 190 235 282
#     4  10  18  30  50  72  92 124 167 199 233 284
#     4  10  19  32  48  71 101 127 153 191 241 286
#     4  10  18  30  48  74 102 126 154 196 236 274
#
# _framework density 24.978325999999999
#
# number of rings (size 3 to 8) (size 9 to 14) (size 15 to 20)
#    0.000    2.588    0.000    3.176    0.000    3.294 
#    0.000    0.000    0.000    4.235    0.000   13.176 
#    0.000    7.529    0.000    0.000    0.000    0.000 
#
# Total GULP energy -189741.353616 kJ/mol
# GULP energy per Si atom -5580.628048 kJ/mol
# Density = 2.492147 g / cm^3
# Si number density = 24.978326 Si / 1000 Ang^3
#
#
#
# Elastic Constant Matrix: (Units=GPa)
#
#
# Indices 1 2 3 4 5 6 
#
# 1 212.7234 96.9146 23.5183 0.0000 0.0000 0.0000
# 2 96.9146 170.9945 24.3038 0.0000 0.0000 0.0000
# 3 23.5183 24.3038 81.5360 0.0000 0.0000 0.0000
# 4 0.0000 0.0000 0.0000 -120.3764 0.0000 0.0000
# 5 0.0000 0.0000 0.0000 0.0000 8.1296 0.0000
# 6 0.0000 0.0000 0.0000 0.0000 0.0000 33.9045
#
#
#
# Elastic Compliance Matrix: (Units=1/GPa)
#
#
# Indices 1 2 3 4 5 6 
#
# 1 0.006387 -0.003506 -0.000797 0.000000 0.000000 0.000000
# 2 -0.003506 0.008032 -0.001383 0.000000 0.000000 0.000000
# 3 -0.000797 -0.001383 0.012907 0.000000 0.000000 0.000000
# 4 0.000000 0.000000 0.000000 -0.008307 0.000000 0.000000
# 5 0.000000 0.000000 0.000000 0.000000 0.123008 0.000000
# 6 0.000000 0.000000 0.000000 0.000000 0.000000 0.029495
#
#
# Mechanical properties :
#
#
# Convention : Reuss Voigt Hill
#
# Bulk Modulus (GPa) = 62.68475 83.85859 73.27167
# Shear Modulus (GPa) = 26.56608 5.69934 16.13271
#
# Velocity S-wave (km/s) = 3.26477 1.51217 2.54415
# Velocity P-wave (km/s) = 6.27390 6.05758 6.16669
#
# Compressibility (1/GPa) = 0.01595284
#
# Stress axis : x y z
#
# Youngs Moduli (GPa) = 156.57917 124.50178 77.48000
#
# Poissons Ratio (x) = 0.43656 0.06175
# Poissons Ratio (y) = 0.54903 0.10713
# Poissons Ratio (z) = 0.12479 0.17215
#
# Static dielectric constant tensor:
#      x y z
#    x 1.970440 0.000000 0.000000 
#    y 0.000000 1.854120 0.000000 
#    z 0.000000 0.000000 2.115840 
# 
# From -- ./inp_files/5104.got.cif
#   From: 2010.05.17/outbox.cif.g08.bks.cpg/sg51_3_cif.got.tgz:5104.got - 2010.06.03 11:52:47.
