data_PCOD9399384
_publ_section_title
;
Structure prediction by ZEFSAII (Michael W. Deem and Ramdas Pophale) SiO2 
 PCOD9399384
Probable space group: P M M A
;
_chemical_formula_sum "Si O2"
_cell_formula_units_Z 48
_cell_length_a 21.140979
_cell_length_b 7.507244
_cell_length_c 14.965617
_cell_angle_alpha 90.000000
_cell_angle_beta 90.000000
_cell_angle_gamma 90.000000
_cell_volume 2375.200374
_symmetry_space_group_name_H-M "P M M A"
_symmetry_group_IT_number 51
_symmetry_cell_setting 'orthorhombic'
loop_
_space_group_symop_operation_xyz
x,y,z
1/2-x,-y,z
1/2+x,-y,-z
-x,y,-z
-x,-y,-z
1/2+x,y,-z
1/2-x,y,z
x,-y,z
loop_
_atom_site_type_symbol
_atom_site_label
_atom_site_fract_x
_atom_site_fract_y
_atom_site_fract_z
Si Si1 0.320973 0.217626 0.064789
Si Si2 0.179380 0.215095 0.447541
Si Si3 0.482888 0.207844 0.756353
Si Si4 0.056509 0.708768 0.562513
Si Si5 0.373313 0.217900 0.257037
Si Si6 0.562719 0.217318 0.055318
O O1 0.250000 0.274762 0.042761
O O2 0.339647 0.271437 0.165424
O O3 0.321592 0.000000 0.064389
O O4 0.374644 0.278500 0.995909
O O5 0.250000 0.276762 0.471329
O O6 0.123421 0.265909 0.514565
O O7 0.160535 0.276313 0.347856
O O8 0.180529 0.000000 0.445820
O O9 0.447141 0.219005 0.662639
O O10 0.553894 0.280637 0.744450
O O11 0.446559 0.279759 0.842881
O O12 0.492808 0.000000 0.776942
O O13 0.044057 0.500000 0.571798
O O14 0.000000 0.784504 0.500000
O O15 0.372877 0.000000 0.259073
O O16 0.565700 0.000000 0.054287
O O17 0.500000 0.266839 0.000000
#
# Coordination Sequence:
#
# PCOD9399384 Si02
#       6
#     8   8   8   8   8   8
#     4   9  15  23  38  66 104 135 158 196 252 307
#     4  10  20  34  54  80 106 132 169 217 267 317
#     4  10  18  30  52  77 101 132 172 216 257 301
#     4  11  23  37  53  74 103 139 178 216 256 312
#     4   9  15  25  45  74 104 131 160 204 260 312
#     4   9  15  25  42  68  98 129 165 202 248 304
#
# _framework density 20.208822999999999
#
# number of rings (size 3 to 8) (size 9 to 14) (size 15 to 20)
#    0.000    2.333    3.333    1.000    0.000    3.000 
#    0.000    0.833    0.000    3.500    0.000    0.000 
#    0.000    2.667    0.000    0.000    0.000    0.000 
#
# Total GULP energy -267996.819534 kJ/mol
# GULP energy per Si atom -5583.267074 kJ/mol
# Density = 2.016283 g / cm^3
# Si number density = 20.208823 Si / 1000 Ang^3
#
#
#
# Elastic Constant Matrix: (Units=GPa)
#
#
# Indices 1 2 3 4 5 6 
#
# 1 172.0962 -10.0070 85.9559 0.0000 0.0000 0.0000
# 2 -10.0070 47.1364 -11.3803 0.0000 0.0000 0.0000
# 3 85.9559 -11.3803 150.5205 0.0000 0.0000 0.0000
# 4 0.0000 0.0000 0.0000 -5.4929 0.0000 0.0000
# 5 0.0000 0.0000 0.0000 0.0000 26.1242 0.0000
# 6 0.0000 0.0000 0.0000 0.0000 0.0000 48.1543
#
#
#
# Elastic Compliance Matrix: (Units=1/GPa)
#
#
# Indices 1 2 3 4 5 6 
#
# 1 0.008147 0.000618 -0.004606 0.000000 0.000000 0.000000
# 2 0.000618 0.021656 0.001285 0.000000 0.000000 0.000000
# 3 -0.004606 0.001285 0.009371 0.000000 0.000000 0.000000
# 4 0.000000 0.000000 0.000000 -0.182053 0.000000 0.000000
# 5 0.000000 0.000000 0.000000 0.000000 0.038279 0.000000
# 6 0.000000 0.000000 0.000000 0.000000 0.000000 0.020767
#
#
# Mechanical properties :
#
#
# Convention : Reuss Voigt Hill
#
# Bulk Modulus (GPa) = 29.61442 55.43225 42.52333
# Shear Modulus (GPa) = -74.43666 34.10274 -20.16696
#
# Velocity S-wave (km/s) = -6.07567 4.11240 -3.16243
# Velocity P-wave (km/s) = 5.87642 7.07378 2.78443
#
# Compressibility (1/GPa) = 0.03376733
#
# Stress axis : x y z
#
# Youngs Moduli (GPa) = 122.74444 46.17590 106.71361
#
# Poissons Ratio (x) = -0.02852 0.49149
# Poissons Ratio (y) = -0.07581 -0.13709
# Poissons Ratio (z) = 0.56533 -0.05932
#
# Static dielectric constant tensor:
#      x y z
#    x 1.695780 0.000000 0.000000 
#    y 0.000000 1.771880 0.000000 
#    z 0.000000 0.000000 1.688540 
# 
# From -- ./inp_files/24690.got.cif
#   From: 2010.05.17/outbox.cif.g08.bks.cpg/sg51_13_cif.got.tgz:24690.got - 2010.06.03 11:52:47.
