data_PCOD9399153
_publ_section_title
;
Structure prediction by ZEFSAII (Michael W. Deem and Ramdas Pophale) SiO2 
 PCOD9399153
Probable space group: P M M A
;
_chemical_formula_sum "Si O2"
_cell_formula_units_Z 64
_cell_length_a 30.521137
_cell_length_b 8.556130
_cell_length_c 15.326610
_cell_angle_alpha 90.000000
_cell_angle_beta 90.000000
_cell_angle_gamma 90.000000
_cell_volume 4002.434094
_symmetry_space_group_name_H-M "P M M A"
_symmetry_group_IT_number 51
_symmetry_cell_setting 'orthorhombic'
loop_
_space_group_symop_operation_xyz
x,y,z
1/2-x,-y,z
1/2+x,-y,-z
-x,y,-z
-x,-y,-z
1/2+x,y,-z
1/2-x,y,z
x,-y,z
loop_
_atom_site_type_symbol
_atom_site_label
_atom_site_fract_x
_atom_site_fract_y
_atom_site_fract_z
Si Si1 0.884395 0.183052 0.195808
Si Si2 0.701319 0.689958 0.487282
Si Si3 0.199655 0.313605 0.717808
Si Si4 0.559929 0.688600 0.357793
Si Si5 0.026685 0.183837 0.124378
Si Si6 0.606969 0.690809 0.538115
Si Si7 0.937702 0.316942 0.044953
Si Si8 0.960600 0.688814 0.685255
O O1 0.835454 0.222952 0.225658
O O2 0.915459 0.239642 0.274994
O O3 0.898286 0.271337 0.108141
O O4 0.890716 0.000000 0.182552
O O5 0.750000 0.744846 0.514601
O O6 0.702159 0.500000 0.492063
O O7 0.695272 0.727772 0.384728
O O8 0.657615 0.743343 0.536782
O O9 0.250000 0.285274 0.742754
O O10 0.191070 0.500000 0.724281
O O11 0.563664 0.500000 0.351548
O O12 0.583220 0.737176 0.447738
O O13 0.508511 0.728259 0.354018
O O14 0.042246 0.239709 0.218652
O O15 0.981789 0.271749 0.098232
O O16 0.017713 0.000000 0.125050
O O17 0.059745 0.225051 0.046027
O O18 0.607096 0.500000 0.538433
O O19 0.577700 0.740861 0.619917
O O20 0.938230 0.500000 0.026530
O O21 0.958913 0.500000 0.692364
#
# Coordination Sequence:
#
# PCOD9399153 Si02
#       8
#     8   8   8   8   8   8   8   8
#     4  12  22  31  47  73 104 133 162 199 248 300
#     4   8  13  23  43  70  95 120 158 209 251 280
#     4   9  17  31  51  72  96 129 169 207 243 289
#     4  10  18  30  46  65  95 133 174 207 236 281
#     4  11  21  34  50  72 100 125 155 201 251 295
#     4   9  16  27  45  69  95 128 172 210 242 283
#     4  11  21  35  54  72  93 125 165 202 238 290
#     4  10  19  30  47  69  95 132 172 208 241 287
#
# _framework density 15.990270000000001
#
# number of rings (size 3 to 8) (size 9 to 14) (size 15 to 20)
#    0.000    2.000    2.500    5.250    0.000    1.750 
#    0.000    0.625    0.000    1.500    0.000    0.875 
#    0.000    5.000    0.000    0.000    0.000    0.000 
#
# Total GULP energy -357077.045069 kJ/mol
# GULP energy per Si atom -5579.328829 kJ/mol
# Density = 1.595388 g / cm^3
# Si number density = 15.990270 Si / 1000 Ang^3
#
#
#
# Elastic Constant Matrix: (Units=GPa)
#
#
# Indices 1 2 3 4 5 6 
#
# 1 90.2591 10.3657 41.3414 0.0000 0.0000 0.0000
# 2 10.3657 18.3869 3.0797 0.0000 0.0000 0.0000
# 3 41.3414 3.0797 72.4621 0.0000 0.0000 0.0000
# 4 0.0000 0.0000 0.0000 -24.1665 0.0000 0.0000
# 5 0.0000 0.0000 0.0000 0.0000 19.2086 0.0000
# 6 0.0000 0.0000 0.0000 0.0000 0.0000 -10.1018
#
#
#
# Elastic Compliance Matrix: (Units=1/GPa)
#
#
# Indices 1 2 3 4 5 6 
#
# 1 0.015971 -0.007531 -0.008792 0.000000 0.000000 0.000000
# 2 -0.007531 0.058328 0.001818 0.000000 0.000000 0.000000
# 3 -0.008792 0.001818 0.018739 0.000000 0.000000 0.000000
# 4 0.000000 0.000000 0.000000 -0.041380 0.000000 0.000000
# 5 0.000000 0.000000 0.000000 0.000000 0.052060 0.000000
# 6 0.000000 0.000000 0.000000 0.000000 0.000000 -0.098992
#
#
# Mechanical properties :
#
#
# Convention : Reuss Voigt Hill
#
# Bulk Modulus (GPa) = 15.61828 32.29798 23.95813
# Shear Modulus (GPa) = 90.77826 5.40947 48.09387
#
# Velocity S-wave (km/s) = 7.54282 1.84128 5.49020
# Velocity P-wave (km/s) = 9.25459 4.97622 7.43002
#
# Compressibility (1/GPa) = 0.06402752
#
# Stress axis : x y z
#
# Youngs Moduli (GPa) = 62.61327 17.14443 53.36467
#
# Poissons Ratio (x) = 0.12912 0.46917
# Poissons Ratio (y) = 0.47155 -0.09700
# Poissons Ratio (z) = 0.55048 -0.03116
#
# Static dielectric constant tensor:
#      x y z
#    x 1.548440 0.000000 0.000000 
#    y 0.000000 1.534870 0.000000 
#    z 0.000000 0.000000 1.516100 
# 
# From -- ./inp_files/26725.got.cif
#   From: 2010.05.17/outbox.cif.g08.bks.cpg/sg51_14_cif.got.tgz:26725.got - 2010.06.03 11:52:47.
