data_PCOD9399832
_publ_section_title
;
Structure prediction by ZEFSAII (Michael W. Deem and Ramdas Pophale) SiO2 
 PCOD9399832
Probable space group: P M M A
;
_chemical_formula_sum "Si O2"
_cell_formula_units_Z 64
_cell_length_a 14.914482
_cell_length_b 18.566262
_cell_length_c 12.448703
_cell_angle_alpha 90.000000
_cell_angle_beta 90.000000
_cell_angle_gamma 90.000000
_cell_volume 3447.122799
_symmetry_space_group_name_H-M "P M M A"
_symmetry_group_IT_number 51
_symmetry_cell_setting 'orthorhombic'
loop_
_space_group_symop_operation_xyz
x,y,z
1/2-x,-y,z
1/2+x,-y,-z
-x,y,-z
-x,-y,-z
1/2+x,y,-z
1/2-x,y,z
x,-y,z
loop_
_atom_site_type_symbol
_atom_site_label
_atom_site_fract_x
_atom_site_fract_y
_atom_site_fract_z
Si Si1 0.071710 0.275337 0.708928
Si Si2 0.349384 0.144393 0.814206
Si Si3 0.857386 0.417204 0.702850
Si Si4 0.352294 0.312795 0.489243
Si Si5 0.453887 0.083119 0.213635
Si Si6 0.644555 0.803326 0.939553
Si Si7 0.567437 0.174732 0.596667
Si Si8 0.963493 0.343740 0.889020
O O1 0.144630 0.215246 0.739302
O O2 0.096475 0.317828 0.601642
O O3 0.985344 0.227541 0.678276
O O4 0.046177 0.321002 0.812452
O O5 0.250000 0.110881 0.803038
O O6 0.438125 0.097687 0.788331
O O7 0.359422 0.173039 0.936105
O O8 0.750000 0.409755 0.713270
O O9 0.878322 0.500000 0.677590
O O10 0.886171 0.364111 0.606275
O O11 0.902733 0.393387 0.813723
O O12 0.250000 0.332211 0.508185
O O13 0.359811 0.229034 0.452198
O O14 0.405813 0.135266 0.128443
O O15 0.413707 0.106373 0.329805
O O16 0.437261 0.000000 0.189881
O O17 0.750000 0.797084 0.909162
O O18 0.592717 0.728417 0.919445
O O19 0.500000 0.156032 0.500000
O O20 0.000000 0.375498 0.000000
#
# Coordination Sequence:
#
# PCOD9399832 Si02
#       8
#     8   8   8   8   8   8   8   8
#     4  10  18  33  56  87 115 136 184 245 296 337
#     4  10  20  35  55  81 113 147 189 242 291 342
#     4  10  22  39  58  84 119 158 197 235 283 348
#     4  10  19  34  59  85 110 147 194 245 296 346
#     4  11  22  36  52  76 113 151 190 240 291 347
#     4  11  21  35  56  83 110 147 196 240 286 340
#     4   9  18  33  55  76 102 136 180 238 288 340
#     4  12  20  36  61  86 118 152 194 241 290 341
#
# _framework density 18.566208
#
# number of rings (size 3 to 8) (size 9 to 14) (size 15 to 20)
#    0.000    1.625    5.000    1.125    0.000    3.500 
#    0.000    2.500    0.000    0.000    0.000    3.500 
#    0.000    0.000    0.000    0.000    0.000    0.000 
#
# Total GULP energy -356828.140384 kJ/mol
# GULP energy per Si atom -5575.439694 kJ/mol
# Density = 1.852395 g / cm^3
# Si number density = 18.566208 Si / 1000 Ang^3
#
#
#
# Elastic Constant Matrix: (Units=GPa)
#
#
# Indices 1 2 3 4 5 6 
#
# 1 58.2971 24.3169 22.2945 0.0000 0.0000 0.0000
# 2 24.3169 66.2208 24.8194 0.0000 0.0000 0.0000
# 3 22.2945 24.8194 110.9256 0.0000 0.0000 0.0000
# 4 0.0000 0.0000 0.0000 10.6914 0.0000 0.0000
# 5 0.0000 0.0000 0.0000 0.0000 21.9044 0.0000
# 6 0.0000 0.0000 0.0000 0.0000 0.0000 17.0333
#
#
#
# Elastic Compliance Matrix: (Units=1/GPa)
#
#
# Indices 1 2 3 4 5 6 
#
# 1 0.020983 -0.006685 -0.002721 0.000000 0.000000 0.000000
# 2 -0.006685 0.018613 -0.002821 0.000000 0.000000 0.000000
# 3 -0.002721 -0.002821 0.010193 0.000000 0.000000 0.000000
# 4 0.000000 0.000000 0.000000 0.093533 0.000000 0.000000
# 5 0.000000 0.000000 0.000000 0.000000 0.045653 0.000000
# 6 0.000000 0.000000 0.000000 0.000000 0.000000 0.058708
#
#
# Mechanical properties :
#
#
# Convention : Reuss Voigt Hill
#
# Bulk Modulus (GPa) = 39.47272 42.03391 40.75331
# Shear Modulus (GPa) = 17.82000 20.86000 19.34000
#
# Velocity S-wave (km/s) = 3.10144 3.35557 3.23100
# Velocity P-wave (km/s) = 5.84225 6.14022 5.99309
#
# Compressibility (1/GPa) = 0.02533395
#
# Stress axis : x y z
#
# Youngs Moduli (GPa) = 47.65824 53.72550 98.10430
#
# Poissons Ratio (x) = 0.35916 0.26699
# Poissons Ratio (y) = 0.31860 0.27676
# Poissons Ratio (z) = 0.12970 0.15156
#
# Static dielectric constant tensor:
#      x y z
#    x 1.666460 0.000000 0.000000 
#    y 0.000000 1.636570 0.000000 
#    z 0.000000 0.000000 1.668200 
# 
# From -- ./inp_files/16896.got.cif
#   From: 2010.05.17/outbox.cif.g08.bks.cpg/sg51_9_cif.got.tgz:16896.got - 2010.06.03 11:52:47.
