data_PCOD9399067
_publ_section_title
;
Structure prediction by ZEFSAII (Michael W. Deem and Ramdas Pophale) SiO2 
 PCOD9399067
Probable space group: P M M A
;
_chemical_formula_sum "Si O2"
_cell_formula_units_Z 64
_cell_length_a 31.371654
_cell_length_b 8.518236
_cell_length_c 14.928043
_cell_angle_alpha 90.000000
_cell_angle_beta 90.000000
_cell_angle_gamma 90.000000
_cell_volume 3989.238135
_symmetry_space_group_name_H-M "P M M A"
_symmetry_group_IT_number 51
_symmetry_cell_setting 'orthorhombic'
loop_
_space_group_symop_operation_xyz
x,y,z
1/2-x,-y,z
1/2+x,-y,-z
-x,y,-z
-x,-y,-z
1/2+x,y,-z
1/2-x,y,z
x,-y,z
loop_
_atom_site_type_symbol
_atom_site_label
_atom_site_fract_x
_atom_site_fract_y
_atom_site_fract_z
Si Si1 0.298229 0.308209 0.844847
Si Si2 0.957595 0.689670 0.945465
Si Si3 0.882267 0.685177 0.068577
Si Si4 0.116576 0.812742 0.566697
Si Si5 0.974759 0.183232 0.750547
Si Si6 0.542034 0.687418 0.555158
Si Si7 0.923407 0.184071 0.242931
Si Si8 0.798774 0.310740 0.362313
O O1 0.250000 0.260285 0.867218
O O2 0.299110 0.500000 0.844796
O O3 0.334840 0.251017 0.912189
O O4 0.307110 0.260668 0.741446
O O5 0.957839 0.500000 0.950566
O O6 0.959139 0.739163 0.842423
O O7 0.914663 0.749749 0.994195
O O8 0.000000 0.744175 0.000000
O O9 0.877719 0.500000 0.050547
O O10 0.906045 0.711514 0.162734
O O11 0.085241 0.743351 0.492469
O O12 0.096442 0.767103 0.662750
O O13 0.165203 0.755506 0.572535
O O14 0.115517 0.000000 0.559701
O O15 0.959508 0.256931 0.657545
O O16 0.025954 0.197376 0.751386
O O17 0.963560 0.000000 0.751519
O O18 0.500000 0.746710 0.500000
O O19 0.540486 0.500000 0.552880
O O20 0.912741 0.000000 0.226359
O O21 0.750000 0.265016 0.383699
O O22 0.800860 0.500000 0.363698
#
# Coordination Sequence:
#
# PCOD9399067 Si02
#       8
#     8   8   8   8   8   8   8   8
#     4   8  14  25  43  68  95 124 160 199 237 279
#     4  10  20  32  47  71  98 126 163 204 244 288
#     4  10  18  29  48  69  94 130 166 201 238 284
#     4  11  21  33  49  72 103 136 168 204 246 299
#     4  11  22  36  51  68  97 133 166 205 248 291
#     4  11  23  36  53  74  97 129 168 209 252 298
#     4  10  20  30  44  68  99 131 163 200 240 287
#     4   9  17  30  49  73 101 132 168 208 246 292
#
# _framework density 16.043163
#
# number of rings (size 3 to 8) (size 9 to 14) (size 15 to 20)
#    0.000    2.000    3.750    1.875    0.000    2.500 
#    0.000    0.000    0.000    0.375    0.000    0.875 
#    0.000    5.000    0.000    0.000    0.000    0.000 
#
# Total GULP energy -356844.377086 kJ/mol
# GULP energy per Si atom -5575.693392 kJ/mol
# Density = 1.600665 g / cm^3
# Si number density = 16.043163 Si / 1000 Ang^3
#
#
#
# Elastic Constant Matrix: (Units=GPa)
#
#
# Indices 1 2 3 4 5 6 
#
# 1 121.8193 21.6988 63.9148 0.0000 0.0000 0.0000
# 2 21.6988 8.1806 15.1529 0.0000 0.0000 0.0000
# 3 63.9148 15.1529 103.0751 0.0000 0.0000 0.0000
# 4 0.0000 0.0000 0.0000 14.0989 0.0000 0.0000
# 5 0.0000 0.0000 0.0000 0.0000 18.8617 0.0000
# 6 0.0000 0.0000 0.0000 0.0000 0.0000 9.0899
#
#
#
# Elastic Compliance Matrix: (Units=1/GPa)
#
#
# Indices 1 2 3 4 5 6 
#
# 1 0.017618 -0.036410 -0.005572 0.000000 0.000000 0.000000
# 2 -0.036410 0.243230 -0.013180 0.000000 0.000000 0.000000
# 3 -0.005572 -0.013180 0.015094 0.000000 0.000000 0.000000
# 4 0.000000 0.000000 0.000000 0.070927 0.000000 0.000000
# 5 0.000000 0.000000 0.000000 0.000000 0.053018 0.000000
# 6 0.000000 0.000000 0.000000 0.000000 0.000000 0.110012
#
#
# Mechanical properties :
#
#
# Convention : Reuss Voigt Hill
#
# Bulk Modulus (GPa) = 6.03797 48.28977 27.16387
# Shear Modulus (GPa) = 7.40272 17.23066 12.31669
#
# Velocity S-wave (km/s) = 2.15041 3.28078 2.77379
# Velocity P-wave (km/s) = 3.15237 6.67208 5.21795
#
# Compressibility (1/GPa) = 0.16561870
#
# Stress axis : x y z
#
# Youngs Moduli (GPa) = 56.76121 4.11134 66.25079
#
# Poissons Ratio (x) = 0.14969 0.36914
# Poissons Ratio (y) = 2.06666 0.87316
# Poissons Ratio (z) = 0.31626 0.05419
#
# Static dielectric constant tensor:
#      x y z
#    x 1.562740 0.000000 0.000000 
#    y 0.000000 1.547050 0.000000 
#    z 0.000000 0.000000 1.512500 
# 
# From -- ./inp_files/26601.got.cif
#   From: 2010.05.17/outbox.cif.g08.bks.cpg/sg51_14_cif.got.tgz:26601.got - 2010.06.03 11:52:47.
