data_PCOD9399661
_publ_section_title
;
Structure prediction by ZEFSAII (Michael W. Deem and Ramdas Pophale) SiO2 
 PCOD9399661
Probable space group: P M M A
;
_chemical_formula_sum "Si O2"
_cell_formula_units_Z 28
_cell_length_a 8.554319
_cell_length_b 19.301948
_cell_length_c 9.321376
_cell_angle_alpha 90.000000
_cell_angle_beta 90.000000
_cell_angle_gamma 90.000000
_cell_volume 1539.099189
_symmetry_space_group_name_H-M "P M M A"
_symmetry_group_IT_number 51
_symmetry_cell_setting 'orthorhombic'
loop_
_space_group_symop_operation_xyz
x,y,z
1/2-x,-y,z
1/2+x,-y,-z
-x,y,-z
-x,-y,-z
1/2+x,y,-z
1/2-x,y,z
x,-y,z
loop_
_atom_site_type_symbol
_atom_site_label
_atom_site_fract_x
_atom_site_fract_y
_atom_site_fract_z
Si Si1 0.438368 0.225787 0.837013
Si Si2 0.438659 0.074370 0.836412
Si Si3 0.563707 0.500000 0.336258
Si Si4 0.936097 0.355720 0.662112
O O1 0.250000 0.230193 0.836857
O O2 0.485743 0.149506 0.776218
O O3 0.508160 0.289088 0.749005
O O4 0.500000 0.229354 0.000000
O O5 0.250000 0.074330 0.839508
O O6 0.489470 0.000000 0.771419
O O7 0.500000 0.074193 0.000000
O O8 0.750000 0.500000 0.338440
O O9 0.500000 0.500000 0.500000
O O10 0.501843 0.572200 0.273218
O O11 0.750000 0.359724 0.657913
O O12 0.000000 0.349939 0.500000
#
# Coordination Sequence:
#
# PCOD9399661 Si02
#       4
#     8   8   4   8
#     4  10  19  32  50  75 105 135 167 205 250 297
#     4   8  14  25  43  67  95 127 163 202 242 286
#     4  10  18  32  53  76  99 126 163 204 244 290
#     4  11  21  35  54  76 101 131 167 206 248 294
#
# _framework density 18.192457999999998
#
# number of rings (size 3 to 8) (size 9 to 14) (size 15 to 20)
#    0.000    2.286    0.000    6.429    0.000    1.143 
#    0.000    0.714    0.000    0.857    0.000    0.000 
#    0.000    0.000    0.000    0.000    0.000    0.000 
#
# Total GULP energy -155975.006894 kJ/mol
# GULP energy per Si atom -5570.535960 kJ/mol
# Density = 1.815105 g / cm^3
# Si number density = 18.192458 Si / 1000 Ang^3
#
#
#
# Elastic Constant Matrix: (Units=GPa)
#
#
# Indices 1 2 3 4 5 6 
#
# 1 116.6590 68.5438 16.7979 0.0000 0.0000 0.0000
# 2 68.5438 249.5323 48.4447 0.0000 0.0000 0.0000
# 3 16.7979 48.4447 24.7252 0.0000 0.0000 0.0000
# 4 0.0000 0.0000 0.0000 420.7544 0.0000 0.0000
# 5 0.0000 0.0000 0.0000 0.0000 21.3267 0.0000
# 6 0.0000 0.0000 0.0000 0.0000 0.0000 62.5534
#
#
#
# Elastic Compliance Matrix: (Units=1/GPa)
#
#
# Indices 1 2 3 4 5 6 
#
# 1 0.010306 -0.002375 -0.002348 0.000000 0.000000 0.000000
# 2 -0.002375 0.007015 -0.012131 0.000000 0.000000 0.000000
# 3 -0.002348 -0.012131 0.065809 0.000000 0.000000 0.000000
# 4 0.000000 0.000000 0.000000 0.002377 0.000000 0.000000
# 5 0.000000 0.000000 0.000000 0.000000 0.046889 0.000000
# 6 0.000000 0.000000 0.000000 0.000000 0.000000 0.015986
#
#
# Mechanical properties :
#
#
# Convention : Reuss Voigt Hill
#
# Bulk Modulus (GPa) = 20.23441 73.16549 46.69995
# Shear Modulus (GPa) = 25.18079 118.06890 71.62485
#
# Velocity S-wave (km/s) = 3.72443 8.06479 6.28141
# Velocity P-wave (km/s) = 5.44442 11.27058 8.85064
#
# Compressibility (1/GPa) = 0.04942076
#
# Stress axis : x y z
#
# Youngs Moduli (GPa) = 97.03539 142.55051 15.19554
#
# Poissons Ratio (x) = 0.33855 0.03568
# Poissons Ratio (y) = 0.23045 0.18434
# Poissons Ratio (z) = 0.22785 1.72932
#
# Static dielectric constant tensor:
#      x y z
#    x 1.605380 0.000000 0.000000 
#    y 0.000000 1.714220 0.000000 
#    z 0.000000 0.000000 1.569460 
# 
# From -- ./inp_files/4775.got.cif
#   From: 2010.05.17/outbox.cif.g08.bks.cpg/sg51_3_cif.got.tgz:4775.got - 2010.06.03 11:52:47.
