data_PCOD9399051
_publ_section_title
;
Structure prediction by ZEFSAII (Michael W. Deem and Ramdas Pophale) SiO2 
 PCOD9399051
Probable space group: P M M A
;
_chemical_formula_sum "Si O2"
_cell_formula_units_Z 64
_cell_length_a 29.365618
_cell_length_b 8.826257
_cell_length_c 15.867622
_cell_angle_alpha 90.000000
_cell_angle_beta 90.000000
_cell_angle_gamma 90.000000
_cell_volume 4112.705009
_symmetry_space_group_name_H-M "P M M A"
_symmetry_group_IT_number 51
_symmetry_cell_setting 'orthorhombic'
loop_
_space_group_symop_operation_xyz
x,y,z
1/2-x,-y,z
1/2+x,-y,-z
-x,y,-z
-x,-y,-z
1/2+x,y,-z
1/2-x,y,z
x,-y,z
loop_
_atom_site_type_symbol
_atom_site_label
_atom_site_fract_x
_atom_site_fract_y
_atom_site_fract_z
Si Si1 0.552968 0.320181 0.678332
Si Si2 0.053114 0.318564 0.009702
Si Si3 0.199540 0.315881 0.902270
Si Si4 0.055252 0.825737 0.496207
Si Si5 0.892891 0.180216 0.832995
Si Si6 0.697838 0.682354 0.900532
Si Si7 0.104531 0.317600 0.834123
Si Si8 0.451879 0.182038 0.681793
O O1 0.551227 0.500000 0.686372
O O2 0.568351 0.272672 0.584253
O O3 0.585331 0.250861 0.749270
O O4 0.502074 0.253559 0.690679
O O5 0.056208 0.500000 0.024796
O O6 0.077262 0.236243 0.087216
O O7 0.078654 0.286373 0.922062
O O8 0.000000 0.278804 0.000000
O O9 0.250000 0.264007 0.876447
O O10 0.199706 0.500000 0.900582
O O11 0.156715 0.267001 0.847213
O O12 0.192388 0.275600 0.000552
O O13 0.068429 0.773839 0.590028
O O14 0.000000 0.825584 0.500000
O O15 0.069649 0.000000 0.482942
O O16 0.841619 0.238252 0.848379
O O17 0.894114 0.000000 0.828212
O O18 0.750000 0.718710 0.876384
O O19 0.692406 0.500000 0.895169
O O20 0.103230 0.500000 0.821718
O O21 0.079381 0.237518 0.757550
O O22 0.456609 0.000000 0.681405
#
# Coordination Sequence:
#
# PCOD9399051 Si02
#       8
#     8   8   8   8   8   8   8   8
#     4  11  21  33  51  72  96 127 167 206 238 283
#     4  10  20  33  47  65  94 132 171 205 236 277
#     4   8  14  27  48  70  91 120 160 204 245 281
#     4   8  16  32  50  69  96 127 156 195 246 291
#     4  12  23  33  48  71 101 132 162 200 247 298
#     4   9  17  33  55  73  93 125 165 206 246 288
#     4  10  18  29  47  70  96 128 166 202 237 283
#     4  10  20  33  49  71 102 132 159 195 244 295
#
# _framework density 15.561534999999999
#
# number of rings (size 3 to 8) (size 9 to 14) (size 15 to 20)
#    0.000    2.250    1.250    4.875    0.000    4.750 
#    0.000    0.000    0.000    0.375    0.000    0.875 
#    0.000    3.000    0.000    0.000    0.000    0.000 
#
# Total GULP energy -356956.089826 kJ/mol
# GULP energy per Si atom -5577.438904 kJ/mol
# Density = 1.552612 g / cm^3
# Si number density = 15.561535 Si / 1000 Ang^3
#
#
#
# Elastic Constant Matrix: (Units=GPa)
#
#
# Indices 1 2 3 4 5 6 
#
# 1 107.5093 49.0976 62.5003 0.0000 0.0000 0.0000
# 2 49.0976 68.2909 59.2808 0.0000 0.0000 0.0000
# 3 62.5003 59.2808 112.0770 0.0000 0.0000 0.0000
# 4 0.0000 0.0000 0.0000 25.5107 0.0000 0.0000
# 5 0.0000 0.0000 0.0000 0.0000 5.2855 0.0000
# 6 0.0000 0.0000 0.0000 0.0000 0.0000 11.5781
#
#
#
# Elastic Compliance Matrix: (Units=1/GPa)
#
#
# Indices 1 2 3 4 5 6 
#
# 1 0.015223 -0.006611 -0.004993 0.000000 0.000000 0.000000
# 2 -0.006611 0.029945 -0.012152 0.000000 0.000000 0.000000
# 3 -0.004993 -0.012152 0.018134 0.000000 0.000000 0.000000
# 4 0.000000 0.000000 0.000000 0.039199 0.000000 0.000000
# 5 0.000000 0.000000 0.000000 0.000000 0.189198 0.000000
# 6 0.000000 0.000000 0.000000 0.000000 0.000000 0.086370
#
#
# Mechanical properties :
#
#
# Convention : Reuss Voigt Hill
#
# Bulk Modulus (GPa) = 63.32678 69.95940 66.64309
# Shear Modulus (GPa) = 11.60515 16.27476 13.93996
#
# Velocity S-wave (km/s) = 2.73382 3.23744 2.99623
# Velocity P-wave (km/s) = 7.12375 7.68303 7.40867
#
# Compressibility (1/GPa) = 0.01579111
#
# Stress axis : x y z
#
# Youngs Moduli (GPa) = 65.69050 33.39472 55.14422
#
# Poissons Ratio (x) = 0.22076 0.27531
# Poissons Ratio (y) = 0.43425 0.67013
# Poissons Ratio (z) = 0.32797 0.40582
#
# Static dielectric constant tensor:
#      x y z
#    x 1.513890 0.000000 0.000000 
#    y 0.000000 1.520700 0.000000 
#    z 0.000000 0.000000 1.512790 
# 
# From -- ./inp_files/26706.got.cif
#   From: 2010.05.17/outbox.cif.g08.bks.cpg/sg51_14_cif.got.tgz:26706.got - 2010.06.03 11:52:47.
