data_PCOD9399783
_publ_section_title
;
Structure prediction by ZEFSAII (Michael W. Deem and Ramdas Pophale) SiO2 
 PCOD9399783
Probable space group: P M M A
;
_chemical_formula_sum "Si O2"
_cell_formula_units_Z 64
_cell_length_a 17.463838
_cell_length_b 14.451875
_cell_length_c 16.115168
_cell_angle_alpha 90.000000
_cell_angle_beta 90.000000
_cell_angle_gamma 90.000000
_cell_volume 4067.229960
_symmetry_space_group_name_H-M "P M M A"
_symmetry_group_IT_number 51
_symmetry_cell_setting 'orthorhombic'
loop_
_space_group_symop_operation_xyz
x,y,z
1/2-x,-y,z
1/2+x,-y,-z
-x,y,-z
-x,-y,-z
1/2+x,y,-z
1/2-x,y,z
x,-y,z
loop_
_atom_site_type_symbol
_atom_site_label
_atom_site_fract_x
_atom_site_fract_y
_atom_site_fract_z
Si Si1 0.338311 0.112271 0.487298
Si Si2 0.907465 0.218256 0.844335
Si Si3 0.921943 0.392552 0.950671
Si Si4 0.342243 0.106516 0.305521
Si Si5 0.660188 0.395018 0.119868
Si Si6 0.911776 0.790060 0.174046
Si Si7 0.093161 0.893634 0.993755
Si Si8 0.842764 0.108541 0.331582
O O1 0.250000 0.144717 0.486695
O O2 0.372511 0.134647 0.397264
O O3 0.371065 0.140069 0.576807
O O4 0.336231 0.000000 0.489255
O O5 0.903895 0.324311 0.875345
O O6 0.864544 0.179620 0.764352
O O7 0.997011 0.199922 0.827275
O O8 0.880278 0.159495 0.924302
O O9 0.931970 0.500000 0.926649
O O10 0.857723 0.386552 0.021792
O O11 0.000000 0.362662 0.000000
O O12 0.250000 0.102570 0.311316
O O13 0.367906 0.000000 0.286479
O O14 0.750000 0.382467 0.135213
O O15 0.637982 0.500000 0.143071
O O16 0.612501 0.316466 0.165670
O O17 0.883483 0.841986 0.090469
O O18 0.876991 0.834876 0.255937
O O19 0.117761 0.000000 0.992643
O O20 0.000000 0.892024 0.000000
O O21 0.750000 0.115101 0.331181
O O22 0.862044 0.000000 0.321238
#
# Coordination Sequence:
#
# PCOD9399783 Si02
#       8
#     8   8   8   8   8   8   8   8
#     4   7  12  27  48  65  86 121 160 195 236 283
#     4  11  19  30  46  69  92 125 161 192 232 284
#     4  10  18  33  52  68  90 123 162 198 238 285
#     4   9  18  32  49  69  95 127 162 200 238 281
#     4  10  20  33  50  70  92 121 159 203 241 276
#     4  11  19  30  45  67  96 126 155 192 239 283
#     4   9  17  28  40  57  88 126 157 179 212 268
#     4   9  17  29  46  68  93 123 159 196 236 283
#
# _framework density 15.735525000000001
#
# number of rings (size 3 to 8) (size 9 to 14) (size 15 to 20)
#    0.000    2.500    2.500    3.000    0.000    2.000 
#    0.000    0.625    0.000    4.500    0.000    0.875 
#    0.000    5.000    0.000    0.000    0.000    0.000 
#
# Total GULP energy -356413.816001 kJ/mol
# GULP energy per Si atom -5568.965875 kJ/mol
# Density = 1.569971 g / cm^3
# Si number density = 15.735525 Si / 1000 Ang^3
#
#
#
# Elastic Constant Matrix: (Units=GPa)
#
#
# Indices 1 2 3 4 5 6 
#
# 1 15.3272 15.8707 17.5061 0.0000 0.0000 0.0000
# 2 15.8707 82.3870 56.9612 0.0000 0.0000 0.0000
# 3 17.5061 56.9612 137.2620 0.0000 0.0000 0.0000
# 4 0.0000 0.0000 0.0000 9.4902 0.0000 0.0000
# 5 0.0000 0.0000 0.0000 0.0000 9.5705 0.0000
# 6 0.0000 0.0000 0.0000 0.0000 0.0000 16.2395
#
#
#
# Elastic Compliance Matrix: (Units=1/GPa)
#
#
# Indices 1 2 3 4 5 6 
#
# 1 0.084503 -0.012379 -0.005640 0.000000 0.000000 0.000000
# 2 -0.012379 0.018835 -0.006237 0.000000 0.000000 0.000000
# 3 -0.005640 -0.006237 0.010593 0.000000 0.000000 0.000000
# 4 0.000000 0.000000 0.000000 0.105372 0.000000 0.000000
# 5 0.000000 0.000000 0.000000 0.000000 0.104488 0.000000
# 6 0.000000 0.000000 0.000000 0.000000 0.000000 0.061578
#
#
# Mechanical properties :
#
#
# Convention : Reuss Voigt Hill
#
# Bulk Modulus (GPa) = 15.28625 46.18358 30.73491
# Shear Modulus (GPa) = 10.97240 16.70258 13.83749
#
# Velocity S-wave (km/s) = 2.64351 3.26153 2.96865
# Velocity P-wave (km/s) = 4.36499 6.60281 5.59688
#
# Compressibility (1/GPa) = 0.06541828
#
# Stress axis : x y z
#
# Youngs Moduli (GPa) = 11.83386 53.09309 94.40118
#
# Poissons Ratio (x) = 0.65722 0.53246
# Poissons Ratio (y) = 0.14649 0.58881
# Poissons Ratio (z) = 0.06675 0.33116
#
# Static dielectric constant tensor:
#      x y z
#    x 1.552360 0.000000 0.000000 
#    y 0.000000 1.522500 0.000000 
#    z 0.000000 0.000000 1.536830 
# 
# From -- ./inp_files/25360.got.cif
#   From: 2010.05.17/outbox.cif.g08.bks.cpg/sg51_13_cif.got.tgz:25360.got - 2010.06.03 11:52:47.
