data_PCOD9399972
_publ_section_title
;
Structure prediction by ZEFSAII (Michael W. Deem and Ramdas Pophale) SiO2 
 PCOD9399972
Probable space group: P M M A
;
_chemical_formula_sum "Si O2"
_cell_formula_units_Z 64
_cell_length_a 8.813061
_cell_length_b 18.873496
_cell_length_c 27.152355
_cell_angle_alpha 90.000000
_cell_angle_beta 90.000000
_cell_angle_gamma 90.000000
_cell_volume 4516.340037
_symmetry_space_group_name_H-M "P M M A"
_symmetry_group_IT_number 51
_symmetry_cell_setting 'orthorhombic'
loop_
_space_group_symop_operation_xyz
x,y,z
1/2-x,-y,z
1/2+x,-y,-z
-x,y,-z
-x,-y,-z
1/2+x,y,-z
1/2-x,y,z
x,-y,z
loop_
_atom_site_type_symbol
_atom_site_label
_atom_site_fract_x
_atom_site_fract_y
_atom_site_fract_z
Si Si1 0.432997 0.418491 0.153100
Si Si2 0.568803 0.083130 0.850299
Si Si3 0.070161 0.653812 0.749357
Si Si4 0.430063 0.716324 0.097818
Si Si5 0.074775 0.413848 0.550948
Si Si6 0.568795 0.417329 0.654156
Si Si7 0.569362 0.152924 0.051522
Si Si8 0.930586 0.789228 0.193656
O O1 0.250000 0.414748 0.158678
O O2 0.476046 0.500000 0.144978
O O3 0.505511 0.389076 0.203530
O O4 0.472216 0.365411 0.108095
O O5 0.750000 0.095148 0.850704
O O6 0.500127 0.109962 0.902371
O O7 0.490597 0.130910 0.808075
O O8 0.540151 0.000000 0.844262
O O9 0.250000 0.641908 0.747197
O O10 0.044743 0.737368 0.760312
O O11 0.994942 0.626857 0.699593
O O12 0.250000 0.722031 0.088679
O O13 0.519953 0.764902 0.059523
O O14 0.474389 0.752568 0.149787
O O15 0.250000 0.393170 0.552748
O O16 0.067780 0.500000 0.550073
O O17 0.000000 0.389074 0.500000
O O18 0.991699 0.392331 0.601122
O O19 0.750000 0.415091 0.654163
O O20 0.522048 0.500000 0.660565
O O21 0.250000 0.146949 0.948257
O O22 0.500000 0.127826 0.000000
O O23 0.750000 0.787798 0.182141
#
# Coordination Sequence:
#
# PCOD9399972 Si02
#       8
#     8   8   8   8   8   8   8   8
#     4   9  17  28  42  60  81 105 131 161 200 243
#     4  10  20  33  49  69  90 109 131 158 187 223
#     4  10  19  28  39  58  82 107 136 170 206 242
#     4   9  16  28  45  62  81 104 131 161 192 231
#     4   9  16  26  39  53  71  98 134 176 219 260
#     4  10  19  28  38  54  77 106 141 180 220 257
#     4  11  21  33  49  66  85 107 131 158 190 229
#     4   9  17  29  44  61  82 108 136 162 191 232
#
# _framework density 14.170767
#
# number of rings (size 3 to 8) (size 9 to 14) (size 15 to 20)
#    0.000    2.375    0.000    5.250    0.000    7.250 
#    0.000    0.000    0.000    0.375    0.000    0.000 
#    0.000    0.000    0.000    0.000    0.000    0.625 
#
# Total GULP energy -356542.290548 kJ/mol
# GULP energy per Si atom -5570.973290 kJ/mol
# Density = 1.413851 g / cm^3
# Si number density = 14.170767 Si / 1000 Ang^3
#
#
#
# Elastic Constant Matrix: (Units=GPa)
#
#
# Indices 1 2 3 4 5 6 
#
# 1 57.7645 30.4849 20.3180 0.0000 0.0000 0.0000
# 2 30.4849 83.9305 21.9310 0.0000 0.0000 0.0000
# 3 20.3180 21.9310 44.5215 0.0000 0.0000 0.0000
# 4 0.0000 0.0000 0.0000 11.6900 0.0000 0.0000
# 5 0.0000 0.0000 0.0000 0.0000 23.6224 0.0000
# 6 0.0000 0.0000 0.0000 0.0000 0.0000 16.9484
#
#
#
# Elastic Compliance Matrix: (Units=1/GPa)
#
#
# Indices 1 2 3 4 5 6 
#
# 1 0.023387 -0.006549 -0.007447 0.000000 0.000000 0.000000
# 2 -0.006549 0.015508 -0.004651 0.000000 0.000000 0.000000
# 3 -0.007447 -0.004651 0.028151 0.000000 0.000000 0.000000
# 4 0.000000 0.000000 0.000000 0.085543 0.000000 0.000000
# 5 0.000000 0.000000 0.000000 0.000000 0.042333 0.000000
# 6 0.000000 0.000000 0.000000 0.000000 0.000000 0.059003
#
#
# Mechanical properties :
#
#
# Convention : Reuss Voigt Hill
#
# Bulk Modulus (GPa) = 33.61015 36.85381 35.23198
# Shear Modulus (GPa) = 16.60384 18.01770 17.31077
#
# Velocity S-wave (km/s) = 3.42672 3.56964 3.49891
# Velocity P-wave (km/s) = 6.27901 6.56149 6.42180
#
# Compressibility (1/GPa) = 0.02975291
#
# Stress axis : x y z
#
# Youngs Moduli (GPa) = 42.75854 64.48112 35.52319
#
# Poissons Ratio (x) = 0.42226 0.26455
# Poissons Ratio (y) = 0.28001 0.16521
# Poissons Ratio (z) = 0.31843 0.29989
#
# Static dielectric constant tensor:
#      x y z
#    x 1.474030 0.000000 0.000000 
#    y 0.000000 1.495360 0.000000 
#    z 0.000000 0.000000 1.450940 
# 
# From -- ./inp_files/36405.got.cif
#   From: 2010.05.17/outbox.cif.g08.bks.cpg/sg51_19_cif.got.tgz:36405.got - 2010.06.03 11:52:47.
