data_PCOD9399731
_publ_section_title
;
Structure prediction by ZEFSAII (Michael W. Deem and Ramdas Pophale) SiO2 
 PCOD9399731
Probable space group: P M M A
;
_chemical_formula_sum "Si O2"
_cell_formula_units_Z 48
_cell_length_a 8.608356
_cell_length_b 31.672542
_cell_length_c 9.443273
_cell_angle_alpha 90.000000
_cell_angle_beta 90.000000
_cell_angle_gamma 90.000000
_cell_volume 2574.694379
_symmetry_space_group_name_H-M "P M M A"
_symmetry_group_IT_number 51
_symmetry_cell_setting 'orthorhombic'
loop_
_space_group_symop_operation_xyz
x,y,z
1/2-x,-y,z
1/2+x,-y,-z
-x,y,-z
-x,-y,-z
1/2+x,y,-z
1/2-x,y,z
x,-y,z
loop_
_atom_site_type_symbol
_atom_site_label
_atom_site_fract_x
_atom_site_fract_y
_atom_site_fract_z
Si Si1 0.937304 0.248770 0.341960
Si Si2 0.064048 0.000000 0.660952
Si Si3 0.063403 0.576207 0.842168
Si Si4 0.564107 0.088572 0.660708
Si Si5 0.565080 0.500000 0.657621
Si Si6 0.562907 0.833309 0.159376
Si Si7 0.437340 0.672360 0.842631
O O1 0.750000 0.249502 0.348104
O O2 0.982291 0.209070 0.244486
O O3 0.990701 0.292070 0.266991
O O4 0.000000 0.244448 0.500000
O O5 0.000000 0.000000 0.500000
O O6 0.999849 0.043984 0.720591
O O7 0.250000 0.000000 0.660588
O O8 0.250000 0.573413 0.843130
O O9 0.018037 0.624379 0.803427
O O10 0.995326 0.541354 0.738799
O O11 0.000000 0.568421 0.000000
O O12 0.500000 0.093739 0.500000
O O13 0.750000 0.087246 0.654623
O O14 0.505456 0.126866 0.756425
O O15 0.750000 0.500000 0.656424
O O16 0.500000 0.500000 0.500000
O O17 0.750000 0.836060 0.157401
O O18 0.500000 0.831898 0.000000
O O19 0.250000 0.673755 0.848649
O O20 0.500000 0.681137 0.000000
#
# Coordination Sequence:
#
# PCOD9399731 Si02
#       7
#     8   4   8   8   4   8   8
#     4  10  22  38  57  83 114 147 186 229 277 331
#     4  10  18  32  55  84 115 148 187 230 278 332
#     4  10  20  37  60  85 114 148 189 231 277 333
#     4  11  21  36  58  85 116 150 189 233 280 331
#     4  12  25  40  57  80 112 148 188 234 287 336
#     4  11  23  39  58  82 112 148 189 233 282 335
#     4   9  19  36  58  85 114 146 184 228 275 329
#
# _framework density 18.642987000000002
#
# number of rings (size 3 to 8) (size 9 to 14) (size 15 to 20)
#    0.000    1.667    0.000    6.250    0.000    4.667 
#    0.000    2.083    0.000    0.000    0.000    0.000 
#    0.000    0.000    0.000    0.000    0.000    0.000 
#
# Total GULP energy -268209.264089 kJ/mol
# GULP energy per Si atom -5587.693002 kJ/mol
# Density = 1.860055 g / cm^3
# Si number density = 18.642987 Si / 1000 Ang^3
#
#
#
# Elastic Constant Matrix: (Units=GPa)
#
#
# Indices 1 2 3 4 5 6 
#
# 1 100.9315 67.5880 53.3820 0.0000 0.0000 0.0000
# 2 67.5880 188.4446 125.2876 0.0000 0.0000 0.0000
# 3 53.3820 125.2876 144.3561 0.0000 0.0000 0.0000
# 4 0.0000 0.0000 0.0000 37.4583 0.0000 0.0000
# 5 0.0000 0.0000 0.0000 0.0000 34.6142 0.0000
# 6 0.0000 0.0000 0.0000 0.0000 0.0000 161.5104
#
#
#
# Elastic Compliance Matrix: (Units=1/GPa)
#
#
# Indices 1 2 3 4 5 6 
#
# 1 0.013241 -0.003531 -0.001832 0.000000 0.000000 0.000000
# 2 -0.003531 0.013488 -0.010400 0.000000 0.000000 0.000000
# 3 -0.001832 -0.010400 0.016631 0.000000 0.000000 0.000000
# 4 0.000000 0.000000 0.000000 0.026696 0.000000 0.000000
# 5 0.000000 0.000000 0.000000 0.000000 0.028890 0.000000
# 6 0.000000 0.000000 0.000000 0.000000 0.000000 0.006192
#
#
# Mechanical properties :
#
#
# Convention : Reuss Voigt Hill
#
# Bulk Modulus (GPa) = 84.50526 102.91637 93.71082
# Shear Modulus (GPa) = 35.55962 59.21488 47.38725
#
# Velocity S-wave (km/s) = 4.37212 5.64194 5.04712
# Velocity P-wave (km/s) = 8.42103 9.88765 9.18367
#
# Compressibility (1/GPa) = 0.01183358
#
# Stress axis : x y z
#
# Youngs Moduli (GPa) = 75.52186 74.14104 60.12827
#
# Poissons Ratio (x) = 0.26182 0.11013
# Poissons Ratio (y) = 0.26669 0.62535
# Poissons Ratio (z) = 0.13833 0.77109
#
# Static dielectric constant tensor:
#      x y z
#    x 1.625320 0.000000 0.000000 
#    y 0.000000 1.660780 0.000000 
#    z 0.000000 0.000000 1.640400 
# 
# From -- ./inp_files/6296.got.cif
#   From: 2010.05.17/outbox.cif.g08.bks.cpg/sg51_4_cif.got.tgz:6296.got - 2010.06.03 11:52:47.
