data_PCOD9399233
_publ_section_title
;
Structure prediction by ZEFSAII (Michael W. Deem and Ramdas Pophale) SiO2 
 PCOD9399233
Probable space group: P M M A
;
_chemical_formula_sum "Si O2"
_cell_formula_units_Z 64
_cell_length_a 31.135919
_cell_length_b 9.046104
_cell_length_c 14.769638
_cell_angle_alpha 90.000000
_cell_angle_beta 90.000000
_cell_angle_gamma 90.000000
_cell_volume 4159.997946
_symmetry_space_group_name_H-M "P M M A"
_symmetry_group_IT_number 51
_symmetry_cell_setting 'orthorhombic'
loop_
_space_group_symop_operation_xyz
x,y,z
1/2-x,-y,z
1/2+x,-y,-z
-x,y,-z
-x,-y,-z
1/2+x,y,-z
1/2-x,y,z
x,-y,z
loop_
_atom_site_type_symbol
_atom_site_label
_atom_site_fract_x
_atom_site_fract_y
_atom_site_fract_z
Si Si1 0.575910 0.832683 0.740728
Si Si2 0.026775 0.172465 0.753773
Si Si3 0.042615 0.323245 0.943482
Si Si4 0.700944 0.821951 0.853486
Si Si5 0.044399 0.821444 0.550716
Si Si6 0.115406 0.173354 0.059308
Si Si7 0.201126 0.677877 0.342811
Si Si8 0.885468 0.325391 0.573683
O O1 0.524800 0.821400 0.746206
O O2 0.594934 0.815478 0.840438
O O3 0.594089 0.715043 0.670916
O O4 0.586626 0.000000 0.708347
O O5 0.040263 0.262943 0.841612
O O6 0.043723 0.223702 0.655986
O O7 0.038701 0.000000 0.766473
O O8 0.042570 0.500000 0.943471
O O9 0.085089 0.263119 0.992570
O O10 0.000000 0.273285 0.000000
O O11 0.750000 0.785250 0.879091
O O12 0.664564 0.776795 0.925243
O O13 0.692636 0.751408 0.754945
O O14 0.697637 0.000000 0.844034
O O15 0.085425 0.758265 0.498881
O O16 0.000000 0.775412 0.500000
O O17 0.045003 0.000000 0.547778
O O18 0.114860 0.000000 0.033302
O O19 0.250000 0.716352 0.369147
O O20 0.198767 0.500000 0.331751
O O21 0.164337 0.720321 0.414185
O O22 0.887517 0.500000 0.556903
#
# Coordination Sequence:
#
# PCOD9399233 Si02
#       8
#     8   8   8   8   8   8   8   8
#     4  10  18  30  48  69  96 130 166 198 232 280
#     4  10  20  35  52  67  91 129 167 200 233 278
#     4  11  23  34  47  70  99 127 159 201 242 280
#     4   9  17  29  47  72  98 124 159 202 241 278
#     4  10  20  35  52  70  94 127 165 198 235 286
#     4  10  19  31  49  70  95 131 166 195 233 285
#     4   9  18  31  45  65  97 133 163 192 234 289
#     4  11  21  30  46  72  99 130 164 200 240 281
#
# _framework density 15.384622999999999
#
# number of rings (size 3 to 8) (size 9 to 14) (size 15 to 20)
#    0.000    2.000    3.750    0.750    0.000    3.250 
#    0.000    0.000    0.000    0.000    0.000    0.875 
#    0.000    1.000    0.000    0.000    0.000    0.000 
#
# Total GULP energy -356851.299173 kJ/mol
# GULP energy per Si atom -5575.801550 kJ/mol
# Density = 1.534961 g / cm^3
# Si number density = 15.384623 Si / 1000 Ang^3
#
#
#
# Elastic Constant Matrix: (Units=GPa)
#
#
# Indices 1 2 3 4 5 6 
#
# 1 116.6116 31.8443 60.6709 0.0000 0.0000 0.0000
# 2 31.8443 24.1032 33.5663 0.0000 0.0000 0.0000
# 3 60.6709 33.5663 93.3606 0.0000 0.0000 0.0000
# 4 0.0000 0.0000 0.0000 -71.7061 0.0000 0.0000
# 5 0.0000 0.0000 0.0000 0.0000 21.2357 0.0000
# 6 0.0000 0.0000 0.0000 0.0000 0.0000 17.9765
#
#
#
# Elastic Compliance Matrix: (Units=1/GPa)
#
#
# Indices 1 2 3 4 5 6 
#
# 1 0.014530 -0.012111 -0.005088 0.000000 0.000000 0.000000
# 2 -0.012111 0.093185 -0.025633 0.000000 0.000000 0.000000
# 3 -0.005088 -0.025633 0.023234 0.000000 0.000000 0.000000
# 4 0.000000 0.000000 0.000000 -0.013946 0.000000 0.000000
# 5 0.000000 0.000000 0.000000 0.000000 0.047091 0.000000
# 6 0.000000 0.000000 0.000000 0.000000 0.000000 0.055628
#
#
# Mechanical properties :
#
#
# Convention : Reuss Voigt Hill
#
# Bulk Modulus (GPa) = 22.08237 54.02649 38.05443
# Shear Modulus (GPa) = 15.60160 0.70081 8.15121
#
# Velocity S-wave (km/s) = 3.18795 0.67566 2.30430
# Velocity P-wave (km/s) = 5.28540 5.98349 5.64524
#
# Compressibility (1/GPa) = 0.04528500
#
# Stress axis : x y z
#
# Youngs Moduli (GPa) = 68.82336 10.73136 43.04101
#
# Poissons Ratio (x) = 0.12996 0.21900
# Poissons Ratio (y) = 0.83349 1.10327
# Poissons Ratio (z) = 0.35019 0.27508
#
# Static dielectric constant tensor:
#      x y z
#    x 1.536020 0.000000 0.000000 
#    y 0.000000 1.520080 0.000000 
#    z 0.000000 0.000000 1.486810 
# 
# From -- ./inp_files/26600.got.cif
#   From: 2010.05.17/outbox.cif.g08.bks.cpg/sg51_14_cif.got.tgz:26600.got - 2010.06.03 11:52:47.
