data_PCOD9399163
_publ_section_title
;
Structure prediction by ZEFSAII (Michael W. Deem and Ramdas Pophale) SiO2 
 PCOD9399163
Probable space group: P M M A
;
_chemical_formula_sum "Si O2"
_cell_formula_units_Z 52
_cell_length_a 8.661369
_cell_length_b 27.237657
_cell_length_c 14.044912
_cell_angle_alpha 90.000000
_cell_angle_beta 90.000000
_cell_angle_gamma 90.000000
_cell_volume 3313.411004
_symmetry_space_group_name_H-M "P M M A"
_symmetry_group_IT_number 51
_symmetry_cell_setting 'orthorhombic'
loop_
_space_group_symop_operation_xyz
x,y,z
1/2-x,-y,z
1/2+x,-y,-z
-x,y,-z
-x,-y,-z
1/2+x,y,-z
1/2-x,y,z
x,-y,z
loop_
_atom_site_type_symbol
_atom_site_label
_atom_site_fract_x
_atom_site_fract_y
_atom_site_fract_z
Si Si1 0.434555 0.102561 0.607624
Si Si2 0.435353 0.249652 0.894435
Si Si3 0.564068 0.348797 0.216353
Si Si4 0.065155 0.000000 0.392201
Si Si5 0.565905 0.703530 0.604631
Si Si6 0.064534 0.803331 0.286421
Si Si7 0.563474 0.555213 0.106104
O O1 0.500000 0.109112 0.500000
O O2 0.250000 0.099947 0.602173
O O3 0.501252 0.051168 0.647879
O O4 0.489255 0.147870 0.671444
O O5 0.250000 0.245958 0.894666
O O6 0.477918 0.304028 0.854820
O O7 0.504731 0.211647 0.817985
O O8 0.500000 0.242791 0.000000
O O9 0.750000 0.349244 0.223333
O O10 0.496053 0.335205 0.318582
O O11 0.511565 0.400742 0.174097
O O12 0.000000 0.000000 0.500000
O O13 0.250000 0.000000 0.393036
O O14 0.500000 0.696236 0.500000
O O15 0.750000 0.701434 0.601933
O O16 0.521423 0.757309 0.645463
O O17 0.250000 0.807855 0.285912
O O18 0.750000 0.556703 0.102128
O O19 0.517690 0.500000 0.136321
O O20 0.500000 0.563186 0.000000
#
# Coordination Sequence:
#
# PCOD9399163 Si02
#       7
#     8   8   8   4   8   8   8
#     4  11  20  31  47  69  97 128 160 195 234 277
#     4  10  19  31  47  68  94 124 155 190 231 276
#     4   9  18  31  47  67  93 123 154 188 228 274
#     4  10  18  30  46  66  93 126 161 196 234 276
#     4  10  20  32  48  68  92 121 154 191 230 274
#     4  10  20  33  48  69  94 123 157 192 232 278
#     4   9  17  29  46  69  95 122 151 186 229 275
#
# _framework density 15.693797
#
# number of rings (size 3 to 8) (size 9 to 14) (size 15 to 20)
#    0.000    2.154    0.000    5.308    0.000    4.308 
#    0.000    0.000    0.000    0.462    0.000    0.538 
#    0.000    0.000    0.000    0.000    0.000    0.000 
#
# Total GULP energy -290117.006901 kJ/mol
# GULP energy per Si atom -5579.173210 kJ/mol
# Density = 1.565808 g / cm^3
# Si number density = 15.693797 Si / 1000 Ang^3
#
#
#
# Elastic Constant Matrix: (Units=GPa)
#
#
# Indices 1 2 3 4 5 6 
#
# 1 68.9694 51.0242 41.3291 0.0000 0.0000 0.0000
# 2 51.0242 150.4715 81.5098 0.0000 0.0000 0.0000
# 3 41.3291 81.5098 123.7251 0.0000 0.0000 0.0000
# 4 0.0000 0.0000 0.0000 24.1389 0.0000 0.0000
# 5 0.0000 0.0000 0.0000 0.0000 26.5540 0.0000
# 6 0.0000 0.0000 0.0000 0.0000 0.0000 19.5246
#
#
#
# Elastic Compliance Matrix: (Units=1/GPa)
#
#
# Indices 1 2 3 4 5 6 
#
# 1 0.020279 -0.004987 -0.003489 0.000000 0.000000 0.000000
# 2 -0.004987 0.011560 -0.005950 0.000000 0.000000 0.000000
# 3 -0.003489 -0.005950 0.013168 0.000000 0.000000 0.000000
# 4 0.000000 0.000000 0.000000 0.041427 0.000000 0.000000
# 5 0.000000 0.000000 0.000000 0.000000 0.037659 0.000000
# 6 0.000000 0.000000 0.000000 0.000000 0.000000 0.051217
#
#
# Mechanical properties :
#
#
# Convention : Reuss Voigt Hill
#
# Bulk Modulus (GPa) = 61.89733 76.76581 69.33157
# Shear Modulus (GPa) = 23.86120 25.33037 24.59579
#
# Velocity S-wave (km/s) = 3.90349 4.02187 3.96312
# Velocity P-wave (km/s) = 7.73580 8.40168 8.07560
#
# Compressibility (1/GPa) = 0.01615579
#
# Stress axis : x y z
#
# Youngs Moduli (GPa) = 49.31219 86.50759 75.94446
#
# Poissons Ratio (x) = 0.43138 0.26495
# Poissons Ratio (y) = 0.24590 0.45185
# Poissons Ratio (z) = 0.17204 0.51470
#
# Static dielectric constant tensor:
#      x y z
#    x 1.521540 0.000000 0.000000 
#    y 0.000000 1.539630 0.000000 
#    z 0.000000 0.000000 1.494440 
# 
# From -- ./inp_files/14648.got.cif
#   From: 2010.05.17/outbox.cif.g08.bks.cpg/sg51_8_cif.got.tgz:14648.got - 2010.06.03 11:52:47.
