data_PCOD9399242
_publ_section_title
;
Structure prediction by ZEFSAII (Michael W. Deem and Ramdas Pophale) SiO2 
 PCOD9399242
Probable space group: P M M A
;
_chemical_formula_sum "Si O2"
_cell_formula_units_Z 40
_cell_length_a 15.107824
_cell_length_b 7.572079
_cell_length_c 17.349649
_cell_angle_alpha 90.000000
_cell_angle_beta 90.000000
_cell_angle_gamma 90.000000
_cell_volume 1984.758846
_symmetry_space_group_name_H-M "P M M A"
_symmetry_group_IT_number 51
_symmetry_cell_setting 'orthorhombic'
loop_
_space_group_symop_operation_xyz
x,y,z
1/2-x,-y,z
1/2+x,-y,-z
-x,y,-z
-x,-y,-z
1/2+x,y,-z
1/2-x,y,z
x,-y,z
loop_
_atom_site_type_symbol
_atom_site_label
_atom_site_fract_x
_atom_site_fract_y
_atom_site_fract_z
Si Si1 0.101918 0.284358 0.000124
Si Si2 0.250000 0.284247 0.121452
Si Si3 0.898721 0.783850 0.412407
Si Si4 0.750000 0.289778 0.117018
Si Si5 0.250000 0.212571 0.703139
Si Si6 0.899986 0.788911 0.583702
Si Si7 0.250000 0.707307 0.294935
O O1 0.098694 0.500000 0.999580
O O2 0.161486 0.225758 0.926976
O O3 0.162049 0.232342 0.073722
O O4 0.000000 0.223509 0.000000
O O5 0.250000 0.500000 0.120986
O O6 0.250000 0.216229 0.208829
O O7 0.835089 0.723061 0.344582
O O8 0.869412 0.728307 0.498599
O O9 0.000065 0.725553 0.402692
O O10 0.897455 0.000000 0.411126
O O11 0.750000 0.500000 0.105418
O O12 0.750000 0.256750 0.207391
O O13 0.250000 0.000000 0.698562
O O14 0.834548 0.750198 0.652881
O O15 0.905129 0.000000 0.577752
O O16 0.250000 0.500000 0.283596
#
# Coordination Sequence:
#
# PCOD9399242 Si02
#       7
#     8   4   8   4   4   8   4
#     4   8  14  28  49  66  84 116 154 189 223 264
#     4   8  16  28  40  61  91 118 147 182 222 275
#     4   8  16  31  52  72  89 121 168 204 228 268
#     4   9  18  30  46  72  94 112 153 196 225 274
#     4  10  18  30  48  71 100 126 148 187 246 292
#     4   9  17  33  53  69  89 124 170 205 226 263
#     4  11  21  30  44  72 105 128 148 187 247 293
#
# _framework density 20.153580999999999
#
# number of rings (size 3 to 8) (size 9 to 14) (size 15 to 20)
#    0.000    3.200    0.000    3.300    0.000    3.200 
#    0.000    7.000    0.000    5.400    0.000    0.000 
#    0.000    0.000    0.000    0.000    0.000    0.000 
#
# Total GULP energy -223008.353902 kJ/mol
# GULP energy per Si atom -5575.208848 kJ/mol
# Density = 2.010771 g / cm^3
# Si number density = 20.153581 Si / 1000 Ang^3
#
#
#
# Elastic Constant Matrix: (Units=GPa)
#
#
# Indices 1 2 3 4 5 6 
#
# 1 184.7890 6.1403 133.5500 0.0000 0.0000 0.0000
# 2 6.1403 39.1646 1.4654 0.0000 0.0000 0.0000
# 3 133.5500 1.4654 225.4983 0.0000 0.0000 0.0000
# 4 0.0000 0.0000 0.0000 22.7484 0.0000 0.0000
# 5 0.0000 0.0000 0.0000 0.0000 186.1380 0.0000
# 6 0.0000 0.0000 0.0000 0.0000 0.0000 46.2617
#
#
#
# Elastic Compliance Matrix: (Units=1/GPa)
#
#
# Indices 1 2 3 4 5 6 
#
# 1 0.009525 -0.001283 -0.005633 0.000000 0.000000 0.000000
# 2 -0.001283 0.025712 0.000593 0.000000 0.000000 0.000000
# 3 -0.005633 0.000593 0.007767 0.000000 0.000000 0.000000
# 4 0.000000 0.000000 0.000000 0.043959 0.000000 0.000000
# 5 0.000000 0.000000 0.000000 0.000000 0.005372 0.000000
# 6 0.000000 0.000000 0.000000 0.000000 0.000000 0.021616
#
#
# Mechanical properties :
#
#
# Convention : Reuss Voigt Hill
#
# Bulk Modulus (GPa) = 32.93999 81.30704 57.12351
# Shear Modulus (GPa) = 36.57185 71.58271 54.07728
#
# Velocity S-wave (km/s) = 4.26450 5.96621 5.18564
# Velocity P-wave (km/s) = 6.37400 9.37509 8.01624
#
# Compressibility (1/GPa) = 0.03035824
#
# Stress axis : x y z
#
# Youngs Moduli (GPa) = 104.98494 38.89203 128.75287
#
# Poissons Ratio (x) = 0.04988 0.72525
# Poissons Ratio (y) = 0.13466 -0.07629
# Poissons Ratio (z) = 0.59137 -0.02304
#
# Static dielectric constant tensor:
#      x y z
#    x 1.703230 0.000000 0.000000 
#    y 0.000000 1.772750 0.000000 
#    z 0.000000 0.000000 1.712940 
# 
# From -- ./inp_files/23878.got.cif
#   From: 2010.05.17/outbox.cif.g08.bks.cpg/sg51_12_cif.got.tgz:23878.got - 2010.06.03 11:52:47.
