data_PCOD9399194
_publ_section_title
;
Structure prediction by ZEFSAII (Michael W. Deem and Ramdas Pophale) SiO2 
 PCOD9399194
Probable space group: P M M A
;
_chemical_formula_sum "Si O2"
_cell_formula_units_Z 48
_cell_length_a 18.156859
_cell_length_b 14.016827
_cell_length_c 11.721474
_cell_angle_alpha 90.000000
_cell_angle_beta 90.000000
_cell_angle_gamma 90.000000
_cell_volume 2983.133318
_symmetry_space_group_name_H-M "P M M A"
_symmetry_group_IT_number 51
_symmetry_cell_setting 'orthorhombic'
loop_
_space_group_symop_operation_xyz
x,y,z
1/2-x,-y,z
1/2+x,-y,-z
-x,y,-z
-x,-y,-z
1/2+x,y,-z
1/2-x,y,z
x,-y,z
loop_
_atom_site_type_symbol
_atom_site_label
_atom_site_fract_x
_atom_site_fract_y
_atom_site_fract_z
Si Si1 0.080251 0.113078 0.863241
Si Si2 0.574020 0.111642 0.576188
Si Si3 0.667716 0.884615 0.363380
Si Si4 0.162825 0.742019 0.006440
Si Si5 0.450004 0.763349 0.201271
Si Si6 0.449872 0.609104 0.884957
O O1 0.111827 0.140165 0.737723
O O2 0.137725 0.157399 0.951789
O O3 0.001021 0.162928 0.870613
O O4 0.074432 0.000000 0.872321
O O5 0.500000 0.113897 0.500000
O O6 0.638004 0.140614 0.488047
O O7 0.567937 0.182771 0.681934
O O8 0.583431 0.000000 0.612624
O O9 0.750000 0.848535 0.340959
O O10 0.669960 0.000000 0.361995
O O11 0.250000 0.731784 0.012589
O O12 0.123820 0.664320 0.923514
O O13 0.122196 0.737360 0.128648
O O14 0.502867 0.670431 0.205545
O O15 0.437148 0.500000 0.851458
O O16 0.500000 0.609821 0.000000
#
# Coordination Sequence:
#
# PCOD9399194 Si02
#       6
#     8   8   8   8   8   8
#     4  10  18  31  48  66  94 133 172 204 239 290
#     4  10  18  30  47  68  95 132 175 209 239 287
#     4   9  17  28  44  66  90 122 170 217 245 274
#     4  10  21  32  45  73 104 127 156 197 254 312
#     4  10  19  31  50  72  96 127 165 208 248 296
#     4   8  16  33  54  73  94 122 159 200 242 297
#
# _framework density 16.090464999999998
#
# number of rings (size 3 to 8) (size 9 to 14) (size 15 to 20)
#    0.000    2.500    1.667    2.500    0.000    4.000 
#    0.000    0.000    0.000    0.500    0.000    0.000 
#    0.000    0.000    0.000    0.000    0.000    0.000 
#
# Total GULP energy -267392.802420 kJ/mol
# GULP energy per Si atom -5570.683384 kJ/mol
# Density = 1.605384 g / cm^3
# Si number density = 16.090465 Si / 1000 Ang^3
#
#
#
# Elastic Constant Matrix: (Units=GPa)
#
#
# Indices 1 2 3 4 5 6 
#
# 1 107.1994 22.6307 15.1124 0.0000 0.0000 0.0000
# 2 22.6307 85.4218 16.6425 0.0000 0.0000 0.0000
# 3 15.1124 16.6425 60.6376 0.0000 0.0000 0.0000
# 4 0.0000 0.0000 0.0000 14.7333 0.0000 0.0000
# 5 0.0000 0.0000 0.0000 0.0000 17.2424 0.0000
# 6 0.0000 0.0000 0.0000 0.0000 0.0000 10.5469
#
#
#
# Elastic Compliance Matrix: (Units=1/GPa)
#
#
# Indices 1 2 3 4 5 6 
#
# 1 0.010080 -0.002304 -0.001880 0.000000 0.000000 0.000000
# 2 -0.002304 0.012895 -0.002965 0.000000 0.000000 0.000000
# 3 -0.001880 -0.002965 0.017774 0.000000 0.000000 0.000000
# 4 0.000000 0.000000 0.000000 0.067873 0.000000 0.000000
# 5 0.000000 0.000000 0.000000 0.000000 0.057997 0.000000
# 6 0.000000 0.000000 0.000000 0.000000 0.000000 0.094815
#
#
# Mechanical properties :
#
#
# Convention : Reuss Voigt Hill
#
# Bulk Modulus (GPa) = 37.80625 40.22556 39.01590
# Shear Modulus (GPa) = 17.57178 21.76274 19.66726
#
# Velocity S-wave (km/s) = 3.30822 3.68166 3.49992
# Velocity P-wave (km/s) = 6.17572 6.56709 6.37441
#
# Compressibility (1/GPa) = 0.02645066
#
# Stress axis : x y z
#
# Youngs Moduli (GPa) = 99.20788 77.55129 56.26325
#
# Poissons Ratio (x) = 0.17870 0.10576
# Poissons Ratio (y) = 0.22860 0.16681
# Poissons Ratio (z) = 0.18648 0.22992
#
# Static dielectric constant tensor:
#      x y z
#    x 1.562640 0.000000 0.000000 
#    y 0.000000 1.541380 0.000000 
#    z 0.000000 0.000000 1.556490 
# 
# From -- ./inp_files/17371.got.cif
#   From: 2010.05.17/outbox.cif.g08.bks.cpg/sg51_9_cif.got.tgz:17371.got - 2010.06.03 11:52:47.
