data_PCOD9399200
_publ_section_title
;
Structure prediction by ZEFSAII (Michael W. Deem and Ramdas Pophale) SiO2 
 PCOD9399200
Probable space group: P M M A
;
_chemical_formula_sum "Si O2"
_cell_formula_units_Z 48
_cell_length_a 14.086794
_cell_length_b 13.667118
_cell_length_c 13.101929
_cell_angle_alpha 90.000000
_cell_angle_beta 90.000000
_cell_angle_gamma 90.000000
_cell_volume 2522.460356
_symmetry_space_group_name_H-M "P M M A"
_symmetry_group_IT_number 51
_symmetry_cell_setting 'orthorhombic'
loop_
_space_group_symop_operation_xyz
x,y,z
1/2-x,-y,z
1/2+x,-y,-z
-x,y,-z
-x,-y,-z
1/2+x,y,-z
1/2-x,y,z
x,-y,z
loop_
_atom_site_type_symbol
_atom_site_label
_atom_site_fract_x
_atom_site_fract_y
_atom_site_fract_z
Si Si1 0.148089 0.618820 0.692031
Si Si2 0.939721 0.310122 0.744151
Si Si3 0.137467 0.183698 0.953671
Si Si4 0.610458 0.610577 0.531146
Si Si5 0.542579 0.111660 0.840007
Si Si6 0.636182 0.390608 0.957277
O O1 0.250000 0.643603 0.742312
O O2 0.139380 0.500000 0.693392
O O3 0.153340 0.650909 0.573301
O O4 0.051049 0.662250 0.734479
O O5 0.886008 0.339174 0.640506
O O6 0.901569 0.365741 0.844300
O O7 0.929155 0.194764 0.760809
O O8 0.250000 0.173974 0.934944
O O9 0.111228 0.298745 0.970401
O O10 0.107453 0.131989 0.060071
O O11 0.066041 0.136073 0.872830
O O12 0.500000 0.606247 0.500000
O O13 0.644512 0.500000 0.544842
O O14 0.551488 0.000000 0.807977
O O15 0.750000 0.389824 0.952111
O O16 0.607153 0.500000 0.990739
#
# Coordination Sequence:
#
# PCOD9399200 Si02
#       6
#     8   8   8   8   8   8
#     4   9  17  29  47  72 100 128 156 185 222 276
#     4  10  18  30  47  69  97 126 154 193 238 277
#     4   9  18  34  53  70  92 124 158 194 237 281
#     4   8  14  26  44  64  88 119 149 176 214 268
#     4  10  21  34  49  71  92 117 162 208 242 278
#     4   9  17  29  46  70  99 127 155 188 229 281
#
# _framework density 19.029039999999998
#
# number of rings (size 3 to 8) (size 9 to 14) (size 15 to 20)
#    0.000    2.833    0.000    3.500    0.000    2.667 
#    0.000   10.000    0.000    6.500    0.000    0.000 
#    0.000    0.000    0.000    0.000    0.000    0.000 
#
# Total GULP energy -267677.395492 kJ/mol
# GULP energy per Si atom -5576.612406 kJ/mol
# Density = 1.898573 g / cm^3
# Si number density = 19.029040 Si / 1000 Ang^3
#
#
#
# Elastic Constant Matrix: (Units=GPa)
#
#
# Indices 1 2 3 4 5 6 
#
# 1 74.0689 -0.0857 -5.4070 0.0000 0.0000 0.0000
# 2 -0.0857 99.5712 3.2136 0.0000 0.0000 0.0000
# 3 -5.4070 3.2136 37.9761 0.0000 0.0000 0.0000
# 4 0.0000 0.0000 0.0000 15.3878 0.0000 0.0000
# 5 0.0000 0.0000 0.0000 0.0000 7.8460 0.0000
# 6 0.0000 0.0000 0.0000 0.0000 0.0000 11.0973
#
#
#
# Elastic Compliance Matrix: (Units=1/GPa)
#
#
# Indices 1 2 3 4 5 6 
#
# 1 0.013643 -0.000051 0.001947 0.000000 0.000000 0.000000
# 2 -0.000051 0.010071 -0.000859 0.000000 0.000000 0.000000
# 3 0.001947 -0.000859 0.026682 0.000000 0.000000 0.000000
# 4 0.000000 0.000000 0.000000 0.064986 0.000000 0.000000
# 5 0.000000 0.000000 0.000000 0.000000 0.127453 0.000000
# 6 0.000000 0.000000 0.000000 0.000000 0.000000 0.090112
#
#
# Mechanical properties :
#
#
# Convention : Reuss Voigt Hill
#
# Bulk Modulus (GPa) = 19.05906 23.00645 21.03276
# Shear Modulus (GPa) = 14.35278 21.12593 17.73935
#
# Velocity S-wave (km/s) = 2.74935 3.33557 3.05655
# Velocity P-wave (km/s) = 4.48510 5.19145 4.85115
#
# Compressibility (1/GPa) = 0.05246847
#
# Stress axis : x y z
#
# Youngs Moduli (GPa) = 73.29767 99.29741 37.47811
#
# Poissons Ratio (x) = 0.00507 -0.07296
# Poissons Ratio (y) = 0.00375 0.03221
# Poissons Ratio (z) = -0.14270 0.08534
#
# Static dielectric constant tensor:
#      x y z
#    x 1.714640 0.000000 0.000000 
#    y 0.000000 1.657010 0.000000 
#    z 0.000000 0.000000 1.680580 
# 
# From -- ./inp_files/24038.got.cif
#   From: 2010.05.17/outbox.cif.g08.bks.cpg/sg51_13_cif.got.tgz:24038.got - 2010.06.03 11:52:47.
