data_PCOD9399316
_publ_section_title
;
Structure prediction by ZEFSAII (Michael W. Deem and Ramdas Pophale) SiO2 
 PCOD9399316
Probable space group: P M M A
;
_chemical_formula_sum "Si O2"
_cell_formula_units_Z 64
_cell_length_a 8.760404
_cell_length_b 15.403596
_cell_length_c 25.454420
_cell_angle_alpha 90.000000
_cell_angle_beta 90.000000
_cell_angle_gamma 90.000000
_cell_volume 3434.863319
_symmetry_space_group_name_H-M "P M M A"
_symmetry_group_IT_number 51
_symmetry_cell_setting 'orthorhombic'
loop_
_space_group_symop_operation_xyz
x,y,z
1/2-x,-y,z
1/2+x,-y,-z
-x,y,-z
-x,-y,-z
1/2+x,y,-z
1/2-x,y,z
x,-y,z
loop_
_atom_site_type_symbol
_atom_site_label
_atom_site_fract_x
_atom_site_fract_y
_atom_site_fract_z
Si Si1 0.930288 0.097088 0.732367
Si Si2 0.431794 0.779021 0.646812
Si Si3 0.433671 0.596310 0.691230
Si Si4 0.930777 0.834238 0.167809
Si Si5 0.431894 0.779110 0.945758
Si Si6 0.570192 0.405254 0.917188
Si Si7 0.571427 0.346339 0.799930
Si Si8 0.432805 0.099139 0.442043
O O1 0.750000 0.112876 0.726978
O O2 0.020280 0.167837 0.698768
O O3 0.979355 0.103813 0.792962
O O4 0.963165 0.000000 0.712674
O O5 0.250000 0.781685 0.640640
O O6 0.478916 0.678769 0.655686
O O7 0.507461 0.829889 0.598700
O O8 0.250000 0.601892 0.698646
O O9 0.468683 0.500000 0.670153
O O10 0.513155 0.607326 0.747773
O O11 0.750000 0.850880 0.170568
O O12 0.980041 0.830528 0.106894
O O13 0.969527 0.738465 0.189859
O O14 0.250000 0.780731 0.947798
O O15 0.485347 0.679191 0.938572
O O16 0.500000 0.812965 0.000000
O O17 0.750000 0.397704 0.930543
O O18 0.513644 0.500000 0.934629
O O19 0.559622 0.400407 0.853719
O O20 0.750000 0.321633 0.793811
O O21 0.500000 0.113811 0.500000
O O22 0.250000 0.102500 0.443956
O O23 0.476656 0.000000 0.426223
#
# Coordination Sequence:
#
# PCOD9399316 Si02
#       8
#     8   8   8   8   8   8   8   8
#     4  11  23  37  56  85 118 150 182 222 277 337
#     4  11  22  36  57  85 120 159 196 236 282 331
#     4  10  21  35  51  75 111 154 197 239 282 330
#     4  10  20  35  54  77 105 138 176 219 271 332
#     4  10  21  35  52  72  94 126 171 218 270 330
#     4   9  18  31  46  67  96 129 168 216 270 327
#     4  10  18  30  50  74 102 138 181 227 274 327
#     4  10  21  38  61  89 121 156 195 239 287 341
#
# _framework density 18.632473999999998
#
# number of rings (size 3 to 8) (size 9 to 14) (size 15 to 20)
#    0.000    1.875    1.250    3.000    0.000    7.000 
#    0.000    0.000    0.000    0.750    0.000    0.000 
#    0.000    0.000    0.000    0.000    0.000    0.000 
#
# Total GULP energy -357301.604528 kJ/mol
# GULP energy per Si atom -5582.837571 kJ/mol
# Density = 1.859007 g / cm^3
# Si number density = 18.632474 Si / 1000 Ang^3
#
#
#
# Elastic Constant Matrix: (Units=GPa)
#
#
# Indices 1 2 3 4 5 6 
#
# 1 33.2867 20.1258 26.4711 0.0000 0.0000 0.0000
# 2 20.1258 84.9496 48.2184 0.0000 0.0000 0.0000
# 3 26.4711 48.2184 110.3551 0.0000 0.0000 0.0000
# 4 0.0000 0.0000 0.0000 2.7621 0.0000 0.0000
# 5 0.0000 0.0000 0.0000 0.0000 32.3483 0.0000
# 6 0.0000 0.0000 0.0000 0.0000 0.0000 31.5892
#
#
#
# Elastic Compliance Matrix: (Units=1/GPa)
#
#
# Indices 1 2 3 4 5 6 
#
# 1 0.038774 -0.005195 -0.007031 0.000000 0.000000 0.000000
# 2 -0.005195 0.016350 -0.005898 0.000000 0.000000 0.000000
# 3 -0.007031 -0.005898 0.013325 0.000000 0.000000 0.000000
# 4 0.000000 0.000000 0.000000 0.362046 0.000000 0.000000
# 5 0.000000 0.000000 0.000000 0.000000 0.030914 0.000000
# 6 0.000000 0.000000 0.000000 0.000000 0.000000 0.031656
#
#
# Mechanical properties :
#
#
# Convention : Reuss Voigt Hill
#
# Bulk Modulus (GPa) = 31.05427 46.46912 38.76169
# Shear Modulus (GPa) = 9.25844 22.25833 15.75838
#
# Velocity S-wave (km/s) = 2.23154 3.46005 2.91133
# Velocity P-wave (km/s) = 4.83142 6.39973 5.67006
#
# Compressibility (1/GPa) = 0.03220169
#
# Stress axis : x y z
#
# Youngs Moduli (GPa) = 25.79016 61.16130 75.04625
#
# Poissons Ratio (x) = 0.31776 0.52764
# Poissons Ratio (y) = 0.13399 0.44261
# Poissons Ratio (z) = 0.18133 0.36072
#
# Static dielectric constant tensor:
#      x y z
#    x 1.623360 0.000000 0.000000 
#    y 0.000000 1.661830 0.000000 
#    z 0.000000 0.000000 1.646010 
# 
# From -- ./inp_files/34846.got.cif
#   From: 2010.05.17/outbox.cif.g08.bks.cpg/sg51_18_cif.got.tgz:34846.got - 2010.06.03 11:52:47.
