data_PCOD9399258
_publ_section_title
;
Structure prediction by ZEFSAII (Michael W. Deem and Ramdas Pophale) SiO2 
 PCOD9399258
Probable space group: P M M A
;
_chemical_formula_sum "Si O2"
_cell_formula_units_Z 64
_cell_length_a 8.753047
_cell_length_b 18.710546
_cell_length_c 23.899588
_cell_angle_alpha 90.000000
_cell_angle_beta 90.000000
_cell_angle_gamma 90.000000
_cell_volume 3914.138021
_symmetry_space_group_name_H-M "P M M A"
_symmetry_group_IT_number 51
_symmetry_cell_setting 'orthorhombic'
loop_
_space_group_symop_operation_xyz
x,y,z
1/2-x,-y,z
1/2+x,-y,-z
-x,y,-z
-x,-y,-z
1/2+x,y,-z
1/2-x,y,z
x,-y,z
loop_
_atom_site_type_symbol
_atom_site_label
_atom_site_fract_x
_atom_site_fract_y
_atom_site_fract_z
Si Si1 0.928649 0.121973 0.559716
Si Si2 0.578096 0.417565 0.764321
Si Si3 0.065650 0.919201 0.679642
Si Si4 0.566215 0.788063 0.245784
Si Si5 0.566925 0.581176 0.937739
Si Si6 0.929488 0.655125 0.328576
Si Si7 0.429024 0.705561 0.441300
Si Si8 0.428544 0.684822 0.847489
O O1 0.750000 0.103487 0.559723
O O2 0.944106 0.208194 0.562246
O O3 0.000000 0.098641 0.500000
O O4 0.004382 0.093910 0.616799
O O5 0.750000 0.389625 0.775553
O O6 0.576832 0.500000 0.778820
O O7 0.532022 0.404920 0.700435
O O8 0.454152 0.375285 0.800053
O O9 0.250000 0.912476 0.676902
O O10 0.009624 0.861057 0.725377
O O11 0.027054 0.000000 0.696462
O O12 0.750000 0.794237 0.239754
O O13 0.538246 0.726842 0.292219
O O14 0.512554 0.756121 0.185586
O O15 0.750000 0.582653 0.939091
O O16 0.522423 0.500000 0.917644
O O17 0.510057 0.647159 0.899870
O O18 0.500000 0.588015 0.000000
O O19 0.750000 0.639353 0.324340
O O20 0.978951 0.670941 0.390994
O O21 0.500000 0.683096 0.500000
O O22 0.250000 0.688782 0.437670
O O23 0.250000 0.694339 0.860235
#
# Coordination Sequence:
#
# PCOD9399258 Si02
#       8
#     8   8   8   8   8   8   8   8
#     4  10  20  32  47  66  89 118 152 192 236 289
#     4  10  20  32  46  67  95 123 154 193 232 275
#     4  10  19  32  50  68  91 124 158 196 242 291
#     4   8  16  30  46  67  92 118 154 195 235 278
#     4  10  20  33  49  72 104 140 174 205 236 275
#     4  10  18  30  49  67  88 115 145 189 234 280
#     4  10  19  30  46  67  87 111 144 184 230 281
#     4  10  19  31  49  71  97 131 166 203 238 274
#
# _framework density 16.350981000000001
#
# number of rings (size 3 to 8) (size 9 to 14) (size 15 to 20)
#    0.000    2.250    1.250    3.375    0.000    4.750 
#    0.000    0.625    0.000    0.375    0.000    0.000 
#    0.000    0.500    0.000    0.875    0.000    1.250 
#
# Total GULP energy -356502.785200 kJ/mol
# GULP energy per Si atom -5570.356019 kJ/mol
# Density = 1.631377 g / cm^3
# Si number density = 16.350981 Si / 1000 Ang^3
#
#
#
# Elastic Constant Matrix: (Units=GPa)
#
#
# Indices 1 2 3 4 5 6 
#
# 1 26.4160 13.3483 18.7506 0.0000 0.0000 0.0000
# 2 13.3483 55.5936 42.1222 0.0000 0.0000 0.0000
# 3 18.7506 42.1222 99.7130 0.0000 0.0000 0.0000
# 4 0.0000 0.0000 0.0000 12.9315 0.0000 0.0000
# 5 0.0000 0.0000 0.0000 0.0000 27.3401 0.0000
# 6 0.0000 0.0000 0.0000 0.0000 0.0000 13.6832
#
#
#
# Elastic Compliance Matrix: (Units=1/GPa)
#
#
# Indices 1 2 3 4 5 6 
#
# 1 0.045227 -0.006494 -0.005762 0.000000 0.000000 0.000000
# 2 -0.006494 0.027388 -0.010348 0.000000 0.000000 0.000000
# 3 -0.005762 -0.010348 0.015484 0.000000 0.000000 0.000000
# 4 0.000000 0.000000 0.000000 0.077330 0.000000 0.000000
# 5 0.000000 0.000000 0.000000 0.000000 0.036576 0.000000
# 6 0.000000 0.000000 0.000000 0.000000 0.000000 0.073082
#
#
# Mechanical properties :
#
#
# Convention : Reuss Voigt Hill
#
# Bulk Modulus (GPa) = 23.31498 36.68499 29.99998
# Shear Modulus (GPa) = 14.94359 17.95773 16.45066
#
# Velocity S-wave (km/s) = 3.02640 3.31761 3.17534
# Velocity P-wave (km/s) = 5.14803 6.09590 5.64190
#
# Compressibility (1/GPa) = 0.04289089
#
# Stress axis : x y z
#
# Youngs Moduli (GPa) = 22.11073 36.51286 64.58397
#
# Poissons Ratio (x) = 0.23711 0.37210
# Poissons Ratio (y) = 0.14358 0.66834
# Poissons Ratio (z) = 0.12739 0.37785
#
# Static dielectric constant tensor:
#      x y z
#    x 1.548460 0.000000 0.000000 
#    y 0.000000 1.574910 0.000000 
#    z 0.000000 0.000000 1.564520 
# 
# From -- ./inp_files/35099.got.cif
#   From: 2010.05.17/outbox.cif.g08.bks.cpg/sg51_18_cif.got.tgz:35099.got - 2010.06.03 11:52:47.
