data_PCOD9399085
_publ_section_title
;
Structure prediction by ZEFSAII (Michael W. Deem and Ramdas Pophale) SiO2 
 PCOD9399085
Probable space group: P M M A
;
_chemical_formula_sum "Si O2"
_cell_formula_units_Z 52
_cell_length_a 16.680520
_cell_length_b 13.054541
_cell_length_c 12.691696
_cell_angle_alpha 90.000000
_cell_angle_beta 90.000000
_cell_angle_gamma 90.000000
_cell_volume 2763.699709
_symmetry_space_group_name_H-M "P M M A"
_symmetry_group_IT_number 51
_symmetry_cell_setting 'orthorhombic'
loop_
_space_group_symop_operation_xyz
x,y,z
1/2-x,-y,z
1/2+x,-y,-z
-x,y,-z
-x,-y,-z
1/2+x,y,-z
1/2-x,y,z
x,-y,z
loop_
_atom_site_type_symbol
_atom_site_label
_atom_site_fract_x
_atom_site_fract_y
_atom_site_fract_z
Si Si1 0.083377 0.884054 0.785744
Si Si2 0.000000 0.749374 0.500000
Si Si3 0.344184 0.172828 0.007828
Si Si4 0.654414 0.890314 0.761420
Si Si5 0.658487 0.120612 0.434549
Si Si6 0.953619 0.284335 0.719782
Si Si7 0.582570 0.386048 0.934211
O O1 0.114979 0.868128 0.903146
O O2 0.149062 0.872471 0.692990
O O3 0.018626 0.796661 0.763758
O O4 0.051799 0.000000 0.775110
O O5 0.079839 0.818871 0.522470
O O6 0.016803 0.683914 0.395077
O O7 0.250000 0.155863 0.997982
O O8 0.371633 0.119372 0.116126
O O9 0.363130 0.292857 0.025425
O O10 0.750000 0.888927 0.760501
O O11 0.622997 0.789344 0.705659
O O12 0.627933 0.000000 0.717285
O O13 0.750000 0.153259 0.464465
O O14 0.651335 0.000000 0.462080
O O15 0.936460 0.365272 0.811013
O O16 0.616388 0.500000 0.948235
O O17 0.500000 0.379942 0.000000
#
# Coordination Sequence:
#
# PCOD9399085 Si02
#       7
#     8   4   8   8   8   8   8
#     4  10  18  29  48  75 108 144 178 211 252 307
#     4  10  21  34  51  72 104 136 180 222 264 312
#     4  10  19  31  49  76 106 135 170 210 258 313
#     4   9  18  30  45  70 105 142 176 211 255 308
#     4   9  18  31  47  70 102 143 186 222 257 298
#     4  10  20  35  51  75 103 137 175 220 261 311
#     4  10  20  37  58  77  99 128 165 213 267 320
#
# _framework density 18.815359000000001
#
# number of rings (size 3 to 8) (size 9 to 14) (size 15 to 20)
#    0.000    2.308    1.538    1.615    0.000    4.308 
#    0.000    4.231    0.000    0.000    0.000    0.000 
#    0.000    1.538    0.000    0.000    0.000    0.000 
#
# Total GULP energy -289874.941299 kJ/mol
# GULP energy per Si atom -5574.518102 kJ/mol
# Density = 1.877253 g / cm^3
# Si number density = 18.815359 Si / 1000 Ang^3
#
#
#
# Elastic Constant Matrix: (Units=GPa)
#
#
# Indices 1 2 3 4 5 6 
#
# 1 63.3913 -7.4839 9.9350 0.0000 0.0000 0.0000
# 2 -7.4839 46.9115 -5.3363 0.0000 0.0000 0.0000
# 3 9.9350 -5.3363 106.0029 0.0000 0.0000 0.0000
# 4 0.0000 0.0000 0.0000 33.6333 0.0000 0.0000
# 5 0.0000 0.0000 0.0000 0.0000 18.8169 0.0000
# 6 0.0000 0.0000 0.0000 0.0000 0.0000 19.8260
#
#
#
# Elastic Compliance Matrix: (Units=1/GPa)
#
#
# Indices 1 2 3 4 5 6 
#
# 1 0.016283 0.002438 -0.001403 0.000000 0.000000 0.000000
# 2 0.002438 0.021805 0.000869 0.000000 0.000000 0.000000
# 3 -0.001403 0.000869 0.009609 0.000000 0.000000 0.000000
# 4 0.000000 0.000000 0.000000 0.029732 0.000000 0.000000
# 5 0.000000 0.000000 0.000000 0.000000 0.053144 0.000000
# 6 0.000000 0.000000 0.000000 0.000000 0.000000 0.050439
#
#
# Mechanical properties :
#
#
# Convention : Reuss Voigt Hill
#
# Bulk Modulus (GPa) = 19.41598 23.39280 21.40439
# Shear Modulus (GPa) = 25.72391 29.06798 27.39594
#
# Velocity S-wave (km/s) = 3.70155 3.93479 3.81995
# Velocity P-wave (km/s) = 5.34885 5.75355 5.55489
#
# Compressibility (1/GPa) = 0.05150397
#
# Stress axis : x y z
#
# Youngs Moduli (GPa) = 61.41448 45.86201 104.06930
#
# Poissons Ratio (x) = -0.11181 0.14605
# Poissons Ratio (y) = -0.14973 -0.09045
# Poissons Ratio (z) = 0.08619 -0.03986
#
# Static dielectric constant tensor:
#      x y z
#    x 1.676850 0.000000 0.000000 
#    y 0.000000 1.612470 0.000000 
#    z 0.000000 0.000000 1.704010 
# 
# From -- ./inp_files/17418.got.cif
#   From: 2010.05.17/outbox.cif.g08.bks.cpg/sg51_9_cif.got.tgz:17418.got - 2010.06.03 11:52:47.
