data_PCOD9399390
_publ_section_title
;
Structure prediction by ZEFSAII (Michael W. Deem and Ramdas Pophale) SiO2 
 PCOD9399390
Probable space group: P M M A
;
_chemical_formula_sum "Si O2"
_cell_formula_units_Z 40
_cell_length_a 15.938023
_cell_length_b 7.806939
_cell_length_c 15.105149
_cell_angle_alpha 90.000000
_cell_angle_beta 90.000000
_cell_angle_gamma 90.000000
_cell_volume 1879.490993
_symmetry_space_group_name_H-M "P M M A"
_symmetry_group_IT_number 51
_symmetry_cell_setting 'orthorhombic'
loop_
_space_group_symop_operation_xyz
x,y,z
1/2-x,-y,z
1/2+x,-y,-z
-x,y,-z
-x,-y,-z
1/2+x,y,-z
1/2-x,y,z
x,-y,z
loop_
_atom_site_type_symbol
_atom_site_label
_atom_site_fract_x
_atom_site_fract_y
_atom_site_fract_z
Si Si1 0.842808 0.790270 0.220611
Si Si2 0.657368 0.707027 0.787165
Si Si3 0.392114 0.196297 0.587518
Si Si4 0.504358 0.204289 0.099597
Si Si5 0.917959 0.300170 0.602545
O O1 0.750000 0.744249 0.188269
O O2 0.854608 0.730674 0.321980
O O3 0.918359 0.728318 0.158663
O O4 0.847555 0.000000 0.223779
O O5 0.750000 0.768606 0.812711
O O6 0.658199 0.500000 0.789315
O O7 0.582507 0.766567 0.849603
O O8 0.636010 0.757938 0.686113
O O9 0.375042 0.281556 0.493066
O O10 0.493097 0.204059 0.600180
O O11 0.364999 0.000000 0.579762
O O12 0.517775 0.000000 0.092865
O O13 0.500000 0.274378 0.000000
O O14 0.938746 0.500000 0.614996
#
# Coordination Sequence:
#
# PCOD9399390 Si02
#       5
#     8   8   8   8   8
#     4   9  18  33  53  79 112 144 176 220 276 332
#     4  10  22  39  58  81 113 152 188 225 276 332
#     4  10  18  30  52  78 107 145 185 222 270 327
#     4  10  21  38  61  86 110 141 183 233 285 332
#     4  10  19  32  52  77 109 146 183 224 271 318
#
# _framework density 21.282357999999999
#
# number of rings (size 3 to 8) (size 9 to 14) (size 15 to 20)
#    0.000    2.200    2.000    2.400    0.000    3.200 
#    0.000    2.000    0.000    4.800    0.000    0.000 
#    0.000    0.000    0.000    0.000    0.000    0.000 
#
# Total GULP energy -223347.567174 kJ/mol
# GULP energy per Si atom -5583.689179 kJ/mol
# Density = 2.123392 g / cm^3
# Si number density = 21.282358 Si / 1000 Ang^3
#
#
#
# Elastic Constant Matrix: (Units=GPa)
#
#
# Indices 1 2 3 4 5 6 
#
# 1 139.5585 -8.3011 85.0625 0.0000 0.0000 0.0000
# 2 -8.3011 26.3494 0.3446 0.0000 0.0000 0.0000
# 3 85.0625 0.3446 163.7496 0.0000 0.0000 0.0000
# 4 0.0000 0.0000 0.0000 19.8305 0.0000 0.0000
# 5 0.0000 0.0000 0.0000 0.0000 -4.3258 0.0000
# 6 0.0000 0.0000 0.0000 0.0000 0.0000 76.0654
#
#
#
# Elastic Compliance Matrix: (Units=1/GPa)
#
#
# Indices 1 2 3 4 5 6 
#
# 1 0.010794 0.003474 -0.005615 0.000000 0.000000 0.000000
# 2 0.003474 0.039071 -0.001887 0.000000 0.000000 0.000000
# 3 -0.005615 -0.001887 0.009027 0.000000 0.000000 0.000000
# 4 0.000000 0.000000 0.000000 0.050427 0.000000 0.000000
# 5 0.000000 0.000000 0.000000 0.000000 -0.231173 0.000000
# 6 0.000000 0.000000 0.000000 0.000000 0.000000 0.013147
#
#
# Mechanical properties :
#
#
# Convention : Reuss Voigt Hill
#
# Bulk Modulus (GPa) = 19.67052 53.76328 36.71690
# Shear Modulus (GPa) = -59.73295 35.15080 -12.29108
#
# Velocity S-wave (km/s) = -5.30357 4.06845 -2.40578
# Velocity P-wave (km/s) = 5.31423 6.88378 3.09398
#
# Compressibility (1/GPa) = 0.05083750
#
# Stress axis : x y z
#
# Youngs Moduli (GPa) = 92.64219 25.59467 110.77358
#
# Poissons Ratio (x) = -0.08892 0.62194
# Poissons Ratio (y) = -0.32184 0.20901
# Poissons Ratio (z) = 0.52014 0.04829
#
# Static dielectric constant tensor:
#      x y z
#    x 1.757890 0.000000 0.000000 
#    y 0.000000 1.778960 0.000000 
#    z 0.000000 0.000000 1.765790 
# 
# From -- ./inp_files/23707.got.cif
#   From: 2010.05.17/outbox.cif.g08.bks.cpg/sg51_12_cif.got.tgz:23707.got - 2010.06.03 11:52:47.
