data_PCOD9399907
_publ_section_title
;
Structure prediction by ZEFSAII (Michael W. Deem and Ramdas Pophale) SiO2 
 PCOD9399907
Probable space group: P M M A
;
_chemical_formula_sum "Si O2"
_cell_formula_units_Z 58
_cell_length_a 8.118730
_cell_length_b 28.125376
_cell_length_c 14.197824
_cell_angle_alpha 90.000000
_cell_angle_beta 90.000000
_cell_angle_gamma 90.000000
_cell_volume 3241.964268
_symmetry_space_group_name_H-M "P M M A"
_symmetry_group_IT_number 51
_symmetry_cell_setting 'orthorhombic'
loop_
_space_group_symop_operation_xyz
x,y,z
1/2-x,-y,z
1/2+x,-y,-z
-x,y,-z
-x,-y,-z
1/2+x,y,-z
1/2-x,y,z
x,-y,z
loop_
_atom_site_type_symbol
_atom_site_label
_atom_site_fract_x
_atom_site_fract_y
_atom_site_fract_z
Si Si1 0.058881 0.744065 0.283128
Si Si2 0.448364 0.911089 0.104346
Si Si3 0.051710 0.200018 0.103355
Si Si4 0.558315 0.652511 0.392246
Si Si5 0.054357 0.449068 0.390700
Si Si6 0.557701 0.066999 0.303867
Si Si7 0.441994 0.168388 0.604104
Si Si8 0.250000 0.000000 0.355722
O O1 0.250000 0.733281 0.267219
O O2 0.987491 0.766443 0.186708
O O3 0.981007 0.697164 0.326781
O O4 0.041909 0.787043 0.357128
O O5 0.250000 0.914446 0.113874
O O6 0.500307 0.855340 0.112162
O O7 0.530668 0.938086 0.191538
O O8 0.500000 0.927350 0.000000
O O9 0.250000 0.199242 0.109526
O O10 0.000000 0.216510 0.000000
O O11 0.500000 0.660919 0.500000
O O12 0.750000 0.646388 0.400253
O O13 0.493512 0.602364 0.351903
O O14 0.250000 0.450849 0.387863
O O15 0.990334 0.500000 0.351867
O O16 0.000000 0.447606 0.500000
O O17 0.750000 0.054111 0.328608
O O18 0.539144 0.122284 0.330806
O O19 0.401598 0.040388 0.350891
O O20 0.500000 0.155513 0.500000
O O21 0.250000 0.181876 0.602783
#
# Coordination Sequence:
#
# PCOD9399907 Si02
#       8
#     8   8   8   8   8   8   8   2
#     4  11  21  35  54  79 112 146 178 219 270 322
#     4  10  18  34  60  89 116 147 177 217 264 321
#     4   9  19  32  53  81 109 141 176 213 260 318
#     4  11  21  32  46  69 105 145 187 230 276 322
#     4   9  16  27  44  65  92 133 183 231 275 321
#     4  11  24  43  66  90 113 145 183 222 272 327
#     4  11  24  39  62  86 111 140 180 223 267 325
#     4  12  26  44  72  82 120 146 176 230 278 316
#
# _framework density 17.890388999999999
#
# number of rings (size 3 to 8) (size 9 to 14) (size 15 to 20)
#    0.000    1.655    2.069    4.345    1.931    2.483 
#    0.000    0.690    0.000    0.000    0.000    0.000 
#    0.000    0.552    0.000    1.793    0.000    2.483 
#
# Total GULP energy -322949.710597 kJ/mol
# GULP energy per Si atom -5568.098459 kJ/mol
# Density = 1.784967 g / cm^3
# Si number density = 17.890389 Si / 1000 Ang^3
#
#
#
# Elastic Constant Matrix: (Units=GPa)
#
#
# Indices 1 2 3 4 5 6 
#
# 1 76.4589 16.1252 -8.7689 0.0000 0.0000 0.0000
# 2 16.1252 78.1012 -6.1689 0.0000 0.0000 0.0000
# 3 -8.7689 -6.1689 39.4568 0.0000 0.0000 0.0000
# 4 0.0000 0.0000 0.0000 11.8401 0.0000 0.0000
# 5 0.0000 0.0000 0.0000 0.0000 19.5807 0.0000
# 6 0.0000 0.0000 0.0000 0.0000 0.0000 27.9292
#
#
#
# Elastic Compliance Matrix: (Units=1/GPa)
#
#
# Indices 1 2 3 4 5 6 
#
# 1 0.013949 -0.002668 0.002683 0.000000 0.000000 0.000000
# 2 -0.002668 0.013474 0.001514 0.000000 0.000000 0.000000
# 3 0.002683 0.001514 0.026177 0.000000 0.000000 0.000000
# 4 0.000000 0.000000 0.000000 0.084459 0.000000 0.000000
# 5 0.000000 0.000000 0.000000 0.000000 0.051071 0.000000
# 6 0.000000 0.000000 0.000000 0.000000 0.000000 0.035805
#
#
# Mechanical properties :
#
#
# Convention : Reuss Voigt Hill
#
# Bulk Modulus (GPa) = 17.64984 21.82131 19.73557
# Shear Modulus (GPa) = 20.76723 24.72531 22.74627
#
# Velocity S-wave (km/s) = 3.41075 3.72162 3.56957
# Velocity P-wave (km/s) = 5.03964 5.53994 5.29570
#
# Compressibility (1/GPa) = 0.05665775
#
# Stress axis : x y z
#
# Youngs Moduli (GPa) = 71.68800 74.21518 38.20138
#
# Poissons Ratio (x) = 0.19802 -0.10249
# Poissons Ratio (y) = 0.19127 -0.05782
# Poissons Ratio (z) = -0.19234 -0.11234
#
# Static dielectric constant tensor:
#      x y z
#    x 1.635460 0.000000 0.000000 
#    y 0.000000 1.652370 0.000000 
#    z 0.000000 0.000000 1.627000 
# 
# From -- ./inp_files/22502.got.cif
#   From: 2010.05.17/outbox.cif.g08.bks.cpg/sg51_12_cif.got.tgz:22502.got - 2010.06.03 11:52:47.
