data_PCOD9399354
_publ_section_title
;
Structure prediction by ZEFSAII (Michael W. Deem and Ramdas Pophale) SiO2 
 PCOD9399354
Probable space group: P M M A
;
_chemical_formula_sum "Si O2"
_cell_formula_units_Z 56
_cell_length_a 17.946187
_cell_length_b 18.769193
_cell_length_c 9.840793
_cell_angle_alpha 90.000000
_cell_angle_beta 90.000000
_cell_angle_gamma 90.000000
_cell_volume 3314.727913
_symmetry_space_group_name_H-M "P M M A"
_symmetry_group_IT_number 51
_symmetry_cell_setting 'orthorhombic'
loop_
_space_group_symop_operation_xyz
x,y,z
1/2-x,-y,z
1/2+x,-y,-z
-x,y,-z
-x,-y,-z
1/2+x,y,-z
1/2-x,y,z
x,-y,z
loop_
_atom_site_type_symbol
_atom_site_label
_atom_site_fract_x
_atom_site_fract_y
_atom_site_fract_z
Si Si1 0.337881 0.801791 0.602241
Si Si2 0.161544 0.684485 0.396564
Si Si3 0.924496 0.582250 0.412135
Si Si4 0.465810 0.820275 0.140679
Si Si5 0.460581 0.919138 0.645131
Si Si6 0.839370 0.719809 0.903668
Si Si7 0.412260 0.300655 0.813278
O O1 0.250000 0.816129 0.590854
O O2 0.366255 0.757649 0.469057
O O3 0.386356 0.871608 0.629543
O O4 0.354549 0.747474 0.726198
O O5 0.250000 0.688850 0.405495
O O6 0.134415 0.619739 0.488285
O O7 0.143233 0.679333 0.237717
O O8 0.907859 0.500000 0.383034
O O9 0.928558 0.629633 0.275925
O O10 0.000000 0.586409 0.500000
O O11 0.484043 0.877171 0.254812
O O12 0.381203 0.795535 0.117770
O O13 0.514164 0.748532 0.172507
O O14 0.500000 0.847815 0.000000
O O15 0.500000 0.921513 0.500000
O O16 0.445526 0.000000 0.690289
O O17 0.750000 0.725260 0.918424
O O18 0.877041 0.686997 0.038306
#
# Coordination Sequence:
#
# PCOD9399354 Si02
#       7
#     8   8   8   8   8   8   8
#     4   9  17  31  51  73  96 126 167 212 255 300
#     4   9  18  31  49  72  97 128 164 203 248 298
#     4  10  20  34  52  73  98 130 166 203 244 295
#     4   9  18  32  51  72  95 127 160 197 245 293
#     4  10  20  32  47  70 100 132 165 202 247 300
#     4  10  18  30  51  76  99 124 163 211 249 287
#     4   9  18  32  52  76 100 125 161 207 252 296
#
# _framework density 16.894297999999999
#
# number of rings (size 3 to 8) (size 9 to 14) (size 15 to 20)
#    0.000    2.571    0.000    2.143    0.000    5.429 
#    0.000    0.714    0.000    7.714    0.000    0.000 
#    0.000    0.000    0.000    0.000    0.000    0.000 
#
# Total GULP energy -311995.684006 kJ/mol
# GULP energy per Si atom -5571.351500 kJ/mol
# Density = 1.685585 g / cm^3
# Si number density = 16.894298 Si / 1000 Ang^3
#
#
#
# Elastic Constant Matrix: (Units=GPa)
#
#
# Indices 1 2 3 4 5 6 
#
# 1 43.6621 25.1821 19.0795 0.0000 0.0000 0.0000
# 2 25.1821 106.1912 55.1477 0.0000 0.0000 0.0000
# 3 19.0795 55.1477 126.5950 0.0000 0.0000 0.0000
# 4 0.0000 0.0000 0.0000 9.8471 0.0000 0.0000
# 5 0.0000 0.0000 0.0000 0.0000 21.2857 0.0000
# 6 0.0000 0.0000 0.0000 0.0000 0.0000 2.4460
#
#
#
# Elastic Compliance Matrix: (Units=1/GPa)
#
#
# Indices 1 2 3 4 5 6 
#
# 1 0.026793 -0.005501 -0.001642 0.000000 0.000000 0.000000
# 2 -0.005501 0.013300 -0.004965 0.000000 0.000000 0.000000
# 3 -0.001642 -0.004965 0.010309 0.000000 0.000000 0.000000
# 4 0.000000 0.000000 0.000000 0.101553 0.000000 0.000000
# 5 0.000000 0.000000 0.000000 0.000000 0.046980 0.000000
# 6 0.000000 0.000000 0.000000 0.000000 0.000000 0.408828
#
#
# Mechanical properties :
#
#
# Convention : Reuss Voigt Hill
#
# Bulk Modulus (GPa) = 38.18610 52.80744 45.49677
# Shear Modulus (GPa) = 7.80388 18.51837 13.16112
#
# Velocity S-wave (km/s) = 2.15157 3.31438 2.79413
# Velocity P-wave (km/s) = 5.36883 6.78028 6.11541
#
# Compressibility (1/GPa) = 0.02618754
#
# Stress axis : x y z
#
# Youngs Moduli (GPa) = 37.32269 75.18938 96.99974
#
# Poissons Ratio (x) = 0.41363 0.15924
# Poissons Ratio (y) = 0.20532 0.48156
# Poissons Ratio (z) = 0.06127 0.37328
#
# Static dielectric constant tensor:
#      x y z
#    x 1.588290 0.000000 0.000000 
#    y 0.000000 1.547770 0.000000 
#    z 0.000000 0.000000 1.602910 
# 
# From -- ./inp_files/11158.got.cif
#   From: 2010.05.17/outbox.cif.g08.bks.cpg/sg51_6_cif.got.tgz:11158.got - 2010.06.03 11:52:47.
