data_PCOD9399031
_publ_section_title
;
Structure prediction by ZEFSAII (Michael W. Deem and Ramdas Pophale) SiO2 
 PCOD9399031
Probable space group: P M M A
;
_chemical_formula_sum "Si O2"
_cell_formula_units_Z 48
_cell_length_a 21.571597
_cell_length_b 8.818082
_cell_length_c 15.473763
_cell_angle_alpha 90.000000
_cell_angle_beta 90.000000
_cell_angle_gamma 90.000000
_cell_volume 2943.420919
_symmetry_space_group_name_H-M "P M M A"
_symmetry_group_IT_number 51
_symmetry_cell_setting 'orthorhombic'
loop_
_space_group_symop_operation_xyz
x,y,z
1/2-x,-y,z
1/2+x,-y,-z
-x,y,-z
-x,-y,-z
1/2+x,y,-z
1/2-x,y,z
x,-y,z
loop_
_atom_site_type_symbol
_atom_site_label
_atom_site_fract_x
_atom_site_fract_y
_atom_site_fract_z
Si Si1 0.676717 0.179756 0.190348
Si Si2 0.455633 0.181250 0.117668
Si Si3 0.544893 0.320295 0.699756
Si Si4 0.085964 0.318720 0.945602
Si Si5 0.426441 0.175328 0.477246
Si Si6 0.100464 0.679736 0.654753
O O1 0.750000 0.207482 0.191888
O O2 0.643328 0.267279 0.112379
O O3 0.644912 0.236006 0.278555
O O4 0.665792 0.000000 0.180184
O O5 0.436929 0.234542 0.212941
O O6 0.523958 0.249650 0.098298
O O7 0.457913 0.000000 0.111329
O O8 0.413247 0.250353 0.041884
O O9 0.554204 0.500000 0.708873
O O10 0.578897 0.257961 0.614591
O O11 0.471003 0.294834 0.684415
O O12 0.080394 0.500000 0.948199
O O13 0.500000 0.178613 0.500000
O O14 0.394041 0.258143 0.557447
O O15 0.407608 0.000000 0.471621
O O16 0.111591 0.500000 0.657319
#
# Coordination Sequence:
#
# PCOD9399031 Si02
#       6
#     8   8   8   8   8   8
#     4  11  23  37  53  73  99 133 173 214 254 300
#     4  11  20  31  50  73 101 134 167 205 254 308
#     4  10  18  29  46  72 102 132 165 202 246 299
#     4  11  21  34  50  71  99 131 168 210 255 304
#     4   9  17  28  44  67  97 131 164 198 239 291
#     4  10  19  31  48  69  98 132 166 207 248 295
#
# _framework density 16.307555000000001
#
# number of rings (size 3 to 8) (size 9 to 14) (size 15 to 20)
#    0.000    1.667    1.667    6.000    0.000    4.667 
#    0.000    0.000    0.000    0.000    0.000    1.167 
#    0.000    9.333    0.000    0.000    0.000    0.000 
#
# Total GULP energy -267972.359806 kJ/mol
# GULP energy per Si atom -5582.757496 kJ/mol
# Density = 1.627044 g / cm^3
# Si number density = 16.307555 Si / 1000 Ang^3
#
#
#
# Elastic Constant Matrix: (Units=GPa)
#
#
# Indices 1 2 3 4 5 6 
#
# 1 37.9213 42.7089 35.9547 0.0000 0.0000 0.0000
# 2 42.7089 133.8360 80.9395 0.0000 0.0000 0.0000
# 3 35.9547 80.9395 162.3291 0.0000 0.0000 0.0000
# 4 0.0000 0.0000 0.0000 42.1103 0.0000 0.0000
# 5 0.0000 0.0000 0.0000 0.0000 11.5377 0.0000
# 6 0.0000 0.0000 0.0000 0.0000 0.0000 -7.0633
#
#
#
# Elastic Compliance Matrix: (Units=1/GPa)
#
#
# Indices 1 2 3 4 5 6 
#
# 1 0.042757 -0.011335 -0.003819 0.000000 0.000000 0.000000
# 2 -0.011335 0.013703 -0.004322 0.000000 0.000000 0.000000
# 3 -0.003819 -0.004322 0.009161 0.000000 0.000000 0.000000
# 4 0.000000 0.000000 0.000000 0.023747 0.000000 0.000000
# 5 0.000000 0.000000 0.000000 0.000000 0.086673 0.000000
# 6 0.000000 0.000000 0.000000 0.000000 0.000000 -0.141576
#
#
# Mechanical properties :
#
#
# Convention : Reuss Voigt Hill
#
# Bulk Modulus (GPa) = 37.49521 72.58807 55.04164
# Shear Modulus (GPa) = 60.74988 20.94915 40.84951
#
# Velocity S-wave (km/s) = 6.11011 3.58806 5.01037
# Velocity P-wave (km/s) = 8.53349 7.85965 8.20349
#
# Compressibility (1/GPa) = 0.02667008
#
# Stress axis : x y z
#
# Youngs Moduli (GPa) = 23.38793 72.97881 109.15887
#
# Poissons Ratio (x) = 0.82722 0.41683
# Poissons Ratio (y) = 0.26510 0.47175
# Poissons Ratio (z) = 0.08931 0.31539
#
# Static dielectric constant tensor:
#      x y z
#    x 1.515930 0.000000 0.000000 
#    y 0.000000 1.542880 0.000000 
#    z 0.000000 0.000000 1.557420 
# 
# From -- ./inp_files/25444.got.cif
#   From: 2010.05.17/outbox.cif.g08.bks.cpg/sg51_13_cif.got.tgz:25444.got - 2010.06.03 11:52:47.
