data_PCOD9399566
_publ_section_title
;
Structure prediction by ZEFSAII (Michael W. Deem and Ramdas Pophale) SiO2 
 PCOD9399566
Probable space group: P M M A
;
_chemical_formula_sum "Si O2"
_cell_formula_units_Z 46
_cell_length_a 7.735416
_cell_length_b 20.364213
_cell_length_c 14.433167
_cell_angle_alpha 90.000000
_cell_angle_beta 90.000000
_cell_angle_gamma 90.000000
_cell_volume 2273.594144
_symmetry_space_group_name_H-M "P M M A"
_symmetry_group_IT_number 51
_symmetry_cell_setting 'orthorhombic'
loop_
_space_group_symop_operation_xyz
x,y,z
1/2-x,-y,z
1/2+x,-y,-z
-x,y,-z
-x,-y,-z
1/2+x,y,-z
1/2-x,y,z
x,-y,z
loop_
_atom_site_type_symbol
_atom_site_label
_atom_site_fract_x
_atom_site_fract_y
_atom_site_fract_z
Si Si1 0.537860 0.866635 0.294423
Si Si2 0.545054 0.657838 0.895664
Si Si3 0.048705 0.399493 0.293883
Si Si4 0.951498 0.189566 0.105128
Si Si5 0.956351 0.732295 0.392485
Si Si6 0.958150 0.000000 0.391318
Si Si7 0.250000 0.500000 0.651716
O O1 0.750000 0.868523 0.294001
O O2 0.472541 0.851688 0.190278
O O3 0.488159 0.803241 0.354787
O O4 0.478032 0.934135 0.340482
O O5 0.750000 0.662254 0.889258
O O6 0.490729 0.609285 0.813655
O O7 0.479500 0.732234 0.881187
O O8 0.500000 0.637023 0.000000
O O9 0.250000 0.422327 0.298409
O O10 0.042535 0.326786 0.336714
O O11 0.905316 0.443507 0.343675
O O12 0.750000 0.178352 0.110757
O O13 0.000000 0.173279 0.000000
O O14 0.750000 0.727024 0.378861
O O15 0.000000 0.726239 0.500000
O O16 0.000000 0.000000 0.500000
O O17 0.750000 0.000000 0.383847
#
# Coordination Sequence:
#
# PCOD9399566 Si02
#       7
#     8   8   8   8   8   4   2
#     4   9  19  34  58  86 122 167 206 254 316 373
#     4  10  20  33  59  90 120 156 201 255 304 365
#     4  11  24  43  66  94 123 164 212 256 314 384
#     4  10  18  31  53  85 118 155 203 254 302 365
#     4  11  21  38  63  92 121 157 206 267 317 369
#     4  10  20  38  57  84 122 166 211 254 317 386
#     4  12  26  44  72  86 132 172 196 262 324 380
#
# _framework density 20.232282000000001
#
# number of rings (size 3 to 8) (size 9 to 14) (size 15 to 20)
#    0.000    1.739    2.609    3.391    2.435    0.000 
#    0.000    3.913    0.000    0.000    0.000    0.000 
#    0.000    0.000    0.000    0.000    0.000    0.000 
#
# Total GULP energy -256270.106187 kJ/mol
# GULP energy per Si atom -5571.089265 kJ/mol
# Density = 2.018623 g / cm^3
# Si number density = 20.232282 Si / 1000 Ang^3
#
#
#
# Elastic Constant Matrix: (Units=GPa)
#
#
# Indices 1 2 3 4 5 6 
#
# 1 68.9834 18.2146 -0.5596 0.0000 0.0000 0.0000
# 2 18.2146 78.8610 -18.7721 0.0000 0.0000 0.0000
# 3 -0.5596 -18.7721 21.1197 0.0000 0.0000 0.0000
# 4 0.0000 0.0000 0.0000 116.9196 0.0000 0.0000
# 5 0.0000 0.0000 0.0000 0.0000 2.7876 0.0000
# 6 0.0000 0.0000 0.0000 0.0000 0.0000 6.3390
#
#
#
# Elastic Compliance Matrix: (Units=1/GPa)
#
#
# Indices 1 2 3 4 5 6 
#
# 1 0.015645 -0.004458 -0.003548 0.000000 0.000000 0.000000
# 2 -0.004458 0.017354 0.015307 0.000000 0.000000 0.000000
# 3 -0.003548 0.015307 0.060861 0.000000 0.000000 0.000000
# 4 0.000000 0.000000 0.000000 0.008553 0.000000 0.000000
# 5 0.000000 0.000000 0.000000 0.000000 0.358727 0.000000
# 6 0.000000 0.000000 0.000000 0.000000 0.000000 0.157752
#
#
# Mechanical properties :
#
#
# Convention : Reuss Voigt Hill
#
# Bulk Modulus (GPa) = 9.21994 18.52555 13.87274
# Shear Modulus (GPa) = 7.80710 36.54801 22.17756
#
# Velocity S-wave (km/s) = 1.96650 4.25481 3.31440
# Velocity P-wave (km/s) = 3.11819 5.77185 4.63882
#
# Compressibility (1/GPa) = 0.10846057
#
# Stress axis : x y z
#
# Youngs Moduli (GPa) = 63.92000 57.62416 16.43101
#
# Poissons Ratio (x) = 0.25689 0.05830
# Poissons Ratio (y) = 0.28496 -0.25151
# Poissons Ratio (z) = 0.22678 -0.88204
#
# Static dielectric constant tensor:
#      x y z
#    x 1.680300 0.000000 0.000000 
#    y 0.000000 1.698260 0.000000 
#    z 0.000000 0.000000 1.781370 
# 
# From -- ./inp_files/21455.got.cif
#   From: 2010.05.17/outbox.cif.g08.bks.cpg/sg51_11_cif.got.tgz:21455.got - 2010.06.03 11:52:47.
