data_PCOD9399992
_publ_section_title
;
Structure prediction by ZEFSAII (Michael W. Deem and Ramdas Pophale) SiO2 
 PCOD9399992
Probable space group: P M M A
;
_chemical_formula_sum "Si O2"
_cell_formula_units_Z 64
_cell_length_a 14.256271
_cell_length_b 9.084506
_cell_length_c 32.412017
_cell_angle_alpha 90.000000
_cell_angle_beta 90.000000
_cell_angle_gamma 90.000000
_cell_volume 4197.718550
_symmetry_space_group_name_H-M "P M M A"
_symmetry_group_IT_number 51
_symmetry_cell_setting 'orthorhombic'
loop_
_space_group_symop_operation_xyz
x,y,z
1/2-x,-y,z
1/2+x,-y,-z
-x,y,-z
-x,-y,-z
1/2+x,y,-z
1/2-x,y,z
x,-y,z
loop_
_atom_site_type_symbol
_atom_site_label
_atom_site_fract_x
_atom_site_fract_y
_atom_site_fract_z
Si Si1 0.859871 0.677882 0.181208
Si Si2 0.358449 0.175166 0.057646
Si Si3 0.355646 0.678771 0.480192
Si Si4 0.363074 0.329830 0.971921
Si Si5 0.038961 0.175177 0.895125
Si Si6 0.860724 0.824630 0.357389
Si Si7 0.363779 0.669348 0.726677
Si Si8 0.042090 0.677841 0.565081
O O1 0.750000 0.719326 0.175631
O O2 0.863776 0.500000 0.179128
O O3 0.921572 0.748136 0.145533
O O4 0.891550 0.720733 0.227510
O O5 0.250000 0.209903 0.067005
O O6 0.430244 0.207218 0.094395
O O7 0.364601 0.000000 0.048769
O O8 0.387241 0.262246 0.016453
O O9 0.250000 0.731779 0.472544
O O10 0.354111 0.500000 0.479259
O O11 0.436607 0.723099 0.448049
O O12 0.392048 0.718117 0.525987
O O13 0.250000 0.324791 0.968792
O O14 0.392674 0.500000 0.968945
O O15 0.405495 0.236645 0.934738
O O16 0.051292 0.000000 0.892080
O O17 0.750000 0.785998 0.362595
O O18 0.891300 0.765788 0.312478
O O19 0.919513 0.750439 0.393715
O O20 0.868775 0.000000 0.359095
O O21 0.250000 0.668185 0.727850
O O22 0.394135 0.500000 0.720785
O O23 0.044363 0.500000 0.568927
#
# Coordination Sequence:
#
# PCOD9399992 Si02
#       8
#     8   8   8   8   8   8   8   8
#     4   9  18  32  48  67  92 118 141 168 206 253
#     4   9  19  35  49  61  83 114 147 182 215 248
#     4   8  14  25  41  62  87 114 148 188 222 253
#     4  10  20  32  46  65  89 116 144 175 212 251
#     4  11  21  30  45  68  89 114 146 175 209 253
#     4  10  19  28  40  62  91 118 143 176 217 256
#     4   8  15  29  47  64  84 113 145 173 206 253
#     4   9  16  26  43  64  84 113 151 185 218 257
#
# _framework density 15.246378
#
# number of rings (size 3 to 8) (size 9 to 14) (size 15 to 20)
#    0.000    2.750    0.000    3.750    0.000    6.750 
#    0.000    2.500    0.000    1.125    0.000    0.875 
#    0.000    1.000    0.000    0.000    0.000    0.000 
#
# Total GULP energy -356692.720509 kJ/mol
# GULP energy per Si atom -5573.323758 kJ/mol
# Density = 1.521168 g / cm^3
# Si number density = 15.246378 Si / 1000 Ang^3
#
#
#
# Elastic Constant Matrix: (Units=GPa)
#
#
# Indices 1 2 3 4 5 6 
#
# 1 82.3932 33.7905 68.1015 0.0000 0.0000 0.0000
# 2 33.7905 33.0121 49.7338 0.0000 0.0000 0.0000
# 3 68.1015 49.7338 143.5382 0.0000 0.0000 0.0000
# 4 0.0000 0.0000 0.0000 -43.7200 0.0000 0.0000
# 5 0.0000 0.0000 0.0000 0.0000 24.3854 0.0000
# 6 0.0000 0.0000 0.0000 0.0000 0.0000 15.6382
#
#
#
# Elastic Compliance Matrix: (Units=1/GPa)
#
#
# Indices 1 2 3 4 5 6 
#
# 1 0.022990 -0.014852 -0.005762 0.000000 0.000000 0.000000
# 2 -0.014852 0.072966 -0.018235 0.000000 0.000000 0.000000
# 3 -0.005762 -0.018235 0.016018 0.000000 0.000000 0.000000
# 4 0.000000 0.000000 0.000000 -0.022873 0.000000 0.000000
# 5 0.000000 0.000000 0.000000 0.000000 0.041008 0.000000
# 6 0.000000 0.000000 0.000000 0.000000 0.000000 0.063946
#
#
# Mechanical properties :
#
#
# Convention : Reuss Voigt Hill
#
# Bulk Modulus (GPa) = 29.17414 62.46612 45.82013
# Shear Modulus (GPa) = 17.65669 6.41524 12.03597
#
# Velocity S-wave (km/s) = 3.40677 2.05350 2.81273
# Velocity P-wave (km/s) = 5.88654 6.83246 6.37707
#
# Compressibility (1/GPa) = 0.03427693
#
# Stress axis : x y z
#
# Youngs Moduli (GPa) = 43.49670 13.70508 62.42803
#
# Poissons Ratio (x) = 0.20355 0.35969
# Poissons Ratio (y) = 0.64603 1.13836
# Poissons Ratio (z) = 0.25061 0.24991
#
# Static dielectric constant tensor:
#      x y z
#    x 1.517190 0.000000 0.000000 
#    y 0.000000 1.506980 0.000000 
#    z 0.000000 0.000000 1.488250 
# 
# From -- ./inp_files/37805.got.cif
#   From: 2010.05.17/outbox.cif.g08.bks.cpg/sg51_19_cif.got.tgz:37805.got - 2010.06.03 11:52:47.
