data_PCOD9399681
_publ_section_title
;
Structure prediction by ZEFSAII (Michael W. Deem and Ramdas Pophale) SiO2 
 PCOD9399681
Probable space group: P M M A
;
_chemical_formula_sum "Si O2"
_cell_formula_units_Z 48
_cell_length_a 28.659507
_cell_length_b 7.448064
_cell_length_c 10.609909
_cell_angle_alpha 90.000000
_cell_angle_beta 90.000000
_cell_angle_gamma 90.000000
_cell_volume 2264.768283
_symmetry_space_group_name_H-M "P M M A"
_symmetry_group_IT_number 51
_symmetry_cell_setting 'orthorhombic'
loop_
_space_group_symop_operation_xyz
x,y,z
1/2-x,-y,z
1/2+x,-y,-z
-x,y,-z
-x,-y,-z
1/2+x,y,-z
1/2-x,y,z
x,-y,z
loop_
_atom_site_type_symbol
_atom_site_label
_atom_site_fract_x
_atom_site_fract_y
_atom_site_fract_z
Si Si1 0.250000 0.281179 0.122334
Si Si2 0.353529 0.280109 0.484496
Si Si3 0.152452 0.280023 0.007128
Si Si4 0.389904 0.707998 0.750997
Si Si5 0.088618 0.716814 0.239146
Si Si6 0.250000 0.281387 0.414298
Si Si7 0.510989 0.791253 0.140495
O O1 0.250000 0.500000 0.123943
O O2 0.250000 0.225588 0.267901
O O3 0.203368 0.224055 0.051983
O O4 0.354010 0.500000 0.480290
O O5 0.377314 0.217701 0.614095
O O6 0.383261 0.221929 0.362446
O O7 0.299247 0.225003 0.474461
O O8 0.151486 0.500000 0.005935
O O9 0.137984 0.214346 0.869753
O O10 0.115471 0.223548 0.113088
O O11 0.375685 0.500000 0.743546
O O12 0.444026 0.712655 0.790408
O O13 0.089375 0.500000 0.240487
O O14 0.035148 0.772705 0.224786
O O15 0.250000 0.500000 0.416652
O O16 0.522082 0.000000 0.122388
O O17 0.500000 0.715414 0.000000
#
# Coordination Sequence:
#
# PCOD9399681 Si02
#       7
#     4   8   8   8   8   4   8
#     4   9  14  23  43  75 108 135 167 208 249 297
#     4   9  18  30  49  78 111 140 167 206 257 307
#     4   9  16  26  46  74 103 134 168 204 247 297
#     4  10  20  34  51  77 108 136 170 213 257 303
#     4  10  18  32  54  78 102 135 173 207 251 306
#     4   9  14  25  45  73 110 141 163 200 255 303
#     4  11  23  37  54  76 100 133 175 219 266 309
#
# _framework density 21.194222
#
# number of rings (size 3 to 8) (size 9 to 14) (size 15 to 20)
#    0.000    2.333    3.333    0.500    0.000    2.000 
#    0.000    7.500    0.000    0.000    0.000    7.000 
#    0.000    0.000    0.000    0.000    0.000    0.000 
#
# Total GULP energy -268060.188318 kJ/mol
# GULP energy per Si atom -5584.587257 kJ/mol
# Density = 2.114598 g / cm^3
# Si number density = 21.194222 Si / 1000 Ang^3
#
#
#
# Elastic Constant Matrix: (Units=GPa)
#
#
# Indices 1 2 3 4 5 6 
#
# 1 139.7113 -13.4045 69.7021 0.0000 0.0000 0.0000
# 2 -13.4045 62.3446 3.8389 0.0000 0.0000 0.0000
# 3 69.7021 3.8389 163.7439 0.0000 0.0000 0.0000
# 4 0.0000 0.0000 0.0000 -4.0688 0.0000 0.0000
# 5 0.0000 0.0000 0.0000 0.0000 33.7896 0.0000
# 6 0.0000 0.0000 0.0000 0.0000 0.0000 -74.3376
#
#
#
# Elastic Compliance Matrix: (Units=1/GPa)
#
#
# Indices 1 2 3 4 5 6 
#
# 1 0.009398 0.002270 -0.004054 0.000000 0.000000 0.000000
# 2 0.002270 0.016611 -0.001356 0.000000 0.000000 0.000000
# 3 -0.004054 -0.001356 0.007864 0.000000 0.000000 0.000000
# 4 0.000000 0.000000 0.000000 -0.245771 0.000000 0.000000
# 5 0.000000 0.000000 0.000000 0.000000 0.029595 0.000000
# 6 0.000000 0.000000 0.000000 0.000000 0.000000 -0.013452
#
#
# Mechanical properties :
#
#
# Convention : Reuss Voigt Hill
#
# Bulk Modulus (GPa) = 36.23825 54.00809 45.12317
# Shear Modulus (GPa) = -27.73498 11.45420 -8.14039
#
# Velocity S-wave (km/s) = -3.62140 2.32726 -1.96194
# Velocity P-wave (km/s) = 0.59222 5.72357 4.02545
#
# Compressibility (1/GPa) = 0.02759515
#
# Stress axis : x y z
#
# Youngs Moduli (GPa) = 106.40778 60.19935 127.15464
#
# Poissons Ratio (x) = -0.13666 0.51544
# Poissons Ratio (y) = -0.24157 0.17240
# Poissons Ratio (z) = 0.43134 0.08162
#
# Static dielectric constant tensor:
#      x y z
#    x 1.724090 0.000000 0.000000 
#    y 0.000000 1.815260 0.000000 
#    z 0.000000 0.000000 1.741210 
# 
# From -- ./inp_files/12875.got.cif
#   From: 2010.05.17/outbox.cif.g08.bks.cpg/sg51_7_cif.got.tgz:12875.got - 2010.06.03 11:52:47.
