data_PCOD9399605
_publ_section_title
;
Structure prediction by ZEFSAII (Michael W. Deem and Ramdas Pophale) SiO2 
 PCOD9399605
Probable space group: P M M A
;
_chemical_formula_sum "Si O2"
_cell_formula_units_Z 56
_cell_length_a 16.944491
_cell_length_b 18.385976
_cell_length_c 9.948300
_cell_angle_alpha 90.000000
_cell_angle_beta 90.000000
_cell_angle_gamma 90.000000
_cell_volume 3099.303379
_symmetry_space_group_name_H-M "P M M A"
_symmetry_group_IT_number 51
_symmetry_cell_setting 'orthorhombic'
loop_
_space_group_symop_operation_xyz
x,y,z
1/2-x,-y,z
1/2+x,-y,-z
-x,y,-z
-x,-y,-z
1/2+x,y,-z
1/2-x,y,z
x,-y,z
loop_
_atom_site_type_symbol
_atom_site_label
_atom_site_fract_x
_atom_site_fract_y
_atom_site_fract_z
Si Si1 0.345358 0.914936 0.718102
Si Si2 0.845804 0.255654 0.770686
Si Si3 0.157158 0.690794 0.731172
Si Si4 0.343109 0.581547 0.287820
Si Si5 0.655180 0.806411 0.048509
Si Si6 0.094000 0.196223 0.510405
Si Si7 0.422087 0.416631 0.566989
O O1 0.250000 0.905911 0.710115
O O2 0.372776 0.870779 0.851922
O O3 0.381314 0.878527 0.584362
O O4 0.363191 0.000000 0.728406
O O5 0.750000 0.258095 0.774106
O O6 0.873229 0.340888 0.770416
O O7 0.871542 0.215042 0.635254
O O8 0.874876 0.209228 0.899071
O O9 0.250000 0.676277 0.721812
O O10 0.141563 0.732539 0.868332
O O11 0.130866 0.744260 0.611263
O O12 0.106870 0.620216 0.701566
O O13 0.250000 0.579721 0.260046
O O14 0.374926 0.500000 0.249875
O O15 0.357515 0.587517 0.448529
O O16 0.750000 0.816893 0.037813
O O17 0.000000 0.200649 0.500000
O O18 0.500000 0.382407 0.500000
O O19 0.439925 0.500000 0.595186
#
# Coordination Sequence:
#
# PCOD9399605 Si02
#       7
#     8   8   8   8   8   8   8
#     4   9  18  36  59  79 103 136 169 205 254 311
#     4  10  18  32  53  77 104 136 174 219 259 301
#     4  10  18  32  50  70  97 132 174 218 258 308
#     4   9  17  28  45  69  96 130 170 212 260 305
#     4   8  17  32  52  76 101 130 169 212 258 306
#     4  11  21  32  52  78 107 135 170 212 256 306
#     4  10  19  29  45  70 101 132 170 219 267 307
#
# _framework density 18.068577999999999
#
# number of rings (size 3 to 8) (size 9 to 14) (size 15 to 20)
#    0.000    2.429    1.429    3.000    0.000    1.143 
#    0.000    4.286    0.000    6.000    0.000    3.000 
#    0.000    0.000    0.000    0.000    0.000    0.000 
#
# Total GULP energy -311784.780598 kJ/mol
# GULP energy per Si atom -5567.585368 kJ/mol
# Density = 1.802745 g / cm^3
# Si number density = 18.068578 Si / 1000 Ang^3
#
#
#
# Elastic Constant Matrix: (Units=GPa)
#
#
# Indices 1 2 3 4 5 6 
#
# 1 21.8696 17.4955 14.0478 0.0000 0.0000 0.0000
# 2 17.4955 103.7782 35.5053 0.0000 0.0000 0.0000
# 3 14.0478 35.5053 100.0864 0.0000 0.0000 0.0000
# 4 0.0000 0.0000 0.0000 8.0137 0.0000 0.0000
# 5 0.0000 0.0000 0.0000 0.0000 1.4592 0.0000
# 6 0.0000 0.0000 0.0000 0.0000 0.0000 13.2973
#
#
#
# Elastic Compliance Matrix: (Units=1/GPa)
#
#
# Indices 1 2 3 4 5 6 
#
# 1 0.055003 -0.007547 -0.005043 0.000000 0.000000 0.000000
# 2 -0.007547 0.012003 -0.003199 0.000000 0.000000 0.000000
# 3 -0.005043 -0.003199 0.011834 0.000000 0.000000 0.000000
# 4 0.000000 0.000000 0.000000 0.124787 0.000000 0.000000
# 5 0.000000 0.000000 0.000000 0.000000 0.685313 0.000000
# 6 0.000000 0.000000 0.000000 0.000000 0.000000 0.075203
#
#
# Mechanical properties :
#
#
# Convention : Reuss Voigt Hill
#
# Bulk Modulus (GPa) = 21.15868 39.98125 30.56997
# Shear Modulus (GPa) = 4.94328 15.13306 10.03817
#
# Velocity S-wave (km/s) = 1.65583 2.89716 2.35959
# Velocity P-wave (km/s) = 3.92318 5.77641 4.93752
#
# Compressibility (1/GPa) = 0.04726192
#
# Stress axis : x y z
#
# Youngs Moduli (GPa) = 18.18097 83.31505 84.50371
#
# Poissons Ratio (x) = 0.62882 0.42611
# Poissons Ratio (y) = 0.13722 0.27029
# Poissons Ratio (z) = 0.09168 0.26649
#
# Static dielectric constant tensor:
#      x y z
#    x 1.638110 0.000000 0.000000 
#    y 0.000000 1.678450 0.000000 
#    z 0.000000 0.000000 1.614720 
# 
# From -- ./inp_files/8576.got.cif
#   From: 2010.05.17/outbox.cif.g08.bks.cpg/sg51_5_cif.got.tgz:8576.got - 2010.06.03 11:52:47.
