data_PCOD9399647
_publ_section_title
;
Structure prediction by ZEFSAII (Michael W. Deem and Ramdas Pophale) SiO2 
 PCOD9399647
Probable space group: P M M A
;
_chemical_formula_sum "Si O2"
_cell_formula_units_Z 64
_cell_length_a 16.589017
_cell_length_b 22.005582
_cell_length_c 9.497212
_cell_angle_alpha 90.000000
_cell_angle_beta 90.000000
_cell_angle_gamma 90.000000
_cell_volume 3466.966490
_symmetry_space_group_name_H-M "P M M A"
_symmetry_group_IT_number 51
_symmetry_cell_setting 'orthorhombic'
loop_
_space_group_symop_operation_xyz
x,y,z
1/2-x,-y,z
1/2+x,-y,-z
-x,y,-z
-x,-y,-z
1/2+x,y,-z
1/2-x,y,z
x,-y,z
loop_
_atom_site_type_symbol
_atom_site_label
_atom_site_fract_x
_atom_site_fract_y
_atom_site_fract_z
Si Si1 0.344342 0.144270 0.328278
Si Si2 0.653634 0.321514 0.006651
Si Si3 0.591412 0.644169 0.454222
Si Si4 0.652471 0.568931 0.203402
Si Si5 0.526458 0.071023 0.840652
Si Si6 0.423999 0.873177 0.600965
Si Si7 0.846010 0.245016 0.272560
Si Si8 0.845569 0.715768 0.706989
O O1 0.250000 0.142050 0.293855
O O2 0.399446 0.112141 0.212059
O O3 0.359842 0.111275 0.478651
O O4 0.370135 0.215888 0.339222
O O5 0.750000 0.331761 0.989334
O O6 0.623398 0.381484 0.088490
O O7 0.645739 0.264311 0.110734
O O8 0.617734 0.304767 0.855983
O O9 0.500000 0.635784 0.500000
O O10 0.622690 0.589601 0.357426
O O11 0.606859 0.703259 0.357762
O O12 0.638072 0.663298 0.594655
O O13 0.750000 0.572324 0.206123
O O14 0.628792 0.500000 0.170726
O O15 0.457869 0.081695 0.720260
O O16 0.548463 0.000000 0.840451
O O17 0.500000 0.086948 0.000000
O O18 0.500000 0.856753 0.500000
O O19 0.385281 0.817913 0.686150
O O20 0.750000 0.247066 0.308910
O O21 0.750000 0.720997 0.723648
#
# Coordination Sequence:
#
# PCOD9399647 Si02
#       8
#     8   8   8   8   8   8   8   8
#     4  10  21  36  60  90 117 152 194 246 299 355
#     4   8  17  31  51  78 105 137 176 224 280 328
#     4  11  21  32  52  79 114 148 182 227 280 338
#     4   9  18  36  58  77 103 148 197 233 275 337
#     4  10  24  44  61  82 117 160 198 240 293 353
#     4  10  20  34  57  84 113 146 186 229 282 346
#     4  10  18  32  52  77 109 144 179 225 281 338
#     4  10  19  34  54  83 117 141 175 233 294 341
#
# _framework density 18.459941000000001
#
# number of rings (size 3 to 8) (size 9 to 14) (size 15 to 20)
#    0.000    2.250    1.250    2.625    3.500    2.750 
#    0.000    3.750    0.000    5.625    0.000    0.000 
#    0.000    0.000    0.000    0.000    0.000    0.000 
#
# Total GULP energy -356477.958414 kJ/mol
# GULP energy per Si atom -5569.968100 kJ/mol
# Density = 1.841793 g / cm^3
# Si number density = 18.459941 Si / 1000 Ang^3
#
#
#
# Elastic Constant Matrix: (Units=GPa)
#
#
# Indices 1 2 3 4 5 6 
#
# 1 26.7303 21.5820 17.5423 0.0000 0.0000 0.0000
# 2 21.5820 52.8629 28.4954 0.0000 0.0000 0.0000
# 3 17.5423 28.4954 119.0715 0.0000 0.0000 0.0000
# 4 0.0000 0.0000 0.0000 3.3267 0.0000 0.0000
# 5 0.0000 0.0000 0.0000 0.0000 14.4495 0.0000
# 6 0.0000 0.0000 0.0000 0.0000 0.0000 22.8064
#
#
#
# Elastic Compliance Matrix: (Units=1/GPa)
#
#
# Indices 1 2 3 4 5 6 
#
# 1 0.056875 -0.021473 -0.003240 0.000000 0.000000 0.000000
# 2 -0.021473 0.029826 -0.003974 0.000000 0.000000 0.000000
# 3 -0.003240 -0.003974 0.009827 0.000000 0.000000 0.000000
# 4 0.000000 0.000000 0.000000 0.300599 0.000000 0.000000
# 5 0.000000 0.000000 0.000000 0.000000 0.069207 0.000000
# 6 0.000000 0.000000 0.000000 0.000000 0.000000 0.043847
#
#
# Mechanical properties :
#
#
# Convention : Reuss Voigt Hill
#
# Bulk Modulus (GPa) = 25.54150 37.10044 31.32097
# Shear Modulus (GPa) = 8.61169 16.85285 12.73227
#
# Velocity S-wave (km/s) = 2.16222 3.02477 2.62911
# Velocity P-wave (km/s) = 4.48328 5.68686 5.12056
#
# Compressibility (1/GPa) = 0.03915198
#
# Stress axis : x y z
#
# Youngs Moduli (GPa) = 17.58253 33.52802 101.76288
#
# Poissons Ratio (x) = 0.71995 0.32974
# Poissons Ratio (y) = 0.37755 0.40442
# Poissons Ratio (z) = 0.05697 0.13325
#
# Static dielectric constant tensor:
#      x y z
#    x 1.653070 0.000000 0.000000 
#    y 0.000000 1.627400 0.000000 
#    z 0.000000 0.000000 1.683310 
# 
# From -- ./inp_files/10098.got.cif
#   From: 2010.05.17/outbox.cif.g08.bks.cpg/sg51_6_cif.got.tgz:10098.got - 2010.06.03 11:52:47.
