data_PCOD9399723
_publ_section_title
;
Structure prediction by ZEFSAII (Michael W. Deem and Ramdas Pophale) SiO2 
 PCOD9399723
Probable space group: P M M A
;
_chemical_formula_sum "Si O2"
_cell_formula_units_Z 64
_cell_length_a 32.435635
_cell_length_b 7.407933
_cell_length_c 12.073846
_cell_angle_alpha 90.000000
_cell_angle_beta 90.000000
_cell_angle_gamma 90.000000
_cell_volume 2901.115922
_symmetry_space_group_name_H-M "P M M A"
_symmetry_group_IT_number 51
_symmetry_cell_setting 'orthorhombic'
loop_
_space_group_symop_operation_xyz
x,y,z
1/2-x,-y,z
1/2+x,-y,-z
-x,y,-z
-x,-y,-z
1/2+x,y,-z
1/2-x,y,z
x,-y,z
loop_
_atom_site_type_symbol
_atom_site_label
_atom_site_fract_x
_atom_site_fract_y
_atom_site_fract_z
Si Si1 0.545990 0.220328 0.969106
Si Si2 0.821592 0.217946 0.736643
Si Si3 0.545311 0.292750 0.499040
Si Si4 0.794806 0.710817 0.490579
Si Si5 0.582729 0.218678 0.734482
Si Si6 0.704737 0.779690 0.979287
Si Si7 0.124103 0.782235 0.886729
Si Si8 0.376311 0.286920 0.627092
O O1 0.559247 0.274395 0.845612
O O2 0.545753 0.000000 0.971265
O O3 0.500000 0.280035 0.000000
O O4 0.582236 0.279174 0.052580
O O5 0.801391 0.279446 0.622603
O O6 0.869469 0.273232 0.739035
O O7 0.800913 0.275884 0.851321
O O8 0.820234 0.000000 0.735093
O O9 0.500000 0.208205 0.500000
O O10 0.539770 0.500000 0.460018
O O11 0.562250 0.289846 0.623469
O O12 0.581304 0.210534 0.423252
O O13 0.750000 0.789896 0.462513
O O14 0.793337 0.500000 0.459325
O O15 0.835143 0.789147 0.430658
O O16 0.581873 0.000000 0.729790
O O17 0.750000 0.723677 0.020111
O O18 0.703950 0.000000 0.980566
O O19 0.665335 0.719114 0.049963
O O20 0.125070 0.732576 0.758377
O O21 0.124145 0.000000 0.893943
O O22 0.376940 0.500000 0.598482
#
# Coordination Sequence:
#
# PCOD9399723 Si02
#       8
#     8   8   8   8   8   8   8   8
#     4   9  18  33  53  79 110 139 167 211 267 310
#     4  10  18  32  55  83 111 136 169 215 265 316
#     4  10  22  39  57  77 106 144 180 217 266 318
#     4  10  21  37  56  77 104 141 180 217 264 318
#     4  10  19  33  57  85 110 136 173 220 264 312
#     4   9  17  31  52  78 108 138 167 209 265 312
#     4  10  20  35  55  78 103 136 179 216 252 310
#     4  10  22  39  54  73 106 142 174 216 268 312
#
# _framework density 22.060475
#
# number of rings (size 3 to 8) (size 9 to 14) (size 15 to 20)
#    0.000    2.250    2.500    0.375    1.750    2.500 
#    0.000    1.250    0.000    1.500    0.000    0.000 
#    0.000    0.000    0.000    0.000    0.000    0.000 
#
# Total GULP energy -357600.878736 kJ/mol
# GULP energy per Si atom -5587.513730 kJ/mol
# Density = 2.201026 g / cm^3
# Si number density = 22.060475 Si / 1000 Ang^3
#
#
#
# Elastic Constant Matrix: (Units=GPa)
#
#
# Indices 1 2 3 4 5 6 
#
# 1 224.4736 6.7807 76.9786 0.0000 0.0000 0.0000
# 2 6.7807 72.3665 -14.8920 0.0000 0.0000 0.0000
# 3 76.9786 -14.8920 125.0009 0.0000 0.0000 0.0000
# 4 0.0000 0.0000 0.0000 -4.4550 0.0000 0.0000
# 5 0.0000 0.0000 0.0000 0.0000 216.1383 0.0000
# 6 0.0000 0.0000 0.0000 0.0000 0.0000 -30.1223
#
#
#
# Elastic Compliance Matrix: (Units=1/GPa)
#
#
# Indices 1 2 3 4 5 6 
#
# 1 0.005765 -0.001303 -0.003705 0.000000 0.000000 0.000000
# 2 -0.001303 0.014460 0.002525 0.000000 0.000000 0.000000
# 3 -0.003705 0.002525 0.010583 0.000000 0.000000 0.000000
# 4 0.000000 0.000000 0.000000 -0.224466 0.000000 0.000000
# 5 0.000000 0.000000 0.000000 0.000000 0.004627 0.000000
# 6 0.000000 0.000000 0.000000 0.000000 0.000000 -0.033198
#
#
# Mechanical properties :
#
#
# Convention : Reuss Voigt Hill
#
# Bulk Modulus (GPa) = 38.69740 62.17506 50.43623
# Shear Modulus (GPa) = -23.96366 59.84378 17.94006
#
# Velocity S-wave (km/s) = -3.29944 5.21402 2.85480
# Velocity P-wave (km/s) = 1.75058 8.03076 5.81196
#
# Compressibility (1/GPa) = 0.02584153
#
# Stress axis : x y z
#
# Youngs Moduli (GPa) = 173.46376 69.15525 94.49475
#
# Poissons Ratio (x) = 0.09009 0.35014
# Poissons Ratio (y) = 0.22597 -0.23859
# Poissons Ratio (z) = 0.64274 -0.17461
#
# Static dielectric constant tensor:
#      x y z
#    x 1.817030 0.000000 0.000000 
#    y 0.000000 1.841720 0.000000 
#    z 0.000000 0.000000 1.727960 
# 
# From -- ./inp_files/19441.got.cif
#   From: 2010.05.17/outbox.cif.g08.bks.cpg/sg51_10_cif.got.tgz:19441.got - 2010.06.03 11:52:47.
