data_PCOD9399342
_publ_section_title
;
Structure prediction by ZEFSAII (Michael W. Deem and Ramdas Pophale) SiO2 
 PCOD9399342
Probable space group: P M M A
;
_chemical_formula_sum "Si O2"
_cell_formula_units_Z 64
_cell_length_a 24.076482
_cell_length_b 8.917217
_cell_length_c 18.682601
_cell_angle_alpha 90.000000
_cell_angle_beta 90.000000
_cell_angle_gamma 90.000000
_cell_volume 4011.065031
_symmetry_space_group_name_H-M "P M M A"
_symmetry_group_IT_number 51
_symmetry_cell_setting 'orthorhombic'
loop_
_space_group_symop_operation_xyz
x,y,z
1/2-x,-y,z
1/2+x,-y,-z
-x,y,-z
-x,-y,-z
1/2+x,y,-z
1/2-x,y,z
x,-y,z
loop_
_atom_site_type_symbol
_atom_site_label
_atom_site_fract_x
_atom_site_fract_y
_atom_site_fract_z
Si Si1 0.682444 0.673022 0.068345
Si Si2 0.000620 0.179957 0.415336
Si Si3 0.314273 0.319523 0.225892
Si Si4 0.886740 0.318176 0.362822
Si Si5 0.685801 0.683002 0.226826
Si Si6 0.885127 0.681825 0.636734
Si Si7 0.317510 0.828625 0.077014
Si Si8 0.313034 0.682168 0.500874
O O1 0.750000 0.673547 0.067987
O O2 0.664821 0.500000 0.062396
O O3 0.667656 0.732612 0.147259
O O4 0.663062 0.760676 0.998345
O O5 0.055449 0.245973 0.378310
O O6 0.000000 0.223218 0.500000
O O7 0.946219 0.245863 0.377196
O O8 0.000692 0.000000 0.411715
O O9 0.250000 0.270435 0.238609
O O10 0.313570 0.500000 0.224795
O O11 0.354927 0.272470 0.289768
O O12 0.332816 0.261283 0.148337
O O13 0.891965 0.500000 0.362942
O O14 0.855816 0.272833 0.289714
O O15 0.847261 0.273973 0.429114
O O16 0.750000 0.729395 0.240305
O O17 0.686753 0.500000 0.224956
O O18 0.890367 0.500000 0.636549
O O19 0.845313 0.725655 0.570722
O O20 0.250000 0.824330 0.074581
O O21 0.334994 0.000000 0.083798
O O22 0.250000 0.737371 0.502132
O O23 0.310989 0.500000 0.501106
#
# Coordination Sequence:
#
# PCOD9399342 Si02
#       8
#     8   8   8   8   8   8   8   8
#     4   8  13  23  40  62  92 127 157 185 222 270
#     4  11  23  37  50  64  89 124 162 203 241 276
#     4   9  17  29  46  70  99 125 150 188 238 286
#     4  10  18  30  51  73  93 120 157 197 235 277
#     4   8  14  25  44  73 102 124 151 191 237 282
#     4  10  19  32  51  72  92 118 157 198 235 278
#     4   9  16  25  39  62  93 128 163 191 218 264
#     4   9  16  26  45  73  98 118 145 186 233 277
#
# _framework density 15.955861000000001
#
# number of rings (size 3 to 8) (size 9 to 14) (size 15 to 20)
#    0.000    2.750    1.250    2.250    0.000    5.500 
#    0.000    0.625    0.000    4.125    0.000    0.875 
#    0.000    7.000    0.000    0.000    0.000    0.000 
#
# Total GULP energy -356536.966122 kJ/mol
# GULP energy per Si atom -5570.890096 kJ/mol
# Density = 1.591954 g / cm^3
# Si number density = 15.955861 Si / 1000 Ang^3
#
#
#
# Elastic Constant Matrix: (Units=GPa)
#
#
# Indices 1 2 3 4 5 6 
#
# 1 109.1907 25.7974 74.9060 0.0000 0.0000 0.0000
# 2 25.7974 20.0998 36.0765 0.0000 0.0000 0.0000
# 3 74.9060 36.0765 167.9920 0.0000 0.0000 0.0000
# 4 0.0000 0.0000 0.0000 11.2457 0.0000 0.0000
# 5 0.0000 0.0000 0.0000 0.0000 3.0731 0.0000
# 6 0.0000 0.0000 0.0000 0.0000 0.0000 6.5696
#
#
#
# Elastic Compliance Matrix: (Units=1/GPa)
#
#
# Indices 1 2 3 4 5 6 
#
# 1 0.014672 -0.011535 -0.004065 0.000000 0.000000 0.000000
# 2 -0.011535 0.090025 -0.014190 0.000000 0.000000 0.000000
# 3 -0.004065 -0.014190 0.010812 0.000000 0.000000 0.000000
# 4 0.000000 0.000000 0.000000 0.088923 0.000000 0.000000
# 5 0.000000 0.000000 0.000000 0.000000 0.325401 0.000000
# 6 0.000000 0.000000 0.000000 0.000000 0.000000 0.152216
#
#
# Mechanical properties :
#
#
# Convention : Reuss Voigt Hill
#
# Bulk Modulus (GPa) = 17.87944 63.42692 40.65318
# Shear Modulus (GPa) = 6.57659 14.87786 10.72723
#
# Velocity S-wave (km/s) = 2.03241 3.05690 2.59570
# Velocity P-wave (km/s) = 4.09115 7.23169 5.87515
#
# Compressibility (1/GPa) = 0.05593017
#
# Stress axis : x y z
#
# Youngs Moduli (GPa) = 68.15603 11.10805 92.48595
#
# Poissons Ratio (x) = 0.12813 0.37596
# Poissons Ratio (y) = 0.78618 1.31234
# Poissons Ratio (z) = 0.27706 0.15762
#
# Static dielectric constant tensor:
#      x y z
#    x 1.507500 0.000000 0.000000 
#    y 0.000000 1.532160 0.000000 
#    z 0.000000 0.000000 1.542280 
# 
# From -- ./inp_files/30833.got.cif
#   From: 2010.05.17/outbox.cif.g08.bks.cpg/sg51_16_cif.got.tgz:30833.got - 2010.06.03 11:52:47.
