data_PCOD9399971
_publ_section_title
;
Structure prediction by ZEFSAII (Michael W. Deem and Ramdas Pophale) SiO2 
 PCOD9399971
Probable space group: P M M A
;
_chemical_formula_sum "Si O2"
_cell_formula_units_Z 64
_cell_length_a 9.051097
_cell_length_b 14.178673
_cell_length_c 35.184184
_cell_angle_alpha 90.000000
_cell_angle_beta 90.000000
_cell_angle_gamma 90.000000
_cell_volume 4515.275864
_symmetry_space_group_name_H-M "P M M A"
_symmetry_group_IT_number 51
_symmetry_cell_setting 'orthorhombic'
loop_
_space_group_symop_operation_xyz
x,y,z
1/2-x,-y,z
1/2+x,-y,-z
-x,y,-z
-x,-y,-z
1/2+x,y,-z
1/2-x,y,z
x,-y,z
loop_
_atom_site_type_symbol
_atom_site_label
_atom_site_fract_x
_atom_site_fract_y
_atom_site_fract_z
Si Si1 0.573989 0.111522 0.040257
Si Si2 0.071361 0.207305 0.112353
Si Si3 0.420596 0.385037 0.538794
Si Si4 0.428630 0.292855 0.232976
Si Si5 0.570633 0.105849 0.809133
Si Si6 0.570628 0.605760 0.845433
Si Si7 0.419999 0.385324 0.383954
Si Si8 0.073692 0.611634 0.694742
O O1 0.750000 0.124405 0.038226
O O2 0.504771 0.170460 0.074552
O O3 0.544359 0.000000 0.047009
O O4 0.500000 0.136310 0.000000
O O5 0.250000 0.204397 0.108246
O O6 0.031848 0.141381 0.148506
O O7 0.026743 0.313087 0.124908
O O8 0.500000 0.354632 0.500000
O O9 0.250000 0.356361 0.539157
O O10 0.423556 0.500000 0.538866
O O11 0.503012 0.353715 0.577058
O O12 0.250000 0.295539 0.236837
O O13 0.473719 0.187097 0.220488
O O14 0.468762 0.358844 0.196893
O O15 0.503072 0.330482 0.270888
O O16 0.750000 0.104436 0.808222
O O17 0.516943 0.000000 0.801830
O O18 0.750000 0.604314 0.846210
O O19 0.516908 0.500000 0.852847
O O20 0.250000 0.354924 0.382287
O O21 0.421143 0.500000 0.384869
O O22 0.506688 0.358442 0.345853
O O23 0.250000 0.621389 0.694221
O O24 0.038966 0.500000 0.700009
#
# Coordination Sequence:
#
# PCOD9399971 Si02
#       8
#     8   8   8   8   8   8   8   8
#     4  10  20  32  46  65  88 111 133 160 196 237
#     4   9  16  27  46  68  87 110 137 164 195 231
#     4   9  15  22  32  46  65  89 119 157 199 240
#     4   9  16  26  42  61  78 102 136 167 194 229
#     4   8  14  25  42  64  87 108 131 160 194 233
#     4   8  14  25  42  64  87 109 135 166 198 232
#     4   9  16  25  36  49  65  89 124 163 201 241
#     4  10  19  28  37  51  74 102 130 165 208 245
#
# _framework density 14.174106999999999
#
# number of rings (size 3 to 8) (size 9 to 14) (size 15 to 20)
#    0.000    3.000    0.000    3.750    0.000    5.500 
#    0.000    2.500    0.000    2.625    0.000    0.000 
#    0.000    0.000    0.000    0.000    0.000    0.625 
#
# Total GULP energy -356416.846493 kJ/mol
# GULP energy per Si atom -5569.013226 kJ/mol
# Density = 1.414185 g / cm^3
# Si number density = 14.174107 Si / 1000 Ang^3
#
#
#
# Elastic Constant Matrix: (Units=GPa)
#
#
# Indices 1 2 3 4 5 6 
#
# 1 53.0383 33.2445 59.8206 0.0000 0.0000 0.0000
# 2 33.2445 81.5774 63.1108 0.0000 0.0000 0.0000
# 3 59.8206 63.1108 153.1637 0.0000 0.0000 0.0000
# 4 0.0000 0.0000 0.0000 12.8814 0.0000 0.0000
# 5 0.0000 0.0000 0.0000 0.0000 27.4339 0.0000
# 6 0.0000 0.0000 0.0000 0.0000 0.0000 10.7489
#
#
#
# Elastic Compliance Matrix: (Units=1/GPa)
#
#
# Indices 1 2 3 4 5 6 
#
# 1 0.035280 -0.005457 -0.011531 0.000000 0.000000 0.000000
# 2 -0.005457 0.018838 -0.005631 0.000000 0.000000 0.000000
# 3 -0.011531 -0.005631 0.013353 0.000000 0.000000 0.000000
# 4 0.000000 0.000000 0.000000 0.077632 0.000000 0.000000
# 5 0.000000 0.000000 0.000000 0.000000 0.036451 0.000000
# 6 0.000000 0.000000 0.000000 0.000000 0.000000 0.093033
#
#
# Mechanical properties :
#
#
# Convention : Reuss Voigt Hill
#
# Bulk Modulus (GPa) = 44.97641 66.68127 55.82884
# Shear Modulus (GPa) = 15.27952 18.98638 17.13295
#
# Velocity S-wave (km/s) = 3.28684 3.66390 3.48048
# Velocity P-wave (km/s) = 6.79740 8.06508 7.45822
#
# Compressibility (1/GPa) = 0.02223388
#
# Stress axis : x y z
#
# Youngs Moduli (GPa) = 28.34483 53.08291 74.89103
#
# Poissons Ratio (x) = 0.28966 0.86354
# Poissons Ratio (y) = 0.15467 0.42172
# Poissons Ratio (z) = 0.32683 0.29892
#
# Static dielectric constant tensor:
#      x y z
#    x 1.470980 0.000000 0.000000 
#    y 0.000000 1.460120 0.000000 
#    z 0.000000 0.000000 1.449620 
# 
# From -- ./inp_files/37652.got.cif
#   From: 2010.05.17/outbox.cif.g08.bks.cpg/sg51_19_cif.got.tgz:37652.got - 2010.06.03 11:52:47.
