data_PCOD9399127
_publ_section_title
;
Structure prediction by ZEFSAII (Michael W. Deem and Ramdas Pophale) SiO2 
 PCOD9399127
Probable space group: P M M A
;
_chemical_formula_sum "Si O2"
_cell_formula_units_Z 40
_cell_length_a 7.630304
_cell_length_b 12.309393
_cell_length_c 21.118216
_cell_angle_alpha 90.000000
_cell_angle_beta 90.000000
_cell_angle_gamma 90.000000
_cell_volume 1983.515992
_symmetry_space_group_name_H-M "P M M A"
_symmetry_group_IT_number 51
_symmetry_cell_setting 'orthorhombic'
loop_
_space_group_symop_operation_xyz
x,y,z
1/2-x,-y,z
1/2+x,-y,-z
-x,y,-z
-x,-y,-z
1/2+x,y,-z
1/2-x,y,z
x,-y,z
loop_
_atom_site_type_symbol
_atom_site_label
_atom_site_fract_x
_atom_site_fract_y
_atom_site_fract_z
Si Si1 0.049857 0.500000 0.585547
Si Si2 0.039580 0.624795 0.071747
Si Si3 0.460805 0.720814 0.199257
Si Si4 0.458306 0.122326 0.688250
Si Si5 0.962009 0.500000 0.729211
Si Si6 0.539163 0.739034 0.431383
O O1 0.250000 0.500000 0.561457
O O2 0.966887 0.384473 0.567899
O O3 0.049069 0.500000 0.661281
O O4 0.250000 0.619045 0.077832
O O5 0.974201 0.500000 0.080490
O O6 0.976110 0.705065 0.127053
O O7 0.000000 0.658118 0.000000
O O8 0.250000 0.726105 0.197922
O O9 0.517800 0.818136 0.244595
O O10 0.510977 0.608378 0.233574
O O11 0.250000 0.115009 0.677904
O O12 0.527676 0.195103 0.629688
O O13 0.529973 0.000000 0.688143
O O14 0.750000 0.500000 0.721820
O O15 0.500000 0.789579 0.500000
O O16 0.750000 0.730822 0.424693
#
# Coordination Sequence:
#
# PCOD9399127 Si02
#       6
#     4   8   8   8   4   8
#     4  10  19  33  51  75 105 135 169 207 253 316
#     4   9  17  30  48  76 113 145 171 202 247 304
#     4  10  19  33  54  79 108 139 172 213 257 306
#     4  10  22  39  56  75 101 134 176 224 266 304
#     4  10  18  29  50  79 106 135 168 207 258 308
#     4  10  21  35  52  75 103 134 168 210 260 313
#
# _framework density 20.166208999999998
#
# number of rings (size 3 to 8) (size 9 to 14) (size 15 to 20)
#    0.000    2.200    3.000    0.300    0.000    3.200 
#    0.000    0.000    0.000    0.600    0.000    0.000 
#    0.000    0.000    0.000    0.000    0.000    0.000 
#
# Total GULP energy -223164.259999 kJ/mol
# GULP energy per Si atom -5579.106500 kJ/mol
# Density = 2.012031 g / cm^3
# Si number density = 20.166209 Si / 1000 Ang^3
#
#
#
# Elastic Constant Matrix: (Units=GPa)
#
#
# Indices 1 2 3 4 5 6 
#
# 1 38.6706 9.6661 2.7309 0.0000 0.0000 0.0000
# 2 9.6661 132.0048 77.9420 0.0000 0.0000 0.0000
# 3 2.7309 77.9420 180.1485 0.0000 0.0000 0.0000
# 4 0.0000 0.0000 0.0000 9.0463 0.0000 0.0000
# 5 0.0000 0.0000 0.0000 0.0000 25.6682 0.0000
# 6 0.0000 0.0000 0.0000 0.0000 0.0000 67.2042
#
#
#
# Elastic Compliance Matrix: (Units=1/GPa)
#
#
# Indices 1 2 3 4 5 6 
#
# 1 0.026387 -0.002278 0.000586 0.000000 0.000000 0.000000
# 2 -0.002278 0.010371 -0.004453 0.000000 0.000000 0.000000
# 3 0.000586 -0.004453 0.007469 0.000000 0.000000 0.000000
# 4 0.000000 0.000000 0.000000 0.110542 0.000000 0.000000
# 5 0.000000 0.000000 0.000000 0.000000 0.038959 0.000000
# 6 0.000000 0.000000 0.000000 0.000000 0.000000 0.014880
#
#
# Mechanical properties :
#
#
# Convention : Reuss Voigt Hill
#
# Bulk Modulus (GPa) = 31.31144 59.05578 45.18361
# Shear Modulus (GPa) = 21.59413 37.74942 29.67177
#
# Velocity S-wave (km/s) = 3.27587 4.33126 3.83999
# Velocity P-wave (km/s) = 5.46524 7.37300 6.48961
#
# Compressibility (1/GPa) = 0.03193721
#
# Stress axis : x y z
#
# Youngs Moduli (GPa) = 37.89680 96.41932 133.89442
#
# Poissons Ratio (x) = 0.21964 -0.07840
# Poissons Ratio (y) = 0.08633 0.59619
# Poissons Ratio (z) = -0.02219 0.42932
#
# Static dielectric constant tensor:
#      x y z
#    x 1.759920 0.000000 0.000000 
#    y 0.000000 1.712190 0.000000 
#    z 0.000000 0.000000 1.729870 
# 
# From -- ./inp_files/31408.got.cif
#   From: 2010.05.17/outbox.cif.g08.bks.cpg/sg51_16_cif.got.tgz:31408.got - 2010.06.03 11:52:47.
