data_PCOD9399220
_publ_section_title
;
Structure prediction by ZEFSAII (Michael W. Deem and Ramdas Pophale) SiO2 
 PCOD9399220
Probable space group: P M M A
;
_chemical_formula_sum "Si O2"
_cell_formula_units_Z 44
_cell_length_a 8.468293
_cell_length_b 21.976263
_cell_length_c 14.604331
_cell_angle_alpha 90.000000
_cell_angle_beta 90.000000
_cell_angle_gamma 90.000000
_cell_volume 2717.886944
_symmetry_space_group_name_H-M "P M M A"
_symmetry_group_IT_number 51
_symmetry_cell_setting 'orthorhombic'
loop_
_space_group_symop_operation_xyz
x,y,z
1/2-x,-y,z
1/2+x,-y,-z
-x,y,-z
-x,-y,-z
1/2+x,y,-z
1/2-x,y,z
x,-y,z
loop_
_atom_site_type_symbol
_atom_site_label
_atom_site_fract_x
_atom_site_fract_y
_atom_site_fract_z
Si Si1 0.059219 0.813529 0.284190
Si Si2 0.061693 0.000000 0.895200
Si Si3 0.059236 0.434645 0.604782
Si Si4 0.941074 0.067495 0.604191
Si Si5 0.061461 0.870914 0.103007
Si Si6 0.439278 0.301284 0.604295
O O1 0.250000 0.812885 0.287408
O O2 0.005005 0.874247 0.338188
O O3 0.011691 0.821458 0.178124
O O4 0.998191 0.753567 0.333475
O O5 0.995887 0.936444 0.858979
O O6 0.250000 0.000000 0.893456
O O7 0.000000 0.000000 0.000000
O O8 0.250000 0.434718 0.605105
O O9 0.007093 0.500000 0.645888
O O10 0.008477 0.368321 0.640476
O O11 0.000000 0.435020 0.500000
O O12 0.750000 0.067934 0.604651
O O13 0.000000 0.073602 0.500000
O O14 0.992253 0.000000 0.637475
O O15 0.250000 0.873139 0.098368
O O16 0.000000 0.861704 0.000000
O O17 0.500000 0.294066 0.500000
O O18 0.250000 0.300158 0.601364
#
# Coordination Sequence:
#
# PCOD9399220 Si02
#       6
#     8   4   8   8   8   8
#     4  10  21  33  48  66  87 119 153 187 229 277
#     4  10  18  30  48  68  87 108 137 178 228 280
#     4   8  14  25  41  62  88 120 154 184 217 256
#     4   9  18  32  47  61  80 109 146 184 220 257
#     4  10  20  34  51  68  89 115 146 187 235 284
#     4  10  19  30  46  67  95 126 156 191 223 262
#
# _framework density 16.189048
#
# number of rings (size 3 to 8) (size 9 to 14) (size 15 to 20)
#    0.000    2.545    0.000    3.545    1.273    4.364 
#    0.000    0.000    0.000    0.000    0.000    0.000 
#    0.000    0.727    0.000    1.636    0.000    2.909 
#
# Total GULP energy -245091.308039 kJ/mol
# GULP energy per Si atom -5570.257001 kJ/mol
# Density = 1.615220 g / cm^3
# Si number density = 16.189048 Si / 1000 Ang^3
#
#
#
# Elastic Constant Matrix: (Units=GPa)
#
#
# Indices 1 2 3 4 5 6 
#
# 1 26.5826 25.1954 18.0066 0.0000 0.0000 0.0000
# 2 25.1954 168.1673 72.9961 0.0000 0.0000 0.0000
# 3 18.0066 72.9961 72.9192 0.0000 0.0000 0.0000
# 4 0.0000 0.0000 0.0000 13.2538 0.0000 0.0000
# 5 0.0000 0.0000 0.0000 0.0000 14.9122 0.0000
# 6 0.0000 0.0000 0.0000 0.0000 0.0000 15.8279
#
#
#
# Elastic Compliance Matrix: (Units=1/GPa)
#
#
# Indices 1 2 3 4 5 6 
#
# 1 0.046306 -0.003491 -0.007940 0.000000 0.000000 0.000000
# 2 -0.003491 0.010779 -0.009928 0.000000 0.000000 0.000000
# 3 -0.007940 -0.009928 0.025613 0.000000 0.000000 0.000000
# 4 0.000000 0.000000 0.000000 0.075450 0.000000 0.000000
# 5 0.000000 0.000000 0.000000 0.000000 0.067059 0.000000
# 6 0.000000 0.000000 0.000000 0.000000 0.000000 0.063179
#
#
# Mechanical properties :
#
#
# Convention : Reuss Voigt Hill
#
# Bulk Modulus (GPa) = 25.01279 55.56281 40.28780
# Shear Modulus (GPa) = 14.51664 18.89686 16.70675
#
# Velocity S-wave (km/s) = 2.99774 3.42023 3.21593
# Velocity P-wave (km/s) = 5.24079 7.07057 6.22330
#
# Compressibility (1/GPa) = 0.03997954
#
# Stress axis : x y z
#
# Youngs Moduli (GPa) = 21.59544 92.77186 39.04221
#
# Poissons Ratio (x) = 0.32390 0.30999
# Poissons Ratio (y) = 0.07540 0.38763
# Poissons Ratio (z) = 0.17146 0.92107
#
# Static dielectric constant tensor:
#      x y z
#    x 1.555820 0.000000 0.000000 
#    y 0.000000 1.594600 0.000000 
#    z 0.000000 0.000000 1.525320 
# 
# From -- ./inp_files/21426.got.cif
#   From: 2010.05.17/outbox.cif.g08.bks.cpg/sg51_11_cif.got.tgz:21426.got - 2010.06.03 11:52:47.
