data_PCOD9399214
_publ_section_title
;
Structure prediction by ZEFSAII (Michael W. Deem and Ramdas Pophale) SiO2 
 PCOD9399214
Probable space group: P M M A
;
_chemical_formula_sum "Si O2"
_cell_formula_units_Z 48
_cell_length_a 21.336772
_cell_length_b 9.144606
_cell_length_c 15.654743
_cell_angle_alpha 90.000000
_cell_angle_beta 90.000000
_cell_angle_gamma 90.000000
_cell_volume 3054.496678
_symmetry_space_group_name_H-M "P M M A"
_symmetry_group_IT_number 51
_symmetry_cell_setting 'orthorhombic'
loop_
_space_group_symop_operation_xyz
x,y,z
1/2-x,-y,z
1/2+x,-y,-z
-x,y,-z
-x,-y,-z
1/2+x,y,-z
1/2-x,y,z
x,-y,z
loop_
_atom_site_type_symbol
_atom_site_label
_atom_site_fract_x
_atom_site_fract_y
_atom_site_fract_z
Si Si1 0.906928 0.823208 0.559802
Si Si2 0.675900 0.326120 0.698519
Si Si3 0.449839 0.826839 0.811159
Si Si4 0.925023 0.668189 0.018870
Si Si5 0.098616 0.827772 0.152131
Si Si6 0.453072 0.822808 0.621592
O O1 0.853754 0.745521 0.613980
O O2 0.911872 0.779752 0.460193
O O3 0.974680 0.784450 0.600951
O O4 0.900608 0.000000 0.565085
O O5 0.750000 0.299178 0.703007
O O6 0.665030 0.500000 0.698373
O O7 0.640820 0.254054 0.778884
O O8 0.417913 0.741052 0.888549
O O9 0.525292 0.811720 0.821600
O O10 0.433853 0.773021 0.715801
O O11 0.436085 0.000000 0.818644
O O12 0.904535 0.500000 0.017844
O O13 0.894657 0.759012 0.941883
O O14 0.000000 0.670413 0.000000
O O15 0.112531 0.000000 0.151612
O O16 0.452199 0.000000 0.623811
#
# Coordination Sequence:
#
# PCOD9399214 Si02
#       6
#     8   8   8   8   8   8
#     4   9  16  30  49  68  90 121 158 194 233 281
#     4  11  23  35  46  64  94 128 159 196 239 279
#     4   9  15  26  44  68  94 122 152 184 227 277
#     4   9  17  27  40  63  95 125 149 180 223 272
#     4  10  18  30  48  66  87 120 159 195 228 273
#     4   8  14  26  47  71  95 120 150 192 240 280
#
# _framework density 15.714537
#
# number of rings (size 3 to 8) (size 9 to 14) (size 15 to 20)
#    0.000    2.667    1.667    2.500    0.000    4.000 
#    0.000    2.500    0.000    0.000    0.000    1.167 
#    0.000    6.667    0.000    0.000    0.000    0.000 
#
# Total GULP energy -267438.647771 kJ/mol
# GULP energy per Si atom -5571.638495 kJ/mol
# Density = 1.567877 g / cm^3
# Si number density = 15.714537 Si / 1000 Ang^3
#
#
#
# Elastic Constant Matrix: (Units=GPa)
#
#
# Indices 1 2 3 4 5 6 
#
# 1 38.8433 38.9990 33.8793 0.0000 0.0000 0.0000
# 2 38.9990 71.8838 60.7611 0.0000 0.0000 0.0000
# 3 33.8793 60.7611 165.5480 0.0000 0.0000 0.0000
# 4 0.0000 0.0000 0.0000 5.5411 0.0000 0.0000
# 5 0.0000 0.0000 0.0000 0.0000 10.4231 0.0000
# 6 0.0000 0.0000 0.0000 0.0000 0.0000 17.8000
#
#
#
# Elastic Compliance Matrix: (Units=1/GPa)
#
#
# Indices 1 2 3 4 5 6 
#
# 1 0.056568 -0.030307 -0.000453 0.000000 0.000000 0.000000
# 2 -0.030307 0.036405 -0.007160 0.000000 0.000000 0.000000
# 3 -0.000453 -0.007160 0.008761 0.000000 0.000000 0.000000
# 4 0.000000 0.000000 0.000000 0.180470 0.000000 0.000000
# 5 0.000000 0.000000 0.000000 0.000000 0.095940 0.000000
# 6 0.000000 0.000000 0.000000 0.000000 0.000000 0.056180
#
#
# Mechanical properties :
#
#
# Convention : Reuss Voigt Hill
#
# Bulk Modulus (GPa) = 38.61679 60.39488 49.50583
# Shear Modulus (GPa) = 9.63772 16.26189 12.94981
#
# Velocity S-wave (km/s) = 2.47918 3.22037 2.87377
# Velocity P-wave (km/s) = 5.72908 7.23489 6.52556
#
# Compressibility (1/GPa) = 0.02589547
#
# Stress axis : x y z
#
# Youngs Moduli (GPa) = 17.67792 27.46851 114.14123
#
# Poissons Ratio (x) = 0.83248 0.05172
# Poissons Ratio (y) = 0.53576 0.81721
# Poissons Ratio (z) = 0.00801 0.19666
#
# Static dielectric constant tensor:
#      x y z
#    x 1.488920 0.000000 0.000000 
#    y 0.000000 1.521140 0.000000 
#    z 0.000000 0.000000 1.546170 
# 
# From -- ./inp_files/25493.got.cif
#   From: 2010.05.17/outbox.cif.g08.bks.cpg/sg51_13_cif.got.tgz:25493.got - 2010.06.03 11:52:47.
