data_PCOD9399361
_publ_section_title
;
Structure prediction by ZEFSAII (Michael W. Deem and Ramdas Pophale) SiO2 
 PCOD9399361
Probable space group: P M M A
;
_chemical_formula_sum "Si O2"
_cell_formula_units_Z 40
_cell_length_a 8.185700
_cell_length_b 27.732608
_cell_length_c 9.282106
_cell_angle_alpha 90.000000
_cell_angle_beta 90.000000
_cell_angle_gamma 90.000000
_cell_volume 2107.138395
_symmetry_space_group_name_H-M "P M M A"
_symmetry_group_IT_number 51
_symmetry_cell_setting 'orthorhombic'
loop_
_space_group_symop_operation_xyz
x,y,z
1/2-x,-y,z
1/2+x,-y,-z
-x,y,-z
-x,-y,-z
1/2+x,y,-z
1/2-x,y,z
x,-y,z
loop_
_atom_site_type_symbol
_atom_site_label
_atom_site_fract_x
_atom_site_fract_y
_atom_site_fract_z
Si Si1 0.052331 0.000000 0.331776
Si Si2 0.052398 0.208569 0.333582
Si Si3 0.444716 0.397041 0.333946
Si Si4 0.943063 0.500000 0.333066
Si Si5 0.052305 0.302961 0.164606
Si Si6 0.052695 0.103631 0.332327
O O1 0.995242 0.051857 0.270581
O O2 0.000000 0.000000 0.500000
O O3 0.250000 0.000000 0.326517
O O4 0.250000 0.208699 0.330220
O O5 0.993350 0.254399 0.243767
O O6 0.996342 0.155872 0.276043
O O7 0.000000 0.213133 0.500000
O O8 0.500000 0.393643 0.500000
O O9 0.250000 0.395906 0.333620
O O10 0.496696 0.449069 0.271957
O O11 0.507334 0.351068 0.245842
O O12 0.750000 0.500000 0.331111
O O13 0.000000 0.500000 0.500000
O O14 0.250000 0.303028 0.171698
O O15 0.000000 0.303320 0.000000
O O16 0.250000 0.103454 0.325931
O O17 0.000000 0.103650 0.500000
#
# Coordination Sequence:
#
# PCOD9399361 Si02
#       6
#     4   8   8   4   8   8
#     4   8  12  18  30  52  81 114 142 172 218 270
#     4   9  17  30  47  69  93 120 154 194 234 277
#     4  10  19  33  53  77 101 126 156 192 230 273
#     4  10  18  30  51  78 103 128 156 188 226 270
#     4  10  22  36  50  69  95 125 159 196 236 278
#     4   8  13  21  35  56  85 114 144 180 222 270
#
# _framework density 18.983091000000002
#
# number of rings (size 3 to 8) (size 9 to 14) (size 15 to 20)
#    0.000    2.800    0.000    3.300    0.000    2.400 
#    0.000    0.500    0.000    0.000    0.000    0.700 
#    0.000    0.000    0.000    0.000    0.000    0.000 
#
# Total GULP energy -222716.967695 kJ/mol
# GULP energy per Si atom -5567.924192 kJ/mol
# Density = 1.893988 g / cm^3
# Si number density = 18.983091 Si / 1000 Ang^3
#
#
#
# Elastic Constant Matrix: (Units=GPa)
#
#
# Indices 1 2 3 4 5 6 
#
# 1 23.7186 21.6271 2.1169 0.0000 0.0000 0.0000
# 2 21.6271 267.5710 71.3622 0.0000 0.0000 0.0000
# 3 2.1169 71.3622 49.8535 0.0000 0.0000 0.0000
# 4 0.0000 0.0000 0.0000 -2.8870 0.0000 0.0000
# 5 0.0000 0.0000 0.0000 0.0000 17.8243 0.0000
# 6 0.0000 0.0000 0.0000 0.0000 0.0000 24.2512
#
#
#
# Elastic Compliance Matrix: (Units=1/GPa)
#
#
# Indices 1 2 3 4 5 6 
#
# 1 0.046430 -0.005220 0.005500 0.000000 0.000000 0.000000
# 2 -0.005220 0.006632 -0.009272 0.000000 0.000000 0.000000
# 3 0.005500 -0.009272 0.033097 0.000000 0.000000 0.000000
# 4 0.000000 0.000000 0.000000 -0.346378 0.000000 0.000000
# 5 0.000000 0.000000 0.000000 0.000000 0.056103 0.000000
# 6 0.000000 0.000000 0.000000 0.000000 0.000000 0.041235
#
#
# Mechanical properties :
#
#
# Convention : Reuss Voigt Hill
#
# Bulk Modulus (GPa) = 14.66783 59.03948 36.85365
# Shear Modulus (GPa) = -40.92558 24.24015 -8.34271
#
# Velocity S-wave (km/s) = -4.64820 3.57730 -2.09866
# Velocity P-wave (km/s) = 4.58957 6.94488 3.68560
#
# Compressibility (1/GPa) = 0.06817642
#
# Stress axis : x y z
#
# Youngs Moduli (GPa) = 21.53796 150.78366 30.21415
#
# Poissons Ratio (x) = 0.78705 -0.16619
# Poissons Ratio (y) = 0.11242 0.28014
# Poissons Ratio (z) = -0.11846 1.39802
#
# Static dielectric constant tensor:
#      x y z
#    x 1.657280 0.000000 0.000000 
#    y 0.000000 1.767330 0.000000 
#    z 0.000000 0.000000 1.595190 
# 
# From -- ./inp_files/5609.got.cif
#   From: 2010.05.17/outbox.cif.g08.bks.cpg/sg51_3_cif.got.tgz:5609.got - 2010.06.03 11:52:47.
