data_PCOD9399796
_publ_section_title
;
Structure prediction by ZEFSAII (Michael W. Deem and Ramdas Pophale) SiO2 
 PCOD9399796
Probable space group: P M M A
;
_chemical_formula_sum "Si O2"
_cell_formula_units_Z 40
_cell_length_a 14.111453
_cell_length_b 11.912009
_cell_length_c 10.542822
_cell_angle_alpha 90.000000
_cell_angle_beta 90.000000
_cell_angle_gamma 90.000000
_cell_volume 1772.203625
_symmetry_space_group_name_H-M "P M M A"
_symmetry_group_IT_number 51
_symmetry_cell_setting 'orthorhombic'
loop_
_space_group_symop_operation_xyz
x,y,z
1/2-x,-y,z
1/2+x,-y,-z
-x,y,-z
-x,-y,-z
1/2+x,y,-z
1/2-x,y,z
x,-y,z
loop_
_atom_site_type_symbol
_atom_site_label
_atom_site_fract_x
_atom_site_fract_y
_atom_site_fract_z
Si Si1 0.605431 0.000000 0.451966
Si Si2 0.366073 0.630667 0.925625
Si Si3 0.133777 0.242030 0.181662
Si Si4 0.863459 0.237650 0.322498
Si Si5 0.865944 0.372599 0.566155
Si Si6 0.142522 0.000000 0.252432
O O1 0.500000 0.000000 0.500000
O O2 0.621990 0.890321 0.366672
O O3 0.651972 0.000000 0.593328
O O4 0.250000 0.628053 0.925219
O O5 0.396279 0.500000 0.913442
O O6 0.397855 0.710936 0.810143
O O7 0.394476 0.688421 0.057920
O O8 0.250000 0.238246 0.180148
O O9 0.106313 0.305174 0.309655
O O10 0.098098 0.114562 0.199650
O O11 0.750000 0.250847 0.316994
O O12 0.898793 0.313642 0.438283
O O13 0.750000 0.371880 0.563489
O O14 0.896942 0.500000 0.573845
O O15 0.250000 0.000000 0.203141
#
# Coordination Sequence:
#
# PCOD9399796 Si02
#       6
#     4   8   8   8   8   4
#     4  12  24  37  54  76 104 138 180 230 271 311
#     4   9  17  29  48  81 118 141 165 211 265 314
#     4   9  16  26  46  76 112 142 167 209 260 306
#     4  10  19  33  54  78 106 139 172 214 265 317
#     4   9  15  24  44  75 104 133 171 211 255 306
#     4  10  18  33  54  79 106 136 177 221 260 308
#
# _framework density 22.570768999999999
#
# number of rings (size 3 to 8) (size 9 to 14) (size 15 to 20)
#    0.000    2.400    2.000    2.100    0.000    5.600 
#    0.000    3.000    0.000    4.800    0.000    1.400 
#    0.000    0.000    0.000    0.000    0.000    0.000 
#
# Total GULP energy -223531.594414 kJ/mol
# GULP energy per Si atom -5588.289860 kJ/mol
# Density = 2.251940 g / cm^3
# Si number density = 22.570769 Si / 1000 Ang^3
#
#
#
# Elastic Constant Matrix: (Units=GPa)
#
#
# Indices 1 2 3 4 5 6 
#
# 1 56.4225 -12.5225 3.5920 0.0000 0.0000 0.0000
# 2 -12.5225 226.5276 106.6420 0.0000 0.0000 0.0000
# 3 3.5920 106.6420 188.3116 0.0000 0.0000 0.0000
# 4 0.0000 0.0000 0.0000 66.0621 0.0000 0.0000
# 5 0.0000 0.0000 0.0000 0.0000 22.7951 0.0000
# 6 0.0000 0.0000 0.0000 0.0000 0.0000 -12.9759
#
#
#
# Elastic Compliance Matrix: (Units=1/GPa)
#
#
# Indices 1 2 3 4 5 6 
#
# 1 0.018156 0.001591 -0.001247 0.000000 0.000000 0.000000
# 2 0.001591 0.006159 -0.003518 0.000000 0.000000 0.000000
# 3 -0.001247 -0.003518 0.007326 0.000000 0.000000 0.000000
# 4 0.000000 0.000000 0.000000 0.015137 0.000000 0.000000
# 5 0.000000 0.000000 0.000000 0.000000 0.043869 0.000000
# 6 0.000000 0.000000 0.000000 0.000000 0.000000 -0.077066
#
#
# Mechanical properties :
#
#
# Convention : Reuss Voigt Hill
#
# Bulk Modulus (GPa) = 39.53804 74.07608 56.80706
# Shear Modulus (GPa) = 176.29886 40.07959 108.18923
#
# Velocity S-wave (km/s) = 8.84754 4.21851 6.93090
# Velocity P-wave (km/s) = 11.04207 7.52453 9.44843
#
# Compressibility (1/GPa) = 0.02529210
#
# Stress axis : x y z
#
# Youngs Moduli (GPa) = 55.07856 162.37545 136.49285
#
# Poissons Ratio (x) = -0.25831 0.17023
# Poissons Ratio (y) = -0.08762 0.48018
# Poissons Ratio (z) = 0.06869 0.57123
#
# Static dielectric constant tensor:
#      x y z
#    x 1.907190 0.000000 0.000000 
#    y 0.000000 1.800270 0.000000 
#    z 0.000000 0.000000 1.805490 
# 
# From -- ./inp_files/10678.got.cif
#   From: 2010.05.17/outbox.cif.g08.bks.cpg/sg51_6_cif.got.tgz:10678.got - 2010.06.03 11:52:47.
