data_PCOD9399005
_publ_section_title
;
Structure prediction by ZEFSAII (Michael W. Deem and Ramdas Pophale) SiO2 
 PCOD9399005
Probable space group: P M M A
;
_chemical_formula_sum "Si O2"
_cell_formula_units_Z 64
_cell_length_a 30.720406
_cell_length_b 8.621024
_cell_length_c 14.478176
_cell_angle_alpha 90.000000
_cell_angle_beta 90.000000
_cell_angle_gamma 90.000000
_cell_volume 3834.419785
_symmetry_space_group_name_H-M "P M M A"
_symmetry_group_IT_number 51
_symmetry_cell_setting 'orthorhombic'
loop_
_space_group_symop_operation_xyz
x,y,z
1/2-x,-y,z
1/2+x,-y,-z
-x,y,-z
-x,-y,-z
1/2+x,y,-z
1/2-x,y,z
x,-y,z
loop_
_atom_site_type_symbol
_atom_site_label
_atom_site_fract_x
_atom_site_fract_y
_atom_site_fract_z
Si Si1 0.138472 0.187270 0.660217
Si Si2 0.938447 0.682255 0.464261
Si Si3 0.119857 0.184920 0.380814
Si Si4 0.577152 0.683577 0.788301
Si Si5 0.506339 0.819640 0.308067
Si Si6 0.088952 0.820357 0.831017
Si Si7 0.298664 0.812286 0.503359
Si Si8 0.549760 0.685802 0.988072
O O1 0.102615 0.281404 0.602720
O O2 0.130240 0.224699 0.767314
O O3 0.183258 0.218459 0.606805
O O4 0.129425 0.000000 0.650173
O O5 0.945767 0.500000 0.474519
O O6 0.921252 0.753936 0.559646
O O7 0.977869 0.758722 0.407480
O O8 0.113394 0.238742 0.276220
O O9 0.164170 0.240929 0.431157
O O10 0.119371 0.000000 0.386202
O O11 0.584605 0.500000 0.789536
O O12 0.531395 0.720294 0.738350
O O13 0.571373 0.743015 0.892935
O O14 0.547745 0.810074 0.238818
O O15 0.493237 0.000000 0.314341
O O16 0.093724 0.000000 0.857607
O O17 0.077566 0.725985 0.921900
O O18 0.250000 0.752024 0.488370
O O19 0.297152 0.000000 0.494818
O O20 0.546602 0.500000 0.979592
O O21 0.500000 0.745759 0.000000
#
# Coordination Sequence:
#
# PCOD9399005 Si02
#       8
#     8   8   8   8   8   8   8   8
#     4   8  15  28  45  71 101 125 153 190 231 279
#     4  10  18  29  46  66  91 125 162 194 231 278
#     4  10  20  34  49  68  96 124 155 194 237 284
#     4  11  22  34  47  65  91 123 164 205 240 280
#     4  10  19  31  46  66  91 123 162 201 241 277
#     4   9  17  28  45  67  93 124 158 197 238 279
#     4   8  14  28  53  79 100 123 150 183 229 286
#     4  10  20  33  47  65  90 122 163 208 245 275
#
# _framework density 16.690920999999999
#
# number of rings (size 3 to 8) (size 9 to 14) (size 15 to 20)
#    0.000    2.500    1.250    3.750    0.000    3.750 
#    0.000    2.500    0.000    9.375    0.000    0.875 
#    0.000    5.000    0.000    0.000    0.000    0.000 
#
# Total GULP energy -356684.323677 kJ/mol
# GULP energy per Si atom -5573.192557 kJ/mol
# Density = 1.665293 g / cm^3
# Si number density = 16.690921 Si / 1000 Ang^3
#
#
#
# Elastic Constant Matrix: (Units=GPa)
#
#
# Indices 1 2 3 4 5 6 
#
# 1 77.6321 4.2160 40.8378 0.0000 0.0000 0.0000
# 2 4.2160 22.9208 17.6737 0.0000 0.0000 0.0000
# 3 40.8378 17.6737 129.6819 0.0000 0.0000 0.0000
# 4 0.0000 0.0000 0.0000 7.0903 0.0000 0.0000
# 5 0.0000 0.0000 0.0000 0.0000 14.0772 0.0000
# 6 0.0000 0.0000 0.0000 0.0000 0.0000 24.1988
#
#
#
# Elastic Compliance Matrix: (Units=1/GPa)
#
#
# Indices 1 2 3 4 5 6 
#
# 1 0.015460 0.001017 -0.005007 0.000000 0.000000 0.000000
# 2 0.001017 0.048818 -0.006974 0.000000 0.000000 0.000000
# 3 -0.005007 -0.006974 0.010238 0.000000 0.000000 0.000000
# 4 0.000000 0.000000 0.000000 0.141038 0.000000 0.000000
# 5 0.000000 0.000000 0.000000 0.000000 0.071037 0.000000
# 6 0.000000 0.000000 0.000000 0.000000 0.000000 0.041324
#
#
# Mechanical properties :
#
#
# Convention : Reuss Voigt Hill
#
# Bulk Modulus (GPa) = 19.01505 39.52110 29.26807
# Shear Modulus (GPa) = 13.61016 20.24041 16.92528
#
# Velocity S-wave (km/s) = 2.85866 3.48610 3.18786
# Velocity P-wave (km/s) = 4.72367 6.31930 5.57883
#
# Compressibility (1/GPa) = 0.05258993
#
# Stress axis : x y z
#
# Youngs Moduli (GPa) = 64.68317 20.48404 97.67207
#
# Poissons Ratio (x) = -0.02084 0.48905
# Poissons Ratio (y) = -0.06580 0.68112
# Poissons Ratio (z) = 0.32387 0.14285
#
# Static dielectric constant tensor:
#      x y z
#    x 1.582610 0.000000 0.000000 
#    y 0.000000 1.565640 0.000000 
#    z 0.000000 0.000000 1.592250 
# 
# From -- ./inp_files/26649.got.cif
#   From: 2010.05.17/outbox.cif.g08.bks.cpg/sg51_14_cif.got.tgz:26649.got - 2010.06.03 11:52:47.
