data_PCOD9399072
_publ_section_title
;
Structure prediction by ZEFSAII (Michael W. Deem and Ramdas Pophale) SiO2 
 PCOD9399072
Probable space group: P M M A
;
_chemical_formula_sum "Si O2"
_cell_formula_units_Z 48
_cell_length_a 18.738607
_cell_length_b 13.111537
_cell_length_c 9.780715
_cell_angle_alpha 90.000000
_cell_angle_beta 90.000000
_cell_angle_gamma 90.000000
_cell_volume 2403.042833
_symmetry_space_group_name_H-M "P M M A"
_symmetry_group_IT_number 51
_symmetry_cell_setting 'orthorhombic'
loop_
_space_group_symop_operation_xyz
x,y,z
1/2-x,-y,z
1/2+x,-y,-z
-x,y,-z
-x,-y,-z
1/2+x,y,-z
1/2-x,y,z
x,-y,z
loop_
_atom_site_type_symbol
_atom_site_label
_atom_site_fract_x
_atom_site_fract_y
_atom_site_fract_z
Si Si1 0.051076 0.317901 0.367342
Si Si2 0.097228 0.167786 0.917445
Si Si3 0.073335 0.610743 0.820528
Si Si4 0.056879 0.886936 0.206354
Si Si5 0.835368 0.665305 0.439235
Si Si6 0.666690 0.110322 0.351015
O O1 0.066974 0.205800 0.308829
O O2 0.123004 0.368902 0.424900
O O3 0.000000 0.312906 0.500000
O O4 0.003704 0.373098 0.251687
O O5 0.088835 0.290467 0.912786
O O6 0.156025 0.131295 0.810312
O O7 0.023912 0.124612 0.851379
O O8 0.104355 0.128964 0.070612
O O9 0.076857 0.500000 0.887408
O O10 0.130670 0.615403 0.695990
O O11 0.067223 0.000000 0.263105
O O12 0.750000 0.654761 0.443655
O O13 0.857365 0.785321 0.421726
O O14 0.750000 0.104350 0.381911
O O15 0.633506 0.000000 0.385513
#
# Coordination Sequence:
#
# PCOD9399072 Si02
#       6
#     8   8   8   8   8   8
#     4   9  19  32  46  68  98 129 161 193 231 276
#     4   9  17  30  46  68  94 117 153 200 240 280
#     4   9  18  33  52  71  92 120 155 198 246 287
#     4  10  18  29  48  71  96 126 157 191 232 280
#     4   9  18  31  47  70  97 123 157 197 230 272
#     4   9  16  27  45  66  90 122 154 188 234 280
#
# _framework density 19.974674
#
# number of rings (size 3 to 8) (size 9 to 14) (size 15 to 20)
#    0.000    2.833    0.000    3.000    0.000    4.333 
#    0.000    7.500    0.000    1.000    0.000    0.000 
#    0.000    8.000    0.000    0.000    0.000    0.000 
#
# Total GULP energy -267514.381385 kJ/mol
# GULP energy per Si atom -5573.216279 kJ/mol
# Density = 1.992921 g / cm^3
# Si number density = 19.974674 Si / 1000 Ang^3
#
#
#
# Elastic Constant Matrix: (Units=GPa)
#
#
# Indices 1 2 3 4 5 6 
#
# 1 57.4789 5.2823 -1.0569 0.0000 0.0000 0.0000
# 2 5.2823 123.1052 -1.7366 0.0000 0.0000 0.0000
# 3 -1.0569 -1.7366 18.9509 0.0000 0.0000 0.0000
# 4 0.0000 0.0000 0.0000 -4.5459 0.0000 0.0000
# 5 0.0000 0.0000 0.0000 0.0000 16.3722 0.0000
# 6 0.0000 0.0000 0.0000 0.0000 0.0000 6.3836
#
#
#
# Elastic Compliance Matrix: (Units=1/GPa)
#
#
# Indices 1 2 3 4 5 6 
#
# 1 0.017482 -0.000737 0.000907 0.000000 0.000000 0.000000
# 2 -0.000737 0.008165 0.000707 0.000000 0.000000 0.000000
# 3 0.000907 0.000707 0.052883 0.000000 0.000000 0.000000
# 4 0.000000 0.000000 0.000000 -0.219977 0.000000 0.000000
# 5 0.000000 0.000000 0.000000 0.000000 0.061079 0.000000
# 6 0.000000 0.000000 0.000000 0.000000 0.000000 0.156651
#
#
# Mechanical properties :
#
#
# Convention : Reuss Voigt Hill
#
# Bulk Modulus (GPa) = 12.45570 22.72363 17.58967
# Shear Modulus (GPa) = 49.36286 16.77839 33.07062
#
# Velocity S-wave (km/s) = 4.97658 2.90139 4.07335
# Velocity P-wave (km/s) = 6.26667 4.75658 5.56310
#
# Compressibility (1/GPa) = 0.08028453
#
# Stress axis : x y z
#
# Youngs Moduli (GPa) = 57.20126 122.47776 18.90951
#
# Poissons Ratio (x) = 0.09031 -0.01716
# Poissons Ratio (y) = 0.04218 -0.01337
# Poissons Ratio (z) = -0.05190 -0.08660
#
# Static dielectric constant tensor:
#      x y z
#    x 1.715840 0.000000 0.000000 
#    y 0.000000 1.776660 0.000000 
#    z 0.000000 0.000000 1.701000 
# 
# From -- ./inp_files/18106.got.cif
#   From: 2010.05.17/outbox.cif.g08.bks.cpg/sg51_10_cif.got.tgz:18106.got - 2010.06.03 11:52:47.
