data_PCOD9399143
_publ_section_title
;
Structure prediction by ZEFSAII (Michael W. Deem and Ramdas Pophale) SiO2 
 PCOD9399143
Probable space group: P M M A
;
_chemical_formula_sum "Si O2"
_cell_formula_units_Z 48
_cell_length_a 14.104921
_cell_length_b 12.160720
_cell_length_c 15.194753
_cell_angle_alpha 90.000000
_cell_angle_beta 90.000000
_cell_angle_gamma 90.000000
_cell_volume 2606.295126
_symmetry_space_group_name_H-M "P M M A"
_symmetry_group_IT_number 51
_symmetry_cell_setting 'orthorhombic'
loop_
_space_group_symop_operation_xyz
x,y,z
1/2-x,-y,z
1/2+x,-y,-z
-x,y,-z
-x,-y,-z
1/2+x,y,-z
1/2-x,y,z
x,-y,z
loop_
_atom_site_type_symbol
_atom_site_label
_atom_site_fract_x
_atom_site_fract_y
_atom_site_fract_z
Si Si1 0.643207 0.237871 0.919257
Si Si2 0.113340 0.000000 0.004732
Si Si3 0.982245 0.870328 0.397250
Si Si4 0.635720 0.126858 0.749431
Si Si5 0.855575 0.000000 0.197049
Si Si6 0.134489 0.626237 0.910918
Si Si7 0.364974 0.766238 0.740600
O O1 0.750000 0.280535 0.906077
O O2 0.646378 0.112461 0.952482
O O3 0.602632 0.217235 0.821616
O O4 0.603615 0.307159 0.001482
O O5 0.150273 0.000000 0.906517
O O6 0.000000 0.000000 0.000000
O O7 0.911795 0.778795 0.355309
O O8 0.000000 0.852778 0.500000
O O9 0.079074 0.860497 0.341056
O O10 0.949051 0.000000 0.388084
O O11 0.750000 0.136189 0.739995
O O12 0.616904 0.000000 0.779137
O O13 0.899130 0.884754 0.222226
O O14 0.750000 0.000000 0.236662
O O15 0.250000 0.630341 0.911805
O O16 0.104027 0.500000 0.915876
O O17 0.107618 0.679948 0.816874
O O18 0.250000 0.761634 0.734484
#
# Coordination Sequence:
#
# PCOD9399143 Si02
#       7
#     8   4   8   8   4   8   8
#     4  10  18  30  47  69 101 135 167 204 244 296
#     4  12  22  24  42  72  99 136 170 203 242 292
#     4  10  21  34  50  73 104 134 167 215 262 311
#     4   9  18  31  49  71  99 136 173 207 247 299
#     4  10  18  30  45  70 102 132 167 205 247 298
#     4   9  18  32  51  76 105 138 174 211 252 299
#     4  10  19  31  52  76 104 137 169 208 256 311
#
# _framework density 18.416947
#
# number of rings (size 3 to 8) (size 9 to 14) (size 15 to 20)
#    0.000    2.167    3.333    0.750    2.333    0.667 
#    0.000    1.667    0.000    5.000    0.000    0.000 
#    0.000    5.333    0.000    0.000    0.000    0.000 
#
# Total GULP energy -267219.373218 kJ/mol
# GULP energy per Si atom -5567.070275 kJ/mol
# Density = 1.837503 g / cm^3
# Si number density = 18.416947 Si / 1000 Ang^3
#
#
#
# Elastic Constant Matrix: (Units=GPa)
#
#
# Indices 1 2 3 4 5 6 
#
# 1 80.9025 19.2725 29.1560 0.0000 0.0000 0.0000
# 2 19.2725 93.0174 60.6492 0.0000 0.0000 0.0000
# 3 29.1560 60.6492 163.0017 0.0000 0.0000 0.0000
# 4 0.0000 0.0000 0.0000 7.2188 0.0000 0.0000
# 5 0.0000 0.0000 0.0000 0.0000 31.7056 0.0000
# 6 0.0000 0.0000 0.0000 0.0000 0.0000 8.5221
#
#
#
# Elastic Compliance Matrix: (Units=1/GPa)
#
#
# Indices 1 2 3 4 5 6 
#
# 1 0.013390 -0.001601 -0.001799 0.000000 0.000000 0.000000
# 2 -0.001601 0.014386 -0.005066 0.000000 0.000000 0.000000
# 3 -0.001799 -0.005066 0.008342 0.000000 0.000000 0.000000
# 4 0.000000 0.000000 0.000000 0.138527 0.000000 0.000000
# 5 0.000000 0.000000 0.000000 0.000000 0.031540 0.000000
# 6 0.000000 0.000000 0.000000 0.000000 0.000000 0.117342
#
#
# Mechanical properties :
#
#
# Convention : Reuss Voigt Hill
#
# Bulk Modulus (GPa) = 52.12560 61.67523 56.90042
# Shear Modulus (GPa) = 14.41524 24.67891 19.54707
#
# Velocity S-wave (km/s) = 2.80074 3.66459 3.26139
# Velocity P-wave (km/s) = 6.23084 7.17402 6.71900
#
# Compressibility (1/GPa) = 0.01918443
#
# Stress axis : x y z
#
# Youngs Moduli (GPa) = 74.68010 69.51362 119.87869
#
# Poissons Ratio (x) = 0.11130 0.21571
# Poissons Ratio (y) = 0.11958 0.60733
# Poissons Ratio (z) = 0.13438 0.35217
#
# Static dielectric constant tensor:
#      x y z
#    x 1.718650 0.000000 0.000000 
#    y 0.000000 1.626550 0.000000 
#    z 0.000000 0.000000 1.681780 
# 
# From -- ./inp_files/24067.got.cif
#   From: 2010.05.17/outbox.cif.g08.bks.cpg/sg51_13_cif.got.tgz:24067.got - 2010.06.03 11:52:47.
