data_PCOD9399373
_publ_section_title
;
Structure prediction by ZEFSAII (Michael W. Deem and Ramdas Pophale) SiO2 
 PCOD9399373
Probable space group: P M M A
;
_chemical_formula_sum "Si O2"
_cell_formula_units_Z 44
_cell_length_a 8.566909
_cell_length_b 29.452297
_cell_length_c 9.574759
_cell_angle_alpha 90.000000
_cell_angle_beta 90.000000
_cell_angle_gamma 90.000000
_cell_volume 2415.856736
_symmetry_space_group_name_H-M "P M M A"
_symmetry_group_IT_number 51
_symmetry_cell_setting 'orthorhombic'
loop_
_space_group_symop_operation_xyz
x,y,z
1/2-x,-y,z
1/2+x,-y,-z
-x,y,-z
-x,-y,-z
1/2+x,y,-z
1/2-x,y,z
x,-y,z
loop_
_atom_site_type_symbol
_atom_site_label
_atom_site_fract_x
_atom_site_fract_y
_atom_site_fract_z
Si Si1 0.562393 0.232510 0.342523
Si Si2 0.561599 0.949564 0.843223
Si Si3 0.562272 0.865032 0.656702
Si Si4 0.437564 0.595304 0.658437
Si Si5 0.061635 0.681738 0.842924
Si Si6 0.563753 0.500000 0.658954
O O1 0.500000 0.239788 0.500000
O O2 0.750000 0.231330 0.348281
O O3 0.500551 0.183631 0.292592
O O4 0.511993 0.273269 0.241556
O O5 0.750000 0.948746 0.846023
O O6 0.509086 0.907647 0.748853
O O7 0.513370 0.000000 0.792535
O O8 0.500000 0.944415 0.000000
O O9 0.500000 0.870652 0.500000
O O10 0.750000 0.863572 0.654814
O O11 0.500000 0.601165 0.500000
O O12 0.250000 0.593355 0.651817
O O13 0.486560 0.637399 0.754617
O O14 0.500628 0.547453 0.717782
O O15 0.250000 0.681835 0.846956
O O16 0.000000 0.681063 0.000000
O O17 0.250000 0.500000 0.341876
O O18 0.500000 0.500000 0.500000
#
# Coordination Sequence:
#
# PCOD9399373 Si02
#       6
#     8   8   8   8   8   4
#     4  10  20  36  56  79 104 134 172 213 257 307
#     4   9  19  35  53  74 102 136 174 213 254 303
#     4  10  20  34  53  78 105 134 169 211 258 307
#     4  10  19  34  55  80 106 136 173 214 257 303
#     4  10  23  38  54  77 106 138 174 213 256 306
#     4  10  18  30  51  80 107 136 172 212 256 302
#
# _framework density 18.213000000000001
#
# number of rings (size 3 to 8) (size 9 to 14) (size 15 to 20)
#    0.000    2.182    0.000    5.182    0.000    5.455 
#    0.000    4.091    0.000    0.000    0.000    0.000 
#    0.000    0.000    0.000    0.000    0.000    0.000 
#
# Total GULP energy -245545.129803 kJ/mol
# GULP energy per Si atom -5580.571132 kJ/mol
# Density = 1.817155 g / cm^3
# Si number density = 18.213000 Si / 1000 Ang^3
#
#
#
# Elastic Constant Matrix: (Units=GPa)
#
#
# Indices 1 2 3 4 5 6 
#
# 1 52.8474 46.1932 23.7606 0.0000 0.0000 0.0000
# 2 46.1932 230.7223 105.4847 0.0000 0.0000 0.0000
# 3 23.7606 105.4847 84.5266 0.0000 0.0000 0.0000
# 4 0.0000 0.0000 0.0000 -52.3205 0.0000 0.0000
# 5 0.0000 0.0000 0.0000 0.0000 29.1363 0.0000
# 6 0.0000 0.0000 0.0000 0.0000 0.0000 17.7880
#
#
#
# Elastic Compliance Matrix: (Units=1/GPa)
#
#
# Indices 1 2 3 4 5 6 
#
# 1 0.023038 -0.003846 -0.001676 0.000000 0.000000 0.000000
# 2 -0.003846 0.010735 -0.012315 0.000000 0.000000 0.000000
# 3 -0.001676 -0.012315 0.027670 0.000000 0.000000 0.000000
# 4 0.000000 0.000000 0.000000 -0.019113 0.000000 0.000000
# 5 0.000000 0.000000 0.000000 0.000000 0.034321 0.000000
# 6 0.000000 0.000000 0.000000 0.000000 0.000000 0.056218
#
#
# Mechanical properties :
#
#
# Convention : Reuss Voigt Hill
#
# Bulk Modulus (GPa) = 38.80799 79.88593 59.34696
# Shear Modulus (GPa) = 28.22732 11.76461 19.99597
#
# Velocity S-wave (km/s) = 3.94108 2.54430 3.31705
# Velocity P-wave (km/s) = 6.48564 7.25180 6.87939
#
# Compressibility (1/GPa) = 0.02576789
#
# Stress axis : x y z
#
# Youngs Moduli (GPa) = 43.40682 93.15673 36.13970
#
# Poissons Ratio (x) = 0.35828 0.06058
# Poissons Ratio (y) = 0.16694 0.44506
# Poissons Ratio (z) = 0.07277 1.14723
#
# Static dielectric constant tensor:
#      x y z
#    x 1.621070 0.000000 0.000000 
#    y 0.000000 1.656990 0.000000 
#    z 0.000000 0.000000 1.575090 
# 
# From -- ./inp_files/5736.got.cif
#   From: 2010.05.17/outbox.cif.g08.bks.cpg/sg51_3_cif.got.tgz:5736.got - 2010.06.03 11:52:47.
