data_PCOD9399174
_publ_section_title
;
Structure prediction by ZEFSAII (Michael W. Deem and Ramdas Pophale) SiO2 
 PCOD9399174
Probable space group: P M M A
;
_chemical_formula_sum "Si O2"
_cell_formula_units_Z 44
_cell_length_a 8.653614
_cell_length_b 14.204307
_cell_length_c 19.381039
_cell_angle_alpha 90.000000
_cell_angle_beta 90.000000
_cell_angle_gamma 90.000000
_cell_volume 2382.289985
_symmetry_space_group_name_H-M "P M M A"
_symmetry_group_IT_number 51
_symmetry_cell_setting 'orthorhombic'
loop_
_space_group_symop_operation_xyz
x,y,z
1/2-x,-y,z
1/2+x,-y,-z
-x,y,-z
-x,-y,-z
1/2+x,y,-z
1/2-x,y,z
x,-y,z
loop_
_atom_site_type_symbol
_atom_site_label
_atom_site_fract_x
_atom_site_fract_y
_atom_site_fract_z
Si Si1 0.567004 0.782250 0.206262
Si Si2 0.434655 0.718635 0.424203
Si Si3 0.433890 0.698530 0.077123
Si Si4 0.563703 0.392746 0.709462
Si Si5 0.435206 0.500000 0.921976
Si Si6 0.936699 0.893275 0.669019
O O1 0.750000 0.788081 0.198708
O O2 0.488080 0.776579 0.131446
O O3 0.519468 0.685613 0.245076
O O4 0.504814 0.862752 0.257248
O O5 0.500000 0.705959 0.500000
O O6 0.250000 0.723764 0.429510
O O7 0.470344 0.635674 0.369856
O O8 0.487947 0.815789 0.387280
O O9 0.250000 0.692274 0.073504
O O10 0.499519 0.598383 0.105336
O O11 0.500000 0.712708 0.000000
O O12 0.750000 0.383318 0.719471
O O13 0.519623 0.500000 0.724511
O O14 0.250000 0.500000 0.920718
O O15 0.500000 0.500000 0.000000
O O16 0.750000 0.887218 0.673546
O O17 0.979248 0.000000 0.651054
#
# Coordination Sequence:
#
# PCOD9399174 Si02
#       6
#     8   8   8   8   4   8
#     4  11  22  35  53  80 110 138 175 224 272 322
#     4   9  18  32  51  78 109 140 174 217 265 318
#     4  11  21  35  53  75 106 144 182 221 267 316
#     4   9  19  36  54  72 101 144 189 224 262 313
#     4  10  18  30  46  70 102 136 175 216 259 306
#     4   9  19  38  60  79 103 138 178 218 266 325
#
# _framework density 18.469622999999999
#
# number of rings (size 3 to 8) (size 9 to 14) (size 15 to 20)
#    0.000    2.182    0.000    6.273    1.273    4.364 
#    0.000    0.000    0.000    0.545    0.000    0.000 
#    0.000    0.000    0.000    0.000    0.000    0.000 
#
# Total GULP energy -245543.553872 kJ/mol
# GULP energy per Si atom -5580.535315 kJ/mol
# Density = 1.842759 g / cm^3
# Si number density = 18.469623 Si / 1000 Ang^3
#
#
#
# Elastic Constant Matrix: (Units=GPa)
#
#
# Indices 1 2 3 4 5 6 
#
# 1 68.7780 0.4204 11.4827 0.0000 0.0000 0.0000
# 2 0.4204 34.4621 -16.1749 0.0000 0.0000 0.0000
# 3 11.4827 -16.1749 74.6174 0.0000 0.0000 0.0000
# 4 0.0000 0.0000 0.0000 16.9231 0.0000 0.0000
# 5 0.0000 0.0000 0.0000 0.0000 31.7913 0.0000
# 6 0.0000 0.0000 0.0000 0.0000 0.0000 17.2603
#
#
#
# Elastic Compliance Matrix: (Units=1/GPa)
#
#
# Indices 1 2 3 4 5 6 
#
# 1 0.014984 -0.001408 -0.002611 0.000000 0.000000 0.000000
# 2 -0.001408 0.032436 0.007248 0.000000 0.000000 0.000000
# 3 -0.002611 0.007248 0.015375 0.000000 0.000000 0.000000
# 4 0.000000 0.000000 0.000000 0.059091 0.000000 0.000000
# 5 0.000000 0.000000 0.000000 0.000000 0.031455 0.000000
# 6 0.000000 0.000000 0.000000 0.000000 0.000000 0.057936
#
#
# Mechanical properties :
#
#
# Convention : Reuss Voigt Hill
#
# Bulk Modulus (GPa) = 14.43997 18.81266 16.62632
# Shear Modulus (GPa) = 21.93900 25.33689 23.63795
#
# Velocity S-wave (km/s) = 3.45025 3.70782 3.58135
# Velocity P-wave (km/s) = 4.86903 5.34214 5.11106
#
# Compressibility (1/GPa) = 0.06925224
#
# Stress axis : x y z
#
# Youngs Moduli (GPa) = 66.73753 30.82950 65.04200
#
# Poissons Ratio (x) = 0.04342 0.16983
# Poissons Ratio (y) = 0.09399 -0.47142
# Poissons Ratio (z) = 0.17426 -0.22345
#
# Static dielectric constant tensor:
#      x y z
#    x 1.621110 0.000000 0.000000 
#    y 0.000000 1.646020 0.000000 
#    z 0.000000 0.000000 1.634820 
# 
# From -- ./inp_files/27396.got.cif
#   From: 2010.05.17/outbox.cif.g08.bks.cpg/sg51_14_cif.got.tgz:27396.got - 2010.06.03 11:52:47.
