data_PCOD9399942
_publ_section_title
;
Structure prediction by ZEFSAII (Michael W. Deem and Ramdas Pophale) SiO2 
 PCOD9399942
Probable space group: P M M A
;
_chemical_formula_sum "Si O2"
_cell_formula_units_Z 40
_cell_length_a 14.901962
_cell_length_b 7.889299
_cell_length_c 17.610312
_cell_angle_alpha 90.000000
_cell_angle_beta 90.000000
_cell_angle_gamma 90.000000
_cell_volume 2070.374538
_symmetry_space_group_name_H-M "P M M A"
_symmetry_group_IT_number 51
_symmetry_cell_setting 'orthorhombic'
loop_
_space_group_symop_operation_xyz
x,y,z
1/2-x,-y,z
1/2+x,-y,-z
-x,y,-z
-x,-y,-z
1/2+x,y,-z
1/2-x,y,z
x,-y,z
loop_
_atom_site_type_symbol
_atom_site_label
_atom_site_fract_x
_atom_site_fract_y
_atom_site_fract_z
Si Si1 0.250000 0.197095 0.468774
Si Si2 0.250000 0.691681 0.637971
Si Si3 0.018047 0.295431 0.881230
Si Si4 0.557036 0.792340 0.573651
Si Si5 0.933838 0.201117 0.289141
Si Si6 0.353028 0.707001 0.017555
O O1 0.250000 0.201614 0.560438
O O2 0.157910 0.271448 0.437081
O O3 0.250000 0.000000 0.446067
O O4 0.250000 0.500000 0.610485
O O5 0.338112 0.723228 0.687739
O O6 0.017753 0.500000 0.882155
O O7 0.037503 0.237913 0.796464
O O8 0.921929 0.240052 0.915803
O O9 0.096711 0.241457 0.939646
O O10 0.500000 0.741453 0.500000
O O11 0.507432 0.737293 0.650031
O O12 0.558824 0.000000 0.573405
O O13 0.925280 0.000000 0.298961
O O14 0.250000 0.765288 0.023458
O O15 0.350975 0.500000 0.018047
#
# Coordination Sequence:
#
# PCOD9399942 Si02
#       6
#     4   4   8   8   8   8
#     4  10  18  36  60  78 101 142 191 226 261 318
#     4  12  24  36  54  82 109 138 177 226 279 326
#     4   9  18  33  54  81 107 138 184 226 264 318
#     4   9  17  32  56  79 102 141 184 219 260 319
#     4  11  22  37  55  80 111 144 180 223 274 323
#     4   8  15  31  55  78 105 144 183 218 265 327
#
# _framework density 19.320177999999999
#
# number of rings (size 3 to 8) (size 9 to 14) (size 15 to 20)
#    0.000    2.400    2.000    2.700    1.400    0.000 
#    1.800    5.000    0.000    1.200    0.000    0.000 
#    0.000    0.000    0.000    0.000    0.000    0.000 
#
# Total GULP energy -223196.318580 kJ/mol
# GULP energy per Si atom -5579.907964 kJ/mol
# Density = 1.927620 g / cm^3
# Si number density = 19.320178 Si / 1000 Ang^3
#
#
#
# Elastic Constant Matrix: (Units=GPa)
#
#
# Indices 1 2 3 4 5 6 
#
# 1 216.2998 7.9944 91.1376 0.0000 0.0000 0.0000
# 2 7.9944 22.2399 -6.5296 0.0000 0.0000 0.0000
# 3 91.1376 -6.5296 134.3176 0.0000 0.0000 0.0000
# 4 0.0000 0.0000 0.0000 30.4646 0.0000 0.0000
# 5 0.0000 0.0000 0.0000 0.0000 14.7802 0.0000
# 6 0.0000 0.0000 0.0000 0.0000 0.0000 0.3731
#
#
#
# Elastic Compliance Matrix: (Units=1/GPa)
#
#
# Indices 1 2 3 4 5 6 
#
# 1 0.006783 -0.003845 -0.004790 0.000000 0.000000 0.000000
# 2 -0.003845 0.047794 0.004932 0.000000 0.000000 0.000000
# 3 -0.004790 0.004932 0.010935 0.000000 0.000000 0.000000
# 4 0.000000 0.000000 0.000000 0.032825 0.000000 0.000000
# 5 0.000000 0.000000 0.000000 0.000000 0.067658 0.000000
# 6 0.000000 0.000000 0.000000 0.000000 0.000000 2.679989
#
#
# Mechanical properties :
#
#
# Convention : Reuss Voigt Hill
#
# Bulk Modulus (GPa) = 17.20930 62.00690 39.60810
# Shear Modulus (GPa) = 1.74049 27.80725 14.77387
#
# Velocity S-wave (km/s) = 0.95017 3.79791 2.76830
# Velocity P-wave (km/s) = 3.18285 7.16911 5.54647
#
# Compressibility (1/GPa) = 0.05810813
#
# Stress axis : x y z
#
# Youngs Moduli (GPa) = 147.41873 20.92300 91.45232
#
# Poissons Ratio (x) = 0.08044 0.43802
# Poissons Ratio (y) = 0.56677 -0.45105
# Poissons Ratio (z) = 0.70608 -0.10319
#
# Static dielectric constant tensor:
#      x y z
#    x 1.683640 0.000000 0.000000 
#    y 0.000000 1.701990 0.000000 
#    z 0.000000 0.000000 1.635770 
# 
# From -- ./inp_files/23763.got.cif
#   From: 2010.05.17/outbox.cif.g08.bks.cpg/sg51_12_cif.got.tgz:23763.got - 2010.06.03 11:52:47.
