data_PCOD9399896
_publ_section_title
;
Structure prediction by ZEFSAII (Michael W. Deem and Ramdas Pophale) SiO2 
 PCOD9399896
Probable space group: P M M A
;
_chemical_formula_sum "Si O2"
_cell_formula_units_Z 38
_cell_length_a 9.262144
_cell_length_b 12.138382
_cell_length_c 18.936547
_cell_angle_alpha 90.000000
_cell_angle_beta 90.000000
_cell_angle_gamma 90.000000
_cell_volume 2128.987540
_symmetry_space_group_name_H-M "P M M A"
_symmetry_group_IT_number 51
_symmetry_cell_setting 'orthorhombic'
loop_
_space_group_symop_operation_xyz
x,y,z
1/2-x,-y,z
1/2+x,-y,-z
-x,y,-z
-x,-y,-z
1/2+x,y,-z
1/2-x,y,z
x,-y,z
loop_
_atom_site_type_symbol
_atom_site_label
_atom_site_fract_x
_atom_site_fract_y
_atom_site_fract_z
Si Si1 0.081104 0.725119 0.221138
Si Si2 0.076646 0.370471 0.072279
Si Si3 0.250000 0.742557 0.566138
Si Si4 0.750000 0.881761 0.570635
Si Si5 0.077762 0.500000 0.311995
Si Si6 0.533932 0.125832 0.337179
Si Si7 0.250000 0.500000 0.613003
O O1 0.250000 0.759262 0.220066
O O2 0.034360 0.697968 0.141494
O O3 0.074914 0.610819 0.265114
O O4 0.987735 0.815453 0.262207
O O5 0.250000 0.363178 0.064968
O O6 0.041810 0.500000 0.084423
O O7 0.000000 0.336109 0.000000
O O8 0.250000 0.787412 0.487111
O O9 0.120821 0.794903 0.610820
O O10 0.250000 0.612209 0.569366
O O11 0.616909 0.878618 0.622617
O O12 0.750000 0.000000 0.530959
O O13 0.250000 0.500000 0.343214
O O14 0.914764 0.500000 0.349790
O O15 0.587499 0.000000 0.331923
#
# Coordination Sequence:
#
# PCOD9399896 Si02
#       7
#     8   8   4   4   4   8   2
#     4  10  18  34  59  83 114 154 196 245 296 351
#     4   9  17  31  50  78 113 150 191 235 293 355
#     4  12  24  40  58  86 125 147 189 252 299 358
#     4  10  22  42  64  84 110 153 205 247 299 359
#     4  10  20  38  58  85 121 165 197 247 305 356
#     4  11  22  38  61  86 112 152 200 247 298 348
#     4  12  24  40  60  92 124 158 204 236 304 386
#
# _framework density 17.848859999999998
#
# number of rings (size 3 to 8) (size 9 to 14) (size 15 to 20)
#    0.000    1.684    4.211    1.579    0.000    1.684 
#    3.789    3.158    0.000    0.632    0.000    0.000 
#    0.000    0.000    0.000    0.000    0.000    0.000 
#
# Total GULP energy -211572.381494 kJ/mol
# GULP energy per Si atom -5567.694250 kJ/mol
# Density = 1.780824 g / cm^3
# Si number density = 17.848860 Si / 1000 Ang^3
#
#
#
# Elastic Constant Matrix: (Units=GPa)
#
#
# Indices 1 2 3 4 5 6 
#
# 1 76.7064 21.4420 28.1201 0.0000 0.0000 0.0000
# 2 21.4420 110.7735 48.7994 0.0000 0.0000 0.0000
# 3 28.1201 48.7994 115.1302 0.0000 0.0000 0.0000
# 4 0.0000 0.0000 0.0000 9.0394 0.0000 0.0000
# 5 0.0000 0.0000 0.0000 0.0000 35.2304 0.0000
# 6 0.0000 0.0000 0.0000 0.0000 0.0000 -20.2959
#
#
#
# Elastic Compliance Matrix: (Units=1/GPa)
#
#
# Indices 1 2 3 4 5 6 
#
# 1 0.014528 -0.001536 -0.002898 0.000000 0.000000 0.000000
# 2 -0.001536 0.011262 -0.004399 0.000000 0.000000 0.000000
# 3 -0.002898 -0.004399 0.011258 0.000000 0.000000 0.000000
# 4 0.000000 0.000000 0.000000 0.110627 0.000000 0.000000
# 5 0.000000 0.000000 0.000000 0.000000 0.028385 0.000000
# 6 0.000000 0.000000 0.000000 0.000000 0.000000 -0.049271
#
#
# Mechanical properties :
#
#
# Convention : Reuss Voigt Hill
#
# Bulk Modulus (GPa) = 51.58668 55.48145 53.53406
# Shear Modulus (GPa) = 33.13130 18.41135 25.77132
#
# Velocity S-wave (km/s) = 4.31305 3.21520 3.80394
# Velocity P-wave (km/s) = 7.33266 6.70335 7.02506
#
# Compressibility (1/GPa) = 0.01938485
#
# Stress axis : x y z
#
# Youngs Moduli (GPa) = 68.83156 88.79066 88.82610
#
# Poissons Ratio (x) = 0.13636 0.25738
# Poissons Ratio (y) = 0.10571 0.39071
# Poissons Ratio (z) = 0.19944 0.39056
#
# Static dielectric constant tensor:
#      x y z
#    x 1.660030 0.000000 0.000000 
#    y 0.000000 1.610640 0.000000 
#    z 0.000000 0.000000 1.584220 
# 
# From -- ./inp_files/27106.got.cif
#   From: 2010.05.17/outbox.cif.g08.bks.cpg/sg51_14_cif.got.tgz:27106.got - 2010.06.03 11:52:47.
