data_PCOD9399526
_publ_section_title
;
Structure prediction by ZEFSAII (Michael W. Deem and Ramdas Pophale) SiO2 
 PCOD9399526
Probable space group: P M M A
;
_chemical_formula_sum "Si O2"
_cell_formula_units_Z 48
_cell_length_a 9.950683
_cell_length_b 7.764134
_cell_length_c 30.288472
_cell_angle_alpha 90.000000
_cell_angle_beta 90.000000
_cell_angle_gamma 90.000000
_cell_volume 2340.039982
_symmetry_space_group_name_H-M "P M M A"
_symmetry_group_IT_number 51
_symmetry_cell_setting 'orthorhombic'
loop_
_space_group_symop_operation_xyz
x,y,z
1/2-x,-y,z
1/2+x,-y,-z
-x,y,-z
-x,-y,-z
1/2+x,y,-z
1/2-x,y,z
x,-y,z
loop_
_atom_site_type_symbol
_atom_site_label
_atom_site_fract_x
_atom_site_fract_y
_atom_site_fract_z
Si Si1 0.902939 0.795956 0.700893
Si Si2 0.750000 0.211403 0.048650
Si Si3 0.901793 0.295723 0.800242
Si Si4 0.250000 0.788825 0.052773
Si Si5 0.093118 0.707297 0.459394
Si Si6 0.995368 0.207143 0.107577
Si Si7 0.905183 0.207826 0.375973
O O1 0.750000 0.725208 0.694495
O O2 0.940061 0.772653 0.752136
O O3 0.016759 0.727808 0.667870
O O4 0.893991 0.000000 0.692403
O O5 0.874458 0.269033 0.077706
O O6 0.750000 0.000000 0.047086
O O7 0.750000 0.268131 0.997949
O O8 0.750000 0.228837 0.810289
O O9 0.894464 0.500000 0.796266
O O10 0.996634 0.254541 0.841258
O O11 0.375382 0.730740 0.081229
O O12 0.250000 0.000000 0.051731
O O13 0.250000 0.769557 0.458841
O O14 0.101271 0.500000 0.463147
O O15 0.000000 0.771113 0.500000
O O16 0.006140 0.748570 0.415954
O O17 0.994003 0.000000 0.106328
O O18 0.750000 0.270690 0.380912
O O19 0.896277 0.000000 0.373830
#
# Coordination Sequence:
#
# PCOD9399526 Si02
#       7
#     8   4   8   4   8   8   8
#     4   9  18  34  56  78 102 135 177 223 270 320
#     4   9  18  30  47  77 107 129 161 211 258 301
#     4  10  20  34  53  76 102 133 173 218 261 311
#     4   9  16  28  51  77 101 129 167 209 252 305
#     4  10  21  37  58  84 115 154 197 237 277 323
#     4  10  18  31  52  76 101 132 168 208 257 308
#     4  10  21  37  57  84 116 148 183 227 280 334
#
# _framework density 20.512468999999999
#
# number of rings (size 3 to 8) (size 9 to 14) (size 15 to 20)
#    0.000    2.333    0.833    2.000    0.000    5.667 
#    1.500    2.083    0.000    3.000    0.000    0.000 
#    0.000    0.000    0.000    0.000    0.000    0.000 
#
# Total GULP energy -267690.205738 kJ/mol
# GULP energy per Si atom -5576.879286 kJ/mol
# Density = 2.046578 g / cm^3
# Si number density = 20.512469 Si / 1000 Ang^3
#
#
#
# Elastic Constant Matrix: (Units=GPa)
#
#
# Indices 1 2 3 4 5 6 
#
# 1 175.6182 9.0888 92.2573 0.0000 0.0000 0.0000
# 2 9.0888 28.0935 -4.7537 0.0000 0.0000 0.0000
# 3 92.2573 -4.7537 163.1813 0.0000 0.0000 0.0000
# 4 0.0000 0.0000 0.0000 34.9166 0.0000 0.0000
# 5 0.0000 0.0000 0.0000 0.0000 36.1538 0.0000
# 6 0.0000 0.0000 0.0000 0.0000 0.0000 13.6980
#
#
#
# Elastic Compliance Matrix: (Units=1/GPa)
#
#
# Indices 1 2 3 4 5 6 
#
# 1 0.008439 -0.003555 -0.004875 0.000000 0.000000 0.000000
# 2 -0.003555 0.037269 0.003096 0.000000 0.000000 0.000000
# 3 -0.004875 0.003096 0.008974 0.000000 0.000000 0.000000
# 4 0.000000 0.000000 0.000000 0.028640 0.000000 0.000000
# 5 0.000000 0.000000 0.000000 0.000000 0.027660 0.000000
# 6 0.000000 0.000000 0.000000 0.000000 0.000000 0.073003
#
#
# Mechanical properties :
#
#
# Convention : Reuss Voigt Hill
#
# Bulk Modulus (GPa) = 22.71980 62.23085 42.47532
# Shear Modulus (GPa) = 23.88630 34.97372 29.43001
#
# Velocity S-wave (km/s) = 3.41615 4.13364 3.79190
# Velocity P-wave (km/s) = 5.16335 7.29291 6.31850
#
# Compressibility (1/GPa) = 0.04401448
#
# Stress axis : x y z
#
# Youngs Moduli (GPa) = 118.49806 26.83168 111.42924
#
# Poissons Ratio (x) = 0.09539 0.54318
# Poissons Ratio (y) = 0.42126 -0.34494
# Poissons Ratio (z) = 0.57764 -0.08306
#
# Static dielectric constant tensor:
#      x y z
#    x 1.716570 0.000000 0.000000 
#    y 0.000000 1.757080 0.000000 
#    z 0.000000 0.000000 1.706740 
# 
# From -- ./inp_files/37128.got.cif
#   From: 2010.05.17/outbox.cif.g08.bks.cpg/sg51_19_cif.got.tgz:37128.got - 2010.06.03 11:52:47.
