data_PCOD9399070
_publ_section_title
;
Structure prediction by ZEFSAII (Michael W. Deem and Ramdas Pophale) SiO2 
 PCOD9399070
Probable space group: P M M A
;
_chemical_formula_sum "Si O2"
_cell_formula_units_Z 64
_cell_length_a 20.539135
_cell_length_b 7.723012
_cell_length_c 18.273507
_cell_angle_alpha 90.000000
_cell_angle_beta 90.000000
_cell_angle_gamma 90.000000
_cell_volume 2898.616520
_symmetry_space_group_name_H-M "P M M A"
_symmetry_group_IT_number 51
_symmetry_cell_setting 'orthorhombic'
loop_
_space_group_symop_operation_xyz
x,y,z
1/2-x,-y,z
1/2+x,-y,-z
-x,y,-z
-x,-y,-z
1/2+x,y,-z
1/2-x,y,z
x,-y,z
loop_
_atom_site_type_symbol
_atom_site_label
_atom_site_fract_x
_atom_site_fract_y
_atom_site_fract_z
Si Si1 0.003704 0.708788 0.876940
Si Si2 0.323804 0.702791 0.380149
Si Si3 0.320076 0.799870 0.748381
Si Si4 0.960644 0.287031 0.571774
Si Si5 0.172227 0.804258 0.217983
Si Si6 0.874280 0.297148 0.939089
Si Si7 0.966846 0.295504 0.282791
Si Si8 0.346340 0.704815 0.910968
O O1 0.993673 0.500000 0.873166
O O2 0.004446 0.776537 0.793534
O O3 0.075755 0.730149 0.907145
O O4 0.946264 0.779371 0.927114
O O5 0.250000 0.776897 0.388279
O O6 0.318536 0.500000 0.397495
O O7 0.385403 0.773126 0.424989
O O8 0.345290 0.717265 0.294839
O O9 0.250000 0.723998 0.724344
O O10 0.388332 0.722491 0.720892
O O11 0.321097 0.789649 0.837013
O O12 0.321357 0.000000 0.726770
O O13 0.959490 0.500000 0.572384
O O14 0.000000 0.233993 0.500000
O O15 0.999379 0.227470 0.644239
O O16 0.250000 0.810271 0.219287
O O17 0.154193 0.715835 0.142077
O O18 0.146727 0.000000 0.217291
O O19 0.880994 0.500000 0.958063
O O20 0.831655 0.229026 0.007076
O O21 0.980348 0.500000 0.281369
O O22 0.330397 0.500000 0.902963
#
# Coordination Sequence:
#
# PCOD9399070 Si02
#       8
#     8   8   8   8   8   8   8   8
#     4   8  14  27  47  69  92 120 157 198 242 293
#     4   9  17  32  55  78 102 138 179 210 240 292
#     4  10  21  36  52  69  94 132 176 222 268 309
#     4   9  17  31  54  86 118 139 161 204 257 300
#     4  10  21  34  46  64  94 130 166 206 250 293
#     4  10  18  29  48  71  95 125 162 206 255 308
#     4   9  17  31  53  77 101 132 167 206 253 306
#     4   9  18  31  48  70  95 125 163 208 257 310
#
# _framework density 22.079497
#
# number of rings (size 3 to 8) (size 9 to 14) (size 15 to 20)
#    0.000    2.750    0.000    2.625    0.000    6.250 
#    0.000    8.750    0.000    7.500    0.000    1.750 
#    0.000    0.000    0.000    0.000    0.000    0.000 
#
# Total GULP energy -356763.448906 kJ/mol
# GULP energy per Si atom -5574.428889 kJ/mol
# Density = 2.202924 g / cm^3
# Si number density = 22.079497 Si / 1000 Ang^3
#
#
#
# Elastic Constant Matrix: (Units=GPa)
#
#
# Indices 1 2 3 4 5 6 
#
# 1 118.1599 1.4533 56.9675 0.0000 0.0000 0.0000
# 2 1.4533 32.7811 0.1618 0.0000 0.0000 0.0000
# 3 56.9675 0.1618 101.8066 0.0000 0.0000 0.0000
# 4 0.0000 0.0000 0.0000 -24.4095 0.0000 0.0000
# 5 0.0000 0.0000 0.0000 0.0000 1.2072 0.0000
# 6 0.0000 0.0000 0.0000 0.0000 0.0000 10.1635
#
#
#
# Elastic Compliance Matrix: (Units=1/GPa)
#
#
# Indices 1 2 3 4 5 6 
#
# 1 0.011597 -0.000482 -0.006489 0.000000 0.000000 0.000000
# 2 -0.000482 0.030526 0.000221 0.000000 0.000000 0.000000
# 3 -0.006489 0.000221 0.013453 0.000000 0.000000 0.000000
# 4 0.000000 0.000000 0.000000 -0.040968 0.000000 0.000000
# 5 0.000000 0.000000 0.000000 0.000000 0.828383 0.000000
# 6 0.000000 0.000000 0.000000 0.000000 0.000000 0.098391
#
#
# Mechanical properties :
#
#
# Convention : Reuss Voigt Hill
#
# Bulk Modulus (GPa) = 23.76598 41.10140 32.43369
# Shear Modulus (GPa) = 5.16045 10.33658 7.74851
#
# Velocity S-wave (km/s) = 1.53045 2.16603 1.87536
# Velocity P-wave (km/s) = 3.72964 4.99111 4.40576
#
# Compressibility (1/GPa) = 0.04207695
#
# Stress axis : x y z
#
# Youngs Moduli (GPa) = 86.22619 32.75932 74.33246
#
# Poissons Ratio (x) = 0.01579 0.48232
# Poissons Ratio (y) = 0.04157 -0.01645
# Poissons Ratio (z) = 0.55950 -0.00725
#
# Static dielectric constant tensor:
#      x y z
#    x 1.865270 0.000000 0.000000 
#    y 0.000000 1.833880 0.000000 
#    z 0.000000 0.000000 1.827910 
# 
# From -- ./inp_files/30539.got.cif
#   From: 2010.05.17/outbox.cif.g08.bks.cpg/sg51_16_cif.got.tgz:30539.got - 2010.06.03 11:52:47.
