data_PCOD9399994
_publ_section_title
;
Structure prediction by ZEFSAII (Michael W. Deem and Ramdas Pophale) SiO2 
 PCOD9399994
Probable space group: P M M A
;
_chemical_formula_sum "Si O2"
_cell_formula_units_Z 64
_cell_length_a 14.272472
_cell_length_b 9.172703
_cell_length_c 32.071223
_cell_angle_alpha 90.000000
_cell_angle_beta 90.000000
_cell_angle_gamma 90.000000
_cell_volume 4198.673007
_symmetry_space_group_name_H-M "P M M A"
_symmetry_group_IT_number 51
_symmetry_cell_setting 'orthorhombic'
loop_
_space_group_symop_operation_xyz
x,y,z
1/2-x,-y,z
1/2+x,-y,-z
-x,y,-z
-x,-y,-z
1/2+x,y,-z
1/2-x,y,z
x,-y,z
loop_
_atom_site_type_symbol
_atom_site_label
_atom_site_fract_x
_atom_site_fract_y
_atom_site_fract_z
Si Si1 0.957535 0.176151 0.065721
Si Si2 0.362563 0.168401 0.529850
Si Si3 0.861114 0.673482 0.143598
Si Si4 0.855611 0.176940 0.979697
Si Si5 0.863617 0.167365 0.227713
Si Si6 0.140300 0.173566 0.432891
Si Si7 0.968371 0.326893 0.396648
Si Si8 0.360689 0.824431 0.678491
O O1 0.918748 0.250169 0.106991
O O2 0.063167 0.220597 0.052672
O O3 0.955049 0.000000 0.069963
O O4 0.892167 0.215252 0.025998
O O5 0.250000 0.174402 0.534381
O O6 0.383676 0.202736 0.481596
O O7 0.410784 0.272265 0.562900
O O8 0.391470 0.000000 0.537821
O O9 0.750000 0.708237 0.138425
O O10 0.871335 0.500000 0.141822
O O11 0.891186 0.733566 0.188875
O O12 0.750000 0.229686 0.972054
O O13 0.853852 0.000000 0.978625
O O14 0.750000 0.166111 0.228787
O O15 0.891505 0.214203 0.274316
O O16 0.893893 0.000000 0.220859
O O17 0.250000 0.206635 0.427110
O O18 0.072164 0.263985 0.403709
O O19 0.127797 0.000000 0.426533
O O20 0.967975 0.500000 0.393917
O O21 0.919782 0.255807 0.356487
O O22 0.250000 0.789780 0.673689
O O23 0.369184 0.000000 0.674303
#
# Coordination Sequence:
#
# PCOD9399994 Si02
#       8
#     8   8   8   8   8   8   8   8
#     4   9  16  26  43  64  84 113 152 188 221 259
#     4   9  18  33  51  68  88 118 155 190 220 254
#     4  10  19  28  40  62  92 121 145 175 219 266
#     4   8  14  25  41  62  87 114 148 190 228 257
#     4   8  15  29  48  67  86 112 147 183 217 255
#     4   9  19  36  54  67  82 113 157 197 227 256
#     4  12  23  30  43  70  99 124 147 176 221 272
#     4   9  18  33  51  69  91 120 152 183 214 256
#
# _framework density 15.242910999999999
#
# number of rings (size 3 to 8) (size 9 to 14) (size 15 to 20)
#    0.000    2.750    0.000    4.875    0.000    6.000 
#    0.000    3.750    0.000    1.125    0.000    0.875 
#    0.000    3.000    0.000    0.000    0.000    0.000 
#
# Total GULP energy -356770.236283 kJ/mol
# GULP energy per Si atom -5574.534942 kJ/mol
# Density = 1.520822 g / cm^3
# Si number density = 15.242911 Si / 1000 Ang^3
#
#
#
# Elastic Constant Matrix: (Units=GPa)
#
#
# Indices 1 2 3 4 5 6 
#
# 1 89.9899 44.9087 70.8863 0.0000 0.0000 0.0000
# 2 44.9087 51.2004 68.1238 0.0000 0.0000 0.0000
# 3 70.8863 68.1238 128.0648 0.0000 0.0000 0.0000
# 4 0.0000 0.0000 0.0000 -13.0494 0.0000 0.0000
# 5 0.0000 0.0000 0.0000 0.0000 23.7989 0.0000
# 6 0.0000 0.0000 0.0000 0.0000 0.0000 0.0088
#
#
#
# Elastic Compliance Matrix: (Units=1/GPa)
#
#
# Indices 1 2 3 4 5 6 
#
# 1 0.021147 -0.010178 -0.006291 0.000000 0.000000 0.000000
# 2 -0.010178 0.071734 -0.032525 0.000000 0.000000 0.000000
# 3 -0.006291 -0.032525 0.028593 0.000000 0.000000 0.000000
# 4 0.000000 0.000000 0.000000 -0.076632 0.000000 0.000000
# 5 0.000000 0.000000 0.000000 0.000000 0.042019 0.000000
# 6 0.000000 0.000000 0.000000 0.000000 0.000000114.257091
#
#
# Mechanical properties :
#
#
# Convention : Reuss Voigt Hill
#
# Bulk Modulus (GPa) = 42.57981 70.78808 56.68394
# Shear Modulus (GPa) = 0.04369 7.84073 3.94221
#
# Velocity S-wave (km/s) = 0.16948 2.27047 1.60993
# Velocity P-wave (km/s) = 5.29463 7.30850 6.38151
#
# Compressibility (1/GPa) = 0.02348531
#
# Stress axis : x y z
#
# Youngs Moduli (GPa) = 47.28735 13.94043 34.97402
#
# Poissons Ratio (x) = 0.14188 0.22004
# Poissons Ratio (y) = 0.48127 1.13753
# Poissons Ratio (z) = 0.29751 0.45341
#
# Static dielectric constant tensor:
#      x y z
#    x 1.512800 0.000000 0.000000 
#    y 0.000000 1.496450 0.000000 
#    z 0.000000 0.000000 1.495880 
# 
# From -- ./inp_files/37809.got.cif
#   From: 2010.05.17/outbox.cif.g08.bks.cpg/sg51_19_cif.got.tgz:37809.got - 2010.06.03 11:52:47.
