data_PCOD9399845
_publ_section_title
;
Structure prediction by ZEFSAII (Michael W. Deem and Ramdas Pophale) SiO2 
 PCOD9399845
Probable space group: P M M A
;
_chemical_formula_sum "Si O2"
_cell_formula_units_Z 64
_cell_length_a 7.677785
_cell_length_b 16.087479
_cell_length_c 24.444008
_cell_angle_alpha 90.000000
_cell_angle_beta 90.000000
_cell_angle_gamma 90.000000
_cell_volume 3019.231102
_symmetry_space_group_name_H-M "P M M A"
_symmetry_group_IT_number 51
_symmetry_cell_setting 'orthorhombic'
loop_
_space_group_symop_operation_xyz
x,y,z
1/2-x,-y,z
1/2+x,-y,-z
-x,y,-z
-x,-y,-z
1/2+x,y,-z
1/2-x,y,z
x,-y,z
loop_
_atom_site_type_symbol
_atom_site_label
_atom_site_fract_x
_atom_site_fract_y
_atom_site_fract_z
Si Si1 0.546380 0.909414 0.876032
Si Si2 0.961545 0.666022 0.747682
Si Si3 0.046603 0.140333 0.755729
Si Si4 0.040316 0.746343 0.063784
Si Si5 0.041734 0.592676 0.367643
Si Si6 0.962793 0.407449 0.863714
Si Si7 0.543814 0.753380 0.436451
Si Si8 0.963316 0.908029 0.364465
O O1 0.750000 0.913074 0.891150
O O2 0.537693 0.892149 0.811215
O O3 0.470739 0.830288 0.907796
O O4 0.468376 0.000000 0.887933
O O5 0.750000 0.668823 0.746703
O O6 0.023476 0.624130 0.691506
O O7 0.013326 0.616004 0.801814
O O8 0.025472 0.760337 0.752256
O O9 0.250000 0.118915 0.759664
O O10 0.979602 0.104381 0.698349
O O11 0.250000 0.746553 0.070458
O O12 0.976159 0.664826 0.095753
O O13 0.000000 0.744009 0.000000
O O14 0.250000 0.586588 0.362635
O O15 0.975376 0.500000 0.380980
O O16 0.008767 0.664753 0.411415
O O17 0.750000 0.407635 0.864747
O O18 0.021288 0.500000 0.878297
O O19 0.500000 0.760399 0.500000
O O20 0.750000 0.757561 0.431001
O O21 0.472806 0.831085 0.401110
O O22 0.750000 0.905480 0.364080
O O23 0.014321 0.000000 0.384083
#
# Coordination Sequence:
#
# PCOD9399845 Si02
#       8
#     8   8   8   8   8   8   8   8
#     4  10  21  38  58  81 110 145 185 229 276 327
#     4  10  18  33  58  85 115 147 182 224 274 331
#     4  11  20  33  57  87 118 149 181 219 275 337
#     4  10  21  37  55  78 107 144 186 230 275 325
#     4  10  21  37  60  89 117 147 186 232 281 335
#     4   9  17  32  56  82 108 142 181 220 270 330
#     4  11  23  40  60  82 111 150 192 237 283 330
#     4   9  19  36  57  82 114 149 182 221 276 336
#
# _framework density 21.19745
#
# number of rings (size 3 to 8) (size 9 to 14) (size 15 to 20)
#    0.000    2.000    2.500    1.500    0.000    4.000 
#    0.000    0.000    0.000    5.250    0.000    0.000 
#    0.000    0.000    0.000    0.000    0.000    0.000 
#
# Total GULP energy -357540.169794 kJ/mol
# GULP energy per Si atom -5586.565153 kJ/mol
# Density = 2.114920 g / cm^3
# Si number density = 21.197450 Si / 1000 Ang^3
#
#
#
# Elastic Constant Matrix: (Units=GPa)
#
#
# Indices 1 2 3 4 5 6 
#
# 1 36.3352 -0.0881 -8.2267 0.0000 0.0000 0.0000
# 2 -0.0881 192.2051 68.2156 0.0000 0.0000 0.0000
# 3 -8.2267 68.2156 121.4679 0.0000 0.0000 0.0000
# 4 0.0000 0.0000 0.0000 2.3462 0.0000 0.0000
# 5 0.0000 0.0000 0.0000 0.0000 3.2928 0.0000
# 6 0.0000 0.0000 0.0000 0.0000 0.0000 7.7730
#
#
#
# Elastic Compliance Matrix: (Units=1/GPa)
#
#
# Indices 1 2 3 4 5 6 
#
# 1 0.028055 -0.000826 0.002364 0.000000 0.000000 0.000000
# 2 -0.000826 0.006522 -0.003719 0.000000 0.000000 0.000000
# 3 0.002364 -0.003719 0.010481 0.000000 0.000000 0.000000
# 4 0.000000 0.000000 0.000000 0.426215 0.000000 0.000000
# 5 0.000000 0.000000 0.000000 0.000000 0.303697 0.000000
# 6 0.000000 0.000000 0.000000 0.000000 0.000000 0.128650
#
#
# Mechanical properties :
#
#
# Convention : Reuss Voigt Hill
#
# Bulk Modulus (GPa) = 24.57226 52.20111 38.38669
# Shear Modulus (GPa) = 5.42565 22.02289 13.72427
#
# Velocity S-wave (km/s) = 1.60160 3.22676 2.54726
# Velocity P-wave (km/s) = 3.87781 6.20985 5.17685
#
# Compressibility (1/GPa) = 0.04069630
#
# Stress axis : x y z
#
# Youngs Moduli (GPa) = 35.64460 153.32153 95.40898
#
# Poissons Ratio (x) = 0.12667 -0.22555
# Poissons Ratio (y) = 0.02945 0.35481
# Poissons Ratio (z) = -0.08426 0.57017
#
# Static dielectric constant tensor:
#      x y z
#    x 1.787150 0.000000 0.000000 
#    y 0.000000 1.780720 0.000000 
#    z 0.000000 0.000000 1.697780 
# 
# From -- ./inp_files/34841.got.cif
#   From: 2010.05.17/outbox.cif.g08.bks.cpg/sg51_18_cif.got.tgz:34841.got - 2010.06.03 11:52:47.
