data_PCOD9399774
_publ_section_title
;
Structure prediction by ZEFSAII (Michael W. Deem and Ramdas Pophale) SiO2 
 PCOD9399774
Probable space group: P M M A
;
_chemical_formula_sum "Si O2"
_cell_formula_units_Z 56
_cell_length_a 17.087728
_cell_length_b 7.958814
_cell_length_c 17.165465
_cell_angle_alpha 90.000000
_cell_angle_beta 90.000000
_cell_angle_gamma 90.000000
_cell_volume 2334.469747
_symmetry_space_group_name_H-M "P M M A"
_symmetry_group_IT_number 51
_symmetry_cell_setting 'orthorhombic'
loop_
_space_group_symop_operation_xyz
x,y,z
1/2-x,-y,z
1/2+x,-y,-z
-x,y,-z
-x,-y,-z
1/2+x,y,-z
1/2-x,y,z
x,-y,z
loop_
_atom_site_type_symbol
_atom_site_label
_atom_site_fract_x
_atom_site_fract_y
_atom_site_fract_z
Si Si1 0.101913 0.198976 0.824688
Si Si2 0.656559 0.814631 0.847969
Si Si3 0.581498 0.294645 0.462356
Si Si4 0.250000 0.300800 0.540199
Si Si5 0.250000 0.795603 0.721050
Si Si6 0.163783 0.307712 0.319122
Si Si7 0.497719 0.702833 0.688759
Si Si8 0.340158 0.302734 0.987702
O O1 0.174832 0.259166 0.771669
O O2 0.110037 0.272298 0.910512
O O3 0.025197 0.241125 0.774872
O O4 0.108464 0.000000 0.832224
O O5 0.750000 0.818845 0.861964
O O6 0.650205 0.692294 0.774719
O O7 0.631203 0.000000 0.822171
O O8 0.624492 0.773791 0.933173
O O9 0.500000 0.239929 0.500000
O O10 0.582666 0.500000 0.467902
O O11 0.666572 0.234008 0.490346
O O12 0.569570 0.246747 0.371853
O O13 0.250000 0.500000 0.525153
O O14 0.250000 0.275213 0.633706
O O15 0.250000 0.000000 0.715615
O O16 0.250000 0.231567 0.332955
O O17 0.167125 0.500000 0.347413
O O18 0.080962 0.232605 0.344034
O O19 0.501879 0.500000 0.687799
O O20 0.250000 0.240477 0.972906
O O21 0.334637 0.500000 0.002534
#
# Coordination Sequence:
#
# PCOD9399774 Si02
#       8
#     8   8   8   4   4   8   8   8
#     4  11  21  33  50  76 110 143 179 225 273 322
#     4   9  17  30  50  74 101 137 181 228 275 324
#     4   9  18  33  53  83 117 145 179 224 269 318
#     4  10  18  32  58  82 108 149 186 219 266 325
#     4  10  20  32  50  76 108 143 178 221 266 319
#     4   9  18  34  54  75 100 135 179 225 276 329
#     4  10  20  35  55  78 108 141 177 224 271 324
#     4  10  19  30  48  75 107 143 182 224 271 327
#
# _framework density 23.988318
#
# number of rings (size 3 to 8) (size 9 to 14) (size 15 to 20)
#    0.000    2.286    2.143    1.286    0.000    3.429 
#    1.286    0.714    0.000    6.000    0.000    0.000 
#    0.000    0.000    0.000    0.000    0.000    0.000 
#
# Total GULP energy -312592.343419 kJ/mol
# GULP energy per Si atom -5582.006132 kJ/mol
# Density = 2.393372 g / cm^3
# Si number density = 23.988318 Si / 1000 Ang^3
#
#
#
# Elastic Constant Matrix: (Units=GPa)
#
#
# Indices 1 2 3 4 5 6 
#
# 1 150.4627 -0.3698 18.2360 0.0000 0.0000 0.0000
# 2 -0.3698 33.2774 3.9889 0.0000 0.0000 0.0000
# 3 18.2360 3.9889 88.5530 0.0000 0.0000 0.0000
# 4 0.0000 0.0000 0.0000 -33.7627 0.0000 0.0000
# 5 0.0000 0.0000 0.0000 0.0000 27.0610 0.0000
# 6 0.0000 0.0000 0.0000 0.0000 0.0000 11.3955
#
#
#
# Elastic Compliance Matrix: (Units=1/GPa)
#
#
# Indices 1 2 3 4 5 6 
#
# 1 0.006818 0.000245 -0.001415 0.000000 0.000000 0.000000
# 2 0.000245 0.030222 -0.001412 0.000000 0.000000 0.000000
# 3 -0.001415 -0.001412 0.011648 0.000000 0.000000 0.000000
# 4 0.000000 0.000000 0.000000 -0.029618 0.000000 0.000000
# 5 0.000000 0.000000 0.000000 0.000000 0.036953 0.000000
# 6 0.000000 0.000000 0.000000 0.000000 0.000000 0.087754
#
#
# Mechanical properties :
#
#
# Convention : Reuss Voigt Hill
#
# Bulk Modulus (GPa) = 22.97530 35.11150 29.04340
# Shear Modulus (GPa) = 30.59056 17.63463 24.11259
#
# Velocity S-wave (km/s) = 3.57491 2.71428 3.17390
# Velocity P-wave (km/s) = 5.16124 4.94891 5.05619
#
# Compressibility (1/GPa) = 0.04352499
#
# Stress axis : x y z
#
# Youngs Moduli (GPa) = 146.66440 33.08807 85.85387
#
# Poissons Ratio (x) = -0.00812 0.12150
# Poissons Ratio (y) = -0.03599 0.12122
# Poissons Ratio (z) = 0.20755 0.04672
#
# Static dielectric constant tensor:
#      x y z
#    x 1.975740 0.000000 0.000000 
#    y 0.000000 1.861380 0.000000 
#    z 0.000000 0.000000 1.931110 
# 
# From -- ./inp_files/33509.got.cif
#   From: 2010.05.17/outbox.cif.g08.bks.cpg/sg51_17_cif.got.tgz:33509.got - 2010.06.03 11:52:47.
