data_PCOD9399294
_publ_section_title
;
Structure prediction by ZEFSAII (Michael W. Deem and Ramdas Pophale) SiO2 
 PCOD9399294
Probable space group: P M M A
;
_chemical_formula_sum "Si O2"
_cell_formula_units_Z 40
_cell_length_a 14.966873
_cell_length_b 8.427172
_cell_length_c 17.210233
_cell_angle_alpha 90.000000
_cell_angle_beta 90.000000
_cell_angle_gamma 90.000000
_cell_volume 2170.699377
_symmetry_space_group_name_H-M "P M M A"
_symmetry_group_IT_number 51
_symmetry_cell_setting 'orthorhombic'
loop_
_space_group_symop_operation_xyz
x,y,z
1/2-x,-y,z
1/2+x,-y,-z
-x,y,-z
-x,-y,-z
1/2+x,y,-z
1/2-x,y,z
x,-y,z
loop_
_atom_site_type_symbol
_atom_site_label
_atom_site_fract_x
_atom_site_fract_y
_atom_site_fract_z
Si Si1 0.102816 0.191706 0.002464
Si Si2 0.250000 0.687089 0.118826
Si Si3 0.898478 0.692748 0.414535
Si Si4 0.750000 0.191241 0.120319
Si Si5 0.250000 0.307929 0.704597
Si Si6 0.894345 0.692073 0.588811
Si Si7 0.250000 0.813817 0.292053
O O1 0.161861 0.243785 0.076330
O O2 0.100733 0.000000 0.002412
O O3 0.162342 0.243291 0.928223
O O4 0.000000 0.248044 0.000000
O O5 0.250000 0.500000 0.106893
O O6 0.250000 0.726769 0.209601
O O7 0.895935 0.500000 0.415552
O O8 0.835400 0.746966 0.345302
O O9 0.867677 0.741229 0.501001
O O10 0.001626 0.736092 0.403052
O O11 0.750000 0.250443 0.207734
O O12 0.750000 0.000000 0.120520
O O13 0.250000 0.500000 0.705213
O O14 0.886655 0.500000 0.593197
O O15 0.834429 0.766048 0.655273
O O16 0.250000 0.000000 0.276867
#
# Coordination Sequence:
#
# PCOD9399294 Si02
#       7
#     8   4   8   4   4   8   4
#     4   9  19  39  63  81 104 139 174 214 270 328
#     4  11  23  38  57  83 111 139 179 226 267 318
#     4   8  16  31  54  79 103 135 176 221 266 310
#     4   9  19  34  51  77 107 133 165 204 253 314
#     4  10  18  30  49  76 108 137 166 205 254 307
#     4   9  17  34  56  76 100 136 182 225 266 313
#     4  12  24  36  51  76 110 145 180 223 274 319
#
# _framework density 18.427239
#
# number of rings (size 3 to 8) (size 9 to 14) (size 15 to 20)
#    0.000    2.600    0.000    4.200    0.000    5.200 
#    0.000    9.000    0.000    0.000    0.000    0.000 
#    0.000    0.000    0.000    0.000    0.000    0.000 
#
# Total GULP energy -223121.217838 kJ/mol
# GULP energy per Si atom -5578.030446 kJ/mol
# Density = 1.838530 g / cm^3
# Si number density = 18.427239 Si / 1000 Ang^3
#
#
#
# Elastic Constant Matrix: (Units=GPa)
#
#
# Indices 1 2 3 4 5 6 
#
# 1 144.9959 16.2619 87.5921 0.0000 0.0000 0.0000
# 2 16.2619 9.5631 4.0195 0.0000 0.0000 0.0000
# 3 87.5921 4.0195 158.6474 0.0000 0.0000 0.0000
# 4 0.0000 0.0000 0.0000 43.9670 0.0000 0.0000
# 5 0.0000 0.0000 0.0000 0.0000 31.0488 0.0000
# 6 0.0000 0.0000 0.0000 0.0000 0.0000 19.7681
#
#
#
# Elastic Compliance Matrix: (Units=1/GPa)
#
#
# Indices 1 2 3 4 5 6 
#
# 1 0.013194 -0.019583 -0.006788 0.000000 0.000000 0.000000
# 2 -0.019583 0.134760 0.007398 0.000000 0.000000 0.000000
# 3 -0.006788 0.007398 0.009864 0.000000 0.000000 0.000000
# 4 0.000000 0.000000 0.000000 0.022744 0.000000 0.000000
# 5 0.000000 0.000000 0.000000 0.000000 0.032207 0.000000
# 6 0.000000 0.000000 0.000000 0.000000 0.000000 0.050587
#
#
# Mechanical properties :
#
#
# Convention : Reuss Voigt Hill
#
# Bulk Modulus (GPa) = 8.34232 58.77261 33.55746
# Shear Modulus (GPa) = 14.65157 32.64566 23.64862
#
# Velocity S-wave (km/s) = 2.82282 4.21360 3.58628
# Velocity P-wave (km/s) = 3.89376 7.45897 5.94969
#
# Compressibility (1/GPa) = 0.11987075
#
# Stress axis : x y z
#
# Youngs Moduli (GPa) = 75.79213 7.42060 101.37980
#
# Poissons Ratio (x) = 0.14532 0.68822
# Poissons Ratio (y) = 1.48423 -0.74999
# Poissons Ratio (z) = 0.51451 -0.05490
#
# Static dielectric constant tensor:
#      x y z
#    x 1.642300 0.000000 0.000000 
#    y 0.000000 1.639530 0.000000 
#    z 0.000000 0.000000 1.606740 
# 
# From -- ./inp_files/23876.got.cif
#   From: 2010.05.17/outbox.cif.g08.bks.cpg/sg51_12_cif.got.tgz:23876.got - 2010.06.03 11:52:47.
