data_PCOD9399759
_publ_section_title
;
Structure prediction by ZEFSAII (Michael W. Deem and Ramdas Pophale) SiO2 
 PCOD9399759
Probable space group: P M M A
;
_chemical_formula_sum "Si O2"
_cell_formula_units_Z 36
_cell_length_a 14.362554
_cell_length_b 14.254010
_cell_length_c 9.984895
_cell_angle_alpha 90.000000
_cell_angle_beta 90.000000
_cell_angle_gamma 90.000000
_cell_volume 2044.147528
_symmetry_space_group_name_H-M "P M M A"
_symmetry_group_IT_number 51
_symmetry_cell_setting 'orthorhombic'
loop_
_space_group_symop_operation_xyz
x,y,z
1/2-x,-y,z
1/2+x,-y,-z
-x,y,-z
-x,-y,-z
1/2+x,y,-z
1/2-x,y,z
x,-y,z
loop_
_atom_site_type_symbol
_atom_site_label
_atom_site_fract_x
_atom_site_fract_y
_atom_site_fract_z
Si Si1 0.394246 0.602324 0.046807
Si Si2 0.250000 0.804259 0.704572
Si Si3 0.928560 0.800076 0.874970
Si Si4 0.750000 0.109160 0.998980
Si Si5 0.051483 0.110359 0.642220
Si Si6 0.250000 0.392937 0.808977
O O1 0.366267 0.500000 0.102746
O O2 0.388815 0.694061 0.138642
O O3 0.500000 0.595933 0.000000
O O4 0.336105 0.618153 0.911227
O O5 0.344876 0.845898 0.643262
O O6 0.250000 0.691114 0.703983
O O7 0.250000 0.833158 0.862235
O O8 0.841640 0.864533 0.915142
O O9 0.987204 0.837032 0.750375
O O10 0.000000 0.799574 0.000000
O O11 0.750000 0.000000 0.033119
O O12 0.000000 0.117531 0.500000
O O13 0.059076 0.000000 0.678033
O O14 0.250000 0.500000 0.756904
#
# Coordination Sequence:
#
# PCOD9399759 Si02
#       6
#     8   4   8   4   8   4
#     4   9  16  28  48  78 112 141 175 227 286 336
#     4  12  20  39  62  84 113 151 196 241 291 349
#     4  11  20  35  56  84 114 144 190 244 288 336
#     4  12  22  31  54  88 115 145 185 244 294 332
#     4  11  25  41  58  82 118 162 199 237 289 354
#     4  10  18  32  56  88 118 146 187 237 293 351
#
# _framework density 17.611253000000001
#
# number of rings (size 3 to 8) (size 9 to 14) (size 15 to 20)
#    0.000    1.333    4.444    3.000    0.000    1.778 
#    0.000    1.111    0.000    2.667    0.000    0.000 
#    0.000    0.000    0.000    0.000    0.000    0.000 
#
# Total GULP energy -200825.742581 kJ/mol
# GULP energy per Si atom -5578.492849 kJ/mol
# Density = 1.757117 g / cm^3
# Si number density = 17.611253 Si / 1000 Ang^3
#
#
#
# Elastic Constant Matrix: (Units=GPa)
#
#
# Indices 1 2 3 4 5 6 
#
# 1 94.6513 14.0431 14.1365 0.0000 0.0000 0.0000
# 2 14.0431 153.7821 32.1636 0.0000 0.0000 0.0000
# 3 14.1365 32.1636 49.7249 0.0000 0.0000 0.0000
# 4 0.0000 0.0000 0.0000 4.0121 0.0000 0.0000
# 5 0.0000 0.0000 0.0000 0.0000 17.8568 0.0000
# 6 0.0000 0.0000 0.0000 0.0000 0.0000 27.2089
#
#
#
# Elastic Compliance Matrix: (Units=1/GPa)
#
#
# Indices 1 2 3 4 5 6 
#
# 1 0.011056 -0.000407 -0.002880 0.000000 0.000000 0.000000
# 2 -0.000407 0.007535 -0.004758 0.000000 0.000000 0.000000
# 3 -0.002880 -0.004758 0.024007 0.000000 0.000000 0.000000
# 4 0.000000 0.000000 0.000000 0.249244 0.000000 0.000000
# 5 0.000000 0.000000 0.000000 0.000000 0.056001 0.000000
# 6 0.000000 0.000000 0.000000 0.000000 0.000000 0.036753
#
#
# Mechanical properties :
#
#
# Convention : Reuss Voigt Hill
#
# Bulk Modulus (GPa) = 37.72495 46.53828 42.13161
# Shear Modulus (GPa) = 12.20938 25.66990 18.93964
#
# Velocity S-wave (km/s) = 2.63586 3.82197 3.28293
# Velocity P-wave (km/s) = 5.54357 6.77933 6.19235
#
# Compressibility (1/GPa) = 0.02650766
#
# Stress axis : x y z
#
# Youngs Moduli (GPa) = 90.45191 132.71284 41.65452
#
# Poissons Ratio (x) = 0.05406 0.11995
# Poissons Ratio (y) = 0.03684 0.19820
# Poissons Ratio (z) = 0.26046 0.63146
#
# Static dielectric constant tensor:
#      x y z
#    x 1.594240 0.000000 0.000000 
#    y 0.000000 1.684990 0.000000 
#    z 0.000000 0.000000 1.553480 
# 
# From -- ./inp_files/7861.got.cif
#   From: 2010.05.17/outbox.cif.g08.bks.cpg/sg51_4_cif.got.tgz:7861.got - 2010.06.03 11:52:47.
