data_PCOD9399187
_publ_section_title
;
Structure prediction by ZEFSAII (Michael W. Deem and Ramdas Pophale) SiO2 
 PCOD9399187
Probable space group: P M M A
;
_chemical_formula_sum "Si O2"
_cell_formula_units_Z 64
_cell_length_a 8.735033
_cell_length_b 24.359964
_cell_length_c 19.529624
_cell_angle_alpha 90.000000
_cell_angle_beta 90.000000
_cell_angle_gamma 90.000000
_cell_volume 4155.612789
_symmetry_space_group_name_H-M "P M M A"
_symmetry_group_IT_number 51
_symmetry_cell_setting 'orthorhombic'
loop_
_space_group_symop_operation_xyz
x,y,z
1/2-x,-y,z
1/2+x,-y,-z
-x,y,-z
-x,-y,-z
1/2+x,y,-z
1/2-x,y,z
x,-y,z
loop_
_atom_site_type_symbol
_atom_site_label
_atom_site_fract_x
_atom_site_fract_y
_atom_site_fract_z
Si Si1 0.566963 0.730962 0.211337
Si Si2 0.565630 0.063000 0.214746
Si Si3 0.067618 0.757978 0.071942
Si Si4 0.065123 0.562172 0.575512
Si Si5 0.432546 0.164889 0.289582
Si Si6 0.067635 0.773340 0.425952
Si Si7 0.934742 0.669750 0.346771
Si Si8 0.066419 0.119028 0.928510
O O1 0.750000 0.730850 0.203206
O O2 0.488250 0.724777 0.138060
O O3 0.515122 0.789510 0.242642
O O4 0.522231 0.686755 0.269453
O O5 0.750000 0.066856 0.221491
O O6 0.488735 0.105484 0.266602
O O7 0.527757 0.082891 0.137633
O O8 0.520082 0.000000 0.225077
O O9 0.250000 0.760138 0.068647
O O10 0.002847 0.820029 0.080404
O O11 0.000000 0.737289 0.000000
O O12 0.250000 0.563130 0.571736
O O13 0.018252 0.500000 0.594405
O O14 0.016821 0.609773 0.627710
O O15 0.000000 0.573915 0.500000
O O16 0.250000 0.169981 0.279753
O O17 0.468636 0.181451 0.367793
O O18 0.250000 0.768656 0.430909
O O19 0.000000 0.785731 0.500000
O O20 0.001741 0.716096 0.396926
O O21 0.750000 0.672932 0.350525
O O22 0.250000 0.123597 0.933450
O O23 0.000000 0.096910 0.000000
#
# Coordination Sequence:
#
# PCOD9399187 Si02
#       8
#     8   8   8   8   8   8   8   8
#     4  10  18  30  47  67  92 121 152 188 230 274
#     4  10  21  35  50  67  89 118 150 184 224 272
#     4  11  20  30  46  67  92 121 153 185 224 273
#     4   9  17  29  44  64  93 130 168 200 228 263
#     4  10  20  33  49  69  90 114 147 185 225 273
#     4  10  20  32  48  71  95 118 147 186 231 276
#     4   9  18  30  46  68  95 127 159 193 231 268
#     4  10  19  31  47  66  90 119 150 183 219 261
#
# _framework density 15.400855999999999
#
# number of rings (size 3 to 8) (size 9 to 14) (size 15 to 20)
#    0.000    2.125    1.250    3.750    0.000    4.500 
#    0.000    0.000    0.000    0.375    0.000    0.000 
#    0.000    0.500    0.000    0.875    0.000    1.250 
#
# Total GULP energy -357035.730622 kJ/mol
# GULP energy per Si atom -5578.683291 kJ/mol
# Density = 1.536580 g / cm^3
# Si number density = 15.400856 Si / 1000 Ang^3
#
#
#
# Elastic Constant Matrix: (Units=GPa)
#
#
# Indices 1 2 3 4 5 6 
#
# 1 46.5688 29.7688 45.6481 0.0000 0.0000 0.0000
# 2 29.7688 98.5300 66.2026 0.0000 0.0000 0.0000
# 3 45.6481 66.2026 135.4373 0.0000 0.0000 0.0000
# 4 0.0000 0.0000 0.0000 23.9710 0.0000 0.0000
# 5 0.0000 0.0000 0.0000 0.0000 27.3741 0.0000
# 6 0.0000 0.0000 0.0000 0.0000 0.0000 10.6418
#
#
#
# Elastic Compliance Matrix: (Units=1/GPa)
#
#
# Indices 1 2 3 4 5 6 
#
# 1 0.032956 -0.003713 -0.009293 0.000000 0.000000 0.000000
# 2 -0.003713 0.015531 -0.006340 0.000000 0.000000 0.000000
# 3 -0.009293 -0.006340 0.013615 0.000000 0.000000 0.000000
# 4 0.000000 0.000000 0.000000 0.041717 0.000000 0.000000
# 5 0.000000 0.000000 0.000000 0.000000 0.036531 0.000000
# 6 0.000000 0.000000 0.000000 0.000000 0.000000 0.093969
#
#
# Mechanical properties :
#
#
# Convention : Reuss Voigt Hill
#
# Bulk Modulus (GPa) = 42.71715 62.64167 52.67941
# Shear Modulus (GPa) = 17.80540 21.65848 19.73194
#
# Velocity S-wave (km/s) = 3.40388 3.75416 3.58330
# Velocity P-wave (km/s) = 6.57614 7.71713 7.16937
#
# Compressibility (1/GPa) = 0.02340980
#
# Stress axis : x y z
#
# Youngs Moduli (GPa) = 30.34334 64.38716 73.45073
#
# Poissons Ratio (x) = 0.23909 0.68254
# Poissons Ratio (y) = 0.11267 0.46569
# Poissons Ratio (z) = 0.28197 0.40822
#
# Static dielectric constant tensor:
#      x y z
#    x 1.516270 0.000000 0.000000 
#    y 0.000000 1.497610 0.000000 
#    z 0.000000 0.000000 1.523020 
# 
# From -- ./inp_files/28649.got.cif
#   From: 2010.05.17/outbox.cif.g08.bks.cpg/sg51_15_cif.got.tgz:28649.got - 2010.06.03 11:52:47.
