data_PCOD9399525
_publ_section_title
;
Structure prediction by ZEFSAII (Michael W. Deem and Ramdas Pophale) SiO2 
 PCOD9399525
Probable space group: P M M A
;
_chemical_formula_sum "Si O2"
_cell_formula_units_Z 64
_cell_length_a 21.375329
_cell_length_b 8.466645
_cell_length_c 20.157782
_cell_angle_alpha 90.000000
_cell_angle_beta 90.000000
_cell_angle_gamma 90.000000
_cell_volume 3648.101412
_symmetry_space_group_name_H-M "P M M A"
_symmetry_group_IT_number 51
_symmetry_cell_setting 'orthorhombic'
loop_
_space_group_symop_operation_xyz
x,y,z
1/2-x,-y,z
1/2+x,-y,-z
-x,y,-z
-x,-y,-z
1/2+x,y,-z
1/2-x,y,z
x,-y,z
loop_
_atom_site_type_symbol
_atom_site_label
_atom_site_fract_x
_atom_site_fract_y
_atom_site_fract_z
Si Si1 0.680082 0.312062 0.035555
Si Si2 0.318731 0.192930 0.540093
Si Si3 0.367120 0.811917 0.827789
Si Si4 0.992233 0.688159 0.825313
Si Si5 0.012515 0.311594 0.323652
Si Si6 0.939093 0.190549 0.541477
Si Si7 0.560545 0.188520 0.956996
Si Si8 0.370899 0.190787 0.679700
O O1 0.750000 0.258694 0.016400
O O2 0.676340 0.500000 0.026988
O O3 0.668658 0.271093 0.112654
O O4 0.624050 0.235076 0.994017
O O5 0.250000 0.244280 0.518137
O O6 0.376045 0.246606 0.494449
O O7 0.330995 0.241082 0.616320
O O8 0.319728 0.000000 0.539410
O O9 0.441025 0.773981 0.835290
O O10 0.349570 0.758547 0.753157
O O11 0.357734 0.000000 0.833139
O O12 0.003615 0.500000 0.826871
O O13 0.968268 0.730303 0.751652
O O14 0.946899 0.736250 0.884604
O O15 0.011698 0.500000 0.329136
O O16 0.053520 0.242808 0.382856
O O17 0.941748 0.248223 0.331133
O O18 0.000000 0.245248 0.500000
O O19 0.939402 0.000000 0.539380
O O20 0.557159 0.000000 0.951108
O O21 0.500000 0.241523 0.000000
O O22 0.371808 0.000000 0.680709
#
# Coordination Sequence:
#
# PCOD9399525 Si02
#       8
#     8   8   8   8   8   8   8   8
#     4  11  24  39  55  77 109 150 186 217 263 322
#     4   9  17  30  49  73 100 132 172 214 256 306
#     4  10  19  31  51  78 107 141 179 219 260 307
#     4  10  20  34  54  79 108 140 173 215 266 321
#     4  10  20  32  50  78 107 135 171 214 261 309
#     4  10  18  31  52  75  99 133 174 217 261 305
#     4  11  22  36  58  86 109 136 178 227 272 313
#     4   9  17  31  50  73 104 139 175 212 255 306
#
# _framework density 17.543372000000002
#
# number of rings (size 3 to 8) (size 9 to 14) (size 15 to 20)
#    0.000    2.000    2.500    1.875    0.000    4.250 
#    0.000    1.250    0.000    2.250    0.000    3.500 
#    0.000    0.000    0.000    0.000    0.000    0.000 
#
# Total GULP energy -357158.130256 kJ/mol
# GULP energy per Si atom -5580.595785 kJ/mol
# Density = 1.750344 g / cm^3
# Si number density = 17.543372 Si / 1000 Ang^3
#
#
#
# Elastic Constant Matrix: (Units=GPa)
#
#
# Indices 1 2 3 4 5 6 
#
# 1 103.5180 7.4625 58.7970 0.0000 0.0000 0.0000
# 2 7.4625 10.8872 9.6765 0.0000 0.0000 0.0000
# 3 58.7970 9.6765 108.6934 0.0000 0.0000 0.0000
# 4 0.0000 0.0000 0.0000 23.3187 0.0000 0.0000
# 5 0.0000 0.0000 0.0000 0.0000 21.4118 0.0000
# 6 0.0000 0.0000 0.0000 0.0000 0.0000 10.5374
#
#
#
# Elastic Compliance Matrix: (Units=1/GPa)
#
#
# Indices 1 2 3 4 5 6 
#
# 1 0.014042 -0.003120 -0.007318 0.000000 0.000000 0.000000
# 2 -0.003120 0.100436 -0.007253 0.000000 0.000000 0.000000
# 3 -0.007318 -0.007253 0.013805 0.000000 0.000000 0.000000
# 4 0.000000 0.000000 0.000000 0.042884 0.000000 0.000000
# 5 0.000000 0.000000 0.000000 0.000000 0.046703 0.000000
# 6 0.000000 0.000000 0.000000 0.000000 0.000000 0.094900
#
#
# Mechanical properties :
#
#
# Convention : Reuss Voigt Hill
#
# Bulk Modulus (GPa) = 10.76440 41.66341 26.21390
# Shear Modulus (GPa) = 13.18845 20.86443 17.02644
#
# Velocity S-wave (km/s) = 2.74480 3.45237 3.11872
# Velocity P-wave (km/s) = 4.02423 6.30017 5.28614
#
# Compressibility (1/GPa) = 0.09289885
#
# Stress axis : x y z
#
# Youngs Moduli (GPa) = 71.21700 9.95655 72.44005
#
# Poissons Ratio (x) = 0.03107 0.53011
# Poissons Ratio (y) = 0.22223 0.52544
# Poissons Ratio (z) = 0.52116 0.07222
#
# Static dielectric constant tensor:
#      x y z
#    x 1.584850 0.000000 0.000000 
#    y 0.000000 1.595610 0.000000 
#    z 0.000000 0.000000 1.608560 
# 
# From -- ./inp_files/33926.got.cif
#   From: 2010.05.17/outbox.cif.g08.bks.cpg/sg51_17_cif.got.tgz:33926.got - 2010.06.03 11:52:47.
