data_PCOD9399049
_publ_section_title
;
Structure prediction by ZEFSAII (Michael W. Deem and Ramdas Pophale) SiO2 
 PCOD9399049
Probable space group: P M M A
;
_chemical_formula_sum "Si O2"
_cell_formula_units_Z 56
_cell_length_a 28.625009
_cell_length_b 8.952755
_cell_length_c 14.092388
_cell_angle_alpha 90.000000
_cell_angle_beta 90.000000
_cell_angle_gamma 90.000000
_cell_volume 3611.494216
_symmetry_space_group_name_H-M "P M M A"
_symmetry_group_IT_number 51
_symmetry_cell_setting 'orthorhombic'
loop_
_space_group_symop_operation_xyz
x,y,z
1/2-x,-y,z
1/2+x,-y,-z
-x,y,-z
-x,-y,-z
1/2+x,y,-z
1/2-x,y,z
x,-y,z
loop_
_atom_site_type_symbol
_atom_site_label
_atom_site_fract_x
_atom_site_fract_y
_atom_site_fract_z
Si Si1 0.943502 0.177290 0.106996
Si Si2 0.988089 0.320602 0.393403
Si Si3 0.696529 0.822027 0.240335
Si Si4 0.605770 0.321669 0.287974
Si Si5 0.802958 0.321580 0.032279
Si Si6 0.103574 0.678444 0.073123
Si Si7 0.460757 0.823503 0.216268
O O1 0.912515 0.244241 0.191812
O O2 0.996539 0.199929 0.141642
O O3 0.935671 0.000000 0.096295
O O4 0.928923 0.260356 0.011797
O O5 0.993779 0.500000 0.387051
O O6 0.934291 0.287445 0.365116
O O7 0.000000 0.273010 0.500000
O O8 0.021174 0.246566 0.314437
O O9 0.750000 0.788446 0.268658
O O10 0.657204 0.743246 0.303629
O O11 0.691014 0.761880 0.132477
O O12 0.690002 0.000000 0.241007
O O13 0.607745 0.500000 0.275159
O O14 0.750000 0.292265 0.998539
O O15 0.807093 0.500000 0.050452
O O16 0.843751 0.280712 0.958970
O O17 0.100194 0.500000 0.078125
O O18 0.084546 0.748837 0.169976
O O19 0.454316 0.000000 0.227072
#
# Coordination Sequence:
#
# PCOD9399049 Si02
#       7
#     8   8   8   8   8   8   8
#     4  10  19  30  43  62  93 128 159 191 227 270
#     4   9  19  36  55  73  94 119 152 196 243 291
#     4  10  19  29  43  65  94 128 162 194 229 271
#     4  10  18  29  47  70  94 124 157 191 236 284
#     4   9  18  31  45  63  90 125 164 200 233 272
#     4  11  20  29  45  67  92 126 162 196 233 272
#     4  10  21  33  46  67  94 124 156 191 231 279
#
# _framework density 15.506047000000001
#
# number of rings (size 3 to 8) (size 9 to 14) (size 15 to 20)
#    0.000    2.143    1.429    2.571    0.000    5.714 
#    0.000    0.000    0.000    0.000    0.000    1.000 
#    0.000    3.429    0.000    0.000    0.000    0.000 
#
# Total GULP energy -312320.686660 kJ/mol
# GULP energy per Si atom -5577.155119 kJ/mol
# Density = 1.547075 g / cm^3
# Si number density = 15.506047 Si / 1000 Ang^3
#
#
#
# Elastic Constant Matrix: (Units=GPa)
#
#
# Indices 1 2 3 4 5 6 
#
# 1 99.2062 45.7080 61.8198 0.0000 0.0000 0.0000
# 2 45.7080 38.3942 31.0923 0.0000 0.0000 0.0000
# 3 61.8198 31.0923 82.7541 0.0000 0.0000 0.0000
# 4 0.0000 0.0000 0.0000 -13.8168 0.0000 0.0000
# 5 0.0000 0.0000 0.0000 0.0000 14.3480 0.0000
# 6 0.0000 0.0000 0.0000 0.0000 0.0000 19.4556
#
#
#
# Elastic Compliance Matrix: (Units=1/GPa)
#
#
# Indices 1 2 3 4 5 6 
#
# 1 0.029321 -0.024677 -0.012632 0.000000 0.000000 0.000000
# 2 -0.024677 0.058204 -0.003434 0.000000 0.000000 0.000000
# 3 -0.012632 -0.003434 0.022811 0.000000 0.000000 0.000000
# 4 0.000000 0.000000 0.000000 -0.072376 0.000000 0.000000
# 5 0.000000 0.000000 0.000000 0.000000 0.069696 0.000000
# 6 0.000000 0.000000 0.000000 0.000000 0.000000 0.051399
#
#
# Mechanical properties :
#
#
# Convention : Reuss Voigt Hill
#
# Bulk Modulus (GPa) = 34.66213 55.28830 44.97521
# Shear Modulus (GPa) = 19.98727 9.44632 14.71680
#
# Velocity S-wave (km/s) = 3.59416 2.47088 3.08409
# Velocity P-wave (km/s) = 6.29495 6.62372 6.46143
#
# Compressibility (1/GPa) = 0.02884993
#
# Stress axis : x y z
#
# Youngs Moduli (GPa) = 34.10479 17.18091 43.83852
#
# Poissons Ratio (x) = 0.42397 0.55379
# Poissons Ratio (y) = 0.84160 0.15054
# Poissons Ratio (z) = 0.43082 0.05900
#
# Static dielectric constant tensor:
#      x y z
#    x 1.560000 0.000000 0.000000 
#    y 0.000000 1.514250 0.000000 
#    z 0.000000 0.000000 1.484060 
# 
# From -- ./inp_files/26473.got.cif
#   From: 2010.05.17/outbox.cif.g08.bks.cpg/sg51_14_cif.got.tgz:26473.got - 2010.06.03 11:52:47.
