data_PCOD9399983
_publ_section_title
;
Structure prediction by ZEFSAII (Michael W. Deem and Ramdas Pophale) SiO2 
 PCOD9399983
Probable space group: P M M A
;
_chemical_formula_sum "Si O2"
_cell_formula_units_Z 64
_cell_length_a 8.940768
_cell_length_b 27.051782
_cell_length_c 18.648572
_cell_angle_alpha 90.000000
_cell_angle_beta 90.000000
_cell_angle_gamma 90.000000
_cell_volume 4510.412751
_symmetry_space_group_name_H-M "P M M A"
_symmetry_group_IT_number 51
_symmetry_cell_setting 'orthorhombic'
loop_
_space_group_symop_operation_xyz
x,y,z
1/2-x,-y,z
1/2+x,-y,-z
-x,y,-z
-x,-y,-z
1/2+x,y,-z
1/2-x,y,z
x,-y,z
loop_
_atom_site_type_symbol
_atom_site_label
_atom_site_fract_x
_atom_site_fract_y
_atom_site_fract_z
Si Si1 0.922996 0.695924 0.298471
Si Si2 0.927372 0.737254 0.922215
Si Si3 0.068555 0.152667 0.662896
Si Si4 0.921644 0.794544 0.199072
Si Si5 0.929140 0.359459 0.827499
Si Si6 0.570138 0.943970 0.422426
Si Si7 0.929306 0.755021 0.578471
Si Si8 0.072445 0.441457 0.923057
O O1 0.750000 0.684320 0.314315
O O2 0.923923 0.745489 0.249219
O O3 0.999959 0.654742 0.248994
O O4 0.012691 0.711385 0.369324
O O5 0.750000 0.738879 0.929051
O O6 0.966874 0.685808 0.881914
O O7 0.982565 0.781013 0.870023
O O8 0.000000 0.739279 0.000000
O O9 0.250000 0.159411 0.657979
O O10 0.027411 0.163078 0.745729
O O11 0.029303 0.098698 0.633509
O O12 0.990603 0.194123 0.613809
O O13 0.750000 0.803516 0.177641
O O14 0.750000 0.362206 0.822006
O O15 0.996980 0.408498 0.862128
O O16 0.500000 0.932986 0.500000
O O17 0.750000 0.943125 0.429442
O O18 0.525591 0.000000 0.402134
O O19 0.750000 0.755892 0.575500
O O20 0.000000 0.750063 0.500000
O O21 0.250000 0.432171 0.925733
O O22 0.048533 0.500000 0.911326
O O23 0.000000 0.428717 0.000000
#
# Coordination Sequence:
#
# PCOD9399983 Si02
#       8
#     8   8   8   8   8   8   8   8
#     4   9  17  30  45  61  83 110 139 172 209 248
#     4  10  19  28  40  59  82 107 136 167 200 242
#     4   9  17  29  43  59  80 109 142 173 209 249
#     4   8  15  27  41  56  77 104 133 166 202 241
#     4  10  19  30  45  64  85 112 144 175 210 252
#     4   9  17  28  41  58  81 108 139 174 208 243
#     4  11  20  29  42  61  85 112 143 176 210 249
#     4  10  20  32  45  62  85 114 148 185 221 254
#
# _framework density 14.189389
#
# number of rings (size 3 to 8) (size 9 to 14) (size 15 to 20)
#    0.000    2.500    0.000    4.125    0.000    7.750 
#    0.000    0.000    0.000    0.000    0.000    0.000 
#    0.000    1.000    0.000    2.750    0.000    4.125 
#
# Total GULP energy -356704.847996 kJ/mol
# GULP energy per Si atom -5573.513250 kJ/mol
# Density = 1.415709 g / cm^3
# Si number density = 14.189389 Si / 1000 Ang^3
#
#
#
# Elastic Constant Matrix: (Units=GPa)
#
#
# Indices 1 2 3 4 5 6 
#
# 1 62.7523 31.7994 49.1541 0.0000 0.0000 0.0000
# 2 31.7994 58.1965 35.1283 0.0000 0.0000 0.0000
# 3 49.1541 35.1283 89.5472 0.0000 0.0000 0.0000
# 4 0.0000 0.0000 0.0000 27.6637 0.0000 0.0000
# 5 0.0000 0.0000 0.0000 0.0000 25.3676 0.0000
# 6 0.0000 0.0000 0.0000 0.0000 0.0000 16.0434
#
#
#
# Elastic Compliance Matrix: (Units=1/GPa)
#
#
# Indices 1 2 3 4 5 6 
#
# 1 0.031014 -0.008740 -0.013596 0.000000 0.000000 0.000000
# 2 -0.008740 0.024977 -0.005001 0.000000 0.000000 0.000000
# 3 -0.013596 -0.005001 0.020592 0.000000 0.000000 0.000000
# 4 0.000000 0.000000 0.000000 0.036148 0.000000 0.000000
# 5 0.000000 0.000000 0.000000 0.000000 0.039420 0.000000
# 6 0.000000 0.000000 0.000000 0.000000 0.000000 0.062331
#
#
# Mechanical properties :
#
#
# Convention : Reuss Voigt Hill
#
# Bulk Modulus (GPa) = 45.63998 49.18438 47.41218
# Shear Modulus (GPa) = 18.08581 20.10920 19.09750
#
# Velocity S-wave (km/s) = 3.57403 3.76866 3.67263
# Velocity P-wave (km/s) = 7.01899 7.32633 7.17431
#
# Compressibility (1/GPa) = 0.02191061
#
# Stress axis : x y z
#
# Youngs Moduli (GPa) = 32.24333 40.03622 48.56272
#
# Poissons Ratio (x) = 0.34992 0.66024
# Poissons Ratio (y) = 0.28181 0.24285
# Poissons Ratio (z) = 0.43837 0.20021
#
# Static dielectric constant tensor:
#      x y z
#    x 1.474730 0.000000 0.000000 
#    y 0.000000 1.465420 0.000000 
#    z 0.000000 0.000000 1.455490 
# 
# From -- ./inp_files/28686.got.cif
#   From: 2010.05.17/outbox.cif.g08.bks.cpg/sg51_15_cif.got.tgz:28686.got - 2010.06.03 11:52:47.
