data_PCOD9399746
_publ_section_title
;
Structure prediction by ZEFSAII (Michael W. Deem and Ramdas Pophale) SiO2 
 PCOD9399746
Probable space group: P M M A
;
_chemical_formula_sum "Si O2"
_cell_formula_units_Z 64
_cell_length_a 19.571245
_cell_length_b 17.346175
_cell_length_c 9.940166
_cell_angle_alpha 90.000000
_cell_angle_beta 90.000000
_cell_angle_gamma 90.000000
_cell_volume 3374.549588
_symmetry_space_group_name_H-M "P M M A"
_symmetry_group_IT_number 51
_symmetry_cell_setting 'orthorhombic'
loop_
_space_group_symop_operation_xyz
x,y,z
1/2-x,-y,z
1/2+x,-y,-z
-x,y,-z
-x,-y,-z
1/2+x,y,-z
1/2-x,y,z
x,-y,z
loop_
_atom_site_type_symbol
_atom_site_label
_atom_site_fract_x
_atom_site_fract_y
_atom_site_fract_z
Si Si1 0.327188 0.127636 0.911306
Si Si2 0.078274 0.709534 0.516551
Si Si3 0.025719 0.911754 0.851382
Si Si4 0.330289 0.703304 0.782209
Si Si5 0.667102 0.412208 0.983415
Si Si6 0.949006 0.124002 0.603202
Si Si7 0.669886 0.687253 0.727779
Si Si8 0.826980 0.128131 0.771119
O O1 0.250000 0.102740 0.874544
O O2 0.392667 0.090056 0.843104
O O3 0.332257 0.218009 0.871028
O O4 0.336071 0.111788 0.070693
O O5 0.117158 0.704965 0.658478
O O6 0.073703 0.799856 0.476172
O O7 0.125623 0.671129 0.403479
O O8 0.000000 0.681398 0.500000
O O9 0.993301 0.858808 0.737016
O O10 0.002350 0.000000 0.828875
O O11 0.000000 0.888777 0.000000
O O12 0.250000 0.695759 0.738612
O O13 0.349302 0.633458 0.880834
O O14 0.750000 0.413527 0.978071
O O15 0.642488 0.500000 0.980582
O O16 0.645345 0.362270 0.854695
O O17 0.880912 0.090583 0.670156
O O18 0.000000 0.082430 0.500000
O O19 0.750000 0.670916 0.704147
O O20 0.665385 0.778765 0.759787
O O21 0.750000 0.107561 0.733946
#
# Coordination Sequence:
#
# PCOD9399746 Si02
#       8
#     8   8   8   8   8   8   8   8
#     4  10  18  32  56  83 107 137 180 229 274 319
#     4  10  20  33  50  79 110 140 180 224 270 317
#     4  11  23  38  56  80 110 145 182 222 272 327
#     4  10  19  34  57  85 111 138 179 229 278 320
#     4   9  17  31  54  83 110 137 179 229 272 321
#     4  10  20  36  53  78 109 140 181 223 273 326
#     4   9  16  30  51  76 105 139 174 217 271 323
#     4   9  16  29  52  80 107 136 176 225 272 319
#
# _framework density 18.965494
#
# number of rings (size 3 to 8) (size 9 to 14) (size 15 to 20)
#    0.000    2.250    2.500    1.875    0.000    1.000 
#    0.000    1.875    0.000    5.625    0.000    0.000 
#    0.000    0.000    0.000    0.000    0.000    0.000 
#
# Total GULP energy -356635.727741 kJ/mol
# GULP energy per Si atom -5572.433246 kJ/mol
# Density = 1.892233 g / cm^3
# Si number density = 18.965494 Si / 1000 Ang^3
#
#
#
# Elastic Constant Matrix: (Units=GPa)
#
#
# Indices 1 2 3 4 5 6 
#
# 1 117.1350 21.2727 57.1441 0.0000 0.0000 0.0000
# 2 21.2727 65.1797 34.5379 0.0000 0.0000 0.0000
# 3 57.1441 34.5379 118.0128 0.0000 0.0000 0.0000
# 4 0.0000 0.0000 0.0000 -36.1825 0.0000 0.0000
# 5 0.0000 0.0000 0.0000 0.0000 43.4035 0.0000
# 6 0.0000 0.0000 0.0000 0.0000 0.0000 -186.9034
#
#
#
# Elastic Compliance Matrix: (Units=1/GPa)
#
#
# Indices 1 2 3 4 5 6 
#
# 1 0.011225 -0.000927 -0.005164 0.000000 0.000000 0.000000
# 2 -0.000927 0.018235 -0.004888 0.000000 0.000000 0.000000
# 3 -0.005164 -0.004888 0.012405 0.000000 0.000000 0.000000
# 4 0.000000 0.000000 0.000000 -0.027638 0.000000 0.000000
# 5 0.000000 0.000000 0.000000 0.000000 0.023040 0.000000
# 6 0.000000 0.000000 0.000000 0.000000 0.000000 -0.005350
#
#
# Mechanical properties :
#
#
# Convention : Reuss Voigt Hill
#
# Bulk Modulus (GPa) = 50.23465 58.47079 54.35272
# Shear Modulus (GPa) = 82.63302 -23.44494 29.59404
#
# Velocity S-wave (km/s) = 6.60793 -3.51976 3.95449
# Velocity P-wave (km/s) = 9.20677 3.79193 7.04071
#
# Compressibility (1/GPa) = 0.01990658
#
# Stress axis : x y z
#
# Youngs Moduli (GPa) = 89.08899 54.84046 80.61551
#
# Poissons Ratio (x) = 0.05084 0.41629
# Poissons Ratio (y) = 0.08260 0.39402
# Poissons Ratio (z) = 0.46005 0.26804
#
# Static dielectric constant tensor:
#      x y z
#    x 1.696860 0.000000 0.000000 
#    y 0.000000 1.657800 0.000000 
#    z 0.000000 0.000000 1.657050 
# 
# From -- ./inp_files/11263.got.cif
#   From: 2010.05.17/outbox.cif.g08.bks.cpg/sg51_6_cif.got.tgz:11263.got - 2010.06.03 11:52:47.
