data_PCOD9399684
_publ_section_title
;
Structure prediction by ZEFSAII (Michael W. Deem and Ramdas Pophale) SiO2 
 PCOD9399684
Probable space group: P M M A
;
_chemical_formula_sum "Si O2"
_cell_formula_units_Z 64
_cell_length_a 15.771123
_cell_length_b 15.589282
_cell_length_c 11.973527
_cell_angle_alpha 90.000000
_cell_angle_beta 90.000000
_cell_angle_gamma 90.000000
_cell_volume 2943.817142
_symmetry_space_group_name_H-M "P M M A"
_symmetry_group_IT_number 51
_symmetry_cell_setting 'orthorhombic'
loop_
_space_group_symop_operation_xyz
x,y,z
1/2-x,-y,z
1/2+x,-y,-z
-x,y,-z
-x,-y,-z
1/2+x,y,-z
1/2-x,y,z
x,-y,z
loop_
_atom_site_type_symbol
_atom_site_label
_atom_site_fract_x
_atom_site_fract_y
_atom_site_fract_z
Si Si1 0.651166 0.667715 0.799357
Si Si2 0.648982 0.896526 0.196687
Si Si3 0.512318 0.604019 0.630562
Si Si4 0.349272 0.177090 0.034522
Si Si5 0.658776 0.604634 0.242087
Si Si6 0.657076 0.097422 0.747093
Si Si7 0.490567 0.104919 0.627108
Si Si8 0.093062 0.402659 0.988321
O O1 0.750000 0.674120 0.768671
O O2 0.589989 0.648382 0.695943
O O3 0.624136 0.747138 0.880817
O O4 0.638711 0.595291 0.893620
O O5 0.750000 0.881283 0.211902
O O6 0.592703 0.870311 0.303165
O O7 0.639514 0.000000 0.179753
O O8 0.615298 0.847440 0.085900
O O9 0.500000 0.623807 0.500000
O O10 0.523123 0.500000 0.640608
O O11 0.425168 0.629436 0.692164
O O12 0.250000 0.194531 0.014233
O O13 0.354906 0.097870 0.119802
O O14 0.750000 0.636192 0.284092
O O15 0.662355 0.500000 0.247668
O O16 0.646782 0.634631 0.113619
O O17 0.750000 0.137006 0.724324
O O18 0.575198 0.136118 0.689466
O O19 0.661188 0.000000 0.706878
O O20 0.500000 0.133518 0.500000
O O21 0.489418 0.000000 0.627024
O O22 0.077177 0.500000 0.950301
O O23 0.000000 0.362490 0.000000
#
# Coordination Sequence:
#
# PCOD9399684 Si02
#       8
#     8   8   8   8   8   8   8   8
#     4  11  22  36  56  83 116 150 184 231 293 349
#     4   9  17  32  55  80 111 153 195 239 293 348
#     4  10  21  37  56  81 114 151 194 235 271 333
#     4   9  19  35  53  78 110 141 183 238 290 347
#     4   9  17  31  52  76 103 137 177 225 275 318
#     4   9  17  32  54  75 100 139 184 234 292 345
#     4   9  18  31  48  78 114 144 186 237 279 335
#     4  10  18  32  54  78 106 138 176 224 276 333
#
# _framework density 21.740480999999999
#
# number of rings (size 3 to 8) (size 9 to 14) (size 15 to 20)
#    0.000    2.500    1.250    1.125    0.000    4.500 
#    2.250    6.250    0.000    0.000    0.000    3.500 
#    0.000    0.000    0.000    0.000    0.000    0.125 
#
# Total GULP energy -356599.706385 kJ/mol
# GULP energy per Si atom -5571.870412 kJ/mol
# Density = 2.169100 g / cm^3
# Si number density = 21.740481 Si / 1000 Ang^3
#
#
#
# Elastic Constant Matrix: (Units=GPa)
#
#
# Indices 1 2 3 4 5 6 
#
# 1 165.3377 30.3485 97.5744 0.0000 0.0000 0.0000
# 2 30.3485 49.6193 25.2671 0.0000 0.0000 0.0000
# 3 97.5744 25.2671 178.4214 0.0000 0.0000 0.0000
# 4 0.0000 0.0000 0.0000 17.3184 0.0000 0.0000
# 5 0.0000 0.0000 0.0000 0.0000 27.8655 0.0000
# 6 0.0000 0.0000 0.0000 0.0000 0.0000 1.9799
#
#
#
# Elastic Compliance Matrix: (Units=1/GPa)
#
#
# Indices 1 2 3 4 5 6 
#
# 1 0.009430 -0.003386 -0.004678 0.000000 0.000000 0.000000
# 2 -0.003386 0.022935 -0.001396 0.000000 0.000000 0.000000
# 3 -0.004678 -0.001396 0.008361 0.000000 0.000000 0.000000
# 4 0.000000 0.000000 0.000000 0.057742 0.000000 0.000000
# 5 0.000000 0.000000 0.000000 0.000000 0.035887 0.000000
# 6 0.000000 0.000000 0.000000 0.000000 0.000000 0.505072
#
#
# Mechanical properties :
#
#
# Convention : Reuss Voigt Hill
#
# Bulk Modulus (GPa) = 45.85802 77.75093 61.80448
# Shear Modulus (GPa) = 7.51185 25.44531 16.47858
#
# Velocity S-wave (km/s) = 1.86084 3.42484 2.75611
# Velocity P-wave (km/s) = 5.07505 7.17497 6.21435
#
# Compressibility (1/GPa) = 0.02180644
#
# Stress axis : x y z
#
# Youngs Moduli (GPa) = 106.04148 43.60079 119.60893
#
# Poissons Ratio (x) = 0.14762 0.55950
# Poissons Ratio (y) = 0.35904 0.16702
# Poissons Ratio (z) = 0.49603 0.06088
#
# Static dielectric constant tensor:
#      x y z
#    x 1.811210 0.000000 0.000000 
#    y 0.000000 1.978180 0.000000 
#    z 0.000000 0.000000 1.770130 
# 
# From -- ./inp_files/16824.got.cif
#   From: 2010.05.17/outbox.cif.g08.bks.cpg/sg51_9_cif.got.tgz:16824.got - 2010.06.03 11:52:47.
