data_PCOD9399685
_publ_section_title
;
Structure prediction by ZEFSAII (Michael W. Deem and Ramdas Pophale) SiO2 
 PCOD9399685
Probable space group: P M M A
;
_chemical_formula_sum "Si O2"
_cell_formula_units_Z 64
_cell_length_a 29.406922
_cell_length_b 7.412709
_cell_length_c 13.122808
_cell_angle_alpha 90.000000
_cell_angle_beta 90.000000
_cell_angle_gamma 90.000000
_cell_volume 2860.574716
_symmetry_space_group_name_H-M "P M M A"
_symmetry_group_IT_number 51
_symmetry_cell_setting 'orthorhombic'
loop_
_space_group_symop_operation_xyz
x,y,z
1/2-x,-y,z
1/2+x,-y,-z
-x,y,-z
-x,-y,-z
1/2+x,y,-z
1/2-x,y,z
x,-y,z
loop_
_atom_site_type_symbol
_atom_site_label
_atom_site_fract_x
_atom_site_fract_y
_atom_site_fract_z
Si Si1 0.552556 0.211361 0.757269
Si Si2 0.526544 0.705585 0.095723
Si Si3 0.301339 0.279935 0.990705
Si Si4 0.361309 0.707148 0.599170
Si Si5 0.551239 0.781926 0.527173
Si Si6 0.302860 0.720615 0.410048
Si Si7 0.123647 0.721458 0.826198
Si Si8 0.152808 0.283091 0.198237
O O1 0.509906 0.297136 0.813377
O O2 0.560616 0.278844 0.642551
O O3 0.599980 0.235630 0.815389
O O4 0.541918 0.000000 0.750203
O O5 0.537583 0.500000 0.063557
O O6 0.574159 0.783273 0.134464
O O7 0.500000 0.791126 0.000000
O O8 0.250000 0.221608 0.969646
O O9 0.301408 0.500000 0.991604
O O10 0.337576 0.225592 0.905748
O O11 0.317873 0.220547 0.102322
O O12 0.346274 0.500000 0.612203
O O13 0.411431 0.710175 0.550146
O O14 0.328411 0.785197 0.511964
O O15 0.364695 0.785354 0.712233
O O16 0.500000 0.730405 0.500000
O O17 0.554348 0.000000 0.523173
O O18 0.250000 0.771092 0.408168
O O19 0.304918 0.500000 0.409817
O O20 0.328290 0.781923 0.307134
O O21 0.121874 0.500000 0.822062
O O22 0.155637 0.500000 0.200205
#
# Coordination Sequence:
#
# PCOD9399685 Si02
#       8
#     8   8   8   8   8   8   8   8
#     4  11  22  34  52  78 107 138 176 222 271 317
#     4  10  20  35  54  76 105 143 183 221 262 313
#     4   9  17  30  52  81 108 136 172 216 264 312
#     4  10  19  32  51  76 105 136 171 215 263 313
#     4  10  21  36  52  72 102 139 177 217 263 317
#     4   9  17  29  48  76 105 133 170 215 262 311
#     4   9  18  31  48  75 108 137 172 217 264 313
#     4  10  18  32  54  78 106 139 176 216 260 314
#
# _framework density 22.373127
#
# number of rings (size 3 to 8) (size 9 to 14) (size 15 to 20)
#    0.000    2.250    1.250    2.250    0.000    5.000 
#    0.000    2.500    0.000    3.375    0.000    0.000 
#    0.000    0.000    0.000    0.000    0.000    0.000 
#
# Total GULP energy -357705.798932 kJ/mol
# GULP energy per Si atom -5589.153108 kJ/mol
# Density = 2.232220 g / cm^3
# Si number density = 22.373127 Si / 1000 Ang^3
#
#
#
# Elastic Constant Matrix: (Units=GPa)
#
#
# Indices 1 2 3 4 5 6 
#
# 1 182.3923 -5.8124 85.1715 0.0000 0.0000 0.0000
# 2 -5.8124 74.5926 5.2925 0.0000 0.0000 0.0000
# 3 85.1715 5.2925 173.4823 0.0000 0.0000 0.0000
# 4 0.0000 0.0000 0.0000 -8.0531 0.0000 0.0000
# 5 0.0000 0.0000 0.0000 0.0000 37.5221 0.0000
# 6 0.0000 0.0000 0.0000 0.0000 0.0000 -113.4668
#
#
#
# Elastic Compliance Matrix: (Units=1/GPa)
#
#
# Indices 1 2 3 4 5 6 
#
# 1 0.007162 0.000809 -0.003541 0.000000 0.000000 0.000000
# 2 0.000809 0.013527 -0.000810 0.000000 0.000000 0.000000
# 3 -0.003541 -0.000810 0.007527 0.000000 0.000000 0.000000
# 4 0.000000 0.000000 0.000000 -0.124175 0.000000 0.000000
# 5 0.000000 0.000000 0.000000 0.000000 0.026651 0.000000
# 6 0.000000 0.000000 0.000000 0.000000 0.000000 -0.008813
#
#
# Mechanical properties :
#
#
# Convention : Reuss Voigt Hill
#
# Bulk Modulus (GPa) = 47.31956 66.64114 56.98035
# Shear Modulus (GPa) = -78.13235 6.25482 -35.93877
#
# Velocity S-wave (km/s) = -5.91593 1.67384 -4.01226
# Velocity P-wave (km/s) = 5.04660 5.79539 2.01474
#
# Compressibility (1/GPa) = 0.02113291
#
# Stress axis : x y z
#
# Youngs Moduli (GPa) = 139.62681 73.92795 132.84835
#
# Poissons Ratio (x) = -0.05983 0.47040
# Poissons Ratio (y) = -0.11300 0.10761
# Poissons Ratio (z) = 0.49440 0.05988
#
# Static dielectric constant tensor:
#      x y z
#    x 1.765290 0.000000 0.000000 
#    y 0.000000 1.858090 0.000000 
#    z 0.000000 0.000000 1.804840 
# 
# From -- ./inp_files/19497.got.cif
#   From: 2010.05.17/outbox.cif.g08.bks.cpg/sg51_10_cif.got.tgz:19497.got - 2010.06.03 11:52:47.
