data_PCOD9399617
_publ_section_title
;
Structure prediction by ZEFSAII (Michael W. Deem and Ramdas Pophale) SiO2 
 PCOD9399617
Probable space group: P M M A
;
_chemical_formula_sum "Si O2"
_cell_formula_units_Z 64
_cell_length_a 14.769547
_cell_length_b 7.594466
_cell_length_c 26.660292
_cell_angle_alpha 90.000000
_cell_angle_beta 90.000000
_cell_angle_gamma 90.000000
_cell_volume 2990.400241
_symmetry_space_group_name_H-M "P M M A"
_symmetry_group_IT_number 51
_symmetry_cell_setting 'orthorhombic'
loop_
_space_group_symop_operation_xyz
x,y,z
1/2-x,-y,z
1/2+x,-y,-z
-x,y,-z
-x,-y,-z
1/2+x,y,-z
1/2-x,y,z
x,-y,z
loop_
_atom_site_type_symbol
_atom_site_label
_atom_site_fract_x
_atom_site_fract_y
_atom_site_fract_z
Si Si1 0.855443 0.715642 0.175104
Si Si2 0.344602 0.711140 0.647440
Si Si3 0.647807 0.284768 0.675063
Si Si4 0.455439 0.714404 0.926717
Si Si5 0.854924 0.285446 0.970388
Si Si6 0.091854 0.804765 0.543724
Si Si7 0.522036 0.284856 0.268586
Si Si8 0.104684 0.696502 0.436562
O O1 0.750000 0.771268 0.178379
O O2 0.853721 0.500000 0.175730
O O3 0.904881 0.770617 0.123739
O O4 0.919585 0.773472 0.221079
O O5 0.250000 0.758134 0.672804
O O6 0.350145 0.500000 0.644849
O O7 0.346063 0.778475 0.591260
O O8 0.426005 0.772810 0.681173
O O9 0.750000 0.234382 0.685689
O O10 0.641710 0.500000 0.673136
O O11 0.579842 0.228781 0.719114
O O12 0.623653 0.224140 0.618154
O O13 0.457119 0.500000 0.926680
O O14 0.560985 0.769293 0.934073
O O15 0.394212 0.765044 0.974768
O O16 0.750000 0.226879 0.962249
O O17 0.852106 0.500000 0.968808
O O18 0.135480 0.778272 0.489375
O O19 0.003663 0.688651 0.555123
O O20 0.053981 0.000000 0.545555
O O21 0.523087 0.500000 0.266444
O O22 0.142193 0.500000 0.435474
#
# Coordination Sequence:
#
# PCOD9399617 Si02
#       8
#     8   8   8   8   8   8   8   8
#     4   9  15  22  34  52  73  96 124 168 224 269
#     4  10  19  32  50  69  88 117 154 185 220 274
#     4   9  17  29  47  67  83 103 137 177 214 257
#     4   8  13  19  27  42  63  90 127 170 214 261
#     4   8  12  18  27  38  58  92 132 169 206 255
#     4  11  21  32  48  72 100 122 144 180 233 277
#     4   9  16  28  43  61  81 101 132 178 224 265
#     4  10  18  32  52  70  91 121 156 183 214 267
#
# _framework density 21.401816
#
# number of rings (size 3 to 8) (size 9 to 14) (size 15 to 20)
#    0.000    2.750    1.250    3.750    0.000    3.750 
#    0.000    1.875    0.000    4.875    0.000    0.000 
#    0.000    0.000    0.000    0.000    0.000    0.000 
#
# Total GULP energy -356612.967882 kJ/mol
# GULP energy per Si atom -5572.077623 kJ/mol
# Density = 2.135310 g / cm^3
# Si number density = 21.401816 Si / 1000 Ang^3
#
#
#
# Elastic Constant Matrix: (Units=GPa)
#
#
# Indices 1 2 3 4 5 6 
#
# 1 195.9945 5.8692 94.2625 0.0000 0.0000 0.0000
# 2 5.8692 45.1559 1.7430 0.0000 0.0000 0.0000
# 3 94.2625 1.7430 143.9952 0.0000 0.0000 0.0000
# 4 0.0000 0.0000 0.0000 508.6100 0.0000 0.0000
# 5 0.0000 0.0000 0.0000 0.0000 18.0222 0.0000
# 6 0.0000 0.0000 0.0000 0.0000 0.0000 23.1367
#
#
#
# Elastic Compliance Matrix: (Units=1/GPa)
#
#
# Indices 1 2 3 4 5 6 
#
# 1 0.007474 -0.000783 -0.004883 0.000000 0.000000 0.000000
# 2 -0.000783 0.022238 0.000243 0.000000 0.000000 0.000000
# 3 -0.004883 0.000243 0.010138 0.000000 0.000000 0.000000
# 4 0.000000 0.000000 0.000000 0.001966 0.000000 0.000000
# 5 0.000000 0.000000 0.000000 0.000000 0.055487 0.000000
# 6 0.000000 0.000000 0.000000 0.000000 0.000000 0.043221
#
#
# Mechanical properties :
#
#
# Convention : Reuss Voigt Hill
#
# Bulk Modulus (GPa) = 34.47717 65.43278 49.95498
# Shear Modulus (GPa) = 31.04834 128.83850 79.94342
#
# Velocity S-wave (km/s) = 3.81298 7.76727 6.11839
# Velocity P-wave (km/s) = 5.96067 10.53947 8.56184
#
# Compressibility (1/GPa) = 0.02900470
#
# Stress axis : x y z
#
# Youngs Moduli (GPa) = 133.79276 44.96836 98.63420
#
# Poissons Ratio (x) = 0.03521 0.48166
# Poissons Ratio (y) = 0.10476 -0.02401
# Poissons Ratio (z) = 0.65335 -0.01094
#
# Static dielectric constant tensor:
#      x y z
#    x 1.821720 0.000000 0.000000 
#    y 0.000000 1.784530 0.000000 
#    z 0.000000 0.000000 1.758300 
# 
# From -- ./inp_files/37804.got.cif
#   From: 2010.05.17/outbox.cif.g08.bks.cpg/sg51_19_cif.got.tgz:37804.got - 2010.06.03 11:52:47.
