data_PCOD9399682
_publ_section_title
;
Structure prediction by ZEFSAII (Michael W. Deem and Ramdas Pophale) SiO2 
 PCOD9399682
Probable space group: P M M A
;
_chemical_formula_sum "Si O2"
_cell_formula_units_Z 48
_cell_length_a 19.417477
_cell_length_b 14.555118
_cell_length_c 10.122986
_cell_angle_alpha 90.000000
_cell_angle_beta 90.000000
_cell_angle_gamma 90.000000
_cell_volume 2860.995445
_symmetry_space_group_name_H-M "P M M A"
_symmetry_group_IT_number 51
_symmetry_cell_setting 'orthorhombic'
loop_
_space_group_symop_operation_xyz
x,y,z
1/2-x,-y,z
1/2+x,-y,-z
-x,y,-z
-x,-y,-z
1/2+x,y,-z
1/2-x,y,z
x,-y,z
loop_
_atom_site_type_symbol
_atom_site_label
_atom_site_fract_x
_atom_site_fract_y
_atom_site_fract_z
Si Si1 0.330200 0.210951 0.270955
Si Si2 0.171094 0.109168 0.987864
Si Si3 0.458362 0.200376 0.861016
Si Si4 0.064366 0.600919 0.899547
Si Si5 0.045488 0.108326 0.369765
Si Si6 0.332104 0.396466 0.134943
O O1 0.250000 0.209641 0.311842
O O2 0.382951 0.163648 0.370041
O O3 0.351755 0.314989 0.233877
O O4 0.335300 0.155390 0.132297
O O5 0.250000 0.124797 0.943747
O O6 0.114444 0.153252 0.892908
O O7 0.159788 0.000000 0.999156
O O8 0.447053 0.306380 0.818176
O O9 0.502128 0.145223 0.754667
O O10 0.500000 0.201261 0.000000
O O11 0.070139 0.500000 0.834880
O O12 0.129697 0.616097 0.995658
O O13 0.000000 0.595772 0.000000
O O14 0.000000 0.122168 0.500000
O O15 0.059261 0.000000 0.354723
O O16 0.250000 0.389672 0.116431
O O17 0.348829 0.500000 0.181089
#
# Coordination Sequence:
#
# PCOD9399682 Si02
#       6
#     8   8   8   8   8   8
#     4  10  18  32  54  78 104 135 171 214 263 311
#     4  10  19  29  46  76 106 130 166 216 260 301
#     4  11  19  32  54  76 100 134 170 213 261 309
#     4   9  16  26  43  70 102 131 160 199 253 307
#     4  11  24  39  53  74 105 141 180 220 262 315
#     4   9  16  27  47  78 111 136 165 211 263 312
#
# _framework density 16.777379
#
# number of rings (size 3 to 8) (size 9 to 14) (size 15 to 20)
#    0.000    2.000    3.333    2.000    0.000    1.667 
#    0.000    0.833    0.000    3.000    0.000    0.000 
#    0.000    0.000    0.000    0.000    0.000    0.000 
#
# Total GULP energy -267594.173753 kJ/mol
# GULP energy per Si atom -5574.878620 kJ/mol
# Density = 1.673919 g / cm^3
# Si number density = 16.777379 Si / 1000 Ang^3
#
#
#
# Elastic Constant Matrix: (Units=GPa)
#
#
# Indices 1 2 3 4 5 6 
#
# 1 68.0143 37.6532 11.5758 0.0000 0.0000 0.0000
# 2 37.6532 97.6755 16.7930 0.0000 0.0000 0.0000
# 3 11.5758 16.7930 30.3557 0.0000 0.0000 0.0000
# 4 0.0000 0.0000 0.0000 0.0360 0.0000 0.0000
# 5 0.0000 0.0000 0.0000 0.0000 16.4263 0.0000
# 6 0.0000 0.0000 0.0000 0.0000 0.0000 26.5431
#
#
#
# Elastic Compliance Matrix: (Units=1/GPa)
#
#
# Indices 1 2 3 4 5 6 
#
# 1 0.019029 -0.006728 -0.003535 0.000000 0.000000 0.000000
# 2 -0.006728 0.013693 -0.005009 0.000000 0.000000 0.000000
# 3 -0.003535 -0.005009 0.037062 0.000000 0.000000 0.000000
# 4 0.000000 0.000000 0.000000 27.794122 0.000000 0.000000
# 5 0.000000 0.000000 0.000000 0.000000 0.060878 0.000000
# 6 0.000000 0.000000 0.000000 0.000000 0.000000 0.037675
#
#
# Mechanical properties :
#
#
# Convention : Reuss Voigt Hill
#
# Bulk Modulus (GPa) = 25.48421 36.45439 30.96930
# Shear Modulus (GPa) = 0.17853 17.26931 8.72392
#
# Velocity S-wave (km/s) = 0.32656 3.21178 2.28278
# Velocity P-wave (km/s) = 3.91980 5.96067 5.04452
#
# Compressibility (1/GPa) = 0.03923998
#
# Stress axis : x y z
#
# Youngs Moduli (GPa) = 52.55161 73.03140 26.98194
#
# Poissons Ratio (x) = 0.49134 0.09537
# Poissons Ratio (y) = 0.35356 0.13516
# Poissons Ratio (z) = 0.18575 0.36584
#
# Static dielectric constant tensor:
#      x y z
#    x 1.609770 0.000000 0.000000 
#    y 0.000000 1.613820 0.000000 
#    z 0.000000 0.000000 1.513800 
# 
# From -- ./inp_files/10802.got.cif
#   From: 2010.05.17/outbox.cif.g08.bks.cpg/sg51_6_cif.got.tgz:10802.got - 2010.06.03 11:52:47.
