data_PCOD9399634
_publ_section_title
;
Structure prediction by ZEFSAII (Michael W. Deem and Ramdas Pophale) SiO2 
 PCOD9399634
Probable space group: P M M A
;
_chemical_formula_sum "Si O2"
_cell_formula_units_Z 28
_cell_length_a 11.648708
_cell_length_b 13.338897
_cell_length_c 8.940631
_cell_angle_alpha 90.000000
_cell_angle_beta 90.000000
_cell_angle_gamma 90.000000
_cell_volume 1389.203436
_symmetry_space_group_name_H-M "P M M A"
_symmetry_group_IT_number 51
_symmetry_cell_setting 'orthorhombic'
loop_
_space_group_symop_operation_xyz
x,y,z
1/2-x,-y,z
1/2+x,-y,-z
-x,y,-z
-x,-y,-z
1/2+x,y,-z
1/2-x,y,z
x,-y,z
loop_
_atom_site_type_symbol
_atom_site_label
_atom_site_fract_x
_atom_site_fract_y
_atom_site_fract_z
Si Si1 0.884052 0.611887 0.607758
Si Si2 0.433562 0.000000 0.217487
Si Si3 0.508351 0.793465 0.323164
Si Si4 0.750000 0.176461 0.276954
Si Si5 0.250000 0.000000 0.479625
Si Si6 0.750000 0.000000 0.039341
O O1 0.750000 0.622419 0.552735
O O2 0.887985 0.500000 0.675304
O O3 0.000000 0.613870 0.500000
O O4 0.912412 0.709769 0.706988
O O5 0.499497 0.103796 0.232118
O O6 0.355647 0.000000 0.366707
O O7 0.358551 0.000000 0.069861
O O8 0.500000 0.818578 0.500000
O O9 0.636373 0.757457 0.288408
O O10 0.750000 0.098591 0.417659
O O11 0.750000 0.100347 0.138056
#
# Coordination Sequence:
#
# PCOD9399634 Si02
#       6
#     8   4   8   4   2   2
#     4   9  20  35  53  84 122 156 191 241 304 358
#     4  11  21  35  55  86 110 159 192 236 289 360
#     4  11  22  33  60  85 119 153 200 244 293 353
#     4  11  22  38  51  86 115 155 194 250 292 349
#     4  10  18  32  52  74 114 142 192 230 276 342
#     4  10  26  38  58  78 132 160 200 240 306 360
#
# _framework density 20.155435000000001
#
# number of rings (size 3 to 8) (size 9 to 14) (size 15 to 20)
#    0.000    1.714    2.857    2.143   12.000    2.286 
#    0.000    0.000    0.000    0.000    0.000    6.000 
#    0.000    0.000    0.000    0.000    0.000    0.000 
#
# Total GULP energy -155876.926041 kJ/mol
# GULP energy per Si atom -5567.033073 kJ/mol
# Density = 2.010956 g / cm^3
# Si number density = 20.155435 Si / 1000 Ang^3
#
#
#
# Elastic Constant Matrix: (Units=GPa)
#
#
# Indices 1 2 3 4 5 6 
#
# 1 154.1993 55.0451 23.0134 0.0000 0.0000 0.0000
# 2 55.0451 113.0642 14.7720 0.0000 0.0000 0.0000
# 3 23.0134 14.7720 65.7737 0.0000 0.0000 0.0000
# 4 0.0000 0.0000 0.0000 -5.6087 0.0000 0.0000
# 5 0.0000 0.0000 0.0000 0.0000 11.6385 0.0000
# 6 0.0000 0.0000 0.0000 0.0000 0.0000 40.3952
#
#
#
# Elastic Compliance Matrix: (Units=1/GPa)
#
#
# Indices 1 2 3 4 5 6 
#
# 1 0.008098 -0.003681 -0.002007 0.000000 0.000000 0.000000
# 2 -0.003681 0.010785 -0.001134 0.000000 0.000000 0.000000
# 3 -0.002007 -0.001134 0.016161 0.000000 0.000000 0.000000
# 4 0.000000 0.000000 0.000000 -0.178293 0.000000 0.000000
# 5 0.000000 0.000000 0.000000 0.000000 0.085922 0.000000
# 6 0.000000 0.000000 0.000000 0.000000 0.000000 0.024755
#
#
# Mechanical properties :
#
#
# Convention : Reuss Voigt Hill
#
# Bulk Modulus (GPa) = 46.72883 57.63315 52.18099
# Shear Modulus (GPa) = -423.89594 25.29878 -199.29858
#
# Velocity S-wave (km/s) = -14.51792 3.54670 -9.95467
# Velocity P-wave (km/s) = 16.05591 6.74007 10.30446
#
# Compressibility (1/GPa) = 0.02140007
#
# Stress axis : x y z
#
# Youngs Moduli (GPa) = 123.47979 92.72492 61.87888
#
# Poissons Ratio (x) = 0.34128 0.12419
# Poissons Ratio (y) = 0.45447 0.07019
# Poissons Ratio (z) = 0.24782 0.10518
#
# Static dielectric constant tensor:
#      x y z
#    x 1.839680 0.000000 0.000000 
#    y 0.000000 1.788400 0.000000 
#    z 0.000000 0.000000 1.693600 
# 
# From -- ./inp_files/6632.got.cif
#   From: 2010.05.17/outbox.cif.g08.bks.cpg/sg51_4_cif.got.tgz:6632.got - 2010.06.03 11:52:47.
