data_PCOD9399449
_publ_section_title
;
Structure prediction by ZEFSAII (Michael W. Deem and Ramdas Pophale) SiO2 
 PCOD9399449
Probable space group: P M M A
;
_chemical_formula_sum "Si O2"
_cell_formula_units_Z 48
_cell_length_a 17.786311
_cell_length_b 14.076710
_cell_length_c 12.139569
_cell_angle_alpha 90.000000
_cell_angle_beta 90.000000
_cell_angle_gamma 90.000000
_cell_volume 3039.417176
_symmetry_space_group_name_H-M "P M M A"
_symmetry_group_IT_number 51
_symmetry_cell_setting 'orthorhombic'
loop_
_space_group_symop_operation_xyz
x,y,z
1/2-x,-y,z
1/2+x,-y,-z
-x,y,-z
-x,-y,-z
1/2+x,y,-z
1/2-x,y,z
x,-y,z
loop_
_atom_site_type_symbol
_atom_site_label
_atom_site_fract_x
_atom_site_fract_y
_atom_site_fract_z
Si Si1 0.837946 0.741489 0.548921
Si Si2 0.421923 0.886808 0.315506
Si Si3 0.068421 0.226078 0.671824
Si Si4 0.466403 0.608098 0.375513
Si Si5 0.838172 0.888250 0.149714
Si Si6 0.924846 0.885700 0.938330
O O1 0.750000 0.721463 0.542820
O O2 0.856237 0.837256 0.616151
O O3 0.874679 0.755872 0.428554
O O4 0.886251 0.659844 0.610581
O O5 0.501420 0.846744 0.359950
O O6 0.417699 0.854305 0.187395
O O7 0.419314 0.000000 0.321687
O O8 0.112731 0.178866 0.772397
O O9 0.023110 0.324213 0.692125
O O10 0.500000 0.607042 0.500000
O O11 0.461595 0.500000 0.336367
O O12 0.750000 0.878109 0.171928
O O13 0.859082 0.000000 0.168231
O O14 0.857180 0.866495 0.022330
O O15 0.931888 0.000000 0.930629
O O16 0.000000 0.850597 0.000000
#
# Coordination Sequence:
#
# PCOD9399449 Si02
#       6
#     8   8   8   8   8   8
#     4  10  21  32  44  69 100 127 155 191 238 289
#     4  10  19  31  48  66  92 131 169 199 229 271
#     4  10  18  31  49  69  96 125 159 197 234 286
#     4   8  16  32  52  70  88 116 156 197 235 283
#     4  10  19  29  45  71 100 130 162 198 240 278
#     4   9  16  29  47  65  88 122 168 208 233 266
#
# _framework density 15.792502000000001
#
# number of rings (size 3 to 8) (size 9 to 14) (size 15 to 20)
#    0.000    2.500    1.667    2.500    0.000    3.333 
#    0.000    1.667    0.000    1.500    0.000    9.333 
#    0.000    0.000    0.000    0.000    0.000    0.000 
#
# Total GULP energy -267330.303614 kJ/mol
# GULP energy per Si atom -5569.381325 kJ/mol
# Density = 1.575656 g / cm^3
# Si number density = 15.792502 Si / 1000 Ang^3
#
#
#
# Elastic Constant Matrix: (Units=GPa)
#
#
# Indices 1 2 3 4 5 6 
#
# 1 107.7471 47.2770 40.9848 0.0000 0.0000 0.0000
# 2 47.2770 100.6907 25.1376 0.0000 0.0000 0.0000
# 3 40.9848 25.1376 42.6817 0.0000 0.0000 0.0000
# 4 0.0000 0.0000 0.0000 1.5327 0.0000 0.0000
# 5 0.0000 0.0000 0.0000 0.0000 22.7246 0.0000
# 6 0.0000 0.0000 0.0000 0.0000 0.0000 11.9532
#
#
#
# Elastic Compliance Matrix: (Units=1/GPa)
#
#
# Indices 1 2 3 4 5 6 
#
# 1 0.016088 -0.004334 -0.012896 0.000000 0.000000 0.000000
# 2 -0.004334 0.012811 -0.003383 0.000000 0.000000 0.000000
# 3 -0.012896 -0.003383 0.037805 0.000000 0.000000 0.000000
# 4 0.000000 0.000000 0.000000 0.652452 0.000000 0.000000
# 5 0.000000 0.000000 0.000000 0.000000 0.044005 0.000000
# 6 0.000000 0.000000 0.000000 0.000000 0.000000 0.083660
#
#
# Mechanical properties :
#
#
# Convention : Reuss Voigt Hill
#
# Bulk Modulus (GPa) = 39.25025 53.10204 46.17615
# Shear Modulus (GPa) = 5.57700 16.42343 11.00022
#
# Velocity S-wave (km/s) = 1.88125 3.22833 2.64208
# Velocity P-wave (km/s) = 5.44302 6.89884 6.21371
#
# Compressibility (1/GPa) = 0.02547754
#
# Stress axis : x y z
#
# Youngs Moduli (GPa) = 62.15781 78.05730 26.45168
#
# Poissons Ratio (x) = 0.33833 0.34111
# Poissons Ratio (y) = 0.26941 0.08949
# Poissons Ratio (z) = 0.80157 0.26408
#
# Static dielectric constant tensor:
#      x y z
#    x 1.535340 0.000000 0.000000 
#    y 0.000000 1.527970 0.000000 
#    z 0.000000 0.000000 1.538630 
# 
# From -- ./inp_files/17368.got.cif
#   From: 2010.05.17/outbox.cif.g08.bks.cpg/sg51_9_cif.got.tgz:17368.got - 2010.06.03 11:52:47.
