data_PCOD9399596
_publ_section_title
;
Structure prediction by ZEFSAII (Michael W. Deem and Ramdas Pophale) SiO2 
 PCOD9399596
Probable space group: P M M A
;
_chemical_formula_sum "Si O2"
_cell_formula_units_Z 64
_cell_length_a 8.212314
_cell_length_b 15.292497
_cell_length_c 24.297349
_cell_angle_alpha 90.000000
_cell_angle_beta 90.000000
_cell_angle_gamma 90.000000
_cell_volume 3051.425999
_symmetry_space_group_name_H-M "P M M A"
_symmetry_group_IT_number 51
_symmetry_cell_setting 'orthorhombic'
loop_
_space_group_symop_operation_xyz
x,y,z
1/2-x,-y,z
1/2+x,-y,-z
-x,y,-z
-x,-y,-z
1/2+x,y,-z
1/2-x,y,z
x,-y,z
loop_
_atom_site_type_symbol
_atom_site_label
_atom_site_fract_x
_atom_site_fract_y
_atom_site_fract_z
Si Si1 0.488781 0.598298 0.750000
Si Si2 0.946277 0.767591 0.562848
Si Si3 0.443288 0.101046 0.849804
Si Si4 0.062713 0.593812 0.122622
Si Si5 0.561264 0.216793 0.750000
Si Si6 0.946277 0.767592 0.937152
Si Si7 0.437287 0.593812 0.377378
Si Si8 0.443288 0.101046 0.650195
O O1 0.412076 0.500000 0.750000
O O2 0.566578 0.598019 0.811000
O O3 0.437940 0.700602 0.750000
O O4 0.566578 0.598019 0.689000
O O5 0.750000 0.771703 0.566869
O O6 0.007412 0.681293 0.596013
O O7 0.000000 0.761348 0.500000
O O8 0.018492 0.852348 0.592669
O O9 0.250000 0.104057 0.839060
O O10 0.531969 0.157723 0.803245
O O11 0.481509 0.147652 0.907331
O O12 0.494923 0.000000 0.848657
O O13 0.250000 0.591173 0.103928
O O14 0.984670 0.500000 0.107781
O O15 0.992588 0.681294 0.096012
O O16 0.750000 0.248509 0.750000
O O17 0.531967 0.157724 0.696754
O O18 0.750000 0.771704 0.933131
O O19 0.000000 0.761350 0.000000
O O20 0.250000 0.591173 0.396072
O O21 0.515330 0.500000 0.392219
O O22 0.250000 0.104054 0.660939
O O23 0.494927 0.000000 0.651342
#
# Coordination Sequence:
#
# PCOD9399596 Si02
#       8
#     8   8   8   8   8   8   8   8
#     4  10  18  31  58  96 131 159 193 239 294 358
#     4  11  23  40  63  90 120 158 206 255 305 359
#     4  11  25  44  64  88 121 161 202 250 309 365
#     4   9  17  31  55  88 124 160 198 242 295 357
#     4  12  22  37  65  99 128 161 201 244 297 358
#     4  11  23  40  63  90 120 158 206 255 305 359
#     4   9  17  31  55  88 124 160 198 242 295 357
#     4  11  25  44  64  88 121 161 202 250 309 365
#
# _framework density 20.973801999999999
#
# number of rings (size 3 to 8) (size 9 to 14) (size 15 to 20)
#    0.000    1.500    2.500    3.375    0.000    7.250 
#    0.000    0.000    0.000    5.250    0.000    0.000 
#    0.000    0.000    0.000    0.000    0.000    0.000 
#
# Total GULP energy -356586.333200 kJ/mol
# GULP energy per Si atom -5571.661456 kJ/mol
# Density = 2.092606 g / cm^3
# Si number density = 20.973802 Si / 1000 Ang^3
#
#
#
# Elastic Constant Matrix: (Units=GPa)
#
#
# Indices 1 2 3 4 5 6 
#
# 1 49.7610 26.5905 7.6167 0.0000 0.0000 0.0000
# 2 26.5905 198.4407 56.9356 0.0000 0.0000 0.0000
# 3 7.6167 56.9356 107.3975 0.0000 0.0000 0.0000
# 4 0.0000 0.0000 0.0000 8.7477 0.0000 0.0000
# 5 0.0000 0.0000 0.0000 0.0000 39.5901 0.0000
# 6 0.0000 0.0000 0.0000 0.0000 0.0000 81.7731
#
#
#
# Elastic Compliance Matrix: (Units=1/GPa)
#
#
# Indices 1 2 3 4 5 6 
#
# 1 0.021646 -0.002901 0.000003 0.000000 0.000000 0.000000
# 2 -0.002901 0.006332 -0.003151 0.000000 0.000000 0.000000
# 3 0.000003 -0.003151 0.010982 0.000000 0.000000 0.000000
# 4 0.000000 0.000000 0.000000 0.114316 0.000000 0.000000
# 5 0.000000 0.000000 0.000000 0.000000 0.025259 0.000000
# 6 0.000000 0.000000 0.000000 0.000000 0.000000 0.012229
#
#
# Mechanical properties :
#
#
# Convention : Reuss Voigt Hill
#
# Bulk Modulus (GPa) = 37.22922 59.76496 48.49709
# Shear Modulus (GPa) = 23.60542 43.65261 33.62902
#
# Velocity S-wave (km/s) = 3.35844 4.56707 4.00857
# Velocity P-wave (km/s) = 5.72955 7.50784 6.67815
#
# Compressibility (1/GPa) = 0.02686062
#
# Stress axis : x y z
#
# Youngs Moduli (GPa) = 46.19795 157.92353 91.06188
#
# Poissons Ratio (x) = 0.45819 -0.00027
# Poissons Ratio (y) = 0.13404 0.28695
# Poissons Ratio (z) = -0.00014 0.49764
#
# Static dielectric constant tensor:
#      x y z
#    x 1.779020 0.000000 0.000000 
#    y 0.000000 1.786000 0.000000 
#    z 0.000000 0.000000 1.709790 
# 
# From -- ./inp_files/34881.got.cif
#   From: 2010.05.17/outbox.cif.g08.bks.cpg/sg51_18_cif.got.tgz:34881.got - 2010.06.03 11:52:47.
