data_PCOD9399762
_publ_section_title
;
Structure prediction by ZEFSAII (Michael W. Deem and Ramdas Pophale) SiO2 
 PCOD9399762
Probable space group: P M M A
;
_chemical_formula_sum "Si O2"
_cell_formula_units_Z 40
_cell_length_a 8.491866
_cell_length_b 11.078394
_cell_length_c 19.240331
_cell_angle_alpha 90.000000
_cell_angle_beta 90.000000
_cell_angle_gamma 90.000000
_cell_volume 1810.057946
_symmetry_space_group_name_H-M "P M M A"
_symmetry_group_IT_number 51
_symmetry_cell_setting 'orthorhombic'
loop_
_space_group_symop_operation_xyz
x,y,z
1/2-x,-y,z
1/2+x,-y,-z
-x,y,-z
-x,-y,-z
1/2+x,y,-z
1/2-x,y,z
x,-y,z
loop_
_atom_site_type_symbol
_atom_site_label
_atom_site_fract_x
_atom_site_fract_y
_atom_site_fract_z
Si Si1 0.560824 0.000000 0.920346
Si Si2 0.937958 0.368711 0.788248
Si Si3 0.937977 0.257946 0.078693
Si Si4 0.060824 0.500000 0.579654
Si Si5 0.937958 0.131289 0.288248
Si Si6 0.562023 0.242054 0.578693
O O1 0.492896 0.126010 0.893486
O O2 0.750000 0.000000 0.917804
O O3 0.500000 0.000000 0.000000
O O4 0.750000 0.367563 0.783078
O O5 0.996207 0.500000 0.762452
O O6 0.989815 0.353327 0.868296
O O7 1.000000 0.250000 0.750000
O O8 0.750000 0.262693 0.078621
O O9 0.000000 0.272023 0.000000
O O10 0.250000 0.500000 0.582196
O O11 0.000000 0.500000 0.500000
O O12 0.992896 0.626010 0.606514
O O13 0.750000 0.132437 0.283078
O O14 0.989815 0.146673 0.368296
O O15 0.996207 0.000000 0.262452
O O16 0.500000 0.227977 0.500000
O O17 0.750000 0.237307 0.578621
#
# Coordination Sequence:
#
# PCOD9399762 Si02
#       6
#     4   8   8   4   8   8
#     4  10  18  32  56  90 130 170 213 264 323 386
#     4  11  26  47  70  98 134 177 225 275 334 402
#     4  11  22  39  65  97 134 174 222 275 334 395
#     4  10  18  32  56  90 130 170 213 264 323 386
#     4  11  26  47  70  98 134 177 225 275 334 402
#     4  11  22  39  65  97 134 174 222 275 334 395
#
# _framework density 22.098738999999998
#
# number of rings (size 3 to 8) (size 9 to 14) (size 15 to 20)
#    0.000    1.200    0.000    9.000    2.800    4.000 
#    0.000    0.000    0.000    0.000    0.000    0.000 
#    0.000    0.000    0.000    0.000    0.000    0.000 
#
# Total GULP energy -223736.675286 kJ/mol
# GULP energy per Si atom -5593.416882 kJ/mol
# Density = 2.204844 g / cm^3
# Si number density = 22.098739 Si / 1000 Ang^3
#
#
#
# Elastic Constant Matrix: (Units=GPa)
#
#
# Indices 1 2 3 4 5 6 
#
# 1 110.6213 46.9573 1.6337 0.0000 0.0000 0.0000
# 2 46.9573 180.1558 63.1355 0.0000 0.0000 0.0000
# 3 1.6337 63.1355 92.5734 0.0000 0.0000 0.0000
# 4 0.0000 0.0000 0.0000 37.1169 0.0000 0.0000
# 5 0.0000 0.0000 0.0000 0.0000 33.7561 0.0000
# 6 0.0000 0.0000 0.0000 0.0000 0.0000 25.8333
#
#
#
# Elastic Compliance Matrix: (Units=1/GPa)
#
#
# Indices 1 2 3 4 5 6 
#
# 1 0.010497 -0.003510 0.002209 0.000000 0.000000 0.000000
# 2 -0.003510 0.008468 -0.005713 0.000000 0.000000 0.000000
# 3 0.002209 -0.005713 0.014660 0.000000 0.000000 0.000000
# 4 0.000000 0.000000 0.000000 0.026942 0.000000 0.000000
# 5 0.000000 0.000000 0.000000 0.000000 0.029624 0.000000
# 6 0.000000 0.000000 0.000000 0.000000 0.000000 0.038710
#
#
# Mechanical properties :
#
#
# Convention : Reuss Voigt Hill
#
# Bulk Modulus (GPa) = 51.03208 67.42261 59.22734
# Shear Modulus (GPa) = 33.45341 37.44955 35.45148
#
# Velocity S-wave (km/s) = 3.89500 4.12107 4.00963
# Velocity P-wave (km/s) = 6.58566 7.29522 6.94950
#
# Compressibility (1/GPa) = 0.01959552
#
# Stress axis : x y z
#
# Youngs Moduli (GPa) = 95.26326 118.09409 68.21442
#
# Poissons Ratio (x) = 0.41452 -0.15066
# Poissons Ratio (y) = 0.33438 0.38972
# Poissons Ratio (z) = -0.21040 0.67469
#
# Static dielectric constant tensor:
#      x y z
#    x 1.726350 0.000000 0.000000 
#    y 0.000000 1.776240 0.000000 
#    z 0.000000 0.000000 1.785020 
# 
# From -- ./inp_files/27074.got.cif
#   From: 2010.05.17/outbox.cif.g08.bks.cpg/sg51_14_cif.got.tgz:27074.got - 2010.06.03 11:52:47.
