data_PCOD9399247
_publ_section_title
;
Structure prediction by ZEFSAII (Michael W. Deem and Ramdas Pophale) SiO2 
 PCOD9399247
Probable space group: P M M A
;
_chemical_formula_sum "Si O2"
_cell_formula_units_Z 28
_cell_length_a 8.147941
_cell_length_b 11.104505
_cell_length_c 14.614418
_cell_angle_alpha 90.000000
_cell_angle_beta 90.000000
_cell_angle_gamma 90.000000
_cell_volume 1322.295757
_symmetry_space_group_name_H-M "P M M A"
_symmetry_group_IT_number 51
_symmetry_cell_setting 'orthorhombic'
loop_
_space_group_symop_operation_xyz
x,y,z
1/2-x,-y,z
1/2+x,-y,-z
-x,y,-z
-x,-y,-z
1/2+x,y,-z
1/2-x,y,z
x,-y,z
loop_
_atom_site_type_symbol
_atom_site_label
_atom_site_fract_x
_atom_site_fract_y
_atom_site_fract_z
Si Si1 0.048905 0.868710 0.287183
Si Si2 0.443969 0.239445 0.104453
Si Si3 0.448366 0.632162 0.394178
Si Si4 0.445005 0.500000 0.893705
O O1 0.250000 0.866834 0.288777
O O2 0.995421 0.851703 0.181659
O O3 0.991714 0.751590 0.342648
O O4 0.997017 0.000000 0.322131
O O5 0.250000 0.230902 0.101189
O O6 0.487508 0.373381 0.140886
O O7 0.500000 0.223592 0.000000
O O8 0.500000 0.639172 0.500000
O O9 0.250000 0.632346 0.388736
O O10 0.505096 0.500000 0.358951
O O11 0.250000 0.500000 0.888538
O O12 0.500000 0.500000 0.000000
#
# Coordination Sequence:
#
# PCOD9399247 Si02
#       4
#     8   8   8   4
#     4   9  19  34  53  78 107 142 182 217 257 315
#     4  10  19  32  52  75 105 141 181 222 263 309
#     4   9  18  34  57  81 105 134 172 217 265 316
#     4  10  18  30  48  72 101 132 173 220 267 310
#
# _framework density 21.17529
#
# number of rings (size 3 to 8) (size 9 to 14) (size 15 to 20)
#    0.000    2.571    0.000    3.857    2.000    1.143 
#    0.000    2.857    0.000    6.000    0.000    0.000 
#    0.000    0.000    0.000    0.000    0.000    0.000 
#
# Total GULP energy -156145.911883 kJ/mol
# GULP energy per Si atom -5576.639710 kJ/mol
# Density = 2.112709 g / cm^3
# Si number density = 21.175290 Si / 1000 Ang^3
#
#
#
# Elastic Constant Matrix: (Units=GPa)
#
#
# Indices 1 2 3 4 5 6 
#
# 1 14.7599 3.7034 4.4194 0.0000 0.0000 0.0000
# 2 3.7034 198.9894 79.8661 0.0000 0.0000 0.0000
# 3 4.4194 79.8661 77.0512 0.0000 0.0000 0.0000
# 4 0.0000 0.0000 0.0000 26.3097 0.0000 0.0000
# 5 0.0000 0.0000 0.0000 0.0000 16.4622 0.0000
# 6 0.0000 0.0000 0.0000 0.0000 0.0000 0.9509
#
#
#
# Elastic Compliance Matrix: (Units=1/GPa)
#
#
# Indices 1 2 3 4 5 6 
#
# 1 0.068966 0.000521 -0.004495 0.000000 0.000000 0.000000
# 2 0.000521 0.008609 -0.008954 0.000000 0.000000 0.000000
# 3 -0.004495 -0.008954 0.022517 0.000000 0.000000 0.000000
# 4 0.000000 0.000000 0.000000 0.038009 0.000000 0.000000
# 5 0.000000 0.000000 0.000000 0.000000 0.060745 0.000000
# 6 0.000000 0.000000 0.000000 0.000000 0.000000 1.051676
#
#
# Mechanical properties :
#
#
# Convention : Reuss Voigt Hill
#
# Bulk Modulus (GPa) = 13.47056 51.86425 32.66740
# Shear Modulus (GPa) = 3.84283 22.26532 13.05407
#
# Velocity S-wave (km/s) = 1.34860 3.24617 2.48559
# Velocity P-wave (km/s) = 2.96651 6.21258 4.86808
#
# Compressibility (1/GPa) = 0.07423598
#
# Stress axis : x y z
#
# Youngs Moduli (GPa) = 14.49981 116.15257 44.41075
#
# Poissons Ratio (x) = -0.06048 0.19964
# Poissons Ratio (y) = -0.00755 0.39764
# Poissons Ratio (z) = 0.06518 1.04000
#
# Static dielectric constant tensor:
#      x y z
#    x 1.728670 0.000000 0.000000 
#    y 0.000000 1.791550 0.000000 
#    z 0.000000 0.000000 1.763220 
# 
# From -- ./inp_files/20001.got.cif
#   From: 2010.05.17/outbox.cif.g08.bks.cpg/sg51_11_cif.got.tgz:20001.got - 2010.06.03 11:52:47.
