data_PCOD9399059
_publ_section_title
;
Structure prediction by ZEFSAII (Michael W. Deem and Ramdas Pophale) SiO2 
 PCOD9399059
Probable space group: P M M A
;
_chemical_formula_sum "Si O2"
_cell_formula_units_Z 56
_cell_length_a 15.321001
_cell_length_b 16.271274
_cell_length_c 10.422573
_cell_angle_alpha 90.000000
_cell_angle_beta 90.000000
_cell_angle_gamma 90.000000
_cell_volume 2598.266207
_symmetry_space_group_name_H-M "P M M A"
_symmetry_group_IT_number 51
_symmetry_cell_setting 'orthorhombic'
loop_
_space_group_symop_operation_xyz
x,y,z
1/2-x,-y,z
1/2+x,-y,-z
-x,y,-z
-x,-y,-z
1/2+x,y,-z
1/2-x,y,z
x,-y,z
loop_
_atom_site_type_symbol
_atom_site_label
_atom_site_fract_x
_atom_site_fract_y
_atom_site_fract_z
Si Si1 0.394368 0.231557 0.641734
Si Si2 0.354845 0.089870 0.844840
Si Si3 0.645063 0.633914 0.991774
Si Si4 0.100699 0.589649 0.724929
Si Si5 0.854446 0.183768 0.915492
Si Si6 0.895166 0.413010 0.707380
Si Si7 0.104345 0.767374 0.361027
O O1 0.372957 0.164710 0.748824
O O2 0.361521 0.324156 0.672591
O O3 0.365172 0.203677 0.500228
O O4 0.499427 0.237413 0.638565
O O5 0.250000 0.084429 0.850858
O O6 0.388711 0.000000 0.805263
O O7 0.387045 0.114848 0.987017
O O8 0.750000 0.631915 0.006808
O O9 0.614787 0.727867 0.969377
O O10 0.621031 0.589555 0.860001
O O11 0.604748 0.598218 0.120771
O O12 0.138748 0.500000 0.689779
O O13 0.999192 0.587704 0.684513
O O14 0.750000 0.185589 0.925336
O O15 0.874029 0.180409 0.764960
O O16 0.860543 0.500000 0.656087
O O17 0.860715 0.325980 0.657134
#
# Coordination Sequence:
#
# PCOD9399059 Si02
#       7
#     8   8   8   8   8   8   8
#     4  10  20  37  55  80 115 146 182 225 270 320
#     4  10  21  39  63  86 108 138 177 221 272 329
#     4  10  18  29  47  72 103 137 177 229 278 316
#     4  10  19  30  48  74 106 145 185 223 266 316
#     4   9  18  35  56  79 105 138 180 225 271 320
#     4   9  18  31  47  70 103 145 189 226 264 315
#     4   9  20  35  55  79 110 150 183 222 272 320
#
# _framework density 21.552833
#
# number of rings (size 3 to 8) (size 9 to 14) (size 15 to 20)
#    0.000    2.429    1.429    0.857    0.000    4.000 
#    0.000    6.429    0.000    1.714    0.000    4.000 
#    0.000    0.000    0.000    0.000    0.000    0.000 
#
# Total GULP energy -312401.069310 kJ/mol
# GULP energy per Si atom -5578.590523 kJ/mol
# Density = 2.150378 g / cm^3
# Si number density = 21.552833 Si / 1000 Ang^3
#
#
#
# Elastic Constant Matrix: (Units=GPa)
#
#
# Indices 1 2 3 4 5 6 
#
# 1 30.8465 6.1502 -3.3047 0.0000 0.0000 0.0000
# 2 6.1502 120.2838 62.9327 0.0000 0.0000 0.0000
# 3 -3.3047 62.9327 136.3732 0.0000 0.0000 0.0000
# 4 0.0000 0.0000 0.0000 3.8203 0.0000 0.0000
# 5 0.0000 0.0000 0.0000 0.0000 25.2533 0.0000
# 6 0.0000 0.0000 0.0000 0.0000 0.0000 27.9270
#
#
#
# Elastic Compliance Matrix: (Units=1/GPa)
#
#
# Indices 1 2 3 4 5 6 
#
# 1 0.033200 -0.002793 0.002093 0.000000 0.000000 0.000000
# 2 -0.002793 0.011195 -0.005234 0.000000 0.000000 0.000000
# 3 0.002093 -0.005234 0.009799 0.000000 0.000000 0.000000
# 4 0.000000 0.000000 0.000000 0.261763 0.000000 0.000000
# 5 0.000000 0.000000 0.000000 0.000000 0.039599 0.000000
# 6 0.000000 0.000000 0.000000 0.000000 0.000000 0.035808
#
#
# Mechanical properties :
#
#
# Convention : Reuss Voigt Hill
#
# Bulk Modulus (GPa) = 23.62569 46.56220 35.09394
# Shear Modulus (GPa) = 11.98071 26.18181 19.08126
#
# Velocity S-wave (km/s) = 2.36026 3.48914 2.97867
# Velocity P-wave (km/s) = 4.29107 6.15490 5.30547
#
# Compressibility (1/GPa) = 0.04232681
#
# Stress axis : x y z
#
# Youngs Moduli (GPa) = 30.12080 89.32730 102.05334
#
# Poissons Ratio (x) = 0.24947 -0.21363
# Poissons Ratio (y) = 0.08412 0.53412
# Poissons Ratio (z) = -0.06305 0.46752
#
# Static dielectric constant tensor:
#      x y z
#    x 1.800440 0.000000 0.000000 
#    y 0.000000 1.827780 0.000000 
#    z 0.000000 0.000000 1.782640 
# 
# From -- ./inp_files/11118.got.cif
#   From: 2010.05.17/outbox.cif.g08.bks.cpg/sg51_6_cif.got.tgz:11118.got - 2010.06.03 11:52:47.
