data_PCOD9399043
_publ_section_title
;
Structure prediction by ZEFSAII (Michael W. Deem and Ramdas Pophale) SiO2 
 PCOD9399043
Probable space group: P M M A
;
_chemical_formula_sum "Si O2"
_cell_formula_units_Z 64
_cell_length_a 7.686419
_cell_length_b 20.857700
_cell_length_c 20.786439
_cell_angle_alpha 90.000000
_cell_angle_beta 90.000000
_cell_angle_gamma 90.000000
_cell_volume 3332.503135
_symmetry_space_group_name_H-M "P M M A"
_symmetry_group_IT_number 51
_symmetry_cell_setting 'orthorhombic'
loop_
_space_group_symop_operation_xyz
x,y,z
1/2-x,-y,z
1/2+x,-y,-z
-x,y,-z
-x,-y,-z
1/2+x,y,-z
1/2-x,y,z
x,-y,z
loop_
_atom_site_type_symbol
_atom_site_label
_atom_site_fract_x
_atom_site_fract_y
_atom_site_fract_z
Si Si1 0.956839 0.928207 0.074427
Si Si2 0.952811 0.569033 0.405918
Si Si3 0.538135 0.569063 0.744966
Si Si4 0.547123 0.293828 0.763898
Si Si5 0.036643 0.073438 0.309623
Si Si6 0.545144 0.704434 0.384834
Si Si7 0.043430 0.840673 0.191409
Si Si8 0.543515 0.157476 0.570184
O O1 0.750000 0.930634 0.080511
O O2 0.019691 0.873848 0.122861
O O3 0.026529 0.000000 0.090538
O O4 0.000000 0.915627 0.000000
O O5 0.750000 0.567858 0.425157
O O6 0.031030 0.500000 0.426695
O O7 0.025899 0.640126 0.420063
O O8 0.967979 0.568924 0.328057
O O9 0.750000 0.571691 0.740447
O O10 0.491419 0.500000 0.774194
O O11 0.475100 0.634912 0.777024
O O12 0.750000 0.296664 0.782035
O O13 0.536018 0.285976 0.686213
O O14 0.470257 0.230800 0.797413
O O15 0.250000 0.072730 0.309638
O O16 0.976432 0.111286 0.246386
O O17 0.978506 0.112713 0.372245
O O18 0.979326 0.000000 0.309869
O O19 0.750000 0.693234 0.374202
O O20 0.524611 0.770248 0.422610
O O21 0.250000 0.835362 0.203072
O O22 0.500000 0.131487 0.500000
O O23 0.750000 0.161677 0.576844
#
# Coordination Sequence:
#
# PCOD9399043 Si02
#       8
#     8   8   8   8   8   8   8   8
#     4  10  21  36  53  75 103 135 169 204 241 285
#     4   8  14  24  39  61  88 117 149 185 228 279
#     4   8  13  21  35  58  90 125 159 194 230 272
#     4   9  16  27  44  68  97 130 164 197 238 283
#     4   9  18  33  53  74  95 123 158 194 239 293
#     4  10  18  29  47  69  93 122 155 194 240 288
#     4  10  18  31  52  76 102 134 167 200 238 284
#     4  11  22  37  53  70  92 120 157 201 247 298
#
# _framework density 19.204784
#
# number of rings (size 3 to 8) (size 9 to 14) (size 15 to 20)
#    0.000    2.625    1.250    1.500    0.000    2.500 
#    0.000    0.000    0.000    2.250    0.000    0.000 
#    0.000    0.500    0.000    0.875    0.000    1.500 
#
# Total GULP energy -356736.795105 kJ/mol
# GULP energy per Si atom -5574.012424 kJ/mol
# Density = 1.916107 g / cm^3
# Si number density = 19.204784 Si / 1000 Ang^3
#
#
#
# Elastic Constant Matrix: (Units=GPa)
#
#
# Indices 1 2 3 4 5 6 
#
# 1 37.2479 6.9006 -8.4963 0.0000 0.0000 0.0000
# 2 6.9006 195.4245 67.8751 0.0000 0.0000 0.0000
# 3 -8.4963 67.8751 66.3817 0.0000 0.0000 0.0000
# 4 0.0000 0.0000 0.0000 408.7946 0.0000 0.0000
# 5 0.0000 0.0000 0.0000 0.0000 15.5289 0.0000
# 6 0.0000 0.0000 0.0000 0.0000 0.0000 4.7537
#
#
#
# Elastic Compliance Matrix: (Units=1/GPa)
#
#
# Indices 1 2 3 4 5 6 
#
# 1 0.029212 -0.003613 0.007433 0.000000 0.000000 0.000000
# 2 -0.003613 0.008382 -0.009033 0.000000 0.000000 0.000000
# 3 0.007433 -0.009033 0.025252 0.000000 0.000000 0.000000
# 4 0.000000 0.000000 0.000000 0.002446 0.000000 0.000000
# 5 0.000000 0.000000 0.000000 0.000000 0.064396 0.000000
# 6 0.000000 0.000000 0.000000 0.000000 0.000000 0.210361
#
#
# Mechanical properties :
#
#
# Convention : Reuss Voigt Hill
#
# Bulk Modulus (GPa) = 19.07653 47.95700 33.51676
# Shear Modulus (GPa) = 13.58886 101.33376 57.46131
#
# Velocity S-wave (km/s) = 2.66292 7.27182 5.47588
# Velocity P-wave (km/s) = 4.40563 9.77402 7.58093
#
# Compressibility (1/GPa) = 0.05242045
#
# Stress axis : x y z
#
# Youngs Moduli (GPa) = 34.23237 119.30276 39.60067
#
# Poissons Ratio (x) = 0.43108 -0.29437
# Poissons Ratio (y) = 0.12369 0.35772
# Poissons Ratio (z) = -0.25447 1.07767
#
# Static dielectric constant tensor:
#      x y z
#    x 1.722390 0.000000 0.000000 
#    y 0.000000 1.751810 0.000000 
#    z 0.000000 0.000000 1.630820 
# 
# From -- ./inp_files/28501.got.cif
#   From: 2010.05.17/outbox.cif.g08.bks.cpg/sg51_15_cif.got.tgz:28501.got - 2010.06.03 11:52:47.
