data_PCOD9399508
_publ_section_title
;
Structure prediction by ZEFSAII (Michael W. Deem and Ramdas Pophale) SiO2 
 PCOD9399508
Probable space group: P M M A
;
_chemical_formula_sum "Si O2"
_cell_formula_units_Z 52
_cell_length_a 7.831543
_cell_length_b 20.688149
_cell_length_c 15.086195
_cell_angle_alpha 90.000000
_cell_angle_beta 90.000000
_cell_angle_gamma 90.000000
_cell_volume 2444.267252
_symmetry_space_group_name_H-M "P M M A"
_symmetry_group_IT_number 51
_symmetry_cell_setting 'orthorhombic'
loop_
_space_group_symop_operation_xyz
x,y,z
1/2-x,-y,z
1/2+x,-y,-z
-x,y,-z
-x,-y,-z
1/2+x,y,-z
1/2-x,y,z
x,-y,z
loop_
_atom_site_type_symbol
_atom_site_label
_atom_site_fract_x
_atom_site_fract_y
_atom_site_fract_z
Si Si1 0.455350 0.335237 0.599069
Si Si2 0.955658 0.187708 0.399938
Si Si3 0.555145 0.892461 0.900580
Si Si4 0.545609 0.255809 0.098249
Si Si5 0.958788 0.623435 0.214440
Si Si6 0.051409 0.930449 0.713375
Si Si7 0.044060 0.500000 0.896619
O O1 0.500000 0.357092 0.500000
O O2 0.250000 0.333135 0.603130
O O3 0.519813 0.261232 0.611341
O O4 0.514023 0.376822 0.683156
O O5 0.750000 0.191581 0.389834
O O6 0.022918 0.133612 0.332500
O O7 0.000000 0.167967 0.500000
O O8 0.750000 0.911301 0.888702
O O9 0.536062 0.814693 0.892867
O O10 0.454522 0.922363 0.819081
O O11 0.500000 0.909986 0.000000
O O12 0.750000 0.246863 0.104647
O O13 0.491245 0.308616 0.169717
O O14 0.500000 0.280503 0.000000
O O15 0.750000 0.622224 0.212776
O O16 0.018296 0.563765 0.154913
O O17 0.250000 0.932154 0.686471
O O18 0.973839 0.000000 0.688982
O O19 0.250000 0.500000 0.890997
O O20 0.000000 0.500000 0.000000
#
# Coordination Sequence:
#
# PCOD9399508 Si02
#       7
#     8   8   8   8   8   8   4
#     4   9  17  32  52  75 101 132 171 214 258 303
#     4   9  18  33  54  78 105 135 169 212 261 310
#     4  11  22  36  54  76 102 133 171 218 268 316
#     4  10  18  31  51  76 103 132 168 212 261 312
#     4   9  18  32  53  76 104 142 177 210 255 310
#     4  10  21  37  55  75 102 138 176 213 257 311
#     4  10  20  36  55  78 108 144 181 214 253 304
#
# _framework density 21.274270000000001
#
# number of rings (size 3 to 8) (size 9 to 14) (size 15 to 20)
#    0.000    2.308    0.000    4.154    0.000    4.000 
#    0.000    6.538    0.000    0.000    0.000    0.000 
#    0.000    0.000    0.000    0.000    0.000    0.000 
#
# Total GULP energy -290303.396532 kJ/mol
# GULP energy per Si atom -5582.757626 kJ/mol
# Density = 2.122585 g / cm^3
# Si number density = 21.274270 Si / 1000 Ang^3
#
#
#
# Elastic Constant Matrix: (Units=GPa)
#
#
# Indices 1 2 3 4 5 6 
#
# 1 31.9141 -1.7212 -9.7051 0.0000 0.0000 0.0000
# 2 -1.7212 55.5799 58.2255 0.0000 0.0000 0.0000
# 3 -9.7051 58.2255 147.5718 0.0000 0.0000 0.0000
# 4 0.0000 0.0000 0.0000 13.4657 0.0000 0.0000
# 5 0.0000 0.0000 0.0000 0.0000 26.3252 0.0000
# 6 0.0000 0.0000 0.0000 0.0000 0.0000 1.3769
#
#
#
# Elastic Compliance Matrix: (Units=1/GPa)
#
#
# Indices 1 2 3 4 5 6 
#
# 1 0.032114 -0.002076 0.002931 0.000000 0.000000 0.000000
# 2 -0.002076 0.030803 -0.012290 0.000000 0.000000 0.000000
# 3 0.002931 -0.012290 0.011818 0.000000 0.000000 0.000000
# 4 0.000000 0.000000 0.000000 0.074263 0.000000 0.000000
# 5 0.000000 0.000000 0.000000 0.000000 0.037986 0.000000
# 6 0.000000 0.000000 0.000000 0.000000 0.000000 0.726279
#
#
# Mechanical properties :
#
#
# Convention : Reuss Voigt Hill
#
# Bulk Modulus (GPa) = 19.28101 36.51824 27.89962
# Shear Modulus (GPa) = 5.24427 20.78466 13.01446
#
# Velocity S-wave (km/s) = 1.57176 3.12907 2.47603
# Velocity P-wave (km/s) = 3.51805 5.50068 4.61704
#
# Compressibility (1/GPa) = 0.05186451
#
# Stress axis : x y z
#
# Youngs Moduli (GPa) = 31.13954 32.46452 84.61496
#
# Poissons Ratio (x) = 0.06740 -0.24802
# Poissons Ratio (y) = 0.06465 1.03992
# Poissons Ratio (z) = -0.09127 0.39899
#
# Static dielectric constant tensor:
#      x y z
#    x 1.789460 0.000000 0.000000 
#    y 0.000000 1.779450 0.000000 
#    z 0.000000 0.000000 1.768900 
# 
# From -- ./inp_files/21652.got.cif
#   From: 2010.05.17/outbox.cif.g08.bks.cpg/sg51_11_cif.got.tgz:21652.got - 2010.06.03 11:52:47.
