data_PCOD9399216
_publ_section_title
;
Structure prediction by ZEFSAII (Michael W. Deem and Ramdas Pophale) SiO2 
 PCOD9399216
Probable space group: P M M A
;
_chemical_formula_sum "Si O2"
_cell_formula_units_Z 36
_cell_length_a 9.232703
_cell_length_b 12.770094
_cell_length_c 20.513916
_cell_angle_alpha 90.000000
_cell_angle_beta 90.000000
_cell_angle_gamma 90.000000
_cell_volume 2418.641677
_symmetry_space_group_name_H-M "P M M A"
_symmetry_group_IT_number 51
_symmetry_cell_setting 'orthorhombic'
loop_
_space_group_symop_operation_xyz
x,y,z
1/2-x,-y,z
1/2+x,-y,-z
-x,y,-z
-x,-y,-z
1/2+x,y,-z
1/2-x,y,z
x,-y,z
loop_
_atom_site_type_symbol
_atom_site_label
_atom_site_fract_x
_atom_site_fract_y
_atom_site_fract_z
Si Si1 0.926502 0.378741 0.207237
Si Si2 0.575405 0.292659 0.345714
Si Si3 0.576825 0.500000 0.430220
Si Si4 0.078787 0.876135 0.431612
Si Si5 0.582399 0.372424 0.064520
O O1 0.750000 0.379817 0.205028
O O2 0.971360 0.500000 0.215946
O O3 0.967841 0.314223 0.270914
O O4 0.975471 0.340280 0.135878
O O5 0.750000 0.278330 0.348165
O O6 0.541375 0.396501 0.388236
O O7 0.494279 0.195047 0.377011
O O8 0.750000 0.500000 0.440099
O O9 0.500000 0.500000 0.500000
O O10 0.250000 0.854829 0.437166
O O11 0.000000 0.852194 0.500000
O O12 0.059710 0.000000 0.418790
O O13 0.750000 0.341757 0.059476
O O14 0.577924 0.500000 0.065558
O O15 0.500000 0.336918 0.000000
#
# Coordination Sequence:
#
# PCOD9399216 Si02
#       5
#     8   8   4   8   8
#     4   8  13  24  41  60  85 117 148 174 208 253
#     4  10  18  30  48  67  88 115 147 180 215 260
#     4  10  20  30  42  62  87 114 142 174 211 254
#     4  10  21  36  51  66  85 110 143 184 227 266
#     4   8  13  21  35  54  78 111 147 178 204 238
#
# _framework density 14.884388
#
# number of rings (size 3 to 8) (size 9 to 14) (size 15 to 20)
#    0.000    2.889    1.111    2.667    0.000    4.000 
#    0.000    1.111    0.000    1.333    0.000    0.000 
#    0.000    0.889    0.000    2.000    0.000    3.556 
#
# Total GULP energy -200473.410395 kJ/mol
# GULP energy per Si atom -5568.705844 kJ/mol
# Density = 1.485051 g / cm^3
# Si number density = 14.884388 Si / 1000 Ang^3
#
#
#
# Elastic Constant Matrix: (Units=GPa)
#
#
# Indices 1 2 3 4 5 6 
#
# 1 37.7974 30.5752 56.1866 0.0000 0.0000 0.0000
# 2 30.5752 40.0020 54.5267 0.0000 0.0000 0.0000
# 3 56.1866 54.5267 180.2027 0.0000 0.0000 0.0000
# 4 0.0000 0.0000 0.0000 13.7061 0.0000 0.0000
# 5 0.0000 0.0000 0.0000 0.0000 24.4669 0.0000
# 6 0.0000 0.0000 0.0000 0.0000 0.0000 19.6661
#
#
#
# Elastic Compliance Matrix: (Units=1/GPa)
#
#
# Indices 1 2 3 4 5 6 
#
# 1 0.080392 -0.046429 -0.011017 0.000000 0.000000 0.000000
# 2 -0.046429 0.069363 -0.006512 0.000000 0.000000 0.000000
# 3 -0.011017 -0.006512 0.010955 0.000000 0.000000 0.000000
# 4 0.000000 0.000000 0.000000 0.072960 0.000000 0.000000
# 5 0.000000 0.000000 0.000000 0.000000 0.040872 0.000000
# 6 0.000000 0.000000 0.000000 0.000000 0.000000 0.050849
#
#
# Mechanical properties :
#
#
# Convention : Reuss Voigt Hill
#
# Bulk Modulus (GPa) = 30.49432 60.06433 45.27932
# Shear Modulus (GPa) = 10.77038 19.34873 15.05955
#
# Velocity S-wave (km/s) = 2.69290 3.60937 3.18428
# Velocity P-wave (km/s) = 5.49554 7.60339 6.63372
#
# Compressibility (1/GPa) = 0.03279299
#
# Stress axis : x y z
#
# Youngs Moduli (GPa) = 12.43911 14.41700 91.28530
#
# Poissons Ratio (x) = 0.66937 1.00569
# Poissons Ratio (y) = 0.57754 0.59441
# Poissons Ratio (z) = 0.13704 0.09388
#
# Static dielectric constant tensor:
#      x y z
#    x 1.496690 0.000000 0.000000 
#    y 0.000000 1.471070 0.000000 
#    z 0.000000 0.000000 1.513230 
# 
# From -- ./inp_files/31296.got.cif
#   From: 2010.05.17/outbox.cif.g08.bks.cpg/sg51_16_cif.got.tgz:31296.got - 2010.06.03 11:52:47.
