data_PCOD9399988
_publ_section_title
;
Structure prediction by ZEFSAII (Michael W. Deem and Ramdas Pophale) SiO2 
 PCOD9399988
Probable space group: P M M A
;
_chemical_formula_sum "Si O2"
_cell_formula_units_Z 56
_cell_length_a 9.004331
_cell_length_b 18.139752
_cell_length_c 23.757316
_cell_angle_alpha 90.000000
_cell_angle_beta 90.000000
_cell_angle_gamma 90.000000
_cell_volume 3880.432836
_symmetry_space_group_name_H-M "P M M A"
_symmetry_group_IT_number 51
_symmetry_cell_setting 'orthorhombic'
loop_
_space_group_symop_operation_xyz
x,y,z
1/2-x,-y,z
1/2+x,-y,-z
-x,y,-z
-x,-y,-z
1/2+x,y,-z
1/2-x,y,z
x,-y,z
loop_
_atom_site_type_symbol
_atom_site_label
_atom_site_fract_x
_atom_site_fract_y
_atom_site_fract_z
Si Si1 0.420872 0.306676 0.763904
Si Si2 0.929063 0.196375 0.143375
Si Si3 0.923493 0.686789 0.940498
Si Si4 0.575278 0.911396 0.940248
Si Si5 0.572096 0.585901 0.675588
Si Si6 0.085024 0.416033 0.869760
Si Si7 0.919168 0.410961 0.443626
O O1 0.250000 0.297299 0.744760
O O2 0.469709 0.229772 0.794590
O O3 0.513500 0.349793 0.716752
O O4 0.420616 0.364615 0.815445
O O5 0.750000 0.193592 0.141587
O O6 0.993017 0.256427 0.100099
O O7 0.997824 0.123098 0.115199
O O8 0.750000 0.701844 0.942799
O O9 0.959623 0.608034 0.913005
O O10 0.000000 0.691685 0.000000
O O11 0.750000 0.891433 0.941385
O O12 0.563465 0.000000 0.938154
O O13 0.500000 0.887501 0.000000
O O14 0.750000 0.586216 0.675419
O O15 0.525672 0.500000 0.690074
O O16 0.509185 0.602566 0.613461
O O17 0.250000 0.405713 0.895809
O O18 0.070130 0.500000 0.852390
O O19 0.750000 0.383836 0.439579
O O20 0.912153 0.500000 0.448561
O O21 0.000000 0.383402 0.500000
#
# Coordination Sequence:
#
# PCOD9399988 Si02
#       7
#     8   8   8   8   8   8   8
#     4   9  18  31  45  60  78 104 136 168 205 246
#     4  10  20  34  49  64  84 108 134 164 200 243
#     4  11  21  32  45  59  76  98 126 159 198 244
#     4  10  20  33  50  72  94 113 134 162 199 245
#     4  10  19  28  40  60  84 110 143 182 219 255
#     4   9  18  32  46  58  74  96 125 164 207 248
#     4   9  16  26  40  57  79 107 139 177 220 261
#
# _framework density 14.431379
#
# number of rings (size 3 to 8) (size 9 to 14) (size 15 to 20)
#    0.000    2.286    0.000    4.714    0.000    7.429 
#    0.000    0.000    0.000    0.000    0.000    0.000 
#    0.000    0.000    0.000    0.000    0.000    0.714 
#
# Total GULP energy -311748.892644 kJ/mol
# GULP energy per Si atom -5566.944511 kJ/mol
# Density = 1.439853 g / cm^3
# Si number density = 14.431379 Si / 1000 Ang^3
#
#
#
# Elastic Constant Matrix: (Units=GPa)
#
#
# Indices 1 2 3 4 5 6 
#
# 1 78.6635 23.6016 46.2809 0.0000 0.0000 0.0000
# 2 23.6016 41.2735 21.1703 0.0000 0.0000 0.0000
# 3 46.2809 21.1703 79.7043 0.0000 0.0000 0.0000
# 4 0.0000 0.0000 0.0000 14.4911 0.0000 0.0000
# 5 0.0000 0.0000 0.0000 0.0000 25.4498 0.0000
# 6 0.0000 0.0000 0.0000 0.0000 0.0000 19.9062
#
#
#
# Elastic Compliance Matrix: (Units=1/GPa)
#
#
# Indices 1 2 3 4 5 6 
#
# 1 0.020746 -0.006581 -0.010298 0.000000 0.000000 0.000000
# 2 -0.006581 0.030138 -0.004184 0.000000 0.000000 0.000000
# 3 -0.010298 -0.004184 0.019637 0.000000 0.000000 0.000000
# 4 0.000000 0.000000 0.000000 0.069008 0.000000 0.000000
# 5 0.000000 0.000000 0.000000 0.000000 0.039293 0.000000
# 6 0.000000 0.000000 0.000000 0.000000 0.000000 0.050236
#
#
# Mechanical properties :
#
#
# Convention : Reuss Voigt Hill
#
# Bulk Modulus (GPa) = 35.21710 42.41629 38.81670
# Shear Modulus (GPa) = 17.81593 19.20866 18.51229
#
# Velocity S-wave (km/s) = 3.51740 3.65229 3.58548
# Velocity P-wave (km/s) = 6.39939 6.87322 6.64053
#
# Compressibility (1/GPa) = 0.02839530
#
# Stress axis : x y z
#
# Youngs Moduli (GPa) = 48.20276 33.18099 50.92343
#
# Poissons Ratio (x) = 0.21836 0.52442
# Poissons Ratio (y) = 0.31722 0.21305
# Poissons Ratio (z) = 0.49640 0.13882
#
# Static dielectric constant tensor:
#      x y z
#    x 1.500860 0.000000 0.000000 
#    y 0.000000 1.512460 0.000000 
#    z 0.000000 0.000000 1.467200 
# 
# From -- ./inp_files/32222.got.cif
#   From: 2010.05.17/outbox.cif.g08.bks.cpg/sg51_17_cif.got.tgz:32222.got - 2010.06.03 11:52:47.
