data_PCOD9399510
_publ_section_title
;
Structure prediction by ZEFSAII (Michael W. Deem and Ramdas Pophale) SiO2 
 PCOD9399510
Probable space group: P M M A
;
_chemical_formula_sum "Si O2"
_cell_formula_units_Z 64
_cell_length_a 17.889002
_cell_length_b 20.900781
_cell_length_c 8.651875
_cell_angle_alpha 90.000000
_cell_angle_beta 90.000000
_cell_angle_gamma 90.000000
_cell_volume 3234.885130
_symmetry_space_group_name_H-M "P M M A"
_symmetry_group_IT_number 51
_symmetry_cell_setting 'orthorhombic'
loop_
_space_group_symop_operation_xyz
x,y,z
1/2-x,-y,z
1/2+x,-y,-z
-x,y,-z
-x,-y,-z
1/2+x,y,-z
1/2-x,y,z
x,-y,z
loop_
_atom_site_type_symbol
_atom_site_label
_atom_site_fract_x
_atom_site_fract_y
_atom_site_fract_z
Si Si1 0.009992 0.929765 0.684814
Si Si2 0.666904 0.765082 0.539147
Si Si3 0.540817 0.792432 0.778920
Si Si4 0.162361 0.376655 0.568574
Si Si5 0.385797 0.762967 0.894339
Si Si6 0.169400 0.124021 0.710829
Si Si7 0.162614 0.423622 0.238027
Si Si8 0.837182 0.619812 0.094616
O O1 0.097952 0.920872 0.717461
O O2 0.000000 0.925496 0.500000
O O3 0.969865 0.868620 0.758478
O O4 0.984098 0.000000 0.736207
O O5 0.750000 0.762752 0.614979
O O6 0.596770 0.766209 0.651241
O O7 0.662469 0.700671 0.437883
O O8 0.664143 0.829802 0.439308
O O9 0.457629 0.762724 0.778534
O O10 0.578157 0.776947 0.940833
O O11 0.250000 0.397007 0.567941
O O12 0.130313 0.398873 0.402206
O O13 0.131186 0.399728 0.735275
O O14 0.336757 0.823303 0.845710
O O15 0.343521 0.696432 0.903471
O O16 0.250000 0.091847 0.711738
O O17 0.250000 0.401352 0.236441
O O18 0.161751 0.500000 0.242365
O O19 0.129936 0.402495 0.070930
O O20 0.750000 0.599687 0.094118
#
# Coordination Sequence:
#
# PCOD9399510 Si02
#       8
#     8   8   8   8   8   8   8   8
#     4  10  20  36  57  78 106 146 185 221 267 324
#     4  10  18  31  52  78 106 133 171 222 280 335
#     4  10  21  35  51  80 108 139 177 220 272 328
#     4   9  17  29  47  73 103 136 175 222 277 330
#     4  10  20  33  51  77 111 138 174 223 279 339
#     4  10  19  33  54  80 107 136 175 227 276 324
#     4   9  18  30  45  71 108 149 189 225 269 329
#     4  10  18  31  51  76 108 144 183 231 285 333
#
# _framework density 19.784319
#
# number of rings (size 3 to 8) (size 9 to 14) (size 15 to 20)
#    0.000    2.250    2.500    1.125    0.000    2.750 
#    0.000    7.500    0.000    0.375    0.000    7.000 
#    0.000   10.000    0.000    0.000    0.000    0.000 
#
# Total GULP energy -356518.836075 kJ/mol
# GULP energy per Si atom -5570.606814 kJ/mol
# Density = 1.973929 g / cm^3
# Si number density = 19.784319 Si / 1000 Ang^3
#
#
#
# Elastic Constant Matrix: (Units=GPa)
#
#
# Indices 1 2 3 4 5 6 
#
# 1 44.9865 -8.5165 16.6248 0.0000 0.0000 0.0000
# 2 -8.5165 43.0662 19.9811 0.0000 0.0000 0.0000
# 3 16.6248 19.9811 118.7568 0.0000 0.0000 0.0000
# 4 0.0000 0.0000 0.0000 29.4711 0.0000 0.0000
# 5 0.0000 0.0000 0.0000 0.0000 17.0206 0.0000
# 6 0.0000 0.0000 0.0000 0.0000 0.0000 5.8509
#
#
#
# Elastic Compliance Matrix: (Units=1/GPa)
#
#
# Indices 1 2 3 4 5 6 
#
# 1 0.025358 0.007226 -0.004766 0.000000 0.000000 0.000000
# 2 0.007226 0.027245 -0.005596 0.000000 0.000000 0.000000
# 3 -0.004766 -0.005596 0.010029 0.000000 0.000000 0.000000
# 4 0.000000 0.000000 0.000000 0.033932 0.000000 0.000000
# 5 0.000000 0.000000 0.000000 0.000000 0.058752 0.000000
# 6 0.000000 0.000000 0.000000 0.000000 0.000000 0.170915
#
#
# Mechanical properties :
#
#
# Convention : Reuss Voigt Hill
#
# Bulk Modulus (GPa) = 17.74267 29.22089 23.48178
# Shear Modulus (GPa) = 14.23329 22.38320 18.30825
#
# Velocity S-wave (km/s) = 2.68512 3.36722 3.04533
# Velocity P-wave (km/s) = 4.31285 5.46986 4.92544
#
# Compressibility (1/GPa) = 0.05636131
#
# Stress axis : x y z
#
# Youngs Moduli (GPa) = 39.43539 36.70380 99.70908
#
# Poissons Ratio (x) = -0.26521 0.47517
# Poissons Ratio (y) = -0.28495 0.55793
# Poissons Ratio (z) = 0.18793 0.20538
#
# Static dielectric constant tensor:
#      x y z
#    x 1.690900 0.000000 0.000000 
#    y 0.000000 1.666750 0.000000 
#    z 0.000000 0.000000 1.746180 
# 
# From -- ./inp_files/11256.got.cif
#   From: 2010.05.17/outbox.cif.g08.bks.cpg/sg51_6_cif.got.tgz:11256.got - 2010.06.03 11:52:47.
