data_PCOD9399333
_publ_section_title
;
Structure prediction by ZEFSAII (Michael W. Deem and Ramdas Pophale) SiO2 
 PCOD9399333
Probable space group: P M M A
;
_chemical_formula_sum "Si O2"
_cell_formula_units_Z 56
_cell_length_a 16.592823
_cell_length_b 14.875485
_cell_length_c 13.050949
_cell_angle_alpha 90.000000
_cell_angle_beta 90.000000
_cell_angle_gamma 90.000000
_cell_volume 3221.317318
_symmetry_space_group_name_H-M "P M M A"
_symmetry_group_IT_number 51
_symmetry_cell_setting 'orthorhombic'
loop_
_space_group_symop_operation_xyz
x,y,z
1/2-x,-y,z
1/2+x,-y,-z
-x,y,-z
-x,-y,-z
1/2+x,y,-z
1/2-x,y,z
x,-y,z
loop_
_atom_site_type_symbol
_atom_site_label
_atom_site_fract_x
_atom_site_fract_y
_atom_site_fract_z
Si Si1 0.157021 0.715019 0.508127
Si Si2 0.152881 0.395065 0.114413
Si Si3 0.652446 0.289902 0.086243
Si Si4 0.348056 0.900179 0.836390
Si Si5 0.923957 0.396242 0.669521
Si Si6 0.651948 0.900370 0.402675
Si Si7 0.885280 0.604113 0.293956
O O1 0.250000 0.719968 0.473315
O O2 0.105365 0.664153 0.423617
O O3 0.125369 0.815148 0.531990
O O4 0.155092 0.660301 0.614847
O O5 0.250000 0.389373 0.121197
O O6 0.131980 0.500000 0.096543
O O7 0.115222 0.367794 0.222712
O O8 0.124475 0.335889 0.018692
O O9 0.750000 0.288726 0.083130
O O10 0.624244 0.187303 0.102160
O O11 0.629539 0.348706 0.185186
O O12 0.250000 0.900173 0.839107
O O13 0.370802 0.889102 0.716732
O O14 0.374259 0.000000 0.870560
O O15 0.898964 0.500000 0.650046
O O16 0.019701 0.394476 0.681868
O O17 0.750000 0.898673 0.404317
O O18 0.626322 0.000000 0.436889
O O19 0.858502 0.500000 0.291884
#
# Coordination Sequence:
#
# PCOD9399333 Si02
#       7
#     8   8   8   8   8   8   8
#     4  11  20  32  53  76  97 125 163 205 244 284
#     4   9  18  33  52  72  95 126 165 203 235 278
#     4  10  18  30  50  77 101 121 156 208 253 282
#     4   8  13  24  44  71 101 125 149 190 245 299
#     4  10  22  37  49  65  97 141 175 194 228 292
#     4   8  14  26  46  73 100 122 150 193 245 295
#     4  11  22  33  47  71 102 131 159 200 252 295
#
# _framework density 17.384191999999999
#
# number of rings (size 3 to 8) (size 9 to 14) (size 15 to 20)
#    0.000    2.429    1.429    3.000    0.000    4.857 
#    0.000    2.143    0.000    3.429    0.000    5.000 
#    0.000    0.000    0.000    0.000    0.000    0.000 
#
# Total GULP energy -312302.342269 kJ/mol
# GULP energy per Si atom -5576.827541 kJ/mol
# Density = 1.734462 g / cm^3
# Si number density = 17.384192 Si / 1000 Ang^3
#
#
#
# Elastic Constant Matrix: (Units=GPa)
#
#
# Indices 1 2 3 4 5 6 
#
# 1 14.7974 12.5899 13.0215 0.0000 0.0000 0.0000
# 2 12.5899 132.5590 65.1352 0.0000 0.0000 0.0000
# 3 13.0215 65.1352 93.4542 0.0000 0.0000 0.0000
# 4 0.0000 0.0000 0.0000 15.6249 0.0000 0.0000
# 5 0.0000 0.0000 0.0000 0.0000 10.5095 0.0000
# 6 0.0000 0.0000 0.0000 0.0000 0.0000 1.7333
#
#
#
# Elastic Compliance Matrix: (Units=1/GPa)
#
#
# Indices 1 2 3 4 5 6 
#
# 1 0.077874 -0.003140 -0.008662 0.000000 0.000000 0.000000
# 2 -0.003140 0.011600 -0.007647 0.000000 0.000000 0.000000
# 3 -0.008662 -0.007647 0.017237 0.000000 0.000000 0.000000
# 4 0.000000 0.000000 0.000000 0.064000 0.000000 0.000000
# 5 0.000000 0.000000 0.000000 0.000000 0.095152 0.000000
# 6 0.000000 0.000000 0.000000 0.000000 0.000000 0.576938
#
#
# Mechanical properties :
#
#
# Convention : Reuss Voigt Hill
#
# Bulk Modulus (GPa) = 14.74661 46.92265 30.83463
# Shear Modulus (GPa) = 5.52912 15.57780 10.55346
#
# Velocity S-wave (km/s) = 1.78534 2.99672 2.46656
# Velocity P-wave (km/s) = 3.57087 6.24692 5.08798
#
# Compressibility (1/GPa) = 0.06781219
#
# Stress axis : x y z
#
# Youngs Moduli (GPa) = 12.84131 86.21017 58.01391
#
# Poissons Ratio (x) = 0.27068 0.50253
# Poissons Ratio (y) = 0.04032 0.44364
# Poissons Ratio (z) = 0.11124 0.65926
#
# Static dielectric constant tensor:
#      x y z
#    x 1.595210 0.000000 0.000000 
#    y 0.000000 1.614710 0.000000 
#    z 0.000000 0.000000 1.560250 
# 
# From -- ./inp_files/16572.got.cif
#   From: 2010.05.17/outbox.cif.g08.bks.cpg/sg51_9_cif.got.tgz:16572.got - 2010.06.03 11:52:47.
