data_PCOD9399037
_publ_section_title
;
Structure prediction by ZEFSAII (Michael W. Deem and Ramdas Pophale) SiO2 
 PCOD9399037
Probable space group: P M M A
;
_chemical_formula_sum "Si O2"
_cell_formula_units_Z 64
_cell_length_a 30.748146
_cell_length_b 7.829785
_cell_length_c 14.481393
_cell_angle_alpha 90.000000
_cell_angle_beta 90.000000
_cell_angle_gamma 90.000000
_cell_volume 3486.415238
_symmetry_space_group_name_H-M "P M M A"
_symmetry_group_IT_number 51
_symmetry_cell_setting 'orthorhombic'
loop_
_space_group_symop_operation_xyz
x,y,z
1/2-x,-y,z
1/2+x,-y,-z
-x,y,-z
-x,-y,-z
1/2+x,y,-z
1/2-x,y,z
x,-y,z
loop_
_atom_site_type_symbol
_atom_site_label
_atom_site_fract_x
_atom_site_fract_y
_atom_site_fract_z
Si Si1 0.149093 0.196029 0.669762
Si Si2 0.931992 0.704288 0.454027
Si Si3 0.120494 0.206524 0.375736
Si Si4 0.578804 0.804883 0.802088
Si Si5 0.503449 0.697259 0.306348
Si Si6 0.085179 0.798661 0.812645
Si Si7 0.299070 0.790371 0.501184
Si Si8 0.549313 0.698057 0.999591
O O1 0.106679 0.205193 0.602975
O O2 0.129818 0.267206 0.765439
O O3 0.186038 0.271247 0.603228
O O4 0.161773 0.000000 0.687204
O O5 0.928805 0.500000 0.439750
O O6 0.920180 0.740639 0.559571
O O7 0.976816 0.755981 0.404523
O O8 0.113581 0.267276 0.271132
O O9 0.164331 0.264608 0.427495
O O10 0.120833 0.000000 0.373161
O O11 0.534416 0.800701 0.742435
O O12 0.569230 0.713317 0.897925
O O13 0.589992 0.000000 0.824710
O O14 0.489319 0.500000 0.314118
O O15 0.544809 0.707546 0.237402
O O16 0.081983 0.000000 0.789872
O O17 0.078941 0.779322 0.921360
O O18 0.250000 0.739088 0.479493
O O19 0.300505 0.000000 0.502656
O O20 0.545278 0.500000 0.025154
O O21 0.500000 0.771748 0.000000
#
# Coordination Sequence:
#
# PCOD9399037 Si02
#       8
#     8   8   8   8   8   8   8   8
#     4   8  15  27  44  70  98 121 149 185 223 270
#     4   9  17  28  44  63  87 122 157 188 226 268
#     4   9  19  33  46  66  94 120 153 192 228 273
#     4  11  22  33  46  63  87 121 159 199 236 271
#     4  10  19  30  43  63  89 119 159 198 229 268
#     4  10  18  29  47  67  91 122 155 193 235 275
#     4   8  13  26  51  77  99 122 146 177 223 277
#     4  11  22  34  48  66  89 118 158 206 240 271
#
# _framework density 18.356966
#
# number of rings (size 3 to 8) (size 9 to 14) (size 15 to 20)
#    0.000    2.500    1.250    2.625    0.000    4.000 
#    0.000    2.500    0.000    6.000    0.000    0.875 
#    0.000    7.000    0.000    0.000    0.000    0.000 
#
# Total GULP energy -356675.586954 kJ/mol
# GULP energy per Si atom -5573.056046 kJ/mol
# Density = 1.831518 g / cm^3
# Si number density = 18.356966 Si / 1000 Ang^3
#
#
#
# Elastic Constant Matrix: (Units=GPa)
#
#
# Indices 1 2 3 4 5 6 
#
# 1 78.1359 -1.2713 42.5227 0.0000 0.0000 0.0000
# 2 -1.2713 32.9456 2.0782 0.0000 0.0000 0.0000
# 3 42.5227 2.0782 128.3943 0.0000 0.0000 0.0000
# 4 0.0000 0.0000 0.0000 16.2850 0.0000 0.0000
# 5 0.0000 0.0000 0.0000 0.0000 19.1860 0.0000
# 6 0.0000 0.0000 0.0000 0.0000 0.0000 -18.3375
#
#
#
# Elastic Compliance Matrix: (Units=1/GPa)
#
#
# Indices 1 2 3 4 5 6 
#
# 1 0.015641 0.000931 -0.005195 0.000000 0.000000 0.000000
# 2 0.000931 0.030440 -0.000801 0.000000 0.000000 0.000000
# 3 -0.005195 -0.000801 0.009522 0.000000 0.000000 0.000000
# 4 0.000000 0.000000 0.000000 0.061406 0.000000 0.000000
# 5 0.000000 0.000000 0.000000 0.000000 0.052121 0.000000
# 6 0.000000 0.000000 0.000000 0.000000 0.000000 -0.054533
#
#
# Mechanical properties :
#
#
# Convention : Reuss Voigt Hill
#
# Bulk Modulus (GPa) = 21.99142 36.23722 29.11432
# Shear Modulus (GPa) = 35.74403 16.50314 26.12359
#
# Velocity S-wave (km/s) = 4.41746 3.00161 3.77648
# Velocity P-wave (km/s) = 6.16640 5.63880 5.90849
#
# Compressibility (1/GPa) = 0.04547228
#
# Stress axis : x y z
#
# Youngs Moduli (GPa) = 63.93623 32.85204 105.01984
#
# Poissons Ratio (x) = -0.03059 0.54558
# Poissons Ratio (y) = -0.05954 0.08413
# Poissons Ratio (z) = 0.33215 0.02632
#
# Static dielectric constant tensor:
#      x y z
#    x 1.638720 0.000000 0.000000 
#    y 0.000000 1.659440 0.000000 
#    z 0.000000 0.000000 1.671430 
# 
# From -- ./inp_files/26648.got.cif
#   From: 2010.05.17/outbox.cif.g08.bks.cpg/sg51_14_cif.got.tgz:26648.got - 2010.06.03 11:52:47.
