data_PCOD9399136
_publ_section_title
;
Structure prediction by ZEFSAII (Michael W. Deem and Ramdas Pophale) SiO2 
 PCOD9399136
Probable space group: P M M A
;
_chemical_formula_sum "Si O2"
_cell_formula_units_Z 28
_cell_length_a 19.767590
_cell_length_b 5.840358
_cell_length_c 9.042724
_cell_angle_alpha 90.000000
_cell_angle_beta 90.000000
_cell_angle_gamma 90.000000
_cell_volume 1043.980699
_symmetry_space_group_name_H-M "P M M A"
_symmetry_group_IT_number 51
_symmetry_cell_setting 'orthorhombic'
loop_
_space_group_symop_operation_xyz
x,y,z
1/2-x,-y,z
1/2+x,-y,-z
-x,y,-z
-x,-y,-z
1/2+x,y,-z
1/2-x,y,z
x,-y,z
loop_
_atom_site_type_symbol
_atom_site_label
_atom_site_fract_x
_atom_site_fract_y
_atom_site_fract_z
Si Si1 0.493775 0.500000 0.709063
Si Si2 0.138255 0.500000 0.416024
Si Si3 0.078708 0.000000 0.059516
Si Si4 0.330399 0.251805 0.698859
Si Si5 0.489710 0.000000 0.672654
Si Si6 0.114851 0.500000 0.086813
O O1 0.443701 0.500000 0.408330
O O2 0.459906 0.747379 0.703058
O O3 0.536320 0.500000 0.860008
O O4 0.161070 0.709269 0.520084
O O5 0.156810 0.500000 0.243278
O O6 0.118043 0.762032 0.025216
O O7 0.060751 0.000000 0.236033
O O8 0.000000 0.000000 0.000000
O O9 0.250000 0.247824 0.727535
O O10 0.352134 0.500000 0.763745
O O11 0.354649 0.000000 0.740660
O O12 0.500000 0.000000 0.500000
#
# Coordination Sequence:
#
# PCOD9399136 Si02
#       6
#     4   4   4   8   4   4
#     4   8  17  24  39  55  70  94 128 159 185 223
#     4   8  15  22  38  48  76  90 136 152 186 206
#     4  10  18  30  40  56  74  96 126 166 196 232
#     4   8  14  20  30  48  70  98 124 146 178 218
#     4  10  18  30  40  56  74  96 126 166 196 232
#     4   8  17  24  39  55  70  94 128 159 185 223
#
# _framework density 26.820421
#
# number of rings (size 3 to 8) (size 9 to 14) (size 15 to 20)
#    1.714    1.714    0.000    0.857    4.000    0.000 
#    0.000    0.000    0.000    0.000    0.000    0.000 
#    0.000    0.000    0.000    0.000    0.000   34.286 
#
# Total GULP energy -155962.859582 kJ/mol
# GULP energy per Si atom -5570.102128 kJ/mol
# Density = 2.675938 g / cm^3
# Si number density = 26.820421 Si / 1000 Ang^3
#
#
#
# Elastic Constant Matrix: (Units=GPa)
#
#
# Indices 1 2 3 4 5 6 
#
# 1 32.9713 72.0744 -9.7833 0.0000 0.0000 0.0000
# 2 72.0744 380.7399 49.4732 0.0000 0.0000 0.0000
# 3 -9.7833 49.4732 69.8796 0.0000 0.0000 0.0000
# 4 0.0000 0.0000 0.0000 44.1636 0.0000 0.0000
# 5 0.0000 0.0000 0.0000 0.0000 9.4359 0.0000
# 6 0.0000 0.0000 0.0000 0.0000 0.0000 58.7272
#
#
#
# Elastic Compliance Matrix: (Units=1/GPa)
#
#
# Indices 1 2 3 4 5 6 
#
# 1 0.073807 -0.016866 0.022274 0.000000 0.000000 0.000000
# 2 -0.016866 0.006747 -0.007138 0.000000 0.000000 0.000000
# 3 0.022274 -0.007138 0.022482 0.000000 0.000000 0.000000
# 4 0.000000 0.000000 0.000000 0.022643 0.000000 0.000000
# 5 0.000000 0.000000 0.000000 0.000000 0.105978 0.000000
# 6 0.000000 0.000000 0.000000 0.000000 0.000000 0.017028
#
#
# Mechanical properties :
#
#
# Convention : Reuss Voigt Hill
#
# Bulk Modulus (GPa) = 10.04257 78.56884 44.30570
# Shear Modulus (GPa) = 17.52315 47.25377 32.38846
#
# Velocity S-wave (km/s) = 2.55885 4.20200 3.47883
# Velocity P-wave (km/s) = 3.53310 7.27327 5.71766
#
# Compressibility (1/GPa) = 0.09957611
#
# Stress axis : x y z
#
# Youngs Moduli (GPa) = 13.54883 148.22060 44.47983
#
# Poissons Ratio (x) = 2.49989 -0.99074
# Poissons Ratio (y) = 0.22851 0.31749
# Poissons Ratio (z) = -0.30179 1.05797
#
# Static dielectric constant tensor:
#      x y z
#    x 2.233750 0.000000 0.000000 
#    y 0.000000 2.123950 0.000000 
#    z 0.000000 0.000000 2.249620 
# 
# From -- ./inp_files/18923.got.cif
#   From: 2010.05.17/outbox.cif.g08.bks.cpg/sg51_10_cif.got.tgz:18923.got - 2010.06.03 11:52:47.
