data_PCOD9399275
_publ_section_title
;
Structure prediction by ZEFSAII (Michael W. Deem and Ramdas Pophale) SiO2 
 PCOD9399275
Probable space group: P M M A
;
_chemical_formula_sum "Si O2"
_cell_formula_units_Z 40
_cell_length_a 8.443677
_cell_length_b 26.835581
_cell_length_c 9.503298
_cell_angle_alpha 90.000000
_cell_angle_beta 90.000000
_cell_angle_gamma 90.000000
_cell_volume 2153.361589
_symmetry_space_group_name_H-M "P M M A"
_symmetry_group_IT_number 51
_symmetry_cell_setting 'orthorhombic'
loop_
_space_group_symop_operation_xyz
x,y,z
1/2-x,-y,z
1/2+x,-y,-z
-x,y,-z
-x,-y,-z
1/2+x,y,-z
1/2-x,y,z
x,-y,z
loop_
_atom_site_type_symbol
_atom_site_label
_atom_site_fract_x
_atom_site_fract_y
_atom_site_fract_z
Si Si1 0.061702 0.000000 0.338501
Si Si2 0.941535 0.404114 0.340667
Si Si3 0.558652 0.500000 0.159928
Si Si4 0.058585 0.689821 0.840999
Si Si5 0.060033 0.104596 0.659836
Si Si6 0.941221 0.198300 0.158225
O O1 0.000000 0.000000 0.500000
O O2 0.000027 0.947889 0.277056
O O3 0.250000 0.000000 0.339777
O O4 0.750000 0.404153 0.342702
O O5 0.993331 0.451002 0.245752
O O6 0.995434 0.353183 0.264866
O O7 0.000000 0.408075 0.500000
O O8 0.750000 0.500000 0.156906
O O9 0.500000 0.500000 0.000000
O O10 0.250000 0.689004 0.843736
O O11 0.007534 0.745809 0.798634
O O12 0.000000 0.680503 0.000000
O O13 0.250000 0.103394 0.658648
O O14 0.003934 0.153091 0.744295
O O15 0.000000 0.107997 0.500000
O O16 0.750000 0.197852 0.159073
O O17 0.000000 0.190576 0.000000
#
# Coordination Sequence:
#
# PCOD9399275 Si02
#       6
#     4   8   4   8   8   8
#     4  10  18  30  49  72  97 128 164 202 244 294
#     4  10  21  35  52  76 107 136 169 211 255 299
#     4  10  21  36  54  78 104 136 175 214 252 300
#     4   9  18  34  53  74  99 131 169 208 248 298
#     4  10  19  32  50  73  99 128 162 203 247 295
#     4   9  19  34  52  73 100 131 165 205 250 296
#
# _framework density 18.575607000000002
#
# number of rings (size 3 to 8) (size 9 to 14) (size 15 to 20)
#    0.000    2.400    0.000    3.600    0.000    4.000 
#    0.000    0.500    0.000    0.000    0.000    0.000 
#    0.000    0.000    0.000    0.000    0.000    0.000 
#
# Total GULP energy -223144.341073 kJ/mol
# GULP energy per Si atom -5578.608527 kJ/mol
# Density = 1.853333 g / cm^3
# Si number density = 18.575607 Si / 1000 Ang^3
#
#
#
# Elastic Constant Matrix: (Units=GPa)
#
#
# Indices 1 2 3 4 5 6 
#
# 1 26.8802 32.0600 14.7328 0.0000 0.0000 0.0000
# 2 32.0600 212.7349 115.3589 0.0000 0.0000 0.0000
# 3 14.7328 115.3589 112.4491 0.0000 0.0000 0.0000
# 4 0.0000 0.0000 0.0000 41.1677 0.0000 0.0000
# 5 0.0000 0.0000 0.0000 0.0000 30.0952 0.0000
# 6 0.0000 0.0000 0.0000 0.0000 0.0000 -325.5592
#
#
#
# Elastic Compliance Matrix: (Units=1/GPa)
#
#
# Indices 1 2 3 4 5 6 
#
# 1 0.045646 -0.008195 0.002426 0.000000 0.000000 0.000000
# 2 -0.008195 0.012065 -0.011304 0.000000 0.000000 0.000000
# 3 0.002426 -0.011304 0.020172 0.000000 0.000000 0.000000
# 4 0.000000 0.000000 0.000000 0.024291 0.000000 0.000000
# 5 0.000000 0.000000 0.000000 0.000000 0.033228 0.000000
# 6 0.000000 0.000000 0.000000 0.000000 0.000000 -0.003072
#
#
# Mechanical properties :
#
#
# Convention : Reuss Voigt Hill
#
# Bulk Modulus (GPa) = 22.86326 75.15196 49.00761
# Shear Modulus (GPa) = 27.61600 -38.19842 -5.29121
#
# Velocity S-wave (km/s) = 3.85993 -4.53965 -1.68957
# Velocity P-wave (km/s) = 5.67454 3.61487 4.75750
#
# Compressibility (1/GPa) = 0.04373830
#
# Stress axis : x y z
#
# Youngs Moduli (GPa) = 21.90767 82.88128 49.57483
#
# Poissons Ratio (x) = 0.67920 -0.12029
# Poissons Ratio (y) = 0.17953 0.56039
# Poissons Ratio (z) = -0.05316 0.93689
#
# Static dielectric constant tensor:
#      x y z
#    x 1.632820 0.000000 0.000000 
#    y 0.000000 1.683620 0.000000 
#    z 0.000000 0.000000 1.592120 
# 
# From -- ./inp_files/5604.got.cif
#   From: 2010.05.17/outbox.cif.g08.bks.cpg/sg51_3_cif.got.tgz:5604.got - 2010.06.03 11:52:47.
