data_PCOD9399886
_publ_section_title
;
Structure prediction by ZEFSAII (Michael W. Deem and Ramdas Pophale) SiO2 
 PCOD9399886
Probable space group: P M M A
;
_chemical_formula_sum "Si O2"
_cell_formula_units_Z 64
_cell_length_a 31.636586
_cell_length_b 18.540912
_cell_length_c 5.193965
_cell_angle_alpha 90.000000
_cell_angle_beta 90.000000
_cell_angle_gamma 90.000000
_cell_volume 3046.630060
_symmetry_space_group_name_H-M "P M M A"
_symmetry_group_IT_number 51
_symmetry_cell_setting 'orthorhombic'
loop_
_space_group_symop_operation_xyz
x,y,z
1/2-x,-y,z
1/2+x,-y,-z
-x,y,-z
-x,-y,-z
1/2+x,y,-z
1/2-x,y,z
x,-y,z
loop_
_atom_site_type_symbol
_atom_site_label
_atom_site_fract_x
_atom_site_fract_y
_atom_site_fract_z
Si Si1 0.457719 0.281611 0.838195
Si Si2 0.700627 0.731818 0.148540
Si Si3 0.346583 0.781620 0.377088
Si Si4 0.565030 0.577576 0.420695
Si Si5 0.593999 0.080948 0.664869
Si Si6 0.042567 0.883750 0.828115
Si Si7 0.607088 0.345204 0.788444
Si Si8 0.840501 0.581322 0.165904
O O1 0.458921 0.351563 0.662710
O O2 0.457626 0.200116 0.742931
O O3 0.500000 0.285022 0.000000
O O4 0.415452 0.294581 0.003598
O O5 0.750000 0.735800 0.091971
O O6 0.686969 0.778622 0.394161
O O7 0.688941 0.649050 0.233035
O O8 0.674631 0.760290 0.898032
O O9 0.372423 0.855636 0.386922
O O10 0.378965 0.714073 0.419995
O O11 0.546721 0.500000 0.362682
O O12 0.572850 0.594028 0.719224
O O13 0.613478 0.579876 0.308325
O O14 0.557143 0.081294 0.442918
O O15 0.611915 0.000000 0.663605
O O16 0.576647 0.098380 0.950884
O O17 0.000000 0.899140 0.000000
O O18 0.646227 0.393322 0.879020
O O19 0.823397 0.500000 0.180625
#
# Coordination Sequence:
#
# PCOD9399886 Si02
#       8
#     8   8   8   8   8   8   8   8
#     4  10  22  36  53  79 116 163 213 261 310 362
#     4  11  23  40  65  94 124 161 198 248 311 371
#     4  11  22  41  66  89 124 157 206 251 292 375
#     4  10  19  33  54  79 112 156 210 263 311 352
#     4  12  25  42  68  97 126 165 209 253 308 370
#     4  11  24  41  63  94 134 171 208 258 313 367
#     4  10  18  34  58  79 108 161 208 254 300 358
#     4   9  19  33  53  84 117 152 196 249 304 362
#
# _framework density 21.006816000000001
#
# number of rings (size 3 to 8) (size 9 to 14) (size 15 to 20)
#    0.000    1.500    2.500    3.000    1.750    3.000 
#    0.000    0.625    0.000    3.750    0.000    0.000 
#    0.000    0.000    0.000    0.000    0.000    0.000 
#
# Total GULP energy -356440.021421 kJ/mol
# GULP energy per Si atom -5569.375335 kJ/mol
# Density = 2.095900 g / cm^3
# Si number density = 21.006816 Si / 1000 Ang^3
#
#
#
# Elastic Constant Matrix: (Units=GPa)
#
#
# Indices 1 2 3 4 5 6 
#
# 1 62.5152 44.4983 10.8912 0.0000 0.0000 0.0000
# 2 44.4983 152.9636 20.2126 0.0000 0.0000 0.0000
# 3 10.8912 20.2126 65.2502 0.0000 0.0000 0.0000
# 4 0.0000 0.0000 0.0000 -1.1268 0.0000 0.0000
# 5 0.0000 0.0000 0.0000 0.0000 26.4176 0.0000
# 6 0.0000 0.0000 0.0000 0.0000 0.0000 38.0530
#
#
#
# Elastic Compliance Matrix: (Units=1/GPa)
#
#
# Indices 1 2 3 4 5 6 
#
# 1 0.020338 -0.005701 -0.001629 0.000000 0.000000 0.000000
# 2 -0.005701 0.008415 -0.001655 0.000000 0.000000 0.000000
# 3 -0.001629 -0.001655 0.016110 0.000000 0.000000 0.000000
# 4 0.000000 0.000000 0.000000 -0.887491 0.000000 0.000000
# 5 0.000000 0.000000 0.000000 0.000000 0.037854 0.000000
# 6 0.000000 0.000000 0.000000 0.000000 0.000000 0.026279
#
#
# Mechanical properties :
#
#
# Convention : Reuss Voigt Hill
#
# Bulk Modulus (GPa) = 37.18430 47.99257 42.58843
# Shear Modulus (GPa) = -6.65282 26.34390 9.84554
#
# Velocity S-wave (km/s) = -1.78153 3.54512 2.16726
# Velocity P-wave (km/s) = 3.67528 6.29706 5.15561
#
# Compressibility (1/GPa) = 0.02689307
#
# Stress axis : x y z
#
# Youngs Moduli (GPa) = 49.16904 118.83907 62.07276
#
# Poissons Ratio (x) = 0.67753 0.10109
# Poissons Ratio (y) = 0.28033 0.10273
# Poissons Ratio (z) = 0.08008 0.19668
#
# Static dielectric constant tensor:
#      x y z
#    x 1.829380 0.000000 0.000000 
#    y 0.000000 1.792770 0.000000 
#    z 0.000000 0.000000 1.997400 
# 
# From -- ./inp_files/4093.got.cif
#   From: 2010.05.17/outbox.cif.g08.bks.cpg/sg51_3_cif.got.tgz:4093.got - 2010.06.03 11:52:47.
