data_PCOD9399939
_publ_section_title
;
Structure prediction by ZEFSAII (Michael W. Deem and Ramdas Pophale) SiO2 
 PCOD9399939
Probable space group: P M M A
;
_chemical_formula_sum "Si O2"
_cell_formula_units_Z 48
_cell_length_a 15.054227
_cell_length_b 17.317520
_cell_length_c 9.861227
_cell_angle_alpha 90.000000
_cell_angle_beta 90.000000
_cell_angle_gamma 90.000000
_cell_volume 2570.840390
_symmetry_space_group_name_H-M "P M M A"
_symmetry_group_IT_number 51
_symmetry_cell_setting 'orthorhombic'
loop_
_space_group_symop_operation_xyz
x,y,z
1/2-x,-y,z
1/2+x,-y,-z
-x,y,-z
-x,-y,-z
1/2+x,y,-z
1/2-x,y,z
x,-y,z
loop_
_atom_site_type_symbol
_atom_site_label
_atom_site_fract_x
_atom_site_fract_y
_atom_site_fract_z
Si Si1 0.896914 0.290252 0.533146
Si Si2 0.522127 0.913709 0.339977
Si Si3 0.644359 0.289950 0.977404
Si Si4 0.642208 0.411615 0.758496
Si Si5 0.351810 0.772244 0.742121
Si Si6 0.649541 0.839276 0.753171
O O1 0.884049 0.367076 0.621203
O O2 0.851592 0.283967 0.387463
O O3 0.861208 0.221148 0.628288
O O4 0.000000 0.278856 0.500000
O O5 0.500000 0.907501 0.500000
O O6 0.589480 0.846567 0.296074
O O7 0.428913 0.899849 0.263794
O O8 0.556663 0.000000 0.314278
O O9 0.750000 0.305081 0.994319
O O10 0.609408 0.360648 0.886510
O O11 0.636158 0.213255 0.886016
O O12 0.608872 0.271269 0.126481
O O13 0.750000 0.410609 0.762244
O O14 0.612322 0.500000 0.762622
O O15 0.250000 0.795721 0.771020
O O16 0.750000 0.870075 0.752114
#
# Coordination Sequence:
#
# PCOD9399939 Si02
#       6
#     8   8   8   8   8   8
#     4  11  19  33  55  82 111 145 191 232 268 325
#     4  11  23  37  54  85 115 141 184 234 286 333
#     4   8  18  33  56  82 106 144 190 229 271 332
#     4   9  18  35  57  82 113 151 190 229 279 335
#     4  11  20  36  57  82 112 147 188 231 279 329
#     4  10  18  36  57  78 107 146 193 230 269 330
#
# _framework density 18.670938
#
# number of rings (size 3 to 8) (size 9 to 14) (size 15 to 20)
#    0.000    2.000    3.333    2.500    0.000    1.667 
#    0.000    4.167    0.000    7.000    0.000    0.000 
#    0.000    0.000    0.000    0.000    0.000    0.000 
#
# Total GULP energy -267728.304127 kJ/mol
# GULP energy per Si atom -5577.673003 kJ/mol
# Density = 1.862844 g / cm^3
# Si number density = 18.670938 Si / 1000 Ang^3
#
#
#
# Elastic Constant Matrix: (Units=GPa)
#
#
# Indices 1 2 3 4 5 6 
#
# 1 69.0192 26.3800 12.0595 0.0000 0.0000 0.0000
# 2 26.3800 119.4488 58.1650 0.0000 0.0000 0.0000
# 3 12.0595 58.1650 139.8873 0.0000 0.0000 0.0000
# 4 0.0000 0.0000 0.0000 15.0566 0.0000 0.0000
# 5 0.0000 0.0000 0.0000 0.0000 -2.8445 0.0000
# 6 0.0000 0.0000 0.0000 0.0000 0.0000 20.5277
#
#
#
# Elastic Compliance Matrix: (Units=1/GPa)
#
#
# Indices 1 2 3 4 5 6 
#
# 1 0.015826 -0.003549 0.000112 0.000000 0.000000 0.000000
# 2 -0.003549 0.011293 -0.004390 0.000000 0.000000 0.000000
# 3 0.000112 -0.004390 0.008964 0.000000 0.000000 0.000000
# 4 0.000000 0.000000 0.000000 0.066416 0.000000 0.000000
# 5 0.000000 0.000000 0.000000 0.000000 -0.351556 0.000000
# 6 0.000000 0.000000 0.000000 0.000000 0.000000 0.048715
#
#
# Mechanical properties :
#
#
# Convention : Reuss Voigt Hill
#
# Bulk Modulus (GPa) = 48.95219 57.95158 53.45189
# Shear Modulus (GPa) = -28.10918 21.99803 -3.05558
#
# Velocity S-wave (km/s) = -3.88429 3.43621 -1.28066
# Velocity P-wave (km/s) = 2.48160 6.84464 5.14818
#
# Compressibility (1/GPa) = 0.02042809
#
# Stress axis : x y z
#
# Youngs Moduli (GPa) = 63.18776 88.54873 111.55437
#
# Poissons Ratio (x) = 0.31429 -0.01244
# Poissons Ratio (y) = 0.22428 0.48969
# Poissons Ratio (z) = -0.00705 0.38870
#
# Static dielectric constant tensor:
#      x y z
#    x 1.733040 0.000000 0.000000 
#    y 0.000000 1.626020 0.000000 
#    z 0.000000 0.000000 1.664160 
# 
# From -- ./inp_files/8200.got.cif
#   From: 2010.05.17/outbox.cif.g08.bks.cpg/sg51_5_cif.got.tgz:8200.got - 2010.06.03 11:52:47.
