data_PCOD9399667
_publ_section_title
;
Structure prediction by ZEFSAII (Michael W. Deem and Ramdas Pophale) SiO2 
 PCOD9399667
Probable space group: P M M A
;
_chemical_formula_sum "Si O2"
_cell_formula_units_Z 64
_cell_length_a 18.485097
_cell_length_b 7.878216
_cell_length_c 22.049998
_cell_angle_alpha 90.000000
_cell_angle_beta 90.000000
_cell_angle_gamma 90.000000
_cell_volume 3211.132101
_symmetry_space_group_name_H-M "P M M A"
_symmetry_group_IT_number 51
_symmetry_cell_setting 'orthorhombic'
loop_
_space_group_symop_operation_xyz
x,y,z
1/2-x,-y,z
1/2+x,-y,-z
-x,y,-z
-x,-y,-z
1/2+x,y,-z
1/2-x,y,z
x,-y,z
loop_
_atom_site_type_symbol
_atom_site_label
_atom_site_fract_x
_atom_site_fract_y
_atom_site_fract_z
Si Si1 0.105849 0.698410 0.253010
Si Si2 0.330898 0.697933 0.504250
Si Si3 0.569507 0.198918 0.389249
Si Si4 0.670251 0.292436 0.872739
Si Si5 0.042690 0.202280 0.808818
Si Si6 0.832606 0.792382 0.277894
Si Si7 0.906789 0.802498 0.613237
Si Si8 0.023357 0.294880 0.066014
O O1 0.121097 0.500000 0.261902
O O2 0.153242 0.761298 0.196292
O O3 0.116280 0.787305 0.317019
O O4 0.023178 0.718888 0.229852
O O5 0.250000 0.767501 0.513869
O O6 0.330510 0.500000 0.520605
O O7 0.389935 0.783973 0.547155
O O8 0.354385 0.715143 0.434621
O O9 0.622274 0.266981 0.336753
O O10 0.488517 0.271238 0.390830
O O11 0.559547 0.000000 0.374583
O O12 0.750000 0.238041 0.891880
O O13 0.668773 0.500000 0.872527
O O14 0.603420 0.235688 0.914103
O O15 0.119060 0.255364 0.780245
O O16 0.029519 0.246182 0.878865
O O17 0.036266 0.000000 0.801472
O O18 0.750000 0.732208 0.277394
O O19 0.829789 0.000000 0.279890
O O20 0.908644 0.000000 0.595525
O O21 0.025111 0.500000 0.064042
O O22 0.000000 0.232372 0.000000
#
# Coordination Sequence:
#
# PCOD9399667 Si02
#       8
#     8   8   8   8   8   8   8   8
#     4  10  19  32  53  79 107 140 173 214 268 319
#     4  11  25  41  54  75 108 143 180 224 276 327
#     4  10  20  37  59  80 103 136 181 225 267 325
#     4   8  15  29  50  75 102 136 177 215 254 306
#     4  10  18  32  53  78 107 138 177 217 256 313
#     4   9  17  31  53  79 106 138 174 215 265 318
#     4  11  22  37  58  83 106 136 181 224 270 328
#     4   9  18  33  53  77 105 140 181 221 266 319
#
# _framework density 19.930665999999999
#
# number of rings (size 3 to 8) (size 9 to 14) (size 15 to 20)
#    0.000    2.250    1.250    3.000    0.000    4.750 
#    0.000    1.875    0.000   12.000    0.000    0.000 
#    0.000    0.000    0.000    0.000    0.000    0.000 
#
# Total GULP energy -357247.685711 kJ/mol
# GULP energy per Si atom -5581.995089 kJ/mol
# Density = 1.988530 g / cm^3
# Si number density = 19.930666 Si / 1000 Ang^3
#
#
#
# Elastic Constant Matrix: (Units=GPa)
#
#
# Indices 1 2 3 4 5 6 
#
# 1 59.4888 4.2890 16.3972 0.0000 0.0000 0.0000
# 2 4.2890 22.1740 -5.5063 0.0000 0.0000 0.0000
# 3 16.3972 -5.5063 101.8765 0.0000 0.0000 0.0000
# 4 0.0000 0.0000 0.0000 32.4476 0.0000 0.0000
# 5 0.0000 0.0000 0.0000 0.0000 15.9230 0.0000
# 6 0.0000 0.0000 0.0000 0.0000 0.0000 9.7043
#
#
#
# Elastic Compliance Matrix: (Units=1/GPa)
#
#
# Indices 1 2 3 4 5 6 
#
# 1 0.017977 -0.004253 -0.003123 0.000000 0.000000 0.000000
# 2 -0.004253 0.046718 0.003210 0.000000 0.000000 0.000000
# 3 -0.003123 0.003210 0.010492 0.000000 0.000000 0.000000
# 4 0.000000 0.000000 0.000000 0.030819 0.000000 0.000000
# 5 0.000000 0.000000 0.000000 0.000000 0.062802 0.000000
# 6 0.000000 0.000000 0.000000 0.000000 0.000000 0.103047
#
#
# Mechanical properties :
#
#
# Convention : Reuss Voigt Hill
#
# Bulk Modulus (GPa) = 14.95808 23.76657 19.36232
# Shear Modulus (GPa) = 16.53039 22.83893 19.68466
#
# Velocity S-wave (km/s) = 2.88305 3.38882 3.14611
# Velocity P-wave (km/s) = 4.31323 5.22136 4.78887
#
# Compressibility (1/GPa) = 0.06685351
#
# Stress axis : x y z
#
# Youngs Moduli (GPa) = 55.62534 21.40522 95.31080
#
# Poissons Ratio (x) = 0.09103 0.29769
# Poissons Ratio (y) = 0.23657 -0.30590
# Poissons Ratio (z) = 0.17374 -0.06870
#
# Static dielectric constant tensor:
#      x y z
#    x 1.705080 0.000000 0.000000 
#    y 0.000000 1.734680 0.000000 
#    z 0.000000 0.000000 1.678920 
# 
# From -- ./inp_files/33822.got.cif
#   From: 2010.05.17/outbox.cif.g08.bks.cpg/sg51_17_cif.got.tgz:33822.got - 2010.06.03 11:52:47.
