data_PCOD9399608
_publ_section_title
;
Structure prediction by ZEFSAII (Michael W. Deem and Ramdas Pophale) SiO2 
 PCOD9399608
Probable space group: P M M A
;
_chemical_formula_sum "Si O2"
_cell_formula_units_Z 52
_cell_length_a 7.568955
_cell_length_b 15.528773
_cell_length_c 21.083939
_cell_angle_alpha 90.000000
_cell_angle_beta 90.000000
_cell_angle_gamma 90.000000
_cell_volume 2478.134168
_symmetry_space_group_name_H-M "P M M A"
_symmetry_group_IT_number 51
_symmetry_cell_setting 'orthorhombic'
loop_
_space_group_symop_operation_xyz
x,y,z
1/2-x,-y,z
1/2+x,-y,-z
-x,y,-z
-x,-y,-z
1/2+x,y,-z
1/2-x,y,z
x,-y,z
loop_
_atom_site_type_symbol
_atom_site_label
_atom_site_fract_x
_atom_site_fract_y
_atom_site_fract_z
Si Si1 0.551835 0.854033 0.925811
Si Si2 0.035030 0.399959 0.728465
Si Si3 0.959531 0.500000 0.072207
Si Si4 0.535824 0.326773 0.133412
Si Si5 0.536019 0.094184 0.790455
Si Si6 0.460076 0.773746 0.678862
Si Si7 0.462218 0.097198 0.572947
O O1 0.750000 0.887594 0.926172
O O2 0.542904 0.755238 0.902017
O O3 0.466301 0.897610 0.863087
O O4 0.500000 0.860884 0.000000
O O5 0.250000 0.405288 0.726234
O O6 0.973310 0.500000 0.724701
O O7 0.991939 0.352180 0.794666
O O8 0.973364 0.325029 0.680405
O O9 0.750000 0.500000 0.086912
O O10 0.028982 0.588262 0.098689
O O11 0.000000 0.500000 0.000000
O O12 0.750000 0.316899 0.129520
O O13 0.750000 0.097556 0.792583
O O14 0.481847 0.171865 0.744326
O O15 0.483253 0.000000 0.765010
O O16 0.250000 0.765900 0.669698
O O17 0.532890 0.833838 0.623012
O O18 0.500000 0.119543 0.500000
O O19 0.250000 0.094206 0.580341
O O20 0.529866 0.000000 0.584446
#
# Coordination Sequence:
#
# PCOD9399608 Si02
#       7
#     8   8   4   8   8   8   8
#     4  11  23  37  52  70  95 129 171 216 264 317
#     4   9  16  29  52  79 105 134 169 212 261 311
#     4  10  20  30  44  66  92 122 159 204 256 315
#     4  10  18  32  51  70  94 125 163 208 260 315
#     4  10  22  38  54  75 104 136 171 214 268 324
#     4  10  19  33  57  84 109 138 176 219 257 301
#     4   9  18  32  51  80 114 144 176 212 251 300
#
# _framework density 20.983528
#
# number of rings (size 3 to 8) (size 9 to 14) (size 15 to 20)
#    0.000    2.154    2.308    1.385    0.000    4.308 
#    0.000    1.538    0.000    1.846    0.000    0.000 
#    0.000    0.000    0.000    0.000    0.000    0.000 
#
# Total GULP energy -289716.905278 kJ/mol
# GULP energy per Si atom -5571.478948 kJ/mol
# Density = 2.093577 g / cm^3
# Si number density = 20.983528 Si / 1000 Ang^3
#
#
#
# Elastic Constant Matrix: (Units=GPa)
#
#
# Indices 1 2 3 4 5 6 
#
# 1 45.4684 -4.4834 -0.1181 0.0000 0.0000 0.0000
# 2 -4.4834 150.5115 65.8936 0.0000 0.0000 0.0000
# 3 -0.1181 65.8936 115.1189 0.0000 0.0000 0.0000
# 4 0.0000 0.0000 0.0000 35.0623 0.0000 0.0000
# 5 0.0000 0.0000 0.0000 0.0000 -28.1345 0.0000
# 6 0.0000 0.0000 0.0000 0.0000 0.0000 9.1743
#
#
#
# Elastic Compliance Matrix: (Units=1/GPa)
#
#
# Indices 1 2 3 4 5 6 
#
# 1 0.022077 0.000864 -0.000472 0.000000 0.000000 0.000000
# 2 0.000864 0.008900 -0.005093 0.000000 0.000000 0.000000
# 3 -0.000472 -0.005093 0.011601 0.000000 0.000000 0.000000
# 4 0.000000 0.000000 0.000000 0.028521 0.000000 0.000000
# 5 0.000000 0.000000 0.000000 0.000000 -0.035544 0.000000
# 6 0.000000 0.000000 0.000000 0.000000 0.000000 0.109000
#
#
# Mechanical properties :
#
#
# Convention : Reuss Voigt Hill
#
# Bulk Modulus (GPa) = 30.14184 48.18697 39.16441
# Shear Modulus (GPa) = 30.30011 19.87421 25.08716
#
# Velocity S-wave (km/s) = 3.80412 3.08089 3.46144
# Velocity P-wave (km/s) = 5.80438 5.97243 5.88900
#
# Compressibility (1/GPa) = 0.03317647
#
# Stress axis : x y z
#
# Youngs Moduli (GPa) = 45.29537 112.36546 86.19579
#
# Poissons Ratio (x) = -0.09712 0.04069
# Poissons Ratio (y) = -0.03915 0.43901
# Poissons Ratio (z) = 0.02138 0.57230
#
# Static dielectric constant tensor:
#      x y z
#    x 1.568190 0.000000 0.000000 
#    y 0.000000 1.791990 0.000000 
#    z 0.000000 0.000000 1.764760 
# 
# From -- ./inp_files/31743.got.cif
#   From: 2010.05.17/outbox.cif.g08.bks.cpg/sg51_16_cif.got.tgz:31743.got - 2010.06.03 11:52:47.
