data_PCOD9399806
_publ_section_title
;
Structure prediction by ZEFSAII (Michael W. Deem and Ramdas Pophale) SiO2 
 PCOD9399806
Probable space group: P M M A
;
_chemical_formula_sum "Si O2"
_cell_formula_units_Z 64
_cell_length_a 20.775118
_cell_length_b 17.158997
_cell_length_c 10.193386
_cell_angle_alpha 90.000000
_cell_angle_beta 90.000000
_cell_angle_gamma 90.000000
_cell_volume 3633.740152
_symmetry_space_group_name_H-M "P M M A"
_symmetry_group_IT_number 51
_symmetry_cell_setting 'orthorhombic'
loop_
_space_group_symop_operation_xyz
x,y,z
1/2-x,-y,z
1/2+x,-y,-z
-x,y,-z
-x,-y,-z
1/2+x,y,-z
1/2-x,y,z
x,-y,z
loop_
_atom_site_type_symbol
_atom_site_label
_atom_site_fract_x
_atom_site_fract_y
_atom_site_fract_z
Si Si1 0.327381 0.272924 0.948951
Si Si2 0.105958 0.414343 0.812800
Si Si3 0.503662 0.324190 0.341525
Si Si4 0.825316 0.762079 0.518097
Si Si5 0.673783 0.584869 0.460073
Si Si6 0.991718 0.910734 0.843071
Si Si7 0.108026 0.225561 0.220467
Si Si8 0.397815 0.183396 0.721175
O O1 0.250000 0.283244 0.947014
O O2 0.367224 0.350910 0.912783
O O3 0.350573 0.212763 0.836209
O O4 0.353837 0.245151 0.088716
O O5 0.101671 0.500000 0.871233
O O6 0.039253 0.392385 0.739166
O O7 0.157388 0.414446 0.693728
O O8 0.500000 0.337177 0.500000
O O9 0.438045 0.296038 0.271977
O O10 0.551464 0.251926 0.313061
O O11 0.750000 0.760736 0.492113
O O12 0.848001 0.670791 0.506025
O O13 0.842686 0.789158 0.662440
O O14 0.858250 0.818820 0.412859
O O15 0.750000 0.582920 0.482833
O O16 0.647543 0.500000 0.510279
O O17 0.937821 0.848811 0.801069
O O18 0.058484 0.887090 0.771785
O O19 0.974769 0.000000 0.813846
O O20 0.000000 0.902455 0.000000
#
# Coordination Sequence:
#
# PCOD9399806 Si02
#       8
#     8   8   8   8   8   8   8   8
#     4  11  21  36  56  81 112 149 194 237 278 332
#     4  10  20  32  51  79 111 149 195 243 291 333
#     4  10  18  33  55  78 112 149 188 239 287 334
#     4  11  20  35  57  84 118 156 195 236 281 333
#     4   9  16  28  49  77 108 146 196 242 275 319
#     4  10  21  39  65  91 115 144 180 231 285 339
#     4  11  22  37  58  86 113 148 189 232 281 349
#     4  10  19  34  58  87 110 144 187 231 275 336
#
# _framework density 17.612705999999999
#
# number of rings (size 3 to 8) (size 9 to 14) (size 15 to 20)
#    0.000    1.750    5.000    1.125    0.000    1.000 
#    0.000    3.750    0.000    6.000    0.000    0.000 
#    0.000    0.000    0.000    0.000    0.000    0.000 
#
# Total GULP energy -356386.200797 kJ/mol
# GULP energy per Si atom -5568.534387 kJ/mol
# Density = 1.757262 g / cm^3
# Si number density = 17.612706 Si / 1000 Ang^3
#
#
#
# Elastic Constant Matrix: (Units=GPa)
#
#
# Indices 1 2 3 4 5 6 
#
# 1 56.0089 12.0204 21.1400 0.0000 0.0000 0.0000
# 2 12.0204 83.3179 30.7604 0.0000 0.0000 0.0000
# 3 21.1400 30.7604 101.1114 0.0000 0.0000 0.0000
# 4 0.0000 0.0000 0.0000 15.0527 0.0000 0.0000
# 5 0.0000 0.0000 0.0000 0.0000 14.1489 0.0000
# 6 0.0000 0.0000 0.0000 0.0000 0.0000 -4.2951
#
#
#
# Elastic Compliance Matrix: (Units=1/GPa)
#
#
# Indices 1 2 3 4 5 6 
#
# 1 0.019544 -0.001477 -0.003637 0.000000 0.000000 0.000000
# 2 -0.001477 0.013632 -0.003839 0.000000 0.000000 0.000000
# 3 -0.003637 -0.003839 0.011818 0.000000 0.000000 0.000000
# 4 0.000000 0.000000 0.000000 0.066433 0.000000 0.000000
# 5 0.000000 0.000000 0.000000 0.000000 0.070677 0.000000
# 6 0.000000 0.000000 0.000000 0.000000 0.000000 -0.232823
#
#
# Mechanical properties :
#
#
# Convention : Reuss Voigt Hill
#
# Bulk Modulus (GPa) = 36.91392 40.91996 38.91694
# Shear Modulus (GPa) = -210.22911 16.74913 -96.73999
#
# Velocity S-wave (km/s) = -10.93715 3.08712 -7.41926
# Velocity P-wave (km/s) = 11.76822 5.99923 7.15892
#
# Compressibility (1/GPa) = 0.02709005
#
# Stress axis : x y z
#
# Youngs Moduli (GPa) = 51.16664 73.35437 84.61508
#
# Poissons Ratio (x) = 0.10834 0.30773
# Poissons Ratio (y) = 0.07557 0.32480
# Poissons Ratio (z) = 0.18609 0.28157
#
# Static dielectric constant tensor:
#      x y z
#    x 1.623070 0.000000 0.000000 
#    y 0.000000 1.627250 0.000000 
#    z 0.000000 0.000000 1.585620 
# 
# From -- ./inp_files/11215.got.cif
#   From: 2010.05.17/outbox.cif.g08.bks.cpg/sg51_6_cif.got.tgz:11215.got - 2010.06.03 11:52:47.
