data_PCOD9399695
_publ_section_title
;
Structure prediction by ZEFSAII (Michael W. Deem and Ramdas Pophale) SiO2 
 PCOD9399695
Probable space group: P M M A
;
_chemical_formula_sum "Si O2"
_cell_formula_units_Z 40
_cell_length_a 7.957291
_cell_length_b 16.192129
_cell_length_c 14.850018
_cell_angle_alpha 90.000000
_cell_angle_beta 90.000000
_cell_angle_gamma 90.000000
_cell_volume 1913.357732
_symmetry_space_group_name_H-M "P M M A"
_symmetry_group_IT_number 51
_symmetry_cell_setting 'orthorhombic'
loop_
_space_group_symop_operation_xyz
x,y,z
1/2-x,-y,z
1/2+x,-y,-z
-x,y,-z
-x,-y,-z
1/2+x,y,-z
1/2-x,y,z
x,-y,z
loop_
_atom_site_type_symbol
_atom_site_label
_atom_site_fract_x
_atom_site_fract_y
_atom_site_fract_z
Si Si1 0.548847 0.668995 0.402824
Si Si2 0.055861 0.859566 0.400332
Si Si3 0.955184 0.408241 0.214895
Si Si4 0.447348 0.089365 0.791609
Si Si5 0.453129 0.750183 0.895996
O O1 0.500000 0.633566 0.500000
O O2 0.750000 0.679995 0.399801
O O3 0.470276 0.760396 0.396230
O O4 0.497913 0.615037 0.317252
O O5 0.250000 0.879533 0.389042
O O6 0.000000 0.886123 0.500000
O O7 0.961074 0.897338 0.315478
O O8 0.750000 0.408927 0.212148
O O9 0.013384 0.500000 0.190495
O O10 0.013649 0.334358 0.150595
O O11 0.250000 0.086864 0.814429
O O12 0.518391 0.169447 0.842298
O O13 0.521995 0.000000 0.815617
O O14 0.250000 0.749659 0.888012
O O15 0.500000 0.754063 0.000000
#
# Coordination Sequence:
#
# PCOD9399695 Si02
#       5
#     8   8   8   8   8
#     4  10  18  32  54  81 114 152 192 228 274 328
#     4  11  21  34  56  84 117 153 191 230 275 327
#     4   9  18  34  57  82 112 150 188 226 276 336
#     4  10  21  39  61  84 112 148 188 230 278 334
#     4  10  21  39  60  83 111 145 185 231 285 338
#
# _framework density 20.905657999999999
#
# number of rings (size 3 to 8) (size 9 to 14) (size 15 to 20)
#    0.000    2.000    2.000    3.600    0.000    2.800 
#    0.000    0.000    0.000    4.200    0.000    0.000 
#    0.000    0.000    0.000    0.000    0.000    0.000 
#
# Total GULP energy -223398.659023 kJ/mol
# GULP energy per Si atom -5584.966476 kJ/mol
# Density = 2.085808 g / cm^3
# Si number density = 20.905658 Si / 1000 Ang^3
#
#
#
# Elastic Constant Matrix: (Units=GPa)
#
#
# Indices 1 2 3 4 5 6 
#
# 1 22.5529 0.2775 -11.0994 0.0000 0.0000 0.0000
# 2 0.2775 176.0057 90.8377 0.0000 0.0000 0.0000
# 3 -11.0994 90.8377 136.7953 0.0000 0.0000 0.0000
# 4 0.0000 0.0000 0.0000 -63.0230 0.0000 0.0000
# 5 0.0000 0.0000 0.0000 0.0000 30.0779 0.0000
# 6 0.0000 0.0000 0.0000 0.0000 0.0000 1.2028
#
#
#
# Elastic Compliance Matrix: (Units=1/GPa)
#
#
# Indices 1 2 3 4 5 6 
#
# 1 0.047289 -0.003126 0.005913 0.000000 0.000000 0.000000
# 2 -0.003126 0.008851 -0.006131 0.000000 0.000000 0.000000
# 3 0.005913 -0.006131 0.011861 0.000000 0.000000 0.000000
# 4 0.000000 0.000000 0.000000 -0.015867 0.000000 0.000000
# 5 0.000000 0.000000 0.000000 0.000000 0.033247 0.000000
# 6 0.000000 0.000000 0.000000 0.000000 0.000000 0.831411
#
#
# Mechanical properties :
#
#
# Convention : Reuss Voigt Hill
#
# Bulk Modulus (GPa) = 16.31003 55.04285 35.67644
# Shear Modulus (GPa) = 5.29707 10.67408 7.98558
#
# Velocity S-wave (km/s) = 1.59352 2.26206 1.95656
# Velocity P-wave (km/s) = 3.34730 5.76271 4.71239
#
# Compressibility (1/GPa) = 0.06131197
#
# Stress axis : x y z
#
# Youngs Moduli (GPa) = 21.14673 112.98436 84.30887
#
# Poissons Ratio (x) = 0.35321 -0.49851
# Poissons Ratio (y) = 0.06611 0.51689
# Poissons Ratio (z) = -0.12504 0.69270
#
# Static dielectric constant tensor:
#      x y z
#    x 1.739030 0.000000 0.000000 
#    y 0.000000 1.772440 0.000000 
#    z 0.000000 0.000000 1.727530 
# 
# From -- ./inp_files/20469.got.cif
#   From: 2010.05.17/outbox.cif.g08.bks.cpg/sg51_11_cif.got.tgz:20469.got - 2010.06.03 11:52:47.
