data_PCOD9399712
_publ_section_title
;
Structure prediction by ZEFSAII (Michael W. Deem and Ramdas Pophale) SiO2 
 PCOD9399712
Probable space group: P M M A
;
_chemical_formula_sum "Si O2"
_cell_formula_units_Z 64
_cell_length_a 20.110381
_cell_length_b 15.491239
_cell_length_c 10.499688
_cell_angle_alpha 90.000000
_cell_angle_beta 90.000000
_cell_angle_gamma 90.000000
_cell_volume 3271.017345
_symmetry_space_group_name_H-M "P M M A"
_symmetry_group_IT_number 51
_symmetry_cell_setting 'orthorhombic'
loop_
_space_group_symop_operation_xyz
x,y,z
1/2-x,-y,z
1/2+x,-y,-z
-x,y,-z
-x,-y,-z
1/2+x,y,-z
1/2-x,y,z
x,-y,z
loop_
_atom_site_type_symbol
_atom_site_label
_atom_site_fract_x
_atom_site_fract_y
_atom_site_fract_z
Si Si1 0.673484 0.655841 0.873836
Si Si2 0.176162 0.098563 0.293297
Si Si3 0.579065 0.395267 0.646124
Si Si4 0.675172 0.399256 0.147204
Si Si5 0.965835 0.894001 0.630925
Si Si6 0.573950 0.394500 0.356660
Si Si7 0.954024 0.104309 0.119488
Si Si8 0.824572 0.848223 0.985360
O O1 0.750000 0.631389 0.844189
O O2 0.627245 0.641591 0.753232
O O3 0.672616 0.753487 0.923982
O O4 0.651758 0.605523 0.001222
O O5 0.250000 0.138584 0.311690
O O6 0.110047 0.138180 0.354401
O O7 0.163572 0.094971 0.141182
O O8 0.180167 0.000000 0.339926
O O9 0.582429 0.500000 0.653839
O O10 0.595184 0.370622 0.500088
O O11 0.502324 0.368563 0.667086
O O12 0.750000 0.360955 0.152499
O O13 0.681030 0.500000 0.179572
O O14 0.623707 0.361476 0.248329
O O15 0.000000 0.867462 0.500000
O O16 0.010377 0.867113 0.751160
O O17 0.963399 0.000000 0.633657
O O18 0.573031 0.500000 0.354070
O O19 0.950367 0.000000 0.121703
O O20 0.880706 0.138617 0.089803
O O21 0.000000 0.129638 0.000000
O O22 0.750000 0.865013 0.032920
#
# Coordination Sequence:
#
# PCOD9399712 Si02
#       8
#     8   8   8   8   8   8   8   8
#     4  10  21  34  49  71 103 136 167 210 258 302
#     4   9  16  29  52  75  95 130 175 209 247 307
#     4   9  17  32  53  75 101 131 168 214 258 302
#     4   9  17  31  50  72  98 129 167 206 246 297
#     4   9  17  30  50  78 108 130 155 207 266 304
#     4   8  16  31  51  75 101 129 164 212 260 301
#     4  10  18  32  55  79 101 128 169 214 254 301
#     4  10  20  34  51  73 106 138 172 214 257 303
#
# _framework density 19.565777000000001
#
# number of rings (size 3 to 8) (size 9 to 14) (size 15 to 20)
#    0.000    2.750    1.250    1.500    0.000    2.500 
#    2.250    3.750    5.500    2.250    0.000    0.000 
#    0.000    0.000    0.000    0.000    0.000    0.000 
#
# Total GULP energy -356798.126561 kJ/mol
# GULP energy per Si atom -5574.970728 kJ/mol
# Density = 1.952124 g / cm^3
# Si number density = 19.565777 Si / 1000 Ang^3
#
#
#
# Elastic Constant Matrix: (Units=GPa)
#
#
# Indices 1 2 3 4 5 6 
#
# 1 167.3747 7.4990 116.2596 0.0000 0.0000 0.0000
# 2 7.4990 16.3495 6.4126 0.0000 0.0000 0.0000
# 3 116.2596 6.4126 155.5752 0.0000 0.0000 0.0000
# 4 0.0000 0.0000 0.0000 -21.1699 0.0000 0.0000
# 5 0.0000 0.0000 0.0000 0.0000 36.7429 0.0000
# 6 0.0000 0.0000 0.0000 0.0000 0.0000 11.6693
#
#
#
# Elastic Compliance Matrix: (Units=1/GPa)
#
#
# Indices 1 2 3 4 5 6 
#
# 1 0.012494 -0.002103 -0.009250 0.000000 0.000000 0.000000
# 2 -0.002103 0.062523 -0.001006 0.000000 0.000000 0.000000
# 3 -0.009250 -0.001006 0.013381 0.000000 0.000000 0.000000
# 4 0.000000 0.000000 0.000000 -0.047237 0.000000 0.000000
# 5 0.000000 0.000000 0.000000 0.000000 0.027216 0.000000
# 6 0.000000 0.000000 0.000000 0.000000 0.000000 0.085695
#
#
# Mechanical properties :
#
#
# Convention : Reuss Voigt Hill
#
# Bulk Modulus (GPa) = 15.70308 66.62685 41.16497
# Shear Modulus (GPa) = 24.99797 19.39034 22.19415
#
# Velocity S-wave (km/s) = 3.57828 3.15148 3.37164
# Velocity P-wave (km/s) = 5.01152 6.88252 6.02015
#
# Compressibility (1/GPa) = 0.06368176
#
# Stress axis : x y z
#
# Youngs Moduli (GPa) = 80.03971 15.99412 74.73010
#
# Poissons Ratio (x) = 0.03363 0.69124
# Poissons Ratio (y) = 0.16829 0.07517
# Poissons Ratio (z) = 0.74035 0.01609
#
# Static dielectric constant tensor:
#      x y z
#    x 1.705600 0.000000 0.000000 
#    y 0.000000 1.792360 0.000000 
#    z 0.000000 0.000000 1.657710 
# 
# From -- ./inp_files/11205.got.cif
#   From: 2010.05.17/outbox.cif.g08.bks.cpg/sg51_6_cif.got.tgz:11205.got - 2010.06.03 11:52:47.
