data_PCOD9399535
_publ_section_title
;
Structure prediction by ZEFSAII (Michael W. Deem and Ramdas Pophale) SiO2 
 PCOD9399535
Probable space group: P M M A
;
_chemical_formula_sum "Si O2"
_cell_formula_units_Z 56
_cell_length_a 19.302809
_cell_length_b 7.429431
_cell_length_c 16.705323
_cell_angle_alpha 90.000000
_cell_angle_beta 90.000000
_cell_angle_gamma 90.000000
_cell_volume 2395.691788
_symmetry_space_group_name_H-M "P M M A"
_symmetry_group_IT_number 51
_symmetry_cell_setting 'orthorhombic'
loop_
_space_group_symop_operation_xyz
x,y,z
1/2-x,-y,z
1/2+x,-y,-z
-x,y,-z
-x,-y,-z
1/2+x,y,-z
1/2-x,y,z
x,-y,z
loop_
_atom_site_type_symbol
_atom_site_label
_atom_site_fract_x
_atom_site_fract_y
_atom_site_fract_z
Si Si1 0.330253 0.717645 0.768940
Si Si2 0.326657 0.206730 0.426237
Si Si3 0.118728 0.290945 0.596472
Si Si4 0.455815 0.219323 0.171474
Si Si5 0.917376 0.793917 0.075818
Si Si6 0.671211 0.219835 0.926515
Si Si7 0.469061 0.781741 0.352390
O O1 0.250000 0.763812 0.778367
O O2 0.336950 0.500000 0.771204
O O3 0.356883 0.780831 0.682519
O O4 0.373898 0.792093 0.842264
O O5 0.250000 0.286104 0.413444
O O6 0.344855 0.205132 0.520350
O O7 0.395111 0.285374 0.384631
O O8 0.323089 0.000000 0.398062
O O9 0.138334 0.500000 0.593355
O O10 0.035567 0.275217 0.596507
O O11 0.508895 0.284319 0.103047
O O12 0.377950 0.268863 0.147649
O O13 0.477235 0.277478 0.260124
O O14 0.459696 0.000000 0.171504
O O15 0.930749 0.000000 0.051132
O O16 0.869569 0.716853 0.005895
O O17 0.750000 0.283231 0.922934
O O18 0.674064 0.000000 0.929193
O O19 0.468638 0.000000 0.354646
#
# Coordination Sequence:
#
# PCOD9399535 Si02
#       7
#     8   8   8   8   8   8   8
#     4  10  21  35  51  74 106 140 171 210 262 317
#     4  10  22  38  56  80 110 142 178 223 271 319
#     4  11  22  37  57  80 108 141 180 222 268 323
#     4   9  17  30  50  75 106 142 176 215 264 313
#     4  10  18  31  52  78 106 136 176 219 263 314
#     4   9  17  28  46  77 111 140 175 221 266 309
#     4  10  20  36  57  81 108 142 182 222 267 320
#
# _framework density 23.375292000000002
#
# number of rings (size 3 to 8) (size 9 to 14) (size 15 to 20)
#    0.000    2.143    1.429    2.143    0.000    6.857 
#    0.000    2.857    0.000    2.571    0.000    0.000 
#    0.000    0.000    0.000    0.000    0.000    0.000 
#
# Total GULP energy -313020.409516 kJ/mol
# GULP energy per Si atom -5589.650170 kJ/mol
# Density = 2.332209 g / cm^3
# Si number density = 23.375292 Si / 1000 Ang^3
#
#
#
# Elastic Constant Matrix: (Units=GPa)
#
#
# Indices 1 2 3 4 5 6 
#
# 1 150.1661 -4.7927 -0.5461 0.0000 0.0000 0.0000
# 2 -4.7927 75.8021 -9.6648 0.0000 0.0000 0.0000
# 3 -0.5461 -9.6648 24.0491 0.0000 0.0000 0.0000
# 4 0.0000 0.0000 0.0000 -71.3606 0.0000 0.0000
# 5 0.0000 0.0000 0.0000 0.0000 25.0575 0.0000
# 6 0.0000 0.0000 0.0000 0.0000 0.0000 727.1932
#
#
#
# Elastic Compliance Matrix: (Units=1/GPa)
#
#
# Indices 1 2 3 4 5 6 
#
# 1 0.006675 0.000465 0.000339 0.000000 0.000000 0.000000
# 2 0.000465 0.013937 0.005612 0.000000 0.000000 0.000000
# 3 0.000339 0.005612 0.043845 0.000000 0.000000 0.000000
# 4 0.000000 0.000000 0.000000 -0.014013 0.000000 0.000000
# 5 0.000000 0.000000 0.000000 0.000000 0.039908 0.000000
# 6 0.000000 0.000000 0.000000 0.000000 0.000000 0.001375
#
#
# Mechanical properties :
#
#
# Convention : Reuss Voigt Hill
#
# Bulk Modulus (GPa) = 12.93865 24.44555 18.69210
# Shear Modulus (GPa) = 47.77423 153.84606 100.81014
#
# Velocity S-wave (km/s) = 4.52574 8.12149 6.57422
# Velocity P-wave (km/s) = 5.73209 9.92095 8.10192
#
# Compressibility (1/GPa) = 0.07728783
#
# Stress axis : x y z
#
# Youngs Moduli (GPa) = 149.80436 71.75068 22.80787
#
# Poissons Ratio (x) = -0.03338 -0.00772
# Poissons Ratio (y) = -0.06969 -0.12799
# Poissons Ratio (z) = -0.05072 -0.40264
#
# Static dielectric constant tensor:
#      x y z
#    x 1.867740 0.000000 0.000000 
#    y 0.000000 1.995700 0.000000 
#    z 0.000000 0.000000 1.837420 
# 
# From -- ./inp_files/25720.got.cif
#   From: 2010.05.17/outbox.cif.g08.bks.cpg/sg51_13_cif.got.tgz:25720.got - 2010.06.03 11:52:47.
