data_PCOD9399251
_publ_section_title
;
Structure prediction by ZEFSAII (Michael W. Deem and Ramdas Pophale) SiO2 
 PCOD9399251
Probable space group: P M M A
;
_chemical_formula_sum "Si O2"
_cell_formula_units_Z 48
_cell_length_a 8.531868
_cell_length_b 10.182230
_cell_length_c 29.752656
_cell_angle_alpha 90.000000
_cell_angle_beta 90.000000
_cell_angle_gamma 90.000000
_cell_volume 2584.715644
_symmetry_space_group_name_H-M "P M M A"
_symmetry_group_IT_number 51
_symmetry_cell_setting 'orthorhombic'
loop_
_space_group_symop_operation_xyz
x,y,z
1/2-x,-y,z
1/2+x,-y,-z
-x,y,-z
-x,-y,-z
1/2+x,y,-z
1/2-x,y,z
x,-y,z
loop_
_atom_site_type_symbol
_atom_site_label
_atom_site_fract_x
_atom_site_fract_y
_atom_site_fract_z
Si Si1 0.437981 0.148612 0.050651
Si Si2 0.560402 0.500000 0.449243
Si Si3 0.937506 0.347545 0.124647
Si Si4 0.936263 0.849241 0.801135
Si Si5 0.441321 0.249977 0.607722
Si Si6 0.064527 0.845033 0.702544
Si Si7 0.439292 0.000000 0.550460
O O1 0.250000 0.153077 0.050651
O O2 0.500857 0.263308 0.082420
O O3 0.484524 0.000000 0.065977
O O4 0.500000 0.164112 0.000000
O O5 0.750000 0.500000 0.451203
O O6 0.500000 0.500000 0.500000
O O7 0.508597 0.375421 0.420296
O O8 0.750000 0.350652 0.122827
O O9 0.993120 0.500000 0.125541
O O10 0.988932 0.261505 0.167604
O O11 0.750000 0.847633 0.808277
O O12 0.975834 0.822691 0.749053
O O13 0.991534 0.000000 0.810840
O O14 0.250000 0.249116 0.609470
O O15 0.491978 0.236277 0.659390
O O16 0.491339 0.125643 0.578596
O O17 0.250000 0.819660 0.709921
O O18 0.050258 0.000000 0.690906
O O19 0.500000 0.000000 0.500000
O O20 0.250000 0.000000 0.549088
#
# Coordination Sequence:
#
# PCOD9399251 Si02
#       7
#     8   4   8   8   8   8   4
#     4  10  21  38  62  91 121 156 198 242 288 338
#     4  10  20  34  50  70  98 132 168 208 255 310
#     4  11  24  40  58  84 117 154 197 240 283 335
#     4  10  21  37  58  84 113 146 183 227 282 341
#     4   9  17  31  51  72  97 130 169 210 255 310
#     4   9  16  31  55  78 100 132 174 219 266 319
#     4  10  18  30  48  72  98 128 166 208 255 308
#
# _framework density 18.570706999999999
#
# number of rings (size 3 to 8) (size 9 to 14) (size 15 to 20)
#    0.000    2.167    0.833    2.500    0.000    5.667 
#    1.500    1.667    0.000    0.000    0.000    0.000 
#    0.000    0.000    0.000    0.000    0.000    0.000 
#
# Total GULP energy -267847.610569 kJ/mol
# GULP energy per Si atom -5580.158554 kJ/mol
# Density = 1.852844 g / cm^3
# Si number density = 18.570707 Si / 1000 Ang^3
#
#
#
# Elastic Constant Matrix: (Units=GPa)
#
#
# Indices 1 2 3 4 5 6 
#
# 1 32.2894 35.9553 25.1327 0.0000 0.0000 0.0000
# 2 35.9553 178.3818 98.2677 0.0000 0.0000 0.0000
# 3 25.1327 98.2677 134.1818 0.0000 0.0000 0.0000
# 4 0.0000 0.0000 0.0000 31.6223 0.0000 0.0000
# 5 0.0000 0.0000 0.0000 0.0000 33.5867 0.0000
# 6 0.0000 0.0000 0.0000 0.0000 0.0000 15.6407
#
#
#
# Elastic Compliance Matrix: (Units=1/GPa)
#
#
# Indices 1 2 3 4 5 6 
#
# 1 0.040506 -0.006680 -0.002695 0.000000 0.000000 0.000000
# 2 -0.006680 0.010499 -0.006438 0.000000 0.000000 0.000000
# 3 -0.002695 -0.006438 0.012672 0.000000 0.000000 0.000000
# 4 0.000000 0.000000 0.000000 0.031623 0.000000 0.000000
# 5 0.000000 0.000000 0.000000 0.000000 0.029774 0.000000
# 6 0.000000 0.000000 0.000000 0.000000 0.000000 0.063936
#
#
# Mechanical properties :
#
#
# Convention : Reuss Voigt Hill
#
# Bulk Modulus (GPa) = 31.19958 73.72940 52.46449
# Shear Modulus (GPa) = 21.61530 28.53643 25.07586
#
# Velocity S-wave (km/s) = 3.41537 3.92425 3.67862
# Velocity P-wave (km/s) = 5.69121 7.76667 6.80849
#
# Compressibility (1/GPa) = 0.03205172
#
# Stress axis : x y z
#
# Youngs Moduli (GPa) = 24.68784 95.24951 78.91517
#
# Poissons Ratio (x) = 0.63627 0.21266
# Poissons Ratio (y) = 0.16491 0.50802
# Poissons Ratio (z) = 0.06653 0.61317
#
# Static dielectric constant tensor:
#      x y z
#    x 1.641110 0.000000 0.000000 
#    y 0.000000 1.625150 0.000000 
#    z 0.000000 0.000000 1.619060 
# 
# From -- ./inp_files/37224.got.cif
#   From: 2010.05.17/outbox.cif.g08.bks.cpg/sg51_19_cif.got.tgz:37224.got - 2010.06.03 11:52:47.
