data_PCOD9399540
_publ_section_title
;
Structure prediction by ZEFSAII (Michael W. Deem and Ramdas Pophale) SiO2 
 PCOD9399540
Probable space group: P M M A
;
_chemical_formula_sum "Si O2"
_cell_formula_units_Z 40
_cell_length_a 18.757397
_cell_length_b 13.163106
_cell_length_c 8.620496
_cell_angle_alpha 90.000000
_cell_angle_beta 90.000000
_cell_angle_gamma 90.000000
_cell_volume 2128.448780
_symmetry_space_group_name_H-M "P M M A"
_symmetry_group_IT_number 51
_symmetry_cell_setting 'orthorhombic'
loop_
_space_group_symop_operation_xyz
x,y,z
1/2-x,-y,z
1/2+x,-y,-z
-x,y,-z
-x,-y,-z
1/2+x,y,-z
1/2-x,y,z
x,-y,z
loop_
_atom_site_type_symbol
_atom_site_label
_atom_site_fract_x
_atom_site_fract_y
_atom_site_fract_z
Si Si1 0.166952 0.187595 0.983864
Si Si2 0.035848 0.111294 0.829269
Si Si3 0.080562 0.384346 0.065085
Si Si4 0.666460 0.882369 0.657436
Si Si5 0.050297 0.274324 0.367853
O O1 0.250000 0.189659 0.947357
O O2 0.132168 0.299601 0.993245
O O3 0.158713 0.138057 0.156163
O O4 0.119048 0.127319 0.861777
O O5 0.000529 0.197460 0.727430
O O6 0.021486 0.000000 0.763440
O O7 0.000000 0.116869 0.000000
O O8 0.102817 0.500000 0.036793
O O9 0.077801 0.357752 0.247461
O O10 0.000000 0.372065 0.000000
O O11 0.750000 0.867503 0.620592
O O12 0.615322 0.798776 0.579660
O O13 0.647881 0.000000 0.625444
O O14 0.000000 0.318246 0.500000
#
# Coordination Sequence:
#
# PCOD9399540 Si02
#       5
#     8   8   8   8   8
#     4  10  18  31  52  80 107 133 169 219 274 317
#     4  11  19  32  52  76 106 139 179 220 256 303
#     4  10  19  36  59  79 100 130 176 226 268 313
#     4   9  17  30  49  74 103 137 177 218 259 307
#     4  11  21  34  52  77 108 143 178 217 264 314
#
# _framework density 18.793028
#
# number of rings (size 3 to 8) (size 9 to 14) (size 15 to 20)
#    0.000    1.800    6.000    1.200    0.000    3.600 
#    0.000    1.000    0.000    0.000    0.000    0.000 
#    0.000    0.000    0.000    0.000    0.000    0.000 
#
# Total GULP energy -223248.893643 kJ/mol
# GULP energy per Si atom -5581.222341 kJ/mol
# Density = 1.875025 g / cm^3
# Si number density = 18.793028 Si / 1000 Ang^3
#
#
#
# Elastic Constant Matrix: (Units=GPa)
#
#
# Indices 1 2 3 4 5 6 
#
# 1 97.8698 -1.7119 -0.7930 0.0000 0.0000 0.0000
# 2 -1.7119 62.1438 -5.4424 0.0000 0.0000 0.0000
# 3 -0.7930 -5.4424 3.8982 0.0000 0.0000 0.0000
# 4 0.0000 0.0000 0.0000 5.4111 0.0000 0.0000
# 5 0.0000 0.0000 0.0000 0.0000 23.4392 0.0000
# 6 0.0000 0.0000 0.0000 0.0000 0.0000 22.2408
#
#
#
# Elastic Compliance Matrix: (Units=1/GPa)
#
#
# Indices 1 2 3 4 5 6 
#
# 1 0.010250 0.000530 0.002825 0.000000 0.000000 0.000000
# 2 0.000530 0.018361 0.025742 0.000000 0.000000 0.000000
# 3 0.002825 0.025742 0.293039 0.000000 0.000000 0.000000
# 4 0.000000 0.000000 0.000000 0.184806 0.000000 0.000000
# 5 0.000000 0.000000 0.000000 0.000000 0.042664 0.000000
# 6 0.000000 0.000000 0.000000 0.000000 0.000000 0.044962
#
#
# Mechanical properties :
#
#
# Convention : Reuss Voigt Hill
#
# Bulk Modulus (GPa) = 2.63268 16.44635 9.53951
# Shear Modulus (GPa) = 7.54714 21.67548 14.61131
#
# Velocity S-wave (km/s) = 2.00615 3.39983 2.79137
# Velocity P-wave (km/s) = 2.60194 4.91753 3.93397
#
# Compressibility (1/GPa) = 0.37984110
#
# Stress axis : x y z
#
# Youngs Moduli (GPa) = 97.56278 54.46410 3.41252
#
# Poissons Ratio (x) = -0.02885 -0.00964
# Poissons Ratio (y) = -0.05168 -0.08784
# Poissons Ratio (z) = -0.27558 -1.40200
#
# Static dielectric constant tensor:
#      x y z
#    x 1.673080 0.000000 0.000000 
#    y 0.000000 1.633750 0.000000 
#    z 0.000000 0.000000 1.676550 
# 
# From -- ./inp_files/9401.got.cif
#   From: 2010.05.17/outbox.cif.g08.bks.cpg/sg51_5_cif.got.tgz:9401.got - 2010.06.03 11:52:47.
