data_PCOD9399437
_publ_section_title
;
Structure prediction by ZEFSAII (Michael W. Deem and Ramdas Pophale) SiO2 
 PCOD9399437
Probable space group: P M M A
;
_chemical_formula_sum "Si O2"
_cell_formula_units_Z 52
_cell_length_a 9.113986
_cell_length_b 18.395997
_cell_length_c 17.877204
_cell_angle_alpha 90.000000
_cell_angle_beta 90.000000
_cell_angle_gamma 90.000000
_cell_volume 2997.307381
_symmetry_space_group_name_H-M "P M M A"
_symmetry_group_IT_number 51
_symmetry_cell_setting 'orthorhombic'
loop_
_space_group_symop_operation_xyz
x,y,z
1/2-x,-y,z
1/2+x,-y,-z
-x,y,-z
-x,-y,-z
1/2+x,y,-z
1/2-x,y,z
x,-y,z
loop_
_atom_site_type_symbol
_atom_site_label
_atom_site_fract_x
_atom_site_fract_y
_atom_site_fract_z
Si Si1 0.925592 0.500000 0.080964
Si Si2 0.581244 0.764654 0.212136
Si Si3 0.076645 0.378517 0.180017
Si Si4 0.423815 0.580651 0.355128
Si Si5 0.928520 0.079277 0.257907
Si Si6 0.083527 0.277924 0.611838
Si Si7 0.427329 0.118369 0.573689
O O1 0.750000 0.500000 0.075906
O O2 0.983802 0.430319 0.126647
O O3 0.000000 0.500000 0.000000
O O4 0.750000 0.762261 0.184271
O O5 0.480054 0.704233 0.174331
O O6 0.524920 0.847838 0.214420
O O7 0.587483 0.740719 0.299441
O O8 0.250000 0.384277 0.164125
O O9 0.054597 0.405283 0.265980
O O10 0.250000 0.581627 0.367924
O O11 0.481066 0.500000 0.373636
O O12 0.495354 0.648186 0.397581
O O13 0.750000 0.082015 0.256663
O O14 0.969153 0.085744 0.345719
O O15 0.975166 0.000000 0.229467
O O16 0.250000 0.288674 0.586067
O O17 0.025529 0.203105 0.577962
O O18 0.500000 0.085772 0.500000
O O19 0.250000 0.115050 0.568600
#
# Coordination Sequence:
#
# PCOD9399437 Si02
#       7
#     4   8   8   8   8   8   8
#     4  12  24  36  50  70 100 136 169 196 221 250
#     4   8  14  26  44  65  86 114 154 191 227 274
#     4  10  18  31  47  66  95 126 156 188 226 268
#     4   9  16  26  41  62  85 105 132 175 223 268
#     4   8  14  26  44  65  91 120 149 188 236 282
#     4   8  15  26  38  55  77 102 136 180 223 268
#     4   9  17  28  41  57  79 108 146 184 223 276
#
# _framework density 17.348904999999998
#
# number of rings (size 3 to 8) (size 9 to 14) (size 15 to 20)
#    0.000    3.077    0.769    3.000    0.000    1.846 
#    0.000    2.308    0.000    1.846    0.000    0.000 
#    0.000    0.615    0.000    1.692    0.000    2.462 
#
# Total GULP energy -289571.219677 kJ/mol
# GULP energy per Si atom -5568.677301 kJ/mol
# Density = 1.730942 g / cm^3
# Si number density = 17.348905 Si / 1000 Ang^3
#
#
#
# Elastic Constant Matrix: (Units=GPa)
#
#
# Indices 1 2 3 4 5 6 
#
# 1 40.7931 37.3290 19.8380 0.0000 0.0000 0.0000
# 2 37.3290 160.0131 15.0230 0.0000 0.0000 0.0000
# 3 19.8380 15.0230 26.3979 0.0000 0.0000 0.0000
# 4 0.0000 0.0000 0.0000 -0.2851 0.0000 0.0000
# 5 0.0000 0.0000 0.0000 0.0000 15.6639 0.0000
# 6 0.0000 0.0000 0.0000 0.0000 0.0000 10.1800
#
#
#
# Elastic Compliance Matrix: (Units=1/GPa)
#
#
# Indices 1 2 3 4 5 6 
#
# 1 0.046711 -0.008030 -0.030533 0.000000 0.000000 0.000000
# 2 -0.008030 0.007983 0.001492 0.000000 0.000000 0.000000
# 3 -0.030533 0.001492 0.059979 0.000000 0.000000 0.000000
# 4 0.000000 0.000000 0.000000 -3.507163 0.000000 0.000000
# 5 0.000000 0.000000 0.000000 0.000000 0.063841 0.000000
# 6 0.000000 0.000000 0.000000 0.000000 0.000000 0.098232
#
#
# Mechanical properties :
#
#
# Convention : Reuss Voigt Hill
#
# Bulk Modulus (GPa) = 24.67381 41.28712 32.98047
# Shear Modulus (GPa) = -1.59096 15.44602 6.92753
#
# Velocity S-wave (km/s) = -0.95866 2.98705 2.00043
# Velocity P-wave (km/s) = 3.60938 5.97883 4.93832
#
# Compressibility (1/GPa) = 0.04052880
#
# Stress axis : x y z
#
# Youngs Moduli (GPa) = 21.40824 125.26897 16.67262
#
# Poissons Ratio (x) = 1.00597 0.50907
# Poissons Ratio (y) = 0.17192 -0.02487
# Poissons Ratio (z) = 0.65366 -0.18689
#
# Static dielectric constant tensor:
#      x y z
#    x 1.582540 0.000000 0.000000 
#    y 0.000000 1.636080 0.000000 
#    z 0.000000 0.000000 1.574470 
# 
# From -- ./inp_files/27951.got.cif
#   From: 2010.05.17/outbox.cif.g08.bks.cpg/sg51_14_cif.got.tgz:27951.got - 2010.06.03 11:52:47.
