data_PCOD9399219
_publ_section_title
;
Structure prediction by ZEFSAII (Michael W. Deem and Ramdas Pophale) SiO2 
 PCOD9399219
Probable space group: P M M A
;
_chemical_formula_sum "Si O2"
_cell_formula_units_Z 52
_cell_length_a 8.564895
_cell_length_b 27.560893
_cell_length_c 14.572894
_cell_angle_alpha 90.000000
_cell_angle_beta 90.000000
_cell_angle_gamma 90.000000
_cell_volume 3440.021320
_symmetry_space_group_name_H-M "P M M A"
_symmetry_group_IT_number 51
_symmetry_cell_setting 'orthorhombic'
loop_
_space_group_symop_operation_xyz
x,y,z
1/2-x,-y,z
1/2+x,-y,-z
-x,y,-z
-x,-y,-z
1/2+x,y,-z
1/2-x,y,z
x,-y,z
loop_
_atom_site_type_symbol
_atom_site_label
_atom_site_fract_x
_atom_site_fract_y
_atom_site_fract_z
Si Si1 0.937597 0.342724 0.895278
Si Si2 0.938588 0.552253 0.895326
Si Si3 0.063583 0.000000 0.395668
Si Si4 0.437388 0.241193 0.895939
Si Si5 0.063402 0.102347 0.602610
Si Si6 0.437430 0.945721 0.103912
Si Si7 0.438279 0.853465 0.785716
O O1 0.750000 0.339597 0.896387
O O2 0.985160 0.395332 0.854425
O O3 0.005279 0.292808 0.856303
O O4 0.000000 0.343525 0.000000
O O5 0.750000 0.552438 0.897971
O O6 0.988302 0.500000 0.854295
O O7 0.000000 0.552153 0.000000
O O8 0.000000 0.000000 0.500000
O O9 0.000087 0.050821 0.359309
O O10 0.250000 0.000000 0.393405
O O11 0.250000 0.241654 0.899759
O O12 0.491495 0.195434 0.835956
O O13 0.500000 0.236150 0.000000
O O14 0.250000 0.099037 0.596495
O O15 0.017744 0.141812 0.678683
O O16 0.000000 0.110423 0.500000
O O17 0.250000 0.943520 0.103214
O O18 0.501636 0.900961 0.161693
O O19 0.482674 0.000000 0.137772
O O20 0.500000 0.941528 0.000000
O O21 0.250000 0.854178 0.789948
#
# Coordination Sequence:
#
# PCOD9399219 Si02
#       7
#     8   8   4   8   8   8   8
#     4   9  15  23  36  53  73 101 134 169 207 241
#     4   8  13  20  30  46  69  96 128 165 202 238
#     4  10  18  30  48  68  87 106 127 152 188 236
#     4  10  19  31  44  60  81 107 139 175 209 242
#     4  10  20  35  51  69  89 110 133 163 203 247
#     4  10  21  35  50  68  88 110 136 168 206 248
#     4  10  22  35  49  66  85 110 139 170 207 249
#
# _framework density 15.116186000000001
#
# number of rings (size 3 to 8) (size 9 to 14) (size 15 to 20)
#    0.000    2.462    0.000    4.846    1.077    5.231 
#    0.000    0.000    0.000    0.000    0.000    0.000 
#    0.000    0.000    0.000    0.000    0.000    0.769 
#
# Total GULP energy -289564.154006 kJ/mol
# GULP energy per Si atom -5568.541423 kJ/mol
# Density = 1.508178 g / cm^3
# Si number density = 15.116186 Si / 1000 Ang^3
#
#
#
# Elastic Constant Matrix: (Units=GPa)
#
#
# Indices 1 2 3 4 5 6 
#
# 1 31.7511 27.1601 14.7856 0.0000 0.0000 0.0000
# 2 27.1601 161.1612 54.4130 0.0000 0.0000 0.0000
# 3 14.7856 54.4130 50.5968 0.0000 0.0000 0.0000
# 4 0.0000 0.0000 0.0000 12.8360 0.0000 0.0000
# 5 0.0000 0.0000 0.0000 0.0000 11.6472 0.0000
# 6 0.0000 0.0000 0.0000 0.0000 0.0000 12.4297
#
#
#
# Elastic Compliance Matrix: (Units=1/GPa)
#
#
# Indices 1 2 3 4 5 6 
#
# 1 0.038175 -0.004187 -0.006652 0.000000 0.000000 0.000000
# 2 -0.004187 0.010202 -0.009748 0.000000 0.000000 0.000000
# 3 -0.006652 -0.009748 0.032191 0.000000 0.000000 0.000000
# 4 0.000000 0.000000 0.000000 0.077906 0.000000 0.000000
# 5 0.000000 0.000000 0.000000 0.000000 0.085857 0.000000
# 6 0.000000 0.000000 0.000000 0.000000 0.000000 0.080452
#
#
# Mechanical properties :
#
#
# Convention : Reuss Voigt Hill
#
# Bulk Modulus (GPa) = 25.38536 48.46960 36.92748
# Shear Modulus (GPa) = 13.18954 17.19261 15.19107
#
# Velocity S-wave (km/s) = 2.95709 3.37614 3.17354
# Velocity P-wave (km/s) = 5.33752 6.87983 6.15716
#
# Compressibility (1/GPa) = 0.03939278
#
# Stress axis : x y z
#
# Youngs Moduli (GPa) = 26.19529 98.02252 31.06483
#
# Poissons Ratio (x) = 0.41047 0.20665
# Poissons Ratio (y) = 0.10969 0.30280
# Poissons Ratio (z) = 0.17426 0.95548
#
# Static dielectric constant tensor:
#      x y z
#    x 1.511910 0.000000 0.000000 
#    y 0.000000 1.568140 0.000000 
#    z 0.000000 0.000000 1.483600 
# 
# From -- ./inp_files/22430.got.cif
#   From: 2010.05.17/outbox.cif.g08.bks.cpg/sg51_12_cif.got.tgz:22430.got - 2010.06.03 11:52:47.
