data_PCOD9399239
_publ_section_title
;
Structure prediction by ZEFSAII (Michael W. Deem and Ramdas Pophale) SiO2 
 PCOD9399239
Probable space group: P M M A
;
_chemical_formula_sum "Si O2"
_cell_formula_units_Z 64
_cell_length_a 29.285761
_cell_length_b 8.648982
_cell_length_c 16.086176
_cell_angle_alpha 90.000000
_cell_angle_beta 90.000000
_cell_angle_gamma 90.000000
_cell_volume 4074.500009
_symmetry_space_group_name_H-M "P M M A"
_symmetry_group_IT_number 51
_symmetry_cell_setting 'orthorhombic'
loop_
_space_group_symop_operation_xyz
x,y,z
1/2-x,-y,z
1/2+x,-y,-z
-x,y,-z
-x,-y,-z
1/2+x,y,-z
1/2-x,y,z
x,-y,z
loop_
_atom_site_type_symbol
_atom_site_label
_atom_site_fract_x
_atom_site_fract_y
_atom_site_fract_z
Si Si1 0.640570 0.186867 0.661136
Si Si2 0.197192 0.188948 0.177761
Si Si3 0.950671 0.315757 0.591818
Si Si4 0.302429 0.685633 0.820297
Si Si5 0.140459 0.685537 0.660768
Si Si6 0.951526 0.815578 0.405617
Si Si7 0.805446 0.178753 0.004632
Si Si8 0.303477 0.186258 0.505181
O O1 0.665800 0.235957 0.745536
O O2 0.591191 0.260855 0.648015
O O3 0.671698 0.227154 0.581208
O O4 0.636179 0.000000 0.662129
O O5 0.250000 0.236695 0.190511
O O6 0.180662 0.240297 0.086237
O O7 0.197594 0.000000 0.175546
O O8 0.951935 0.500000 0.584920
O O9 0.943286 0.244837 0.499703
O O10 0.999784 0.253595 0.621108
O O11 0.250000 0.742269 0.809384
O O12 0.300992 0.500000 0.817226
O O13 0.334161 0.738425 0.744763
O O14 0.319080 0.734887 0.911565
O O15 0.136382 0.500000 0.661776
O O16 0.090763 0.759005 0.648950
O O17 0.171021 0.735135 0.582006
O O18 0.953913 0.000000 0.407456
O O19 0.750000 0.182218 0.002042
O O20 0.819473 0.000000 0.011603
O O21 0.250000 0.226876 0.502997
O O22 0.307020 0.000000 0.514639
#
# Coordination Sequence:
#
# PCOD9399239 Si02
#       8
#     8   8   8   8   8   8   8   8
#     4  10  18  30  48  70  97 129 163 197 234 280
#     4   8  14  26  46  71  98 128 162 199 237 276
#     4  11  21  34  51  71  95 123 156 197 242 286
#     4   9  18  31  46  66  95 130 162 193 235 284
#     4  11  21  33  48  68  95 128 161 197 241 287
#     4  11  21  35  53  71  91 119 158 202 243 285
#     4   8  14  26  45  68  92 121 160 203 239 271
#     4  10  20  31  44  65  95 131 167 197 227 271
#
# _framework density 15.707447999999999
#
# number of rings (size 3 to 8) (size 9 to 14) (size 15 to 20)
#    0.000    2.250    1.250    4.875    0.000    3.250 
#    0.000    1.875    0.000    1.875    0.000    0.875 
#    0.000    7.000    0.000    0.000    0.000    0.000 
#
# Total GULP energy -356932.083127 kJ/mol
# GULP energy per Si atom -5577.063799 kJ/mol
# Density = 1.567170 g / cm^3
# Si number density = 15.707448 Si / 1000 Ang^3
#
#
#
# Elastic Constant Matrix: (Units=GPa)
#
#
# Indices 1 2 3 4 5 6 
#
# 1 111.9293 32.0394 70.8602 0.0000 0.0000 0.0000
# 2 32.0394 43.6980 31.9224 0.0000 0.0000 0.0000
# 3 70.8602 31.9224 135.0238 0.0000 0.0000 0.0000
# 4 0.0000 0.0000 0.0000 42.4743 0.0000 0.0000
# 5 0.0000 0.0000 0.0000 0.0000 8.4845 0.0000
# 6 0.0000 0.0000 0.0000 0.0000 0.0000 14.5711
#
#
#
# Elastic Compliance Matrix: (Units=1/GPa)
#
#
# Indices 1 2 3 4 5 6 
#
# 1 0.014646 -0.006193 -0.006222 0.000000 0.000000 0.000000
# 2 -0.006193 0.030281 -0.003909 0.000000 0.000000 0.000000
# 3 -0.006222 -0.003909 0.011596 0.000000 0.000000 0.000000
# 4 0.000000 0.000000 0.000000 0.023544 0.000000 0.000000
# 5 0.000000 0.000000 0.000000 0.000000 0.117862 0.000000
# 6 0.000000 0.000000 0.000000 0.000000 0.000000 0.068629
#
#
# Mechanical properties :
#
#
# Convention : Reuss Voigt Hill
#
# Bulk Modulus (GPa) = 41.88613 62.25501 52.07057
# Shear Modulus (GPa) = 16.27800 23.49457 19.88629
#
# Velocity S-wave (km/s) = 3.22269 3.87170 3.56201
# Velocity P-wave (km/s) = 6.36961 7.72702 7.08092
#
# Compressibility (1/GPa) = 0.02387425
#
# Stress axis : x y z
#
# Youngs Moduli (GPa) = 68.27786 33.02437 86.24015
#
# Poissons Ratio (x) = 0.20453 0.53659
# Poissons Ratio (y) = 0.42286 0.33710
# Poissons Ratio (z) = 0.42483 0.12909
#
# Static dielectric constant tensor:
#      x y z
#    x 1.514160 0.000000 0.000000 
#    y 0.000000 1.532110 0.000000 
#    z 0.000000 0.000000 1.522780 
# 
# From -- ./inp_files/26611.got.cif
#   From: 2010.05.17/outbox.cif.g08.bks.cpg/sg51_14_cif.got.tgz:26611.got - 2010.06.03 11:52:47.
