data_PCOD9399408
_publ_section_title
;
Structure prediction by ZEFSAII (Michael W. Deem and Ramdas Pophale) SiO2 
 PCOD9399408
Probable space group: P M M A
;
_chemical_formula_sum "Si O2"
_cell_formula_units_Z 64
_cell_length_a 15.349127
_cell_length_b 7.605863
_cell_length_c 23.912734
_cell_angle_alpha 90.000000
_cell_angle_beta 90.000000
_cell_angle_gamma 90.000000
_cell_volume 2791.652845
_symmetry_space_group_name_H-M "P M M A"
_symmetry_group_IT_number 51
_symmetry_cell_setting 'orthorhombic'
loop_
_space_group_symop_operation_xyz
x,y,z
1/2-x,-y,z
1/2+x,-y,-z
-x,y,-z
-x,-y,-z
1/2+x,y,-z
1/2-x,y,z
x,-y,z
loop_
_atom_site_type_symbol
_atom_site_label
_atom_site_fract_x
_atom_site_fract_y
_atom_site_fract_z
Si Si1 0.151764 0.203325 0.212633
Si Si2 0.844775 0.712721 0.112030
Si Si3 0.902275 0.287577 0.485055
Si Si4 0.846009 0.713819 0.979994
Si Si5 0.531008 0.297394 0.886239
Si Si6 0.843954 0.794168 0.604230
Si Si7 0.348075 0.284488 0.639325
Si Si8 0.477598 0.699481 0.308978
O O1 0.250000 0.269077 0.223193
O O2 0.102562 0.295570 0.161998
O O3 0.089297 0.214690 0.266224
O O4 0.157694 0.000000 0.196683
O O5 0.750000 0.780281 0.131610
O O6 0.840067 0.500000 0.119263
O O7 0.938167 0.776101 0.134744
O O8 0.852222 0.752862 0.045639
O O9 0.900925 0.500000 0.484318
O O10 0.846763 0.226967 0.537792
O O11 0.869669 0.228903 0.424366
O O12 0.000000 0.228879 0.500000
O O13 0.750000 0.771907 0.960038
O O14 0.846867 0.500000 0.976408
O O15 0.923425 0.782179 0.941111
O O16 0.511892 0.500000 0.901300
O O17 0.750000 0.728491 0.625207
O O18 0.926016 0.700642 0.632104
O O19 0.850646 0.000000 0.618166
O O20 0.250000 0.231737 0.654481
O O21 0.350871 0.500000 0.639728
O O22 0.426867 0.224323 0.679166
O O23 0.489159 0.500000 0.289047
#
# Coordination Sequence:
#
# PCOD9399408 Si02
#       8
#     8   8   8   8   8   8   8   8
#     4  11  25  43  59  77 105 138 171 216 279 337
#     4   8  14  25  44  76 116 150 179 218 267 311
#     4  10  18  33  56  83 112 145 184 221 258 307
#     4   8  13  22  41  74 113 145 176 220 269 313
#     4  10  18  30  53  82 108 140 184 227 264 312
#     4  11  23  36  52  79 115 150 180 214 264 321
#     4   9  18  34  57  84 113 141 172 218 270 313
#     4  11  22  39  62  84 104 133 180 228 269 316
#
# _framework density 22.925484999999998
#
# number of rings (size 3 to 8) (size 9 to 14) (size 15 to 20)
#    0.000    2.250    1.250    3.375    0.000    6.250 
#    0.000    0.625    0.000    7.875    0.000    1.750 
#    0.000    0.000    0.000    0.000    0.000    0.000 
#
# Total GULP energy -357254.839695 kJ/mol
# GULP energy per Si atom -5582.106870 kJ/mol
# Density = 2.287331 g / cm^3
# Si number density = 22.925485 Si / 1000 Ang^3
#
#
#
# Elastic Constant Matrix: (Units=GPa)
#
#
# Indices 1 2 3 4 5 6 
#
# 1 202.0387 9.3553 19.9615 0.0000 0.0000 0.0000
# 2 9.3553 48.0312 -8.0265 0.0000 0.0000 0.0000
# 3 19.9615 -8.0265 19.7371 0.0000 0.0000 0.0000
# 4 0.0000 0.0000 0.0000 34.9511 0.0000 0.0000
# 5 0.0000 0.0000 0.0000 0.0000 28.3709 0.0000
# 6 0.0000 0.0000 0.0000 0.0000 0.0000 25.7661
#
#
#
# Elastic Compliance Matrix: (Units=1/GPa)
#
#
# Indices 1 2 3 4 5 6 
#
# 1 0.005713 -0.002230 -0.006685 0.000000 0.000000 0.000000
# 2 -0.002230 0.023208 0.011693 0.000000 0.000000 0.000000
# 3 -0.006685 0.011693 0.062182 0.000000 0.000000 0.000000
# 4 0.000000 0.000000 0.000000 0.028611 0.000000 0.000000
# 5 0.000000 0.000000 0.000000 0.000000 0.035247 0.000000
# 6 0.000000 0.000000 0.000000 0.000000 0.000000 0.038811
#
#
# Mechanical properties :
#
#
# Convention : Reuss Voigt Hill
#
# Bulk Modulus (GPa) = 10.34550 34.70974 22.52762
# Shear Modulus (GPa) = 22.68225 34.38542 28.53383
#
# Velocity S-wave (km/s) = 3.14887 3.87703 3.53176
# Velocity P-wave (km/s) = 4.21224 5.93421 5.14577
#
# Compressibility (1/GPa) = 0.09666040
#
# Stress axis : x y z
#
# Youngs Moduli (GPa) = 175.03040 43.08822 16.08174
#
# Poissons Ratio (x) = 0.09608 0.10751
# Poissons Ratio (y) = 0.39031 -0.18805
# Poissons Ratio (z) = 1.17009 -0.50385
#
# Static dielectric constant tensor:
#      x y z
#    x 1.916400 0.000000 0.000000 
#    y 0.000000 1.890950 0.000000 
#    z 0.000000 0.000000 1.838130 
# 
# From -- ./inp_files/35760.got.cif
#   From: 2010.05.17/outbox.cif.g08.bks.cpg/sg51_18_cif.got.tgz:35760.got - 2010.06.03 11:52:47.
