data_PCOD9399997
_publ_section_title
;
Structure prediction by ZEFSAII (Michael W. Deem and Ramdas Pophale) SiO2 
 PCOD9399997
Probable space group: P M M A
;
_chemical_formula_sum "Si O2"
_cell_formula_units_Z 64
_cell_length_a 18.448817
_cell_length_b 9.118268
_cell_length_c 22.390948
_cell_angle_alpha 90.000000
_cell_angle_beta 90.000000
_cell_angle_gamma 90.000000
_cell_volume 3766.633433
_symmetry_space_group_name_H-M "P M M A"
_symmetry_group_IT_number 51
_symmetry_cell_setting 'orthorhombic'
loop_
_space_group_symop_operation_xyz
x,y,z
1/2-x,-y,z
1/2+x,-y,-z
-x,y,-z
-x,-y,-z
1/2+x,y,-z
1/2-x,y,z
x,-y,z
loop_
_atom_site_type_symbol
_atom_site_label
_atom_site_fract_x
_atom_site_fract_y
_atom_site_fract_z
Si Si1 0.955881 0.325074 0.813415
Si Si2 0.667737 0.824506 0.121572
Si Si3 0.836750 0.174522 0.742522
Si Si4 0.591888 0.825151 0.246580
Si Si5 0.968206 0.676139 0.063469
Si Si6 0.336993 0.673010 0.640074
Si Si7 0.834392 0.178334 0.611156
Si Si8 0.661552 0.170569 0.481564
O O1 0.958635 0.500000 0.806674
O O2 0.879360 0.262036 0.792619
O O3 0.016542 0.249346 0.771998
O O4 0.977897 0.288813 0.881546
O O5 0.750000 0.776268 0.110584
O O6 0.645350 0.795422 0.190437
O O7 0.608375 0.747864 0.080198
O O8 0.663676 0.000000 0.113356
O O9 0.750000 0.195701 0.744996
O O10 0.863912 0.221659 0.675989
O O11 0.849999 0.000000 0.748512
O O12 0.623967 0.758098 0.306705
O O13 0.583186 0.000000 0.252048
O O14 0.959577 0.500000 0.061989
O O15 0.000000 0.724391 0.000000
O O16 0.250000 0.696077 0.645159
O O17 0.350902 0.500000 0.644213
O O18 0.359992 0.735063 0.575459
O O19 0.750000 0.223645 0.611767
O O20 0.865367 0.223736 0.546817
O O21 0.834964 0.000000 0.610244
O O22 0.750000 0.173211 0.484448
O O23 0.640874 0.000000 0.473159
#
# Coordination Sequence:
#
# PCOD9399997 Si02
#       8
#     8   8   8   8   8   8   8   8
#     4  10  20  34  52  74  99 125 156 196 242 289
#     4   9  18  32  51  77 104 127 159 205 248 284
#     4   9  17  31  52  76 100 126 159 198 239 287
#     4  10  19  32  50  69  93 128 166 201 240 288
#     4   9  19  36  55  74  99 134 171 200 231 281
#     4  10  19  28  40  64  98 130 160 198 243 287
#     4   7  11  22  42  66  89 116 154 198 237 277
#     4   8  13  23  40  61  86 119 159 198 236 280
#
# _framework density 16.991299000000001
#
# number of rings (size 3 to 8) (size 9 to 14) (size 15 to 20)
#    0.000    3.000    0.000    3.000    0.000    3.000 
#    0.000    1.250    0.000    6.750    0.000    5.250 
#    0.000    0.000    0.000    0.000    0.000    0.000 
#
# Total GULP energy -356474.498906 kJ/mol
# GULP energy per Si atom -5569.914045 kJ/mol
# Density = 1.695263 g / cm^3
# Si number density = 16.991299 Si / 1000 Ang^3
#
#
#
# Elastic Constant Matrix: (Units=GPa)
#
#
# Indices 1 2 3 4 5 6 
#
# 1 54.3048 36.9022 59.5655 0.0000 0.0000 0.0000
# 2 36.9022 46.2134 50.8902 0.0000 0.0000 0.0000
# 3 59.5655 50.8902 126.0932 0.0000 0.0000 0.0000
# 4 0.0000 0.0000 0.0000 22.4042 0.0000 0.0000
# 5 0.0000 0.0000 0.0000 0.0000 18.5005 0.0000
# 6 0.0000 0.0000 0.0000 0.0000 0.0000 23.1210
#
#
#
# Elastic Compliance Matrix: (Units=1/GPa)
#
#
# Indices 1 2 3 4 5 6 
#
# 1 0.050702 -0.025400 -0.013700 0.000000 0.000000 0.000000
# 2 -0.025400 0.051673 -0.008856 0.000000 0.000000 0.000000
# 3 -0.013700 -0.008856 0.017977 0.000000 0.000000 0.000000
# 4 0.000000 0.000000 0.000000 0.044634 0.000000 0.000000
# 5 0.000000 0.000000 0.000000 0.000000 0.054053 0.000000
# 6 0.000000 0.000000 0.000000 0.000000 0.000000 0.043251
#
#
# Mechanical properties :
#
#
# Convention : Reuss Voigt Hill
#
# Bulk Modulus (GPa) = 40.91684 57.92524 49.42104
# Shear Modulus (GPa) = 13.64818 18.08870 15.86844
#
# Velocity S-wave (km/s) = 2.83723 3.26634 3.05932
# Velocity P-wave (km/s) = 5.90479 6.95632 6.45201
#
# Compressibility (1/GPa) = 0.02443982
#
# Stress axis : x y z
#
# Youngs Moduli (GPa) = 19.72312 19.35228 55.62726
#
# Poissons Ratio (x) = 0.49154 0.76210
# Poissons Ratio (y) = 0.50096 0.49265
# Poissons Ratio (z) = 0.27021 0.17139
#
# Static dielectric constant tensor:
#      x y z
#    x 1.569680 0.000000 0.000000 
#    y 0.000000 1.560810 0.000000 
#    z 0.000000 0.000000 1.588220 
# 
# From -- ./inp_files/33946.got.cif
#   From: 2010.05.17/outbox.cif.g08.bks.cpg/sg51_17_cif.got.tgz:33946.got - 2010.06.03 11:52:47.
