data_PCOD9399698
_publ_section_title
;
Structure prediction by ZEFSAII (Michael W. Deem and Ramdas Pophale) SiO2 
 PCOD9399698
Probable space group: P M M A
;
_chemical_formula_sum "Si O2"
_cell_formula_units_Z 48
_cell_length_a 8.580230
_cell_length_b 15.795603
_cell_length_c 19.317151
_cell_angle_alpha 90.000000
_cell_angle_beta 90.000000
_cell_angle_gamma 90.000000
_cell_volume 2618.051673
_symmetry_space_group_name_H-M "P M M A"
_symmetry_group_IT_number 51
_symmetry_cell_setting 'orthorhombic'
loop_
_space_group_symop_operation_xyz
x,y,z
1/2-x,-y,z
1/2+x,-y,-z
-x,y,-z
-x,-y,-z
1/2+x,y,-z
1/2-x,y,z
x,-y,z
loop_
_atom_site_type_symbol
_atom_site_label
_atom_site_fract_x
_atom_site_fract_y
_atom_site_fract_z
Si Si1 0.937307 0.834926 0.163005
Si Si2 0.061919 0.591286 0.578756
Si Si3 0.563055 0.098845 0.693211
Si Si4 0.935608 0.322879 0.921463
Si Si5 0.937367 0.000000 0.077103
Si Si6 0.937718 0.222186 0.421567
Si Si7 0.935901 0.500000 0.078560
O O1 0.750000 0.828438 0.161419
O O2 0.992711 0.853459 0.240473
O O3 0.009541 0.752815 0.127325
O O4 0.987267 0.916401 0.117964
O O5 0.250000 0.591172 0.577453
O O6 0.012050 0.500000 0.610108
O O7 0.015367 0.683728 0.606948
O O8 0.000000 0.590876 0.500000
O O9 0.750000 0.101027 0.696847
O O10 0.506159 0.148372 0.625540
O O11 0.513705 0.000000 0.693565
O O12 0.750000 0.326865 0.925914
O O13 0.000699 0.411878 0.892406
O O14 0.000000 0.310549 0.000000
O O15 0.750000 0.000000 0.075275
O O16 0.000000 0.000000 0.000000
O O17 0.750000 0.217444 0.422048
O O18 0.000000 0.215908 0.500000
O O19 0.750000 0.500000 0.078276
O O20 0.000000 0.500000 0.000000
#
# Coordination Sequence:
#
# PCOD9399698 Si02
#       7
#     8   8   8   8   4   8   4
#     4  11  22  39  59  83 112 150 192 235 288 347
#     4   8  14  26  47  77 110 141 173 212 262 319
#     4  11  24  41  60  81 108 147 190 235 290 349
#     4  11  21  35  56  86 119 154 193 239 285 337
#     4  10  22  36  56  84 115 146 183 232 280 332
#     4  10  20  35  58  86 115 147 185 233 280 332
#     4  10  18  32  54  82 114 152 193 238 287 338
#
# _framework density 18.334244000000002
#
# number of rings (size 3 to 8) (size 9 to 14) (size 15 to 20)
#    0.000    1.833    0.833    5.250    0.000    4.667 
#    0.000    0.000    1.833    0.000    0.000    0.000 
#    0.000    0.000    0.000    0.000    0.000    0.000 
#
# Total GULP energy -267807.743367 kJ/mol
# GULP energy per Si atom -5579.327987 kJ/mol
# Density = 1.829251 g / cm^3
# Si number density = 18.334244 Si / 1000 Ang^3
#
#
#
# Elastic Constant Matrix: (Units=GPa)
#
#
# Indices 1 2 3 4 5 6 
#
# 1 91.1710 59.0490 28.0099 0.0000 0.0000 0.0000
# 2 59.0490 186.3058 63.3240 0.0000 0.0000 0.0000
# 3 28.0099 63.3240 79.1747 0.0000 0.0000 0.0000
# 4 0.0000 0.0000 0.0000 -61.8864 0.0000 0.0000
# 5 0.0000 0.0000 0.0000 0.0000 28.9454 0.0000
# 6 0.0000 0.0000 0.0000 0.0000 0.0000 16.8286
#
#
#
# Elastic Compliance Matrix: (Units=1/GPa)
#
#
# Indices 1 2 3 4 5 6 
#
# 1 0.014013 -0.003785 -0.001930 0.000000 0.000000 0.000000
# 2 -0.003785 0.008394 -0.005374 0.000000 0.000000 0.000000
# 3 -0.001930 -0.005374 0.017611 0.000000 0.000000 0.000000
# 4 0.000000 0.000000 0.000000 -0.016159 0.000000 0.000000
# 5 0.000000 0.000000 0.000000 0.000000 0.034548 0.000000
# 6 0.000000 0.000000 0.000000 0.000000 0.000000 0.059423
#
#
# Mechanical properties :
#
#
# Convention : Reuss Voigt Hill
#
# Bulk Modulus (GPa) = 56.05627 73.04637 64.55132
# Shear Modulus (GPa) = 34.25689 10.52875 22.39282
#
# Velocity S-wave (km/s) = 4.32726 2.39899 3.49860
# Velocity P-wave (km/s) = 7.45707 6.89938 7.18364
#
# Compressibility (1/GPa) = 0.01783922
#
# Stress axis : x y z
#
# Youngs Moduli (GPa) = 71.36215 119.13256 56.78126
#
# Poissons Ratio (x) = 0.45097 0.10958
# Poissons Ratio (y) = 0.27014 0.30516
# Poissons Ratio (z) = 0.13772 0.64026
#
# Static dielectric constant tensor:
#      x y z
#    x 1.617660 0.000000 0.000000 
#    y 0.000000 1.677760 0.000000 
#    z 0.000000 0.000000 1.602330 
# 
# From -- ./inp_files/27671.got.cif
#   From: 2010.05.17/outbox.cif.g08.bks.cpg/sg51_14_cif.got.tgz:27671.got - 2010.06.03 11:52:47.
