data_PCOD9399198
_publ_section_title
;
Structure prediction by ZEFSAII (Michael W. Deem and Ramdas Pophale) SiO2 
 PCOD9399198
Probable space group: P M M A
;
_chemical_formula_sum "Si O2"
_cell_formula_units_Z 64
_cell_length_a 22.360568
_cell_length_b 9.002446
_cell_length_c 19.624312
_cell_angle_alpha 90.000000
_cell_angle_beta 90.000000
_cell_angle_gamma 90.000000
_cell_volume 3950.370197
_symmetry_space_group_name_H-M "P M M A"
_symmetry_group_IT_number 51
_symmetry_cell_setting 'orthorhombic'
loop_
_space_group_symop_operation_xyz
x,y,z
1/2-x,-y,z
1/2+x,-y,-z
-x,y,-z
-x,-y,-z
1/2+x,y,-z
1/2-x,y,z
x,-y,z
loop_
_atom_site_type_symbol
_atom_site_label
_atom_site_fract_x
_atom_site_fract_y
_atom_site_fract_z
Si Si1 0.008988 0.678071 0.675656
Si Si2 0.441314 0.820753 0.544987
Si Si3 0.109845 0.823188 0.092938
Si Si4 0.819276 0.330258 0.803163
Si Si5 0.938167 0.827123 0.043997
Si Si6 0.495274 0.677758 0.833879
Si Si7 0.129243 0.678198 0.340088
Si Si8 0.817702 0.820862 0.528689
O O1 0.017206 0.500000 0.672184
O O2 0.940897 0.710876 0.652454
O O3 0.050523 0.758000 0.620904
O O4 0.015335 0.721988 0.755216
O O5 0.500000 0.773649 0.500000
O O6 0.376767 0.773495 0.514283
O O7 0.557760 0.000000 0.453876
O O8 0.167938 0.771458 0.132544
O O9 0.056001 0.748837 0.136017
O O10 0.101327 0.000000 0.094059
O O11 0.108322 0.776638 0.013765
O O12 0.750000 0.333456 0.786022
O O13 0.838974 0.500000 0.817915
O O14 0.853409 0.276732 0.736218
O O15 0.945701 0.732977 0.112161
O O16 0.928923 0.000000 0.061742
O O17 0.000000 0.819430 0.000000
O O18 0.500514 0.500000 0.835569
O O19 0.137846 0.500000 0.345067
O O20 0.168859 0.758571 0.396178
O O21 0.750000 0.775453 0.506868
O O22 0.818413 0.000000 0.529861
#
# Coordination Sequence:
#
# PCOD9399198 Si02
#       8
#     8   8   8   8   8   8   8   8
#     4  10  20  32  49  73 100 130 162 199 245 294
#     4  10  20  34  51  72  97 127 164 202 245 296
#     4  10  19  30  45  65  94 127 160 199 240 284
#     4  10  20  33  47  65  94 131 170 207 239 281
#     4   8  16  29  43  65  93 121 152 188 231 276
#     4  10  18  30  47  69  95 123 157 194 237 288
#     4  10  19  33  50  69  97 131 166 202 241 288
#     4  10  21  36  52  72  98 127 163 207 248 291
#
# _framework density 16.201013
#
# number of rings (size 3 to 8) (size 9 to 14) (size 15 to 20)
#    0.000    2.250    2.500    1.875    0.000    6.000 
#    0.000    0.000    0.000    0.000    0.000    0.875 
#    0.000    3.000    0.000    0.000    0.000    0.000 
#
# Total GULP energy -356501.427434 kJ/mol
# GULP energy per Si atom -5570.334804 kJ/mol
# Density = 1.616414 g / cm^3
# Si number density = 16.201013 Si / 1000 Ang^3
#
#
#
# Elastic Constant Matrix: (Units=GPa)
#
#
# Indices 1 2 3 4 5 6 
#
# 1 72.2801 15.8987 39.3534 0.0000 0.0000 0.0000
# 2 15.8987 18.8010 26.0774 0.0000 0.0000 0.0000
# 3 39.3534 26.0774 95.8116 0.0000 0.0000 0.0000
# 4 0.0000 0.0000 0.0000 30.5054 0.0000 0.0000
# 5 0.0000 0.0000 0.0000 0.0000 20.2689 0.0000
# 6 0.0000 0.0000 0.0000 0.0000 0.0000 13.5349
#
#
#
# Elastic Compliance Matrix: (Units=1/GPa)
#
#
# Indices 1 2 3 4 5 6 
#
# 1 0.018582 -0.008237 -0.005390 0.000000 0.000000 0.000000
# 2 -0.008237 0.089096 -0.020867 0.000000 0.000000 0.000000
# 3 -0.005390 -0.020867 0.018331 0.000000 0.000000 0.000000
# 4 0.000000 0.000000 0.000000 0.032781 0.000000 0.000000
# 5 0.000000 0.000000 0.000000 0.000000 0.049337 0.000000
# 6 0.000000 0.000000 0.000000 0.000000 0.000000 0.073883
#
#
# Mechanical properties :
#
#
# Convention : Reuss Voigt Hill
#
# Bulk Modulus (GPa) = 17.53735 38.83909 28.18822
# Shear Modulus (GPa) = 13.51341 19.89940 16.70640
#
# Velocity S-wave (km/s) = 2.89123 3.50849 3.21471
# Velocity P-wave (km/s) = 4.68977 6.35908 5.58712
#
# Compressibility (1/GPa) = 0.05702115
#
# Stress axis : x y z
#
# Youngs Moduli (GPa) = 53.81663 11.22384 54.55384
#
# Poissons Ratio (x) = 0.09245 0.29407
# Poissons Ratio (y) = 0.44327 1.13835
# Poissons Ratio (z) = 0.29009 0.23420
#
# Static dielectric constant tensor:
#      x y z
#    x 1.576670 0.000000 0.000000 
#    y 0.000000 1.547850 0.000000 
#    z 0.000000 0.000000 1.551820 
# 
# From -- ./inp_files/30869.got.cif
#   From: 2010.05.17/outbox.cif.g08.bks.cpg/sg51_16_cif.got.tgz:30869.got - 2010.06.03 11:52:47.
