data_PCOD9399717
_publ_section_title
;
Structure prediction by ZEFSAII (Michael W. Deem and Ramdas Pophale) SiO2 
 PCOD9399717
Probable space group: P M M A
;
_chemical_formula_sum "Si O2"
_cell_formula_units_Z 48
_cell_length_a 19.093535
_cell_length_b 14.085711
_cell_length_c 10.492136
_cell_angle_alpha 90.000000
_cell_angle_beta 90.000000
_cell_angle_gamma 90.000000
_cell_volume 2821.818176
_symmetry_space_group_name_H-M "P M M A"
_symmetry_group_IT_number 51
_symmetry_cell_setting 'orthorhombic'
loop_
_space_group_symop_operation_xyz
x,y,z
1/2-x,-y,z
1/2+x,-y,-z
-x,y,-z
-x,-y,-z
1/2+x,y,-z
1/2-x,y,z
x,-y,z
loop_
_atom_site_type_symbol
_atom_site_label
_atom_site_fract_x
_atom_site_fract_y
_atom_site_fract_z
Si Si1 0.666045 0.800726 0.851031
Si Si2 0.573665 0.112292 0.632723
Si Si3 0.918549 0.606545 0.460192
Si Si4 0.833494 0.393331 0.721737
Si Si5 0.833289 0.887946 0.120631
Si Si6 0.081547 0.192393 0.642840
O O1 0.750000 0.813390 0.840644
O O2 0.627419 0.862535 0.744090
O O3 0.649165 0.691251 0.818191
O O4 0.645336 0.832922 0.992235
O O5 0.600719 0.147856 0.495126
O O6 0.500586 0.166885 0.657651
O O7 0.560059 0.000000 0.627149
O O8 0.903401 0.500000 0.411198
O O9 0.873510 0.621090 0.588588
O O10 0.906706 0.694770 0.367332
O O11 0.000000 0.609802 0.500000
O O12 0.750000 0.389218 0.698464
O O13 0.850469 0.500000 0.767523
O O14 0.750000 0.873672 0.139680
O O15 0.875102 0.852335 0.242968
O O16 0.845270 0.000000 0.101587
#
# Coordination Sequence:
#
# PCOD9399717 Si02
#       6
#     8   8   8   8   8   8
#     4  10  20  36  55  77 104 140 183 222 261 313
#     4  11  21  34  54  79 106 137 179 226 261 306
#     4  10  18  32  55  80 106 136 171 213 265 317
#     4   9  17  31  53  79 103 131 172 221 268 311
#     4  10  22  38  54  75 109 148 180 216 264 313
#     4  11  20  36  53  79 110 139 171 217 271 317
#
# _framework density 17.010307999999998
#
# number of rings (size 3 to 8) (size 9 to 14) (size 15 to 20)
#    0.000    1.833    3.333    2.500    0.000    3.000 
#    0.000    2.500    0.000    1.000    0.000    5.833 
#    0.000    0.000    0.000    0.000    0.000    0.000 
#
# Total GULP energy -267785.421253 kJ/mol
# GULP energy per Si atom -5578.862943 kJ/mol
# Density = 1.697159 g / cm^3
# Si number density = 17.010308 Si / 1000 Ang^3
#
#
#
# Elastic Constant Matrix: (Units=GPa)
#
#
# Indices 1 2 3 4 5 6 
#
# 1 30.7264 38.2607 48.9248 0.0000 0.0000 0.0000
# 2 38.2607 142.5085 58.4691 0.0000 0.0000 0.0000
# 3 48.9248 58.4691 107.0655 0.0000 0.0000 0.0000
# 4 0.0000 0.0000 0.0000 28.8843 0.0000 0.0000
# 5 0.0000 0.0000 0.0000 0.0000 22.9044 0.0000
# 6 0.0000 0.0000 0.0000 0.0000 0.0000 23.5103
#
#
#
# Elastic Compliance Matrix: (Units=1/GPa)
#
#
# Indices 1 2 3 4 5 6 
#
# 1 0.139572 -0.014569 -0.055823 0.000000 0.000000 0.000000
# 2 -0.014569 0.010564 0.000888 0.000000 0.000000 0.000000
# 3 -0.055823 0.000888 0.034364 0.000000 0.000000 0.000000
# 4 0.000000 0.000000 0.000000 0.034621 0.000000 0.000000
# 5 0.000000 0.000000 0.000000 0.000000 0.043660 0.000000
# 6 0.000000 0.000000 0.000000 0.000000 0.000000 0.042535
#
#
# Mechanical properties :
#
#
# Convention : Reuss Voigt Hill
#
# Bulk Modulus (GPa) = 21.98142 63.51217 42.74679
# Shear Modulus (GPa) = 10.88173 24.03619 17.45896
#
# Velocity S-wave (km/s) = 2.53200 3.76312 3.20718
# Velocity P-wave (km/s) = 4.63665 7.50333 6.23692
#
# Compressibility (1/GPa) = 0.04549297
#
# Stress axis : x y z
#
# Youngs Moduli (GPa) = 7.16477 94.65973 29.10046
#
# Poissons Ratio (x) = 1.37911 1.62446
# Poissons Ratio (y) = 0.10438 -0.02585
# Poissons Ratio (z) = 0.39996 -0.08409
#
# Static dielectric constant tensor:
#      x y z
#    x 1.568740 0.000000 0.000000 
#    y 0.000000 1.606810 0.000000 
#    z 0.000000 0.000000 1.534410 
# 
# From -- ./inp_files/10826.got.cif
#   From: 2010.05.17/outbox.cif.g08.bks.cpg/sg51_6_cif.got.tgz:10826.got - 2010.06.03 11:52:47.
