data_PCOD9399125
_publ_section_title
;
Structure prediction by ZEFSAII (Michael W. Deem and Ramdas Pophale) SiO2 
 PCOD9399125
Probable space group: P M M A
;
_chemical_formula_sum "Si O2"
_cell_formula_units_Z 48
_cell_length_a 19.921119
_cell_length_b 7.477035
_cell_length_c 15.219416
_cell_angle_alpha 90.000000
_cell_angle_beta 90.000000
_cell_angle_gamma 90.000000
_cell_volume 2266.945772
_symmetry_space_group_name_H-M "P M M A"
_symmetry_group_IT_number 51
_symmetry_cell_setting 'orthorhombic'
loop_
_space_group_symop_operation_xyz
x,y,z
1/2-x,-y,z
1/2+x,-y,-z
-x,y,-z
-x,-y,-z
1/2+x,y,-z
1/2-x,y,z
x,-y,z
loop_
_atom_site_type_symbol
_atom_site_label
_atom_site_fract_x
_atom_site_fract_y
_atom_site_fract_z
Si Si1 0.548703 0.784531 0.872132
Si Si2 0.904054 0.784644 0.056415
Si Si3 0.569895 0.289169 0.670425
Si Si4 0.421856 0.718844 0.631613
Si Si5 0.826846 0.718376 0.530406
Si Si6 0.176636 0.289440 0.780576
O O1 0.473174 0.723188 0.896447
O O2 0.570593 0.730497 0.775337
O O3 0.547529 0.000000 0.872769
O O4 0.593652 0.725245 0.955166
O O5 0.843378 0.729665 0.118131
O O6 0.905758 0.000000 0.055667
O O7 0.568378 0.500000 0.651286
O O8 0.498627 0.216998 0.634511
O O9 0.634997 0.221404 0.618870
O O10 0.424889 0.500000 0.631537
O O11 0.375928 0.770851 0.549388
O O12 0.382567 0.781048 0.718828
O O13 0.750000 0.780374 0.522133
O O14 0.823657 0.500000 0.528812
O O15 0.250000 0.212478 0.762062
O O16 0.180015 0.500000 0.760708
#
# Coordination Sequence:
#
# PCOD9399125 Si02
#       6
#     8   8   8   8   8   8
#     4   9  18  33  52  72  95 126 163 203 247 291
#     4   9  18  33  51  70  95 129 167 201 239 295
#     4  10  18  29  50  78  99 124 166 209 243 287
#     4   9  16  28  46  71 101 130 161 199 243 292
#     4   9  17  29  46  70 101 133 163 200 246 292
#     4  10  19  30  47  74 105 132 160 201 253 296
#
# _framework density 21.173863000000001
#
# number of rings (size 3 to 8) (size 9 to 14) (size 15 to 20)
#    0.000    2.667    1.667    2.000    0.000    5.000 
#    0.000    2.500    0.000    6.500    0.000    0.000 
#    0.000    0.000    0.000    0.000    0.000    0.000 
#
# Total GULP energy -267823.865495 kJ/mol
# GULP energy per Si atom -5579.663864 kJ/mol
# Density = 2.112567 g / cm^3
# Si number density = 21.173863 Si / 1000 Ang^3
#
#
#
# Elastic Constant Matrix: (Units=GPa)
#
#
# Indices 1 2 3 4 5 6 
#
# 1 68.1642 5.4318 53.2050 0.0000 0.0000 0.0000
# 2 5.4318 56.1970 -10.3536 0.0000 0.0000 0.0000
# 3 53.2050 -10.3536 130.9807 0.0000 0.0000 0.0000
# 4 0.0000 0.0000 0.0000 -37.7476 0.0000 0.0000
# 5 0.0000 0.0000 0.0000 0.0000 7.9360 0.0000
# 6 0.0000 0.0000 0.0000 0.0000 0.0000 13.0793
#
#
#
# Elastic Compliance Matrix: (Units=1/GPa)
#
#
# Indices 1 2 3 4 5 6 
#
# 1 0.022284 -0.003878 -0.009358 0.000000 0.000000 0.000000
# 2 -0.003878 0.018732 0.003056 0.000000 0.000000 0.000000
# 3 -0.009358 0.003056 0.011678 0.000000 0.000000 0.000000
# 4 0.000000 0.000000 0.000000 -0.026492 0.000000 0.000000
# 5 0.000000 0.000000 0.000000 0.000000 0.126009 0.000000
# 6 0.000000 0.000000 0.000000 0.000000 0.000000 0.076457
#
#
# Mechanical properties :
#
#
# Convention : Reuss Voigt Hill
#
# Bulk Modulus (GPa) = 30.92793 39.10094 35.01443
# Shear Modulus (GPa) = 19.24507 10.45745 14.85126
#
# Velocity S-wave (km/s) = 3.01808 2.22476 2.65126
# Velocity P-wave (km/s) = 5.17527 5.01060 5.09360
#
# Compressibility (1/GPa) = 0.03233323
#
# Stress axis : x y z
#
# Youngs Moduli (GPa) = 44.87489 53.38343 85.63297
#
# Poissons Ratio (x) = 0.20703 0.80140
# Poissons Ratio (y) = 0.17403 -0.26170
# Poissons Ratio (z) = 0.41996 -0.16314
#
# Static dielectric constant tensor:
#      x y z
#    x 1.746920 0.000000 0.000000 
#    y 0.000000 1.813530 0.000000 
#    z 0.000000 0.000000 1.763500 
# 
# From -- ./inp_files/18110.got.cif
#   From: 2010.05.17/outbox.cif.g08.bks.cpg/sg51_10_cif.got.tgz:18110.got - 2010.06.03 11:52:47.
