data_PCOD9399873
_publ_section_title
;
Structure prediction by ZEFSAII (Michael W. Deem and Ramdas Pophale) SiO2 
 PCOD9399873
Probable space group: P M M A
;
_chemical_formula_sum "Si O2"
_cell_formula_units_Z 48
_cell_length_a 14.234497
_cell_length_b 17.554568
_cell_length_c 8.080174
_cell_angle_alpha 90.000000
_cell_angle_beta 90.000000
_cell_angle_gamma 90.000000
_cell_volume 2019.077479
_symmetry_space_group_name_H-M "P M M A"
_symmetry_group_IT_number 51
_symmetry_cell_setting 'orthorhombic'
loop_
_space_group_symop_operation_xyz
x,y,z
1/2-x,-y,z
1/2+x,-y,-z
-x,y,-z
-x,-y,-z
1/2+x,y,-z
1/2-x,y,z
x,-y,z
loop_
_atom_site_type_symbol
_atom_site_label
_atom_site_fract_x
_atom_site_fract_y
_atom_site_fract_z
Si Si1 0.636031 0.838774 0.998208
Si Si2 0.639092 0.000000 0.466016
Si Si3 0.136454 0.685596 0.192905
Si Si4 0.643760 0.674009 0.445379
Si Si5 0.363841 0.000000 0.162128
Si Si6 0.081299 0.834900 0.638576
Si Si7 0.365082 0.412323 0.880282
O O1 0.750000 0.837707 0.036398
O O2 0.577386 0.823028 0.163875
O O3 0.620334 0.772413 0.864193
O O4 0.611338 0.921739 0.927728
O O5 0.596601 0.000000 0.651405
O O6 0.615682 0.921529 0.377318
O O7 0.750000 0.000000 0.486978
O O8 0.250000 0.679184 0.202757
O O9 0.098368 0.665524 0.374166
O O10 0.104461 0.630308 0.046902
O O11 0.750000 0.644051 0.458365
O O12 0.646477 0.764551 0.414972
O O13 0.604090 0.632965 0.283505
O O14 0.250000 0.000000 0.169105
O O15 0.000000 0.829444 0.500000
O O16 0.250000 0.409961 0.882899
O O17 0.393894 0.500000 0.875570
#
# Coordination Sequence:
#
# PCOD9399873 Si02
#       7
#     8   4   8   8   4   8   8
#     4  10  18  34  56  78 106 146 189 229 277 336
#     4  11  22  39  59  82 111 147 192 235 280 338
#     4   9  17  30  53  82 110 144 190 234 278 337
#     4  10  19  35  58  82 112 152 193 232 284 345
#     4   9  19  33  56  84 106 135 186 234 273 329
#     4  12  24  37  54  82 116 150 191 237 283 332
#     4   9  17  30  52  85 119 145 179 237 294 336
#
# _framework density 23.773235
#
# number of rings (size 3 to 8) (size 9 to 14) (size 15 to 20)
#    0.000    2.000    1.667    3.250    0.000    4.000 
#    0.000    7.500    0.000    0.500    0.000    1.167 
#    0.000    0.000    0.000    0.000    0.000    0.000 
#
# Total GULP energy -268358.932161 kJ/mol
# GULP energy per Si atom -5590.811087 kJ/mol
# Density = 2.371913 g / cm^3
# Si number density = 23.773235 Si / 1000 Ang^3
#
#
#
# Elastic Constant Matrix: (Units=GPa)
#
#
# Indices 1 2 3 4 5 6 
#
# 1 43.5251 16.2272 -5.0978 0.0000 0.0000 0.0000
# 2 16.2272 148.0214 81.9856 0.0000 0.0000 0.0000
# 3 -5.0978 81.9856 214.2314 0.0000 0.0000 0.0000
# 4 0.0000 0.0000 0.0000 -114.8762 0.0000 0.0000
# 5 0.0000 0.0000 0.0000 0.0000 13.7027 0.0000
# 6 0.0000 0.0000 0.0000 0.0000 0.0000 -3.7406
#
#
#
# Elastic Compliance Matrix: (Units=1/GPa)
#
#
# Indices 1 2 3 4 5 6 
#
# 1 0.024648 -0.003841 0.002057 0.000000 0.000000 0.000000
# 2 -0.003841 0.009172 -0.003601 0.000000 0.000000 0.000000
# 3 0.002057 -0.003601 0.006095 0.000000 0.000000 0.000000
# 4 0.000000 0.000000 0.000000 -0.008705 0.000000 0.000000
# 5 0.000000 0.000000 0.000000 0.000000 0.072978 0.000000
# 6 0.000000 0.000000 0.000000 0.000000 0.000000 -0.267336
#
#
# Mechanical properties :
#
#
# Convention : Reuss Voigt Hill
#
# Bulk Modulus (GPa) = 34.31376 65.77865 50.04620
# Shear Modulus (GPa) = -35.04807 -0.13864 -17.59335
#
# Velocity S-wave (km/s) = -3.84378 -0.24175 -2.72334
# Velocity P-wave (km/s) = 2.28789 5.25846 3.34790
#
# Compressibility (1/GPa) = 0.02914283
#
# Stress axis : x y z
#
# Youngs Moduli (GPa) = 40.57085 109.03248 164.06873
#
# Poissons Ratio (x) = 0.41882 -0.33741
# Poissons Ratio (y) = 0.15584 0.59087
# Poissons Ratio (z) = -0.08344 0.39266
#
# Static dielectric constant tensor:
#      x y z
#    x 1.957190 0.000000 0.000000 
#    y 0.000000 1.832970 0.000000 
#    z 0.000000 0.000000 1.898280 
# 
# From -- ./inp_files/9687.got.cif
#   From: 2010.05.17/outbox.cif.g08.bks.cpg/sg51_5_cif.got.tgz:9687.got - 2010.06.03 11:52:47.
