data_PCOD9399833
_publ_section_title
;
Structure prediction by ZEFSAII (Michael W. Deem and Ramdas Pophale) SiO2 
 PCOD9399833
Probable space group: P M M A
;
_chemical_formula_sum "Si O2"
_cell_formula_units_Z 64
_cell_length_a 8.569026
_cell_length_b 20.624445
_cell_length_c 20.619299
_cell_angle_alpha 90.000000
_cell_angle_beta 90.000000
_cell_angle_gamma 90.000000
_cell_volume 3644.077691
_symmetry_space_group_name_H-M "P M M A"
_symmetry_group_IT_number 51
_symmetry_cell_setting 'orthorhombic'
loop_
_space_group_symop_operation_xyz
x,y,z
1/2-x,-y,z
1/2+x,-y,-z
-x,y,-z
-x,-y,-z
1/2+x,y,-z
1/2-x,y,z
x,-y,z
loop_
_atom_site_type_symbol
_atom_site_label
_atom_site_fract_x
_atom_site_fract_y
_atom_site_fract_z
Si Si1 0.060748 0.665224 0.683962
Si Si2 0.936386 0.791872 0.251095
Si Si3 0.938488 0.929388 0.208373
Si Si4 0.933953 0.378903 0.934159
Si Si5 0.566477 0.239657 0.100647
Si Si6 0.932479 0.896052 0.931787
Si Si7 0.065816 0.573475 0.802296
Si Si8 0.062983 0.426378 0.427410
O O1 0.250000 0.665423 0.681593
O O2 0.004803 0.738801 0.697682
O O3 0.014322 0.623016 0.746931
O O4 0.999070 0.627873 0.621447
O O5 0.750000 0.796830 0.261775
O O6 0.998335 0.865485 0.246109
O O7 0.955705 0.762842 0.178576
O O8 0.750000 0.927385 0.210653
O O9 0.986192 0.922720 0.133016
O O10 0.990721 0.000000 0.232496
O O11 0.750000 0.370359 0.939769
O O12 0.015462 0.308878 0.925459
O O13 0.976076 0.417342 0.869271
O O14 0.000000 0.409418 0.000000
O O15 0.750000 0.227538 0.087807
O O16 0.466049 0.181129 0.071930
O O17 0.750000 0.909400 0.928562
O O18 0.000000 0.920055 0.000000
O O19 0.250000 0.585577 0.815237
O O20 0.048957 0.500000 0.778502
O O21 0.250000 0.424631 0.428258
O O22 0.014293 0.500000 0.407492
O O23 0.000000 0.416107 0.500000
#
# Coordination Sequence:
#
# PCOD9399833 Si02
#       8
#     8   8   8   8   8   8   8   8
#     4  10  18  33  57  82 107 139 176 213 257 306
#     4   8  15  29  52  76  99 128 164 207 252 302
#     4   9  18  33  51  71  97 131 168 209 258 311
#     4  12  24  36  51  69  92 123 163 213 271 324
#     4  10  18  34  53  70  94 122 159 206 259 315
#     4  11  21  32  46  67  92 121 160 204 259 321
#     4  10  21  37  55  74  97 129 168 211 262 317
#     4  10  21  36  54  80 115 152 186 218 254 299
#
# _framework density 17.562743999999999
#
# number of rings (size 3 to 8) (size 9 to 14) (size 15 to 20)
#    0.000    2.000    1.250    4.500    0.000    2.750 
#    0.000    0.625    0.000    0.000    0.000    0.000 
#    0.000    0.500    0.000    0.875    0.000    1.250 
#
# Total GULP energy -357238.056028 kJ/mol
# GULP energy per Si atom -5581.844625 kJ/mol
# Density = 1.752277 g / cm^3
# Si number density = 17.562744 Si / 1000 Ang^3
#
#
#
# Elastic Constant Matrix: (Units=GPa)
#
#
# Indices 1 2 3 4 5 6 
#
# 1 23.3172 17.4803 14.5803 0.0000 0.0000 0.0000
# 2 17.4803 119.0712 57.7385 0.0000 0.0000 0.0000
# 3 14.5803 57.7385 75.5619 0.0000 0.0000 0.0000
# 4 0.0000 0.0000 0.0000 31.4339 0.0000 0.0000
# 5 0.0000 0.0000 0.0000 0.0000 22.5878 0.0000
# 6 0.0000 0.0000 0.0000 0.0000 0.0000 14.3909
#
#
#
# Elastic Compliance Matrix: (Units=1/GPa)
#
#
# Indices 1 2 3 4 5 6 
#
# 1 0.050081 -0.004236 -0.006427 0.000000 0.000000 0.000000
# 2 -0.004236 0.013700 -0.009651 0.000000 0.000000 0.000000
# 3 -0.006427 -0.009651 0.021849 0.000000 0.000000 0.000000
# 4 0.000000 0.000000 0.000000 0.031813 0.000000 0.000000
# 5 0.000000 0.000000 0.000000 0.000000 0.044272 0.000000
# 6 0.000000 0.000000 0.000000 0.000000 0.000000 0.069489
#
#
# Mechanical properties :
#
#
# Convention : Reuss Voigt Hill
#
# Bulk Modulus (GPa) = 22.22105 44.17205 33.19655
# Shear Modulus (GPa) = 17.43182 22.22593 19.82888
#
# Velocity S-wave (km/s) = 3.15389 3.56127 3.36375
# Velocity P-wave (km/s) = 5.09338 6.48967 5.83345
#
# Compressibility (1/GPa) = 0.04500237
#
# Stress axis : x y z
#
# Youngs Moduli (GPa) = 19.96766 72.99204 45.76859
#
# Poissons Ratio (x) = 0.30917 0.29415
# Poissons Ratio (y) = 0.08458 0.44172
# Poissons Ratio (z) = 0.12833 0.70446
#
# Static dielectric constant tensor:
#      x y z
#    x 1.595540 0.000000 0.000000 
#    y 0.000000 1.646890 0.000000 
#    z 0.000000 0.000000 1.576930 
# 
# From -- ./inp_files/32668.got.cif
#   From: 2010.05.17/outbox.cif.g08.bks.cpg/sg51_17_cif.got.tgz:32668.got - 2010.06.03 11:52:47.
