data_PCOD9399265
_publ_section_title
;
Structure prediction by ZEFSAII (Michael W. Deem and Ramdas Pophale) SiO2 
 PCOD9399265
Probable space group: P M M A
;
_chemical_formula_sum "Si O2"
_cell_formula_units_Z 64
_cell_length_a 9.037997
_cell_length_b 14.725734
_cell_length_c 32.415992
_cell_angle_alpha 90.000000
_cell_angle_beta 90.000000
_cell_angle_gamma 90.000000
_cell_volume 4314.281320
_symmetry_space_group_name_H-M "P M M A"
_symmetry_group_IT_number 51
_symmetry_cell_setting 'orthorhombic'
loop_
_space_group_symop_operation_xyz
x,y,z
1/2-x,-y,z
1/2+x,-y,-z
-x,y,-z
-x,-y,-z
1/2+x,y,-z
1/2-x,y,z
x,-y,z
loop_
_atom_site_type_symbol
_atom_site_label
_atom_site_fract_x
_atom_site_fract_y
_atom_site_fract_z
Si Si1 0.076932 0.610240 0.631853
Si Si2 0.927164 0.282389 0.957748
Si Si3 0.430057 0.395887 0.122888
Si Si4 0.071914 0.605676 0.283494
Si Si5 0.427014 0.102694 0.827270
Si Si6 0.926425 0.608953 0.458434
Si Si7 0.571110 0.281950 0.796722
Si Si8 0.926616 0.896140 0.074557
O O1 0.250000 0.633806 0.635700
O O2 0.068515 0.500000 0.630872
O O3 0.022413 0.642524 0.586741
O O4 0.990282 0.638553 0.672627
O O5 0.750000 0.283884 0.960844
O O6 0.973811 0.343127 0.918538
O O7 0.983493 0.180431 0.949056
O O8 0.000000 0.315460 0.000000
O O9 0.250000 0.397100 0.123426
O O10 0.480759 0.500000 0.123408
O O11 0.476879 0.341337 0.163604
O O12 0.250000 0.606509 0.284982
O O13 0.026491 0.500000 0.277150
O O14 0.024440 0.667373 0.245104
O O15 0.250000 0.109679 0.822192
O O16 0.506924 0.181777 0.802521
O O17 0.456698 0.113566 0.876349
O O18 0.471899 0.000000 0.815827
O O19 0.750000 0.621559 0.460482
O O20 0.953208 0.500000 0.458321
O O21 0.000000 0.646144 0.500000
O O22 0.750000 0.278111 0.797080
O O23 0.750000 0.883478 0.068483
O O24 0.963166 0.000000 0.062870
#
# Coordination Sequence:
#
# PCOD9399265 Si02
#       8
#     8   8   8   8   8   8   8   8
#     4   8  14  24  35  48  72 105 140 179 220 260
#     4  11  22  35  52  72  92 117 144 172 207 247
#     4   9  18  33  51  69  89 114 143 174 209 246
#     4   9  17  27  40  60  85 113 144 179 218 254
#     4   9  18  32  50  71  94 116 135 163 207 252
#     4   8  13  20  30  45  65  93 132 178 223 261
#     4  10  18  30  49  71  90 111 142 177 209 247
#     4   9  18  34  54  73  94 117 138 166 205 247
#
# _framework density 14.834452000000001
#
# number of rings (size 3 to 8) (size 9 to 14) (size 15 to 20)
#    0.000    2.875    1.250    2.250    0.000    3.500 
#    0.000    3.750    0.000    3.750    0.000    0.000 
#    0.000    0.000    0.000    0.000    0.000    0.625 
#
# Total GULP energy -356455.071247 kJ/mol
# GULP energy per Si atom -5569.610488 kJ/mol
# Density = 1.480069 g / cm^3
# Si number density = 14.834452 Si / 1000 Ang^3
#
#
#
# Elastic Constant Matrix: (Units=GPa)
#
#
# Indices 1 2 3 4 5 6 
#
# 1 11.5198 18.9655 33.2479 0.0000 0.0000 0.0000
# 2 18.9655 70.5695 52.9048 0.0000 0.0000 0.0000
# 3 33.2479 52.9048 142.4685 0.0000 0.0000 0.0000
# 4 0.0000 0.0000 0.0000 5.3457 0.0000 0.0000
# 5 0.0000 0.0000 0.0000 0.0000 25.1306 0.0000
# 6 0.0000 0.0000 0.0000 0.0000 0.0000 13.6059
#
#
#
# Elastic Compliance Matrix: (Units=1/GPa)
#
#
# Indices 1 2 3 4 5 6 
#
# 1 0.344788 -0.044816 -0.063821 0.000000 0.000000 0.000000
# 2 -0.044816 0.025462 0.001003 0.000000 0.000000 0.000000
# 3 -0.063821 0.001003 0.021540 0.000000 0.000000 0.000000
# 4 0.000000 0.000000 0.000000 0.187066 0.000000 0.000000
# 5 0.000000 0.000000 0.000000 0.000000 0.039792 0.000000
# 6 0.000000 0.000000 0.000000 0.000000 0.000000 0.073497
#
#
# Mechanical properties :
#
#
# Convention : Reuss Voigt Hill
#
# Bulk Modulus (GPa) = 5.66497 48.31048 26.98773
# Shear Modulus (GPa) = 5.17462 16.77909 10.97685
#
# Velocity S-wave (km/s) = 1.86971 3.36682 2.72317
# Velocity P-wave (km/s) = 2.91345 6.91021 5.30279
#
# Compressibility (1/GPa) = 0.17652346
#
# Stress axis : x y z
#
# Youngs Moduli (GPa) = 2.90033 39.27354 46.42422
#
# Poissons Ratio (x) = 1.76008 2.96285
# Poissons Ratio (y) = 0.12998 -0.04658
# Poissons Ratio (z) = 0.18510 -0.03941
#
# Static dielectric constant tensor:
#      x y z
#    x 1.496750 0.000000 0.000000 
#    y 0.000000 1.472050 0.000000 
#    z 0.000000 0.000000 1.510940 
# 
# From -- ./inp_files/37580.got.cif
#   From: 2010.05.17/outbox.cif.g08.bks.cpg/sg51_19_cif.got.tgz:37580.got - 2010.06.03 11:52:47.
