data_PCOD9399038
_publ_section_title
;
Structure prediction by ZEFSAII (Michael W. Deem and Ramdas Pophale) SiO2 
 PCOD9399038
Probable space group: P M M A
;
_chemical_formula_sum "Si O2"
_cell_formula_units_Z 52
_cell_length_a 7.329048
_cell_length_b 14.053517
_cell_length_c 23.202032
_cell_angle_alpha 90.000000
_cell_angle_beta 90.000000
_cell_angle_gamma 90.000000
_cell_volume 2389.783789
_symmetry_space_group_name_H-M "P M M A"
_symmetry_group_IT_number 51
_symmetry_cell_setting 'orthorhombic'
loop_
_space_group_symop_operation_xyz
x,y,z
1/2-x,-y,z
1/2+x,-y,-z
-x,y,-z
-x,-y,-z
1/2+x,y,-z
1/2-x,y,z
x,-y,z
loop_
_atom_site_type_symbol
_atom_site_label
_atom_site_fract_x
_atom_site_fract_y
_atom_site_fract_z
Si Si1 0.033475 0.500000 0.932609
Si Si2 0.531194 0.894939 0.750241
Si Si3 0.954782 0.742721 0.343748
Si Si4 0.026571 0.308160 0.871453
Si Si5 0.031894 0.893656 0.567869
Si Si6 0.959955 0.896098 0.114295
Si Si7 0.527199 0.609361 0.249831
O O1 0.250000 0.500000 0.920934
O O2 0.965515 0.402008 0.905130
O O3 0.000000 0.500000 0.000000
O O4 0.750000 0.883646 0.751210
O O5 0.447231 0.817303 0.709075
O O6 0.463900 0.892808 0.815852
O O7 0.488582 0.000000 0.727151
O O8 0.750000 0.715776 0.362473
O O9 0.040799 0.805659 0.394530
O O10 0.036901 0.652005 0.310854
O O11 0.250000 0.304092 0.871913
O O12 0.962211 0.208433 0.899040
O O13 0.971053 0.326843 0.805039
O O14 0.250000 0.895454 0.577733
O O15 0.000000 0.880044 0.500000
O O16 0.962273 0.000000 0.582874
O O17 0.750000 0.897439 0.094674
O O18 0.039886 0.000000 0.097917
O O19 0.750000 0.611591 0.250628
O O20 0.473749 0.500000 0.240764
#
# Coordination Sequence:
#
# PCOD9399038 Si02
#       7
#     4   8   8   8   8   8   8
#     4  10  20  34  54  76 100 128 165 206 242 281
#     4  10  19  27  37  61  97 129 153 181 226 283
#     4  10  18  29  47  68  90 119 159 199 236 282
#     4   9  15  27  48  72  96 125 158 197 240 281
#     4   9  18  31  46  65  89 119 156 198 239 281
#     4   9  16  27  45  68  93 123 159 196 234 280
#     4   9  15  25  45  73  97 118 150 196 246 287
#
# _framework density 21.759291999999999
#
# number of rings (size 3 to 8) (size 9 to 14) (size 15 to 20)
#    0.000    2.615    2.308    0.923    0.000    2.154 
#    0.000    2.308    0.000    1.385    0.000    0.000 
#    0.000    0.000    0.000    0.000    0.000    0.000 
#
# Total GULP energy -289975.824056 kJ/mol
# GULP energy per Si atom -5576.458155 kJ/mol
# Density = 2.170977 g / cm^3
# Si number density = 21.759292 Si / 1000 Ang^3
#
#
#
# Elastic Constant Matrix: (Units=GPa)
#
#
# Indices 1 2 3 4 5 6 
#
# 1 91.3684 6.9022 -7.8109 0.0000 0.0000 0.0000
# 2 6.9022 187.2852 36.6223 0.0000 0.0000 0.0000
# 3 -7.8109 36.6223 58.7636 0.0000 0.0000 0.0000
# 4 0.0000 0.0000 0.0000 15.3588 0.0000 0.0000
# 5 0.0000 0.0000 0.0000 0.0000 5.6722 0.0000
# 6 0.0000 0.0000 0.0000 0.0000 0.0000 -61.2778
#
#
#
# Elastic Compliance Matrix: (Units=1/GPa)
#
#
# Indices 1 2 3 4 5 6 
#
# 1 0.011175 -0.000800 0.001984 0.000000 0.000000 0.000000
# 2 -0.000800 0.006138 -0.003931 0.000000 0.000000 0.000000
# 3 0.001984 -0.003931 0.019731 0.000000 0.000000 0.000000
# 4 0.000000 0.000000 0.000000 0.065109 0.000000 0.000000
# 5 0.000000 0.000000 0.000000 0.000000 0.176299 0.000000
# 6 0.000000 0.000000 0.000000 0.000000 0.000000 -0.016319
#
#
# Mechanical properties :
#
#
# Convention : Reuss Voigt Hill
#
# Bulk Modulus (GPa) = 31.69695 45.42714 38.56204
# Shear Modulus (GPa) = 17.97633 12.06421 15.02027
#
# Velocity S-wave (km/s) = 2.87739 2.35721 2.63019
# Velocity P-wave (km/s) = 5.06339 5.32269 5.19466
#
# Compressibility (1/GPa) = 0.03154878
#
# Stress axis : x y z
#
# Youngs Moduli (GPa) = 89.48779 162.92807 50.68134
#
# Poissons Ratio (x) = 0.13030 -0.10054
# Poissons Ratio (y) = 0.07157 0.19925
# Poissons Ratio (z) = -0.17752 0.64053
#
# Static dielectric constant tensor:
#      x y z
#    x 1.830070 0.000000 0.000000 
#    y 0.000000 1.862580 0.000000 
#    z 0.000000 0.000000 1.751490 
# 
# From -- ./inp_files/34692.got.cif
#   From: 2010.05.17/outbox.cif.g08.bks.cpg/sg51_18_cif.got.tgz:34692.got - 2010.06.03 11:52:47.
