data_PCOD9399392
_publ_section_title
;
Structure prediction by ZEFSAII (Michael W. Deem and Ramdas Pophale) SiO2 
 PCOD9399392
Probable space group: P M M A
;
_chemical_formula_sum "Si O2"
_cell_formula_units_Z 48
_cell_length_a 21.053092
_cell_length_b 7.433401
_cell_length_c 13.835249
_cell_angle_alpha 90.000000
_cell_angle_beta 90.000000
_cell_angle_gamma 90.000000
_cell_volume 2165.162167
_symmetry_space_group_name_H-M "P M M A"
_symmetry_group_IT_number 51
_symmetry_cell_setting 'orthorhombic'
loop_
_space_group_symop_operation_xyz
x,y,z
1/2-x,-y,z
1/2+x,-y,-z
-x,y,-z
-x,-y,-z
1/2+x,y,-z
1/2-x,y,z
x,-y,z
loop_
_atom_site_type_symbol
_atom_site_label
_atom_site_fract_x
_atom_site_fract_y
_atom_site_fract_z
Si Si1 0.679781 0.213663 0.895763
Si Si2 0.250000 0.280301 0.461744
Si Si3 0.250000 0.280075 0.685968
Si Si4 0.568700 0.784796 0.032177
Si Si5 0.362693 0.716315 0.322274
Si Si6 0.887584 0.715328 0.249455
Si Si7 0.999530 0.280052 0.388261
O O1 0.750000 0.288517 0.914038
O O2 0.661840 0.237969 0.783969
O O3 0.682893 0.000000 0.913548
O O4 0.624837 0.287650 0.964356
O O5 0.250000 0.500000 0.461075
O O6 0.250000 0.226512 0.573267
O O7 0.187560 0.221097 0.402917
O O8 0.250000 0.500000 0.688798
O O9 0.315655 0.218510 0.734932
O O10 0.585230 0.752363 0.143481
O O11 0.566719 0.000000 0.018001
O O12 0.500000 0.714077 0.000000
O O13 0.364000 0.500000 0.329407
O O14 0.434416 0.779395 0.339959
O O15 0.884777 0.500000 0.261018
O O16 0.937842 0.781684 0.329342
O O17 0.998658 0.500000 0.386576
O O18 0.000000 0.225994 0.500000
#
# Coordination Sequence:
#
# PCOD9399392 Si02
#       7
#     8   4   4   8   8   8   8
#     4  10  21  36  53  74 102 138 173 210 263 318
#     4   9  16  28  48  75 106 138 171 209 256 307
#     4   9  18  32  50  75 108 140 171 209 256 311
#     4  10  22  39  57  76 102 138 176 214 263 319
#     4  10  18  30  52  80 105 133 173 218 257 297
#     4  10  20  34  54  80 106 137 176 217 260 303
#     4   9  17  30  51  79 109 139 172 211 257 309
#
# _framework density 22.169239000000001
#
# number of rings (size 3 to 8) (size 9 to 14) (size 15 to 20)
#    0.000    2.333    0.833    2.000    1.167    5.000 
#    0.000    0.000    0.000    6.000    0.000    0.000 
#    0.000    0.000    0.000    0.000    0.000    0.000 
#
# Total GULP energy -268312.154205 kJ/mol
# GULP energy per Si atom -5589.836546 kJ/mol
# Density = 2.211878 g / cm^3
# Si number density = 22.169239 Si / 1000 Ang^3
#
#
#
# Elastic Constant Matrix: (Units=GPa)
#
#
# Indices 1 2 3 4 5 6 
#
# 1 266.0881 13.9079 123.1711 0.0000 0.0000 0.0000
# 2 13.9079 70.7240 -8.1528 0.0000 0.0000 0.0000
# 3 123.1711 -8.1528 163.7334 0.0000 0.0000 0.0000
# 4 0.0000 0.0000 0.0000 46.8187 0.0000 0.0000
# 5 0.0000 0.0000 0.0000 0.0000 47.3175 0.0000
# 6 0.0000 0.0000 0.0000 0.0000 0.0000 -42.4910
#
#
#
# Elastic Compliance Matrix: (Units=1/GPa)
#
#
# Indices 1 2 3 4 5 6 
#
# 1 0.005962 -0.001699 -0.004570 0.000000 0.000000 0.000000
# 2 -0.001699 0.014705 0.002011 0.000000 0.000000 0.000000
# 3 -0.004570 0.002011 0.009645 0.000000 0.000000 0.000000
# 4 0.000000 0.000000 0.000000 0.021359 0.000000 0.000000
# 5 0.000000 0.000000 0.000000 0.000000 0.021134 0.000000
# 6 0.000000 0.000000 0.000000 0.000000 0.000000 -0.023534
#
#
# Mechanical properties :
#
#
# Convention : Reuss Voigt Hill
#
# Bulk Modulus (GPa) = 45.88029 84.26645 65.07337
# Shear Modulus (GPa) = 76.85909 35.10366 55.98138
#
# Velocity S-wave (km/s) = 5.89445 3.98356 5.03057
# Velocity P-wave (km/s) = 8.18941 7.69749 7.94726
#
# Compressibility (1/GPa) = 0.02179585
#
# Stress axis : x y z
#
# Youngs Moduli (GPa) = 167.71893 68.00223 103.67665
#
# Poissons Ratio (x) = 0.11556 0.47379
# Poissons Ratio (y) = 0.28500 -0.20845
# Poissons Ratio (z) = 0.76646 -0.13672
#
# Static dielectric constant tensor:
#      x y z
#    x 1.808850 0.000000 0.000000 
#    y 0.000000 1.847180 0.000000 
#    z 0.000000 0.000000 1.737160 
# 
# From -- ./inp_files/24905.got.cif
#   From: 2010.05.17/outbox.cif.g08.bks.cpg/sg51_13_cif.got.tgz:24905.got - 2010.06.03 11:52:47.
