data_PCOD9399884
_publ_section_title
;
Structure prediction by ZEFSAII (Michael W. Deem and Ramdas Pophale) SiO2 
 PCOD9399884
Probable space group: P M M A
;
_chemical_formula_sum "Si O2"
_cell_formula_units_Z 48
_cell_length_a 16.404301
_cell_length_b 7.783820
_cell_length_c 18.717927
_cell_angle_alpha 90.000000
_cell_angle_beta 90.000000
_cell_angle_gamma 90.000000
_cell_volume 2390.057025
_symmetry_space_group_name_H-M "P M M A"
_symmetry_group_IT_number 51
_symmetry_cell_setting 'orthorhombic'
loop_
_space_group_symop_operation_xyz
x,y,z
1/2-x,-y,z
1/2+x,-y,-z
-x,y,-z
-x,-y,-z
1/2+x,y,-z
1/2-x,y,z
x,-y,z
loop_
_atom_site_type_symbol
_atom_site_label
_atom_site_fract_x
_atom_site_fract_y
_atom_site_fract_z
Si Si1 0.750000 0.202342 0.957026
Si Si2 0.840065 0.202412 0.342774
Si Si3 0.080721 0.708070 0.801390
Si Si4 0.250000 0.292458 0.209603
Si Si5 0.083174 0.710185 0.279969
Si Si6 0.498148 0.699675 0.421022
Si Si7 0.916620 0.294836 0.037029
O O1 0.750000 0.246746 0.873471
O O2 0.750000 0.000000 0.965948
O O3 0.833820 0.267457 0.992845
O O4 0.750000 0.266756 0.360538
O O5 0.857314 0.226751 0.258592
O O6 0.912436 0.291656 0.385884
O O7 0.844431 0.000000 0.358657
O O8 0.085728 0.500000 0.800504
O O9 0.093234 0.770697 0.881891
O O10 0.991066 0.757247 0.772492
O O11 0.250000 0.500000 0.213784
O O12 0.331416 0.230345 0.248791
O O13 0.083795 0.500000 0.282055
O O14 0.060854 0.772961 0.359532
O O15 0.500000 0.778273 0.500000
O O16 0.474026 0.500000 0.429490
O O17 0.927795 0.500000 0.043354
O O18 0.000000 0.227904 0.000000
#
# Coordination Sequence:
#
# PCOD9399884 Si02
#       7
#     4   8   8   4   8   8   8
#     4  12  26  38  52  80 119 152 183 230 289 346
#     4  10  21  35  52  77 108 144 181 215 261 323
#     4   9  18  33  55  78 103 136 180 228 273 321
#     4  10  18  34  58  76 101 140 189 232 263 316
#     4   8  15  30  54  82 104 133 174 222 272 314
#     4   9  18  35  56  81 112 140 174 221 270 318
#     4  10  21  39  61  83 108 144 192 240 286 335
#
# _framework density 20.083203000000001
#
# number of rings (size 3 to 8) (size 9 to 14) (size 15 to 20)
#    0.000    2.500    0.000    3.250    1.167    5.333 
#    1.500    6.667    0.000    0.000    0.000    0.000 
#    0.000    0.000    0.000    0.000    0.000    0.000 
#
# Total GULP energy -267815.880596 kJ/mol
# GULP energy per Si atom -5579.497512 kJ/mol
# Density = 2.003749 g / cm^3
# Si number density = 20.083203 Si / 1000 Ang^3
#
#
#
# Elastic Constant Matrix: (Units=GPa)
#
#
# Indices 1 2 3 4 5 6 
#
# 1 88.5400 -18.9180 52.1776 0.0000 0.0000 0.0000
# 2 -18.9180 24.5051 -11.3049 0.0000 0.0000 0.0000
# 3 52.1776 -11.3049 169.0977 0.0000 0.0000 0.0000
# 4 0.0000 0.0000 0.0000 -37.2362 0.0000 0.0000
# 5 0.0000 0.0000 0.0000 0.0000 11.0158 0.0000
# 6 0.0000 0.0000 0.0000 0.0000 0.0000 174.3532
#
#
#
# Elastic Compliance Matrix: (Units=1/GPa)
#
#
# Indices 1 2 3 4 5 6 
#
# 1 0.016022 0.010409 -0.004248 0.000000 0.000000 0.000000
# 2 0.010409 0.048869 0.000055 0.000000 0.000000 0.000000
# 3 -0.004248 0.000055 0.007228 0.000000 0.000000 0.000000
# 4 0.000000 0.000000 0.000000 -0.026856 0.000000 0.000000
# 5 0.000000 0.000000 0.000000 0.000000 0.090779 0.000000
# 6 0.000000 0.000000 0.000000 0.000000 0.000000 0.005735
#
#
# Mechanical properties :
#
#
# Convention : Reuss Voigt Hill
#
# Bulk Modulus (GPa) = 11.82703 36.22804 24.02754
# Shear Modulus (GPa) = 31.74023 46.97243 39.35633
#
# Velocity S-wave (km/s) = 3.97978 4.84146 4.43161
# Velocity P-wave (km/s) = 5.19808 7.02361 6.17864
#
# Compressibility (1/GPa) = 0.08455207
#
# Stress axis : x y z
#
# Youngs Moduli (GPa) = 62.41536 20.46279 138.34768
#
# Poissons Ratio (x) = -0.21300 0.58768
# Poissons Ratio (y) = -0.64969 -0.00764
# Poissons Ratio (z) = 0.26513 -0.00113
#
# Static dielectric constant tensor:
#      x y z
#    x 1.699890 0.000000 0.000000 
#    y 0.000000 1.731530 0.000000 
#    z 0.000000 0.000000 1.718250 
# 
# From -- ./inp_files/29588.got.cif
#   From: 2010.05.17/outbox.cif.g08.bks.cpg/sg51_15_cif.got.tgz:29588.got - 2010.06.03 11:52:47.
