data_PCOD9399297
_publ_section_title
;
Structure prediction by ZEFSAII (Michael W. Deem and Ramdas Pophale) SiO2 
 PCOD9399297
Probable space group: P M M A
;
_chemical_formula_sum "Si O2"
_cell_formula_units_Z 48
_cell_length_a 12.512197
_cell_length_b 7.338373
_cell_length_c 22.314804
_cell_angle_alpha 90.000000
_cell_angle_beta 90.000000
_cell_angle_gamma 90.000000
_cell_volume 2048.926752
_symmetry_space_group_name_H-M "P M M A"
_symmetry_group_IT_number 51
_symmetry_cell_setting 'orthorhombic'
loop_
_space_group_symop_operation_xyz
x,y,z
1/2-x,-y,z
1/2+x,-y,-z
-x,y,-z
-x,-y,-z
1/2+x,y,-z
1/2-x,y,z
x,-y,z
loop_
_atom_site_type_symbol
_atom_site_label
_atom_site_fract_x
_atom_site_fract_y
_atom_site_fract_z
Si Si1 0.526767 0.276776 0.432730
Si Si2 0.917349 0.222095 0.145741
Si Si3 0.750000 0.780325 0.243076
Si Si4 0.371948 0.280263 0.327003
Si Si5 0.627975 0.779923 0.012568
Si Si6 0.250000 0.287458 0.616541
Si Si7 0.368312 0.212237 0.191286
O O1 0.500000 0.220026 0.500000
O O2 0.524928 0.500000 0.432404
O O3 0.443811 0.217896 0.381799
O O4 0.642370 0.212076 0.411567
O O5 0.851114 0.280938 0.203789
O O6 0.866242 0.268456 0.082823
O O7 0.038635 0.289094 0.150563
O O8 0.918662 0.000000 0.147492
O O9 0.750000 0.722789 0.311673
O O10 0.750000 0.000000 0.243852
O O11 0.250000 0.220168 0.335044
O O12 0.373665 0.500000 0.326588
O O13 0.405416 0.221443 0.260537
O O14 0.750000 0.724844 0.987650
O O15 0.626537 0.000000 0.003611
O O16 0.500000 0.725778 0.000000
O O17 0.250000 0.500000 0.600309
O O18 0.250000 0.293261 0.187681
O O19 0.359040 0.000000 0.175585
#
# Coordination Sequence:
#
# PCOD9399297 Si02
#       7
#     8   8   4   8   8   4   8
#     4   9  18  30  46  67  89 114 146 185 229 274
#     4   9  16  27  43  63  88 123 159 185 224 281
#     4  10  18  30  50  68  92 126 155 184 226 286
#     4   9  17  29  46  66  88 115 147 183 224 272
#     4   9  16  26  40  61  91 126 162 198 237 281
#     4  10  20  32  48  72  96 116 149 198 236 268
#     4   9  17  28  43  64  90 118 149 185 223 269
#
# _framework density 23.426901000000001
#
# number of rings (size 3 to 8) (size 9 to 14) (size 15 to 20)
#    0.000    2.833    0.833    1.000    1.167    0.667 
#    0.000    3.333    0.000    2.000    0.000    0.000 
#    0.000    2.667    0.000    0.000    0.000    0.000 
#
# Total GULP energy -267649.574279 kJ/mol
# GULP energy per Si atom -5576.032797 kJ/mol
# Density = 2.337358 g / cm^3
# Si number density = 23.426901 Si / 1000 Ang^3
#
#
#
# Elastic Constant Matrix: (Units=GPa)
#
#
# Indices 1 2 3 4 5 6 
#
# 1 174.6799 3.2959 63.7116 0.0000 0.0000 0.0000
# 2 3.2959 88.2041 -10.1472 0.0000 0.0000 0.0000
# 3 63.7116 -10.1472 65.1577 0.0000 0.0000 0.0000
# 4 0.0000 0.0000 0.0000 10.9661 0.0000 0.0000
# 5 0.0000 0.0000 0.0000 0.0000 -161.3064 0.0000
# 6 0.0000 0.0000 0.0000 0.0000 0.0000 -58.8366
#
#
#
# Elastic Compliance Matrix: (Units=1/GPa)
#
#
# Indices 1 2 3 4 5 6 
#
# 1 0.009061 -0.001383 -0.009075 0.000000 0.000000 0.000000
# 2 -0.001383 0.011755 0.003183 0.000000 0.000000 0.000000
# 3 -0.009075 0.003183 0.024717 0.000000 0.000000 0.000000
# 4 0.000000 0.000000 0.000000 0.091190 0.000000 0.000000
# 5 0.000000 0.000000 0.000000 0.000000 -0.006199 0.000000
# 6 0.000000 0.000000 0.000000 0.000000 0.000000 -0.016996
#
#
# Mechanical properties :
#
#
# Convention : Reuss Voigt Hill
#
# Bulk Modulus (GPa) = 32.27634 49.08470 40.68052
# Shear Modulus (GPa) = 36.12592 -23.75662 6.18465
#
# Velocity S-wave (km/s) = 3.93118 -3.18791 1.62656
# Velocity P-wave (km/s) = 5.86625 2.72900 4.57495
#
# Compressibility (1/GPa) = 0.03098245
#
# Stress axis : x y z
#
# Youngs Moduli (GPa) = 110.36540 85.06922 40.45862
#
# Poissons Ratio (x) = 0.11762 0.36716
# Poissons Ratio (y) = 0.15259 -0.12876
# Poissons Ratio (z) = 1.00157 -0.27074
#
# Static dielectric constant tensor:
#      x y z
#    x 1.919230 0.000000 0.000000 
#    y 0.000000 1.927030 0.000000 
#    z 0.000000 0.000000 1.815570 
# 
# From -- ./inp_files/32945.got.cif
#   From: 2010.05.17/outbox.cif.g08.bks.cpg/sg51_17_cif.got.tgz:32945.got - 2010.06.03 11:52:47.
