data_PCOD9399108
_publ_section_title
;
Structure prediction by ZEFSAII (Michael W. Deem and Ramdas Pophale) SiO2 
 PCOD9399108
Probable space group: P M M A
;
_chemical_formula_sum "Si O2"
_cell_formula_units_Z 64
_cell_length_a 23.521090
_cell_length_b 13.061973
_cell_length_c 10.156067
_cell_angle_alpha 90.000000
_cell_angle_beta 90.000000
_cell_angle_gamma 90.000000
_cell_volume 3120.267177
_symmetry_space_group_name_H-M "P M M A"
_symmetry_group_IT_number 51
_symmetry_cell_setting 'orthorhombic'
loop_
_space_group_symop_operation_xyz
x,y,z
1/2-x,-y,z
1/2+x,-y,-z
-x,y,-z
-x,-y,-z
1/2+x,y,-z
1/2-x,y,z
x,-y,z
loop_
_atom_site_type_symbol
_atom_site_label
_atom_site_fract_x
_atom_site_fract_y
_atom_site_fract_z
Si Si1 0.927027 0.203824 0.961168
Si Si2 0.509610 0.883947 0.219526
Si Si3 0.509224 0.616885 0.821424
Si Si4 0.814387 0.883604 0.926352
Si Si5 0.817584 0.881327 0.350084
Si Si6 0.314388 0.799450 0.360300
Si Si7 0.416609 0.272843 0.680631
Si Si8 0.600079 0.381119 0.595337
O O1 0.953959 0.312106 0.919336
O O2 0.860247 0.196385 0.977611
O O3 0.946235 0.137386 0.832358
O O4 0.954609 0.149872 0.088933
O O5 0.533855 0.812893 0.333733
O O6 0.518317 0.000000 0.251081
O O7 0.509283 0.500000 0.860650
O O8 0.445455 0.657499 0.793778
O O9 0.543078 0.623558 0.682508
O O10 0.750000 0.865955 0.972109
O O11 0.815213 0.869114 0.768869
O O12 0.830492 0.000000 0.961929
O O13 0.750000 0.866206 0.322129
O O14 0.826125 0.863746 0.507347
O O15 0.859802 0.794288 0.292341
O O16 0.831578 0.000000 0.315194
O O17 0.250000 0.759314 0.374473
O O18 0.356054 0.702619 0.347628
O O19 0.409053 0.342844 0.553431
O O20 0.619302 0.500000 0.598264
#
# Coordination Sequence:
#
# PCOD9399108 Si02
#       8
#     8   8   8   8   8   8   8   8
#     4  10  19  35  55  76 103 140 180 220 268 325
#     4  10  20  35  55  76 106 143 178 222 269 316
#     4  10  20  35  55  77 104 137 174 224 277 318
#     4  10  18  29  49  77 108 138 171 215 267 323
#     4   9  17  31  50  71 101 139 174 210 258 317
#     4   9  17  29  47  74 105 136 172 213 262 320
#     4  10  20  32  51  75 103 137 177 216 260 317
#     4  10  19  33  52  74 105 140 174 218 268 314
#
# _framework density 20.511064000000001
#
# number of rings (size 3 to 8) (size 9 to 14) (size 15 to 20)
#    0.000    2.250    1.250    3.000    0.000    2.750 
#    0.000    6.250    0.000    6.750    0.000    0.000 
#    0.000    8.000    0.000    0.000    0.000    0.000 
#
# Total GULP energy -356820.454192 kJ/mol
# GULP energy per Si atom -5575.319597 kJ/mol
# Density = 2.046438 g / cm^3
# Si number density = 20.511064 Si / 1000 Ang^3
#
#
#
# Elastic Constant Matrix: (Units=GPa)
#
#
# Indices 1 2 3 4 5 6 
#
# 1 108.4789 45.7837 18.5324 0.0000 0.0000 0.0000
# 2 45.7837 146.6806 11.7742 0.0000 0.0000 0.0000
# 3 18.5324 11.7742 51.4967 0.0000 0.0000 0.0000
# 4 0.0000 0.0000 0.0000 11.9211 0.0000 0.0000
# 5 0.0000 0.0000 0.0000 0.0000 17.1085 0.0000
# 6 0.0000 0.0000 0.0000 0.0000 0.0000 26.0425
#
#
#
# Elastic Compliance Matrix: (Units=1/GPa)
#
#
# Indices 1 2 3 4 5 6 
#
# 1 0.011133 -0.003212 -0.003272 0.000000 0.000000 0.000000
# 2 -0.003212 0.007872 -0.000644 0.000000 0.000000 0.000000
# 3 -0.003272 -0.000644 0.020743 0.000000 0.000000 0.000000
# 4 0.000000 0.000000 0.000000 0.083885 0.000000 0.000000
# 5 0.000000 0.000000 0.000000 0.000000 0.058451 0.000000
# 6 0.000000 0.000000 0.000000 0.000000 0.000000 0.038399
#
#
# Mechanical properties :
#
#
# Convention : Reuss Voigt Hill
#
# Bulk Modulus (GPa) = 39.22788 50.98186 45.10487
# Shear Modulus (GPa) = 20.55615 26.38548 23.47081
#
# Velocity S-wave (km/s) = 3.16919 3.59054 3.38642
# Velocity P-wave (km/s) = 5.70600 6.48838 6.10972
#
# Compressibility (1/GPa) = 0.02549207
#
# Stress axis : x y z
#
# Youngs Moduli (GPa) = 89.82173 127.03422 48.20797
#
# Poissons Ratio (x) = 0.40808 0.15774
# Poissons Ratio (y) = 0.28854 0.03104
# Poissons Ratio (z) = 0.29390 0.08178
#
# Static dielectric constant tensor:
#      x y z
#    x 1.781530 0.000000 0.000000 
#    y 0.000000 1.714140 0.000000 
#    z 0.000000 0.000000 1.777550 
# 
# From -- ./inp_files/18825.got.cif
#   From: 2010.05.17/outbox.cif.g08.bks.cpg/sg51_10_cif.got.tgz:18825.got - 2010.06.03 11:52:47.
