data_PCOD9399934
_publ_section_title
;
Structure prediction by ZEFSAII (Michael W. Deem and Ramdas Pophale) SiO2 
 PCOD9399934
Probable space group: P M M A
;
_chemical_formula_sum "Si O2"
_cell_formula_units_Z 40
_cell_length_a 15.294006
_cell_length_b 11.962156
_cell_length_c 10.268493
_cell_angle_alpha 90.000000
_cell_angle_beta 90.000000
_cell_angle_gamma 90.000000
_cell_volume 1878.613459
_symmetry_space_group_name_H-M "P M M A"
_symmetry_group_IT_number 51
_symmetry_cell_setting 'orthorhombic'
loop_
_space_group_symop_operation_xyz
x,y,z
1/2-x,-y,z
1/2+x,-y,-z
-x,y,-z
-x,-y,-z
1/2+x,y,-z
1/2-x,y,z
x,-y,z
loop_
_atom_site_type_symbol
_atom_site_label
_atom_site_fract_x
_atom_site_fract_y
_atom_site_fract_z
Si Si1 0.893234 0.744274 0.981449
Si Si2 0.356780 0.500000 0.650011
Si Si3 0.348497 0.273613 0.513478
Si Si4 0.586185 0.871185 0.722972
Si Si5 0.398897 0.500000 0.956750
Si Si6 0.622721 0.873256 0.238077
O O1 0.873818 0.811038 0.849725
O O2 0.862260 0.616143 0.987531
O O3 0.856630 0.808950 0.105844
O O4 0.000000 0.742747 0.000000
O O5 0.250000 0.500000 0.658411
O O6 0.384869 0.389937 0.570370
O O7 0.390475 0.500000 0.799122
O O8 0.250000 0.295753 0.465295
O O9 0.398298 0.207407 0.401095
O O10 0.344535 0.192882 0.637620
O O11 0.482570 0.876075 0.748117
O O12 0.616780 0.000000 0.704222
O O13 0.500000 0.500000 0.000000
O O14 0.652943 0.000000 0.234599
#
# Coordination Sequence:
#
# PCOD9399934 Si02
#       6
#     8   4   8   8   4   8
#     4   9  18  33  58  86 117 146 187 241 296 339
#     4  10  22  41  61  84 119 157 197 245 298 350
#     4  11  23  39  58  80 115 157 194 238 291 350
#     4  10  21  37  57  87 122 153 189 241 296 346
#     4  10  18  35  62  90 115 146 198 252 287 338
#     4  10  19  35  59  85 114 153 197 239 289 348
#
# _framework density 21.292297999999999
#
# number of rings (size 3 to 8) (size 9 to 14) (size 15 to 20)
#    0.000    2.000    2.000    1.800    0.000    6.400 
#    0.000    5.000    0.000    2.400    0.000    0.000 
#    0.000    0.000    0.000    0.000    0.000    0.000 
#
# Total GULP energy -223467.680244 kJ/mol
# GULP energy per Si atom -5586.692006 kJ/mol
# Density = 2.124384 g / cm^3
# Si number density = 21.292298 Si / 1000 Ang^3
#
#
#
# Elastic Constant Matrix: (Units=GPa)
#
#
# Indices 1 2 3 4 5 6 
#
# 1 43.5017 28.3858 28.5280 0.0000 0.0000 0.0000
# 2 28.3858 200.5020 82.6164 0.0000 0.0000 0.0000
# 3 28.5280 82.6164 160.0157 0.0000 0.0000 0.0000
# 4 0.0000 0.0000 0.0000 50.2224 0.0000 0.0000
# 5 0.0000 0.0000 0.0000 0.0000 -431.2848 0.0000
# 6 0.0000 0.0000 0.0000 0.0000 0.0000 7.5233
#
#
#
# Elastic Compliance Matrix: (Units=1/GPa)
#
#
# Indices 1 2 3 4 5 6 
#
# 1 0.026857 -0.002324 -0.003588 0.000000 0.000000 0.000000
# 2 -0.002324 0.006536 -0.002960 0.000000 0.000000 0.000000
# 3 -0.003588 -0.002960 0.008418 0.000000 0.000000 0.000000
# 4 0.000000 0.000000 0.000000 0.019911 0.000000 0.000000
# 5 0.000000 0.000000 0.000000 0.000000 -0.002319 0.000000
# 6 0.000000 0.000000 0.000000 0.000000 0.000000 0.132920
#
#
# Mechanical properties :
#
#
# Convention : Reuss Voigt Hill
#
# Bulk Modulus (GPa) = 41.55245 75.89774 58.72509
# Shear Modulus (GPa) = 22.92621 -57.07521 -17.07450
#
# Velocity S-wave (km/s) = 3.28493 -5.18303 -2.83487
# Velocity P-wave (km/s) = 5.82626 0.30876 4.11400
#
# Compressibility (1/GPa) = 0.02406597
#
# Stress axis : x y z
#
# Youngs Moduli (GPa) = 37.23408 152.99205 118.79840
#
# Poissons Ratio (x) = 0.35550 0.42630
# Poissons Ratio (y) = 0.08652 0.35169
# Poissons Ratio (z) = 0.13361 0.45292
#
# Static dielectric constant tensor:
#      x y z
#    x 1.847150 0.000000 0.000000 
#    y 0.000000 1.762210 0.000000 
#    z 0.000000 0.000000 1.704580 
# 
# From -- ./inp_files/10709.got.cif
#   From: 2010.05.17/outbox.cif.g08.bks.cpg/sg51_6_cif.got.tgz:10709.got - 2010.06.03 11:52:47.
