data_PCOD9399126
_publ_section_title
;
Structure prediction by ZEFSAII (Michael W. Deem and Ramdas Pophale) SiO2 
 PCOD9399126
Probable space group: P M M A
;
_chemical_formula_sum "Si O2"
_cell_formula_units_Z 64
_cell_length_a 15.282484
_cell_length_b 7.489382
_cell_length_c 24.996490
_cell_angle_alpha 90.000000
_cell_angle_beta 90.000000
_cell_angle_gamma 90.000000
_cell_volume 2861.007273
_symmetry_space_group_name_H-M "P M M A"
_symmetry_group_IT_number 51
_symmetry_cell_setting 'orthorhombic'
loop_
_space_group_symop_operation_xyz
x,y,z
1/2-x,-y,z
1/2+x,-y,-z
-x,y,-z
-x,-y,-z
1/2+x,y,-z
1/2-x,y,z
x,-y,z
loop_
_atom_site_type_symbol
_atom_site_label
_atom_site_fract_x
_atom_site_fract_y
_atom_site_fract_z
Si Si1 0.150515 0.213011 0.225199
Si Si2 0.847073 0.717702 0.099583
Si Si3 0.911533 0.291979 0.475776
Si Si4 0.848107 0.717185 0.975279
Si Si5 0.535621 0.285160 0.878415
Si Si6 0.843923 0.784974 0.586886
Si Si7 0.346610 0.286321 0.638322
Si Si8 0.469423 0.785971 0.321872
O O1 0.250000 0.283422 0.225380
O O2 0.100735 0.242022 0.169601
O O3 0.087840 0.282746 0.272463
O O4 0.157087 0.000000 0.233108
O O5 0.750000 0.777692 0.117271
O O6 0.845081 0.500000 0.101425
O O7 0.935582 0.777891 0.128829
O O8 0.858456 0.769080 0.037090
O O9 0.930016 0.500000 0.464480
O O10 0.848231 0.281251 0.526397
O O11 0.874227 0.215952 0.420703
O O12 0.000000 0.208468 0.500000
O O13 0.750000 0.769689 0.957659
O O14 0.850686 0.500000 0.975188
O O15 0.921107 0.779640 0.933876
O O16 0.531339 0.500000 0.882063
O O17 0.750000 0.736433 0.611615
O O18 0.923788 0.719893 0.623306
O O19 0.848062 0.000000 0.584791
O O20 0.250000 0.219183 0.653279
O O21 0.339791 0.500000 0.634026
O O22 0.427814 0.252431 0.677373
O O23 0.461562 0.000000 0.322255
#
# Coordination Sequence:
#
# PCOD9399126 Si02
#       8
#     8   8   8   8   8   8   8   8
#     4  10  22  40  58  75 100 134 167 205 262 322
#     4   8  14  25  43  71 107 143 174 206 251 304
#     4  10  19  33  53  77 108 143 171 198 242 307
#     4   8  13  22  40  70 106 138 169 209 256 303
#     4  10  18  29  50  79 106 133 172 220 258 296
#     4  10  20  33  52  78 104 131 168 214 258 298
#     4  10  21  37  56  79 109 141 171 207 253 303
#     4  10  21  38  58  76  98 131 175 219 256 300
#
# _framework density 22.369741999999999
#
# number of rings (size 3 to 8) (size 9 to 14) (size 15 to 20)
#    0.000    2.500    1.250    2.250    0.000    6.000 
#    0.000    0.625    0.000    6.375    0.000    1.750 
#    0.000    0.000    0.000    0.000    0.000    0.000 
#
# Total GULP energy -357206.443042 kJ/mol
# GULP energy per Si atom -5581.350673 kJ/mol
# Density = 2.231883 g / cm^3
# Si number density = 22.369742 Si / 1000 Ang^3
#
#
#
# Elastic Constant Matrix: (Units=GPa)
#
#
# Indices 1 2 3 4 5 6 
#
# 1 222.8733 7.7019 59.3528 0.0000 0.0000 0.0000
# 2 7.7019 62.9002 -2.7573 0.0000 0.0000 0.0000
# 3 59.3528 -2.7573 54.7796 0.0000 0.0000 0.0000
# 4 0.0000 0.0000 0.0000 10.4610 0.0000 0.0000
# 5 0.0000 0.0000 0.0000 0.0000 30.3022 0.0000
# 6 0.0000 0.0000 0.0000 0.0000 0.0000 12.2745
#
#
#
# Elastic Compliance Matrix: (Units=1/GPa)
#
#
# Indices 1 2 3 4 5 6 
#
# 1 0.006380 -0.001087 -0.006967 0.000000 0.000000 0.000000
# 2 -0.001087 0.016118 0.001989 0.000000 0.000000 0.000000
# 3 -0.006967 0.001989 0.025904 0.000000 0.000000 0.000000
# 4 0.000000 0.000000 0.000000 0.095593 0.000000 0.000000
# 5 0.000000 0.000000 0.000000 0.000000 0.033001 0.000000
# 6 0.000000 0.000000 0.000000 0.000000 0.000000 0.081470
#
#
# Mechanical properties :
#
#
# Convention : Reuss Voigt Hill
#
# Bulk Modulus (GPa) = 27.56957 52.12755 39.84856
# Shear Modulus (GPa) = 17.68746 29.02459 23.35603
#
# Velocity S-wave (km/s) = 2.81497 3.60598 3.23474
# Velocity P-wave (km/s) = 4.78713 6.37893 5.63948
#
# Compressibility (1/GPa) = 0.03627187
#
# Stress axis : x y z
#
# Youngs Moduli (GPa) = 156.74497 62.04078 38.60442
#
# Poissons Ratio (x) = 0.06741 0.26896
# Poissons Ratio (y) = 0.17032 -0.07677
# Poissons Ratio (z) = 1.09206 -0.12338
#
# Static dielectric constant tensor:
#      x y z
#    x 1.884040 0.000000 0.000000 
#    y 0.000000 1.868270 0.000000 
#    z 0.000000 0.000000 1.792030 
# 
# From -- ./inp_files/35759.got.cif
#   From: 2010.05.17/outbox.cif.g08.bks.cpg/sg51_18_cif.got.tgz:35759.got - 2010.06.03 11:52:47.
