data_PCOD9399900
_publ_section_title
;
Structure prediction by ZEFSAII (Michael W. Deem and Ramdas Pophale) SiO2 
 PCOD9399900
Probable space group: P M M A
;
_chemical_formula_sum "Si O2"
_cell_formula_units_Z 64
_cell_length_a 31.744743
_cell_length_b 7.606935
_cell_length_c 12.259168
_cell_angle_alpha 90.000000
_cell_angle_beta 90.000000
_cell_angle_gamma 90.000000
_cell_volume 2960.346299
_symmetry_space_group_name_H-M "P M M A"
_symmetry_group_IT_number 51
_symmetry_cell_setting 'orthorhombic'
loop_
_space_group_symop_operation_xyz
x,y,z
1/2-x,-y,z
1/2+x,-y,-z
-x,y,-z
-x,-y,-z
1/2+x,y,-z
1/2-x,y,z
x,-y,z
loop_
_atom_site_type_symbol
_atom_site_label
_atom_site_fract_x
_atom_site_fract_y
_atom_site_fract_z
Si Si1 0.704146 0.704746 0.505121
Si Si2 0.320418 0.787785 0.253120
Si Si3 0.418413 0.787313 0.231950
Si Si4 0.045937 0.215287 0.461219
Si Si5 0.879970 0.795316 0.382348
Si Si6 0.952966 0.702130 0.002467
Si Si7 0.703498 0.785115 0.988431
Si Si8 0.872482 0.794283 0.140004
O O1 0.750000 0.778294 0.473779
O O2 0.703207 0.500000 0.475556
O O3 0.699449 0.719201 0.635727
O O4 0.663879 0.788243 0.447372
O O5 0.369736 0.741652 0.250861
O O6 0.301600 0.729134 0.137585
O O7 0.316836 0.000000 0.257849
O O8 0.444260 0.730689 0.337814
O O9 0.435311 0.711503 0.119789
O O10 0.420446 0.000000 0.222298
O O11 0.082841 0.278484 0.541920
O O12 0.000000 0.270025 0.500000
O O13 0.047048 0.000000 0.460571
O O14 0.875174 0.717022 0.261524
O O15 0.891404 0.000000 0.366465
O O16 0.957066 0.500000 0.038269
O O17 0.917458 0.783484 0.080075
O O18 0.000000 0.781019 0.000000
O O19 0.750000 0.735220 0.028982
O O20 0.701647 0.000000 0.986027
O O21 0.664583 0.721499 0.062243
O O22 0.861707 0.000000 0.152724
#
# Coordination Sequence:
#
# PCOD9399900 Si02
#       8
#     8   8   8   8   8   8   8   8
#     4  11  24  39  56  82 118 158 197 236 282 342
#     4  10  18  34  59  86 114 146 187 237 291 337
#     4  10  19  35  62  88 113 146 189 240 289 339
#     4   9  18  33  55  86 116 141 178 234 294 340
#     4  10  21  38  60  85 113 148 192 241 289 340
#     4  11  25  41  57  82 120 159 194 234 284 343
#     4   9  17  31  53  83 115 142 175 229 290 338
#     4  10  21  38  61  87 113 146 193 241 286 338
#
# _framework density 21.619094
#
# number of rings (size 3 to 8) (size 9 to 14) (size 15 to 20)
#    0.000    2.000    2.500    1.125    1.750    4.000 
#    0.000    1.250    0.000    1.125    0.000    0.000 
#    0.000    0.000    0.000    0.000    0.000    0.000 
#
# Total GULP energy -357520.940246 kJ/mol
# GULP energy per Si atom -5586.264691 kJ/mol
# Density = 2.156989 g / cm^3
# Si number density = 21.619094 Si / 1000 Ang^3
#
#
#
# Elastic Constant Matrix: (Units=GPa)
#
#
# Indices 1 2 3 4 5 6 
#
# 1 129.6338 -8.4067 43.9554 0.0000 0.0000 0.0000
# 2 -8.4067 38.1463 -6.7876 0.0000 0.0000 0.0000
# 3 43.9554 -6.7876 131.5652 0.0000 0.0000 0.0000
# 4 0.0000 0.0000 0.0000 28.6709 0.0000 0.0000
# 5 0.0000 0.0000 0.0000 0.0000 3214.9357 0.0000
# 6 0.0000 0.0000 0.0000 0.0000 0.0000 105.5449
#
#
#
# Elastic Compliance Matrix: (Units=1/GPa)
#
#
# Indices 1 2 3 4 5 6 
#
# 1 0.008776 0.001425 -0.002858 0.000000 0.000000 0.000000
# 2 0.001425 0.026689 0.000901 0.000000 0.000000 0.000000
# 3 -0.002858 0.000901 0.008602 0.000000 0.000000 0.000000
# 4 0.000000 0.000000 0.000000 0.034879 0.000000 0.000000
# 5 0.000000 0.000000 0.000000 0.000000 0.000311 0.000000
# 6 0.000000 0.000000 0.000000 0.000000 0.000000 0.009475
#
#
# Mechanical properties :
#
#
# Convention : Reuss Voigt Hill
#
# Bulk Modulus (GPa) = 23.25444 39.65197 31.45321
# Shear Modulus (GPa) = 48.01686 687.86926 367.94306
#
# Velocity S-wave (km/s) = 4.71790 17.85686 13.05998
# Velocity P-wave (km/s) = 6.36066 21.06033 15.55628
#
# Compressibility (1/GPa) = 0.04300253
#
# Stress axis : x y z
#
# Youngs Moduli (GPa) = 113.95143 37.46831 116.24891
#
# Poissons Ratio (x) = -0.05341 0.33228
# Poissons Ratio (y) = -0.16242 -0.10471
# Poissons Ratio (z) = 0.32572 -0.03375
#
# Static dielectric constant tensor:
#      x y z
#    x 1.766930 0.000000 0.000000 
#    y 0.000000 1.831600 0.000000 
#    z 0.000000 0.000000 1.749550 
# 
# From -- ./inp_files/19510.got.cif
#   From: 2010.05.17/outbox.cif.g08.bks.cpg/sg51_10_cif.got.tgz:19510.got - 2010.06.03 11:52:47.
