data_PCOD9399923
_publ_section_title
;
Structure prediction by ZEFSAII (Michael W. Deem and Ramdas Pophale) SiO2 
 PCOD9399923
Probable space group: P M M A
;
_chemical_formula_sum "Si O2"
_cell_formula_units_Z 48
_cell_length_a 9.822526
_cell_length_b 28.917541
_cell_length_c 7.503631
_cell_angle_alpha 90.000000
_cell_angle_beta 90.000000
_cell_angle_gamma 90.000000
_cell_volume 2131.356099
_symmetry_space_group_name_H-M "P M M A"
_symmetry_group_IT_number 51
_symmetry_cell_setting 'orthorhombic'
loop_
_space_group_symop_operation_xyz
x,y,z
1/2-x,-y,z
1/2+x,-y,-z
-x,y,-z
-x,-y,-z
1/2+x,y,-z
1/2-x,y,z
x,-y,z
loop_
_atom_site_type_symbol
_atom_site_label
_atom_site_fract_x
_atom_site_fract_y
_atom_site_fract_z
Si Si1 0.089158 0.136309 0.827029
Si Si2 0.086150 0.949096 0.320350
Si Si3 0.974233 0.449351 0.714770
Si Si4 0.524189 0.763724 0.215917
Si Si5 0.750000 0.618296 0.640990
Si Si6 0.250000 0.696010 0.857242
Si Si7 0.750000 0.276471 0.724559
Si Si8 0.750000 0.409669 0.223761
O O1 0.250000 0.124876 0.853259
O O2 0.082690 0.186193 0.729444
O O3 0.000297 0.093148 0.758656
O O4 0.000000 0.146656 0.000000
O O5 0.250000 0.939094 0.342756
O O6 0.000000 0.954873 0.500000
O O7 0.079743 0.000000 0.227850
O O8 0.919241 0.500000 0.763502
O O9 0.877990 0.405298 0.737091
O O10 0.000000 0.451406 0.500000
O O11 0.115390 0.438850 0.811581
O O12 0.622291 0.719892 0.239249
O O13 0.383311 0.753200 0.311702
O O14 0.500000 0.763588 0.000000
O O15 0.750000 0.673125 0.639470
O O16 0.750000 0.601007 0.436977
O O17 0.250000 0.641099 0.859146
O O18 0.250000 0.712797 0.062277
#
# Coordination Sequence:
#
# PCOD9399923 Si02
#       8
#     8   8   8   8   4   4   4   4
#     4  11  22  37  61  90 119 152 198 252 300 343
#     4  10  22  41  64  89 122 163 202 241 292 355
#     4   9  17  30  49  72  97 128 166 208 257 315
#     4   9  19  33  54  77 102 140 184 224 266 329
#     4  10  19  32  48  76  98 129 165 214 263 313
#     4  10  18  35  51  73 101 137 174 215 261 326
#     4  10  20  33  53  73 101 137 178 211 267 328
#     4  10  19  30  52  72 100 125 167 216 261 311
#
# _framework density 22.520873000000002
#
# number of rings (size 3 to 8) (size 9 to 14) (size 15 to 20)
#    0.000    2.167    0.833    2.500    4.667    3.333 
#    0.000    1.667    0.000    3.000    0.000    0.000 
#    0.000    0.000    0.000    0.000    0.000    0.000 
#
# Total GULP energy -267499.208661 kJ/mol
# GULP energy per Si atom -5572.900180 kJ/mol
# Density = 2.246961 g / cm^3
# Si number density = 22.520873 Si / 1000 Ang^3
#
#
#
# Elastic Constant Matrix: (Units=GPa)
#
#
# Indices 1 2 3 4 5 6 
#
# 1 171.9778 65.3677 8.0076 0.0000 0.0000 0.0000
# 2 65.3677 150.6007 9.8003 0.0000 0.0000 0.0000
# 3 8.0076 9.8003 15.7445 0.0000 0.0000 0.0000
# 4 0.0000 0.0000 0.0000 28.5082 0.0000 0.0000
# 5 0.0000 0.0000 0.0000 0.0000 11.2788 0.0000
# 6 0.0000 0.0000 0.0000 0.0000 0.0000 40.0531
#
#
#
# Elastic Compliance Matrix: (Units=1/GPa)
#
#
# Indices 1 2 3 4 5 6 
#
# 1 0.007009 -0.002929 -0.001742 0.000000 0.000000 0.000000
# 2 -0.002929 0.008144 -0.003580 0.000000 0.000000 0.000000
# 3 -0.001742 -0.003580 0.066628 0.000000 0.000000 0.000000
# 4 0.000000 0.000000 0.000000 0.035078 0.000000 0.000000
# 5 0.000000 0.000000 0.000000 0.000000 0.088662 0.000000
# 6 0.000000 0.000000 0.000000 0.000000 0.000000 0.024967
#
#
# Mechanical properties :
#
#
# Convention : Reuss Voigt Hill
#
# Bulk Modulus (GPa) = 15.31844 56.07492 35.69668
# Shear Modulus (GPa) = 18.60469 32.97784 25.79127
#
# Velocity S-wave (km/s) = 2.87733 3.83080 3.38778
# Velocity P-wave (km/s) = 4.22556 6.67232 5.58459
#
# Compressibility (1/GPa) = 0.06528078
#
# Stress axis : x y z
#
# Youngs Moduli (GPa) = 142.67237 122.78491 15.00865
#
# Poissons Ratio (x) = 0.35963 0.02614
# Poissons Ratio (y) = 0.41788 0.05373
# Poissons Ratio (z) = 0.24849 0.43955
#
# Static dielectric constant tensor:
#      x y z
#    x 1.794920 0.000000 0.000000 
#    y 0.000000 1.911200 0.000000 
#    z 0.000000 0.000000 1.845160 
# 
# From -- ./inp_files/6316.got.cif
#   From: 2010.05.17/outbox.cif.g08.bks.cpg/sg51_4_cif.got.tgz:6316.got - 2010.06.03 11:52:47.
