data_PCOD9399967
_publ_section_title
;
Structure prediction by ZEFSAII (Michael W. Deem and Ramdas Pophale) SiO2 
 PCOD9399967
Probable space group: P M M A
;
_chemical_formula_sum "Si O2"
_cell_formula_units_Z 64
_cell_length_a 14.941595
_cell_length_b 18.037085
_cell_length_c 15.586753
_cell_angle_alpha 90.000000
_cell_angle_beta 90.000000
_cell_angle_gamma 90.000000
_cell_volume 4200.673873
_symmetry_space_group_name_H-M "P M M A"
_symmetry_group_IT_number 51
_symmetry_cell_setting 'orthorhombic'
loop_
_space_group_symop_operation_xyz
x,y,z
1/2-x,-y,z
1/2+x,-y,-z
-x,y,-z
-x,-y,-z
1/2+x,y,-z
1/2-x,y,z
x,-y,z
loop_
_atom_site_type_symbol
_atom_site_label
_atom_site_fract_x
_atom_site_fract_y
_atom_site_fract_z
Si Si1 0.526247 0.801383 0.317364
Si Si2 0.644036 0.414676 0.063944
Si Si3 0.347193 0.412608 0.674005
Si Si4 0.473825 0.330518 0.804078
Si Si5 0.643785 0.912538 0.409023
Si Si6 0.352247 0.181157 0.420600
Si Si7 0.145568 0.414003 0.141965
Si Si8 0.907208 0.312630 0.464963
O O1 0.530578 0.754201 0.229693
O O2 0.588144 0.872736 0.333700
O O3 0.425469 0.821361 0.345873
O O4 0.563922 0.745452 0.390693
O O5 0.750000 0.405250 0.082125
O O6 0.619676 0.500000 0.089814
O O7 0.582751 0.355035 0.112187
O O8 0.633783 0.409999 0.961298
O O9 0.250000 0.393300 0.712638
O O10 0.354696 0.500000 0.669627
O O11 0.425584 0.378987 0.730706
O O12 0.351794 0.375640 0.580917
O O13 0.574925 0.358751 0.815874
O O14 0.750000 0.899535 0.395993
O O15 0.622305 0.875055 0.501585
O O16 0.627040 0.000000 0.412230
O O17 0.250000 0.166476 0.395031
O O18 0.359639 0.262877 0.463512
O O19 0.250000 0.398260 0.160871
O O20 0.127524 0.500000 0.166337
O O21 0.000000 0.344280 0.500000
#
# Coordination Sequence:
#
# PCOD9399967 Si02
#       8
#     8   8   8   8   8   8   8   8
#     4   9  19  28  39  63  88 111 138 169 210 260
#     4   9  17  29  46  67  87 110 144 184 225 266
#     4  10  19  27  37  56  78 102 136 176 215 253
#     4  11  19  28  42  60  87 118 142 169 216 269
#     4   9  17  30  49  69  87 111 143 179 219 260
#     4   9  16  28  44  59  79 109 142 172 206 249
#     4   9  18  31  46  64  86 115 152 190 223 256
#     4   8  15  28  41  54  73 101 137 175 213 249
#
# _framework density 15.235652
#
# number of rings (size 3 to 8) (size 9 to 14) (size 15 to 20)
#    0.000    2.750    0.000    4.125    0.000    7.250 
#    0.000    0.000    0.000    0.000    0.000   12.250 
#    0.000    2.000    0.000    2.750    0.000    0.625 
#
# Total GULP energy -356375.829990 kJ/mol
# GULP energy per Si atom -5568.372344 kJ/mol
# Density = 1.520097 g / cm^3
# Si number density = 15.235652 Si / 1000 Ang^3
#
#
#
# Elastic Constant Matrix: (Units=GPa)
#
#
# Indices 1 2 3 4 5 6 
#
# 1 77.0261 42.4950 24.1969 0.0000 0.0000 0.0000
# 2 42.4950 59.5786 26.2194 0.0000 0.0000 0.0000
# 3 24.1969 26.2194 27.1768 0.0000 0.0000 0.0000
# 4 0.0000 0.0000 0.0000 17.6135 0.0000 0.0000
# 5 0.0000 0.0000 0.0000 0.0000 9.1926 0.0000
# 6 0.0000 0.0000 0.0000 0.0000 0.0000 12.7724
#
#
#
# Elastic Compliance Matrix: (Units=1/GPa)
#
#
# Indices 1 2 3 4 5 6 
#
# 1 0.022329 -0.012473 -0.007847 0.000000 0.000000 0.000000
# 2 -0.012473 0.036136 -0.023758 0.000000 0.000000 0.000000
# 3 -0.007847 -0.023758 0.066704 0.000000 0.000000 0.000000
# 4 0.000000 0.000000 0.000000 0.056775 0.000000 0.000000
# 5 0.000000 0.000000 0.000000 0.000000 0.108783 0.000000
# 6 0.000000 0.000000 0.000000 0.000000 0.000000 0.078294
#
#
# Mechanical properties :
#
#
# Convention : Reuss Voigt Hill
#
# Bulk Modulus (GPa) = 27.01753 38.84489 32.93121
# Shear Modulus (GPa) = 10.64930 12.64039 11.64484
#
# Velocity S-wave (km/s) = 2.64668 2.88350 2.76762
# Velocity P-wave (km/s) = 5.20687 6.05289 5.64575
#
# Compressibility (1/GPa) = 0.03701301
#
# Stress axis : x y z
#
# Youngs Moduli (GPa) = 44.78478 27.67288 14.99168
#
# Poissons Ratio (x) = 0.34516 0.11764
# Poissons Ratio (y) = 0.55860 0.35617
# Poissons Ratio (z) = 0.35143 0.65745
#
# Static dielectric constant tensor:
#      x y z
#    x 1.543530 0.000000 0.000000 
#    y 0.000000 1.499710 0.000000 
#    z 0.000000 0.000000 1.519850 
# 
# From -- ./inp_files/24476.got.cif
#   From: 2010.05.17/outbox.cif.g08.bks.cpg/sg51_13_cif.got.tgz:24476.got - 2010.06.03 11:52:47.
