data_PCOD9399648
_publ_section_title
;
Structure prediction by ZEFSAII (Michael W. Deem and Ramdas Pophale) SiO2 
 PCOD9399648
Probable space group: P M M A
;
_chemical_formula_sum "Si O2"
_cell_formula_units_Z 46
_cell_length_a 16.163829
_cell_length_b 12.316476
_cell_length_c 13.068951
_cell_angle_alpha 90.000000
_cell_angle_beta 90.000000
_cell_angle_gamma 90.000000
_cell_volume 2601.785218
_symmetry_space_group_name_H-M "P M M A"
_symmetry_group_IT_number 51
_symmetry_cell_setting 'orthorhombic'
loop_
_space_group_symop_operation_xyz
x,y,z
1/2-x,-y,z
1/2+x,-y,-z
-x,y,-z
-x,-y,-z
1/2+x,y,-z
1/2-x,y,z
x,-y,z
loop_
_atom_site_type_symbol
_atom_site_label
_atom_site_fract_x
_atom_site_fract_y
_atom_site_fract_z
Si Si1 0.433754 0.869651 0.909437
Si Si2 0.750000 0.281242 0.825576
Si Si3 0.750000 0.500000 0.958592
Si Si4 0.421851 0.500000 0.920315
Si Si5 0.591114 0.630039 0.456286
Si Si6 0.372760 0.626274 0.323095
Si Si7 0.947183 0.313984 0.245382
Si Si8 0.250000 0.870543 0.988588
O O1 0.455979 0.802232 0.808138
O O2 0.338363 0.838793 0.938039
O O3 0.437046 0.000000 0.895465
O O4 0.500000 0.842543 0.000000
O O5 0.750000 0.389883 0.893764
O O6 0.827129 0.292105 0.751184
O O7 0.750000 0.180043 0.899176
O O8 0.835242 0.500000 0.021004
O O9 0.423914 0.604117 0.845779
O O10 0.500000 0.500000 0.000000
O O11 0.500000 0.660355 0.500000
O O12 0.591112 0.500000 0.438993
O O13 0.644649 0.650246 0.557861
O O14 0.609773 0.684489 0.347349
O O15 0.349517 0.500000 0.304850
O O16 0.468072 0.638478 0.291873
O O17 0.250000 0.000000 0.992067
#
# Coordination Sequence:
#
# PCOD9399648 Si02
#       8
#     8   4   2   4   8   8   8   4
#     4  10  21  37  56  79 104 140 187 221 256 316
#     4  12  20  34  52  76 108 136 171 223 267 313
#     4  12  24  32  44  78 112 128 158 218 262 312
#     4  12  22  32  48  74 106 136 168 206 264 310
#     4   8  15  29  50  74 101 134 178 212 250 321
#     4  10  18  32  52  78 106 139 177 209 262 324
#     4  11  18  33  54  75 102 141 174 213 260 314
#     4  10  22  40  57  74 105 144 180 220 262 308
#
# _framework density 17.680167999999998
#
# number of rings (size 3 to 8) (size 9 to 14) (size 15 to 20)
#    0.000    1.739    2.609    4.696    0.000    0.000 
#    0.000    1.739    0.000    5.739    0.000    0.000 
#    0.000    0.000    0.000    0.000    0.000    0.000 
#
# Total GULP energy -256246.561605 kJ/mol
# GULP energy per Si atom -5570.577426 kJ/mol
# Density = 1.763993 g / cm^3
# Si number density = 17.680168 Si / 1000 Ang^3
#
#
#
# Elastic Constant Matrix: (Units=GPa)
#
#
# Indices 1 2 3 4 5 6 
#
# 1 73.2729 9.4055 30.9460 0.0000 0.0000 0.0000
# 2 9.4055 30.3419 33.6411 0.0000 0.0000 0.0000
# 3 30.9460 33.6411 132.8205 0.0000 0.0000 0.0000
# 4 0.0000 0.0000 0.0000 26.4330 0.0000 0.0000
# 5 0.0000 0.0000 0.0000 0.0000********** 0.0000
# 6 0.0000 0.0000 0.0000 0.0000 0.0000 8.8424
#
#
#
# Elastic Compliance Matrix: (Units=1/GPa)
#
#
# Indices 1 2 3 4 5 6 
#
# 1 0.015163 -0.001089 -0.003257 0.000000 0.000000 0.000000
# 2 -0.001089 0.045905 -0.011373 0.000000 0.000000 0.000000
# 3 -0.003257 -0.011373 0.011168 0.000000 0.000000 0.000000
# 4 0.000000 0.000000 0.000000 0.037831 0.000000 0.000000
# 5 0.000000 0.000000 0.000000 0.000000 -0.000071 0.000000
# 6 0.000000 0.000000 0.000000 0.000000 0.000000 0.113091
#
#
# Mechanical properties :
#
#
# Convention : Reuss Voigt Hill
#
# Bulk Modulus (GPa) = 24.51101 42.71337 33.61219
# Shear Modulus (GPa) = 18.64794 -2796.68831 -1389.02019
#
# Velocity S-wave (km/s) = 3.25120 -39.81528 -28.05963
# Velocity P-wave (km/s) = 5.29031 45.71065 32.10511
#
# Compressibility (1/GPa) = 0.04079799
#
# Stress axis : x y z
#
# Youngs Moduli (GPa) = 65.95012 21.78397 89.53790
#
# Poissons Ratio (x) = 0.02373 0.29162
# Poissons Ratio (y) = 0.07183 1.01834
# Poissons Ratio (z) = 0.21480 0.24775
#
# Static dielectric constant tensor:
#      x y z
#    x 1.783020 0.000000 0.000000 
#    y 0.000000 1.571350 0.000000 
#    z 0.000000 0.000000 1.633840 
# 
# From -- ./inp_files/17360.got.cif
#   From: 2010.05.17/outbox.cif.g08.bks.cpg/sg51_9_cif.got.tgz:17360.got - 2010.06.03 11:52:47.
