data_PCOD9399181
_publ_section_title
;
Structure prediction by ZEFSAII (Michael W. Deem and Ramdas Pophale) SiO2 
 PCOD9399181
Probable space group: P M M A
;
_chemical_formula_sum "Si O2"
_cell_formula_units_Z 64
_cell_length_a 9.501324
_cell_length_b 23.072140
_cell_length_c 18.319667
_cell_angle_alpha 90.000000
_cell_angle_beta 90.000000
_cell_angle_gamma 90.000000
_cell_volume 4015.961877
_symmetry_space_group_name_H-M "P M M A"
_symmetry_group_IT_number 51
_symmetry_cell_setting 'orthorhombic'
loop_
_space_group_symop_operation_xyz
x,y,z
1/2-x,-y,z
1/2+x,-y,-z
-x,y,-z
-x,-y,-z
1/2+x,y,-z
1/2-x,y,z
x,-y,z
loop_
_atom_site_type_symbol
_atom_site_label
_atom_site_fract_x
_atom_site_fract_y
_atom_site_fract_z
Si Si1 0.593179 0.433026 0.211640
Si Si2 0.579972 0.318551 0.572090
Si Si3 0.586166 0.433443 0.387759
Si Si4 0.412117 0.333812 0.151004
Si Si5 0.408139 0.750454 0.936647
Si Si6 0.586620 0.243045 0.714406
Si Si7 0.083279 0.930902 0.925478
Si Si8 0.909764 0.157797 0.194625
O O1 0.750000 0.410581 0.192766
O O2 0.584129 0.500000 0.190043
O O3 0.582231 0.431167 0.299528
O O4 0.474236 0.394593 0.175991
O O5 0.500000 0.296926 0.500000
O O6 0.750000 0.320511 0.564829
O O7 0.517415 0.383212 0.585408
O O8 0.544328 0.276888 0.640711
O O9 0.750000 0.422423 0.409557
O O10 0.550798 0.500000 0.409143
O O11 0.250000 0.336802 0.129178
O O12 0.509124 0.306272 0.088991
O O13 0.422180 0.290845 0.220936
O O14 0.250000 0.738872 0.961098
O O15 0.403126 0.792725 0.867680
O O16 0.500000 0.778565 0.000000
O O17 0.750000 0.226435 0.707191
O O18 0.498420 0.187286 0.740708
O O19 0.250000 0.916703 0.935009
O O20 0.034651 0.896712 0.852719
O O21 0.070832 0.000000 0.914840
O O22 0.000000 0.916532 0.000000
O O23 0.750000 0.145154 0.219022
#
# Coordination Sequence:
#
# PCOD9399181 Si02
#       8
#     8   8   8   8   8   8   8   8
#     4   9  17  29  46  67  88 110 140 179 222 270
#     4  11  22  35  49  68  92 122 155 191 238 288
#     4   9  18  32  49  68  90 118 151 187 229 279
#     4  10  18  30  47  66  87 112 143 183 227 271
#     4  10  19  30  44  65  90 117 150 187 226 269
#     4   9  19  33  47  66  91 117 152 194 233 273
#     4   9  17  29  45  69 103 139 172 202 230 266
#     4   9  18  30  47  69  93 126 163 195 229 266
#
# _framework density 15.936406
#
# number of rings (size 3 to 8) (size 9 to 14) (size 15 to 20)
#    0.000    2.500    1.250    2.250    0.000    3.250 
#    0.000    1.250    0.000    0.375    0.000    0.000 
#    0.000    0.500    0.000    1.125    0.000    1.750 
#
# Total GULP energy -356550.747617 kJ/mol
# GULP energy per Si atom -5571.105432 kJ/mol
# Density = 1.590013 g / cm^3
# Si number density = 15.936406 Si / 1000 Ang^3
#
#
#
# Elastic Constant Matrix: (Units=GPa)
#
#
# Indices 1 2 3 4 5 6 
#
# 1 87.2271 40.9911 39.8277 0.0000 0.0000 0.0000
# 2 40.9911 66.1515 33.2689 0.0000 0.0000 0.0000
# 3 39.8277 33.2689 59.0621 0.0000 0.0000 0.0000
# 4 0.0000 0.0000 0.0000 18.5179 0.0000 0.0000
# 5 0.0000 0.0000 0.0000 0.0000 21.9352 0.0000
# 6 0.0000 0.0000 0.0000 0.0000 0.0000 19.9986
#
#
#
# Elastic Compliance Matrix: (Units=1/GPa)
#
#
# Indices 1 2 3 4 5 6 
#
# 1 0.018830 -0.007370 -0.008546 0.000000 0.000000 0.000000
# 2 -0.007370 0.023976 -0.008536 0.000000 0.000000 0.000000
# 3 -0.008546 -0.008536 0.027503 0.000000 0.000000 0.000000
# 4 0.000000 0.000000 0.000000 0.054002 0.000000 0.000000
# 5 0.000000 0.000000 0.000000 0.000000 0.045589 0.000000
# 6 0.000000 0.000000 0.000000 0.000000 0.000000 0.050003
#
#
# Mechanical properties :
#
#
# Convention : Reuss Voigt Hill
#
# Bulk Modulus (GPa) = 46.71852 48.95737 47.83794
# Shear Modulus (GPa) = 18.11975 18.64722 18.38348
#
# Velocity S-wave (km/s) = 3.37561 3.42439 3.40008
# Velocity P-wave (km/s) = 6.67624 6.81340 6.74517
#
# Compressibility (1/GPa) = 0.02140479
#
# Stress axis : x y z
#
# Youngs Moduli (GPa) = 53.10683 41.70759 36.36032
#
# Poissons Ratio (x) = 0.30738 0.31075
# Poissons Ratio (y) = 0.39140 0.31036
# Poissons Ratio (z) = 0.45387 0.35601
#
# Static dielectric constant tensor:
#      x y z
#    x 1.551010 0.000000 0.000000 
#    y 0.000000 1.531170 0.000000 
#    z 0.000000 0.000000 1.548080 
# 
# From -- ./inp_files/28319.got.cif
#   From: 2010.05.17/outbox.cif.g08.bks.cpg/sg51_15_cif.got.tgz:28319.got - 2010.06.03 11:52:47.
