data_PCOD9399611
_publ_section_title
;
Structure prediction by ZEFSAII (Michael W. Deem and Ramdas Pophale) SiO2 
 PCOD9399611
Probable space group: P M M A
;
_chemical_formula_sum "Si O2"
_cell_formula_units_Z 52
_cell_length_a 7.836808
_cell_length_b 24.480410
_cell_length_c 14.686392
_cell_angle_alpha 90.000000
_cell_angle_beta 90.000000
_cell_angle_gamma 90.000000
_cell_volume 2817.558941
_symmetry_space_group_name_H-M "P M M A"
_symmetry_group_IT_number 51
_symmetry_cell_setting 'orthorhombic'
loop_
_space_group_symop_operation_xyz
x,y,z
1/2-x,-y,z
1/2+x,-y,-z
-x,y,-z
-x,-y,-z
1/2+x,y,-z
1/2-x,y,z
x,-y,z
loop_
_atom_site_type_symbol
_atom_site_label
_atom_site_fract_x
_atom_site_fract_y
_atom_site_fract_z
Si Si1 0.541274 0.774013 0.712538
Si Si2 0.948888 0.559266 0.706568
Si Si3 0.956112 0.119267 0.606833
Si Si4 0.455713 0.333780 0.394349
Si Si5 0.954048 0.723619 0.899707
Si Si6 0.544874 0.000000 0.606891
Si Si7 0.446156 0.597158 0.897841
O O1 0.750000 0.775209 0.710682
O O2 0.481071 0.830072 0.666811
O O3 0.483989 0.721719 0.653773
O O4 0.490825 0.761872 0.816532
O O5 0.750000 0.557135 0.680059
O O6 0.026143 0.500000 0.685457
O O7 0.023788 0.612056 0.655988
O O8 0.955994 0.569927 0.814602
O O9 0.750000 0.118812 0.611963
O O10 0.000000 0.126496 0.500000
O O11 0.018136 0.059309 0.639595
O O12 0.500000 0.334321 0.500000
O O13 0.250000 0.333576 0.384543
O O14 0.750000 0.716583 0.894313
O O15 0.030472 0.662787 0.890321
O O16 0.000000 0.744440 0.000000
O O17 0.500000 0.000000 0.500000
O O18 0.750000 0.000000 0.617133
O O19 0.250000 0.582993 0.885612
O O20 0.500000 0.581741 0.000000
#
# Coordination Sequence:
#
# PCOD9399611 Si02
#       7
#     8   8   8   8   8   4   8
#     4   9  17  30  49  69  96 126 155 191 238 282
#     4  10  21  38  56  71  93 126 161 195 236 284
#     4   9  16  27  43  67  96 131 162 195 232 273
#     4  10  20  35  51  70  94 123 156 194 238 281
#     4  10  18  32  51  72  97 125 155 191 236 288
#     4   8  14  24  40  62  93 126 164 196 227 270
#     4  11  21  34  54  77 100 124 152 191 238 291
#
# _framework density 18.455693
#
# number of rings (size 3 to 8) (size 9 to 14) (size 15 to 20)
#    0.000    2.308    1.538    3.231    0.000    1.538 
#    0.000    1.538    0.000    0.000    0.000    0.538 
#    0.000    0.000    0.000    0.000    0.000    0.000 
#
# Total GULP energy -290048.803038 kJ/mol
# GULP energy per Si atom -5577.861597 kJ/mol
# Density = 1.841369 g / cm^3
# Si number density = 18.455693 Si / 1000 Ang^3
#
#
#
# Elastic Constant Matrix: (Units=GPa)
#
#
# Indices 1 2 3 4 5 6 
#
# 1 26.6847 1.6214 -9.9140 0.0000 0.0000 0.0000
# 2 1.6214 169.5508 75.3486 0.0000 0.0000 0.0000
# 3 -9.9140 75.3486 104.0037 0.0000 0.0000 0.0000
# 4 0.0000 0.0000 0.0000 22.2661 0.0000 0.0000
# 5 0.0000 0.0000 0.0000 0.0000 22.0669 0.0000
# 6 0.0000 0.0000 0.0000 0.0000 0.0000 -9.0398
#
#
#
# Elastic Compliance Matrix: (Units=1/GPa)
#
#
# Indices 1 2 3 4 5 6 
#
# 1 0.039895 -0.003055 0.006016 0.000000 0.000000 0.000000
# 2 -0.003055 0.008932 -0.006763 0.000000 0.000000 0.000000
# 3 0.006016 -0.006763 0.015088 0.000000 0.000000 0.000000
# 4 0.000000 0.000000 0.000000 0.044911 0.000000 0.000000
# 5 0.000000 0.000000 0.000000 0.000000 0.045317 0.000000
# 6 0.000000 0.000000 0.000000 0.000000 0.000000 -0.110622
#
#
# Mechanical properties :
#
#
# Convention : Reuss Voigt Hill
#
# Bulk Modulus (GPa) = 17.75787 48.26123 33.00955
# Shear Modulus (GPa) = 71.53489 22.60419 47.06954
#
# Velocity S-wave (km/s) = 6.23253 3.50348 5.05563
# Velocity P-wave (km/s) = 7.83808 6.52475 7.21137
#
# Compressibility (1/GPa) = 0.05631307
#
# Stress axis : x y z
#
# Youngs Moduli (GPa) = 25.06549 111.95102 66.27808
#
# Poissons Ratio (x) = 0.34204 -0.39876
# Poissons Ratio (y) = 0.07658 0.44821
# Poissons Ratio (z) = -0.15080 0.75708
#
# Static dielectric constant tensor:
#      x y z
#    x 1.662260 0.000000 0.000000 
#    y 0.000000 1.669810 0.000000 
#    z 0.000000 0.000000 1.621780 
# 
# From -- ./inp_files/22061.got.cif
#   From: 2010.05.17/outbox.cif.g08.bks.cpg/sg51_12_cif.got.tgz:22061.got - 2010.06.03 11:52:47.
