data_PCOD9399048
_publ_section_title
;
Structure prediction by ZEFSAII (Michael W. Deem and Ramdas Pophale) SiO2 
 PCOD9399048
Probable space group: P M M A
;
_chemical_formula_sum "Si O2"
_cell_formula_units_Z 64
_cell_length_a 14.456122
_cell_length_b 18.960831
_cell_length_c 13.125812
_cell_angle_alpha 90.000000
_cell_angle_beta 90.000000
_cell_angle_gamma 90.000000
_cell_volume 3597.786200
_symmetry_space_group_name_H-M "P M M A"
_symmetry_group_IT_number 51
_symmetry_cell_setting 'orthorhombic'
loop_
_space_group_symop_operation_xyz
x,y,z
1/2-x,-y,z
1/2+x,-y,-z
-x,y,-z
-x,-y,-z
1/2+x,y,-z
1/2-x,y,z
x,-y,z
loop_
_atom_site_type_symbol
_atom_site_label
_atom_site_fract_x
_atom_site_fract_y
_atom_site_fract_z
Si Si1 0.465753 0.917675 0.159716
Si Si2 0.358911 0.661445 0.350370
Si Si3 0.357861 0.199506 0.252178
Si Si4 0.854802 0.419935 0.053367
Si Si5 0.894439 0.725799 0.963533
Si Si6 0.145177 0.127003 0.955400
Si Si7 0.016825 0.416938 0.753029
Si Si8 0.640288 0.417597 0.441754
O O1 0.423995 0.867468 0.246170
O O2 0.569507 0.895007 0.128215
O O3 0.462886 0.000000 0.182546
O O4 0.400172 0.902209 0.060706
O O5 0.250000 0.647923 0.331353
O O6 0.373033 0.745231 0.342742
O O7 0.423228 0.624493 0.266974
O O8 0.382971 0.628518 0.459725
O O9 0.250000 0.178639 0.249182
O O10 0.378373 0.244884 0.149626
O O11 0.750000 0.421190 0.096176
O O12 0.872150 0.500000 0.012715
O O13 0.929264 0.404987 0.141702
O O14 0.859404 0.353700 0.978026
O O15 0.851647 0.787998 0.033288
O O16 0.000000 0.725989 0.000000
O O17 0.250000 0.101156 0.941294
O O18 0.997884 0.500000 0.747183
O O19 0.084597 0.398304 0.659260
O O20 0.750000 0.411355 0.422736
O O21 0.620894 0.500000 0.465432
#
# Coordination Sequence:
#
# PCOD9399048 Si02
#       8
#     8   8   8   8   8   8   8   8
#     4  10  19  31  47  70  95 121 153 191 235 284
#     4  10  20  32  47  67  95 127 159 195 236 284
#     4  10  20  34  48  66  93 129 163 194 234 276
#     4  10  21  34  47  67  93 124 165 210 247 282
#     4  11  18  32  50  64  91 128 167 202 237 279
#     4  10  18  29  47  70  93 121 154 192 240 286
#     4  10  19  31  50  72  94 122 157 199 250 298
#     4   9  17  31  51  74  98 123 153 196 251 301
#
# _framework density 17.788716999999998
#
# number of rings (size 3 to 8) (size 9 to 14) (size 15 to 20)
#    0.000    2.000    2.500    4.875    0.000    5.250 
#    0.000    1.250    0.000    3.000    0.000    0.000 
#    0.000    2.000    0.000    0.500    0.000    2.750 
#
# Total GULP energy -357043.535209 kJ/mol
# GULP energy per Si atom -5578.805238 kJ/mol
# Density = 1.774823 g / cm^3
# Si number density = 17.788717 Si / 1000 Ang^3
#
#
#
# Elastic Constant Matrix: (Units=GPa)
#
#
# Indices 1 2 3 4 5 6 
#
# 1 92.4924 31.0813 9.9690 0.0000 0.0000 0.0000
# 2 31.0813 115.7060 38.2035 0.0000 0.0000 0.0000
# 3 9.9690 38.2035 26.8049 0.0000 0.0000 0.0000
# 4 0.0000 0.0000 0.0000 14.8618 0.0000 0.0000
# 5 0.0000 0.0000 0.0000 0.0000 11.6391 0.0000
# 6 0.0000 0.0000 0.0000 0.0000 0.0000 -1.0380
#
#
#
# Elastic Compliance Matrix: (Units=1/GPa)
#
#
# Indices 1 2 3 4 5 6 
#
# 1 0.011885 -0.003274 0.000246 0.000000 0.000000 0.000000
# 2 -0.003274 0.017226 -0.023334 0.000000 0.000000 0.000000
# 3 0.000246 -0.023334 0.070472 0.000000 0.000000 0.000000
# 4 0.000000 0.000000 0.000000 0.067287 0.000000 0.000000
# 5 0.000000 0.000000 0.000000 0.000000 0.085917 0.000000
# 6 0.000000 0.000000 0.000000 0.000000 0.000000 -0.963424
#
#
# Mechanical properties :
#
#
# Convention : Reuss Voigt Hill
#
# Bulk Modulus (GPa) = 21.34050 43.72341 32.53195
# Shear Modulus (GPa) = -7.78462 15.47589 3.84563
#
# Velocity S-wave (km/s) = -2.09420 2.95275 1.47191
# Velocity P-wave (km/s) = 2.48498 6.02143 4.60612
#
# Compressibility (1/GPa) = 0.04685926
#
# Stress axis : x y z
#
# Youngs Moduli (GPa) = 84.13715 58.05010 14.18995
#
# Poissons Ratio (x) = 0.19004 -0.00349
# Poissons Ratio (y) = 0.27545 0.33111
# Poissons Ratio (z) = -0.02067 1.35456
#
# Static dielectric constant tensor:
#      x y z
#    x 1.640850 0.000000 0.000000 
#    y 0.000000 1.626030 0.000000 
#    z 0.000000 0.000000 1.550910 
# 
# From -- ./inp_files/24431.got.cif
#   From: 2010.05.17/outbox.cif.g08.bks.cpg/sg51_13_cif.got.tgz:24431.got - 2010.06.03 11:52:47.
