data_PCOD9399442
_publ_section_title
;
Structure prediction by ZEFSAII (Michael W. Deem and Ramdas Pophale) SiO2 
 PCOD9399442
Probable space group: P M M A
;
_chemical_formula_sum "Si O2"
_cell_formula_units_Z 40
_cell_length_a 8.121571
_cell_length_b 17.363109
_cell_length_c 14.421751
_cell_angle_alpha 90.000000
_cell_angle_beta 90.000000
_cell_angle_gamma 90.000000
_cell_volume 2033.693637
_symmetry_space_group_name_H-M "P M M A"
_symmetry_group_IT_number 51
_symmetry_cell_setting 'orthorhombic'
loop_
_space_group_symop_operation_xyz
x,y,z
1/2-x,-y,z
1/2+x,-y,-z
-x,y,-z
-x,-y,-z
1/2+x,y,-z
1/2-x,y,z
x,-y,z
loop_
_atom_site_type_symbol
_atom_site_label
_atom_site_fract_x
_atom_site_fract_y
_atom_site_fract_z
Si Si1 0.062814 0.787186 0.257027
Si Si2 0.448994 0.500000 0.891780
Si Si3 0.552416 0.500000 0.608204
Si Si4 0.943130 0.663856 0.393651
Si Si5 0.050784 0.910928 0.397588
Si Si6 0.445470 0.669096 0.893784
O O1 0.250000 0.806336 0.232906
O O2 0.987914 0.861221 0.310187
O O3 0.051198 0.723505 0.337539
O O4 0.989558 0.742060 0.169593
O O5 0.250000 0.500000 0.882158
O O6 0.510928 0.584675 0.859353
O O7 0.500000 0.500000 0.000000
O O8 0.750000 0.500000 0.615151
O O9 0.500000 0.500000 0.500000
O O10 0.475129 0.421672 0.645098
O O11 0.750000 0.682372 0.385852
O O12 0.000000 0.664885 0.500000
O O13 0.250000 0.908523 0.395122
O O14 0.000000 0.881180 0.500000
O O15 0.997214 0.000000 0.391674
O O16 0.250000 0.662754 0.892554
O O17 0.500000 0.679860 0.000000
#
# Coordination Sequence:
#
# PCOD9399442 Si02
#       6
#     8   4   4   8   8   8
#     4  11  22  35  53  79 108 139 177 220 269 324
#     4   8  16  31  52  75 101 135 175 220 266 313
#     4  10  18  31  48  67  95 135 179 218 260 309
#     4  11  21  34  50  71 102 138 176 217 262 313
#     4   9  19  36  58  83 111 142 176 218 269 325
#     4  10  20  36  56  79 108 142 182 227 276 324
#
# _framework density 19.668645000000001
#
# number of rings (size 3 to 8) (size 9 to 14) (size 15 to 20)
#    0.000    2.000    0.000    5.700    0.000    4.800 
#    0.000    3.000    0.000    0.600    0.000    0.000 
#    0.000    0.000    0.000    0.000    0.000    0.000 
#
# Total GULP energy -223035.213621 kJ/mol
# GULP energy per Si atom -5575.880341 kJ/mol
# Density = 1.962388 g / cm^3
# Si number density = 19.668645 Si / 1000 Ang^3
#
#
#
# Elastic Constant Matrix: (Units=GPa)
#
#
# Indices 1 2 3 4 5 6 
#
# 1 45.9872 1.0448 4.4530 0.0000 0.0000 0.0000
# 2 1.0448 100.6170 52.6840 0.0000 0.0000 0.0000
# 3 4.4530 52.6840 118.4658 0.0000 0.0000 0.0000
# 4 0.0000 0.0000 0.0000 -16.6807 0.0000 0.0000
# 5 0.0000 0.0000 0.0000 0.0000 25.9646 0.0000
# 6 0.0000 0.0000 0.0000 0.0000 0.0000 18.8538
#
#
#
# Elastic Compliance Matrix: (Units=1/GPa)
#
#
# Indices 1 2 3 4 5 6 
#
# 1 0.021830 0.000265 -0.000938 0.000000 0.000000 0.000000
# 2 0.000265 0.012959 -0.005773 0.000000 0.000000 0.000000
# 3 -0.000938 -0.005773 0.011044 0.000000 0.000000 0.000000
# 4 0.000000 0.000000 0.000000 -0.059949 0.000000 0.000000
# 5 0.000000 0.000000 0.000000 0.000000 0.038514 0.000000
# 6 0.000000 0.000000 0.000000 0.000000 0.000000 0.053040
#
#
# Mechanical properties :
#
#
# Convention : Reuss Voigt Hill
#
# Bulk Modulus (GPa) = 30.35877 42.38151 36.37014
# Shear Modulus (GPa) = 49.35361 19.42008 34.38685
#
# Velocity S-wave (km/s) = 5.01468 3.14564 4.18581
# Velocity P-wave (km/s) = 6.99985 5.89813 6.47248
#
# Compressibility (1/GPa) = 0.03293941
#
# Stress axis : x y z
#
# Youngs Moduli (GPa) = 45.80851 77.16835 90.54810
#
# Poissons Ratio (x) = -0.02042 0.08496
# Poissons Ratio (y) = -0.01212 0.52273
# Poissons Ratio (z) = 0.04298 0.44549
#
# Static dielectric constant tensor:
#      x y z
#    x 1.705320 0.000000 0.000000 
#    y 0.000000 1.744880 0.000000 
#    z 0.000000 0.000000 1.677220 
# 
# From -- ./inp_files/20541.got.cif
#   From: 2010.05.17/outbox.cif.g08.bks.cpg/sg51_11_cif.got.tgz:20541.got - 2010.06.03 11:52:47.
