data_PCOD9399952
_publ_section_title
;
Structure prediction by ZEFSAII (Michael W. Deem and Ramdas Pophale) SiO2 
 PCOD9399952
Probable space group: P M M A
;
_chemical_formula_sum "Si O2"
_cell_formula_units_Z 48
_cell_length_a 15.024034
_cell_length_b 8.562998
_cell_length_c 20.157587
_cell_angle_alpha 90.000000
_cell_angle_beta 90.000000
_cell_angle_gamma 90.000000
_cell_volume 2593.289151
_symmetry_space_group_name_H-M "P M M A"
_symmetry_group_IT_number 51
_symmetry_cell_setting 'orthorhombic'
loop_
_space_group_symop_operation_xyz
x,y,z
1/2-x,-y,z
1/2+x,-y,-z
-x,y,-z
-x,-y,-z
1/2+x,y,-z
1/2-x,y,z
x,-y,z
loop_
_atom_site_type_symbol
_atom_site_label
_atom_site_fract_x
_atom_site_fract_y
_atom_site_fract_z
Si Si1 0.066685 0.686685 0.185361
Si Si2 0.144729 0.685357 0.437917
Si Si3 0.647416 0.188304 0.417332
Si Si4 0.943134 0.690222 0.064432
Si Si5 0.750000 0.814567 0.871283
Si Si6 0.750000 0.310978 0.021299
Si Si7 0.014332 0.814274 0.327597
O O1 0.074993 0.500000 0.180235
O O2 0.161632 0.759349 0.166631
O O3 0.036698 0.732648 0.258677
O O4 0.994170 0.739909 0.130700
O O5 0.250000 0.718565 0.429774
O O6 0.131203 0.500000 0.431533
O O7 0.120173 0.739278 0.512111
O O8 0.087880 0.772513 0.382681
O O9 0.750000 0.232382 0.404179
O O10 0.579801 0.235430 0.359682
O O11 0.643301 0.000000 0.423713
O O12 0.942210 0.500000 0.064408
O O13 0.841310 0.742532 0.055937
O O14 0.000000 0.738881 0.000000
O O15 0.750000 0.000000 0.876893
O O16 0.750000 0.741572 0.944914
O O17 0.750000 0.500000 0.021669
O O18 0.012637 0.000000 0.317138
#
# Coordination Sequence:
#
# PCOD9399952 Si02
#       7
#     8   8   8   8   4   4   8
#     4  11  23  40  60  84 116 154 192 235 286 342
#     4  10  21  36  57  86 116 147 188 239 290 340
#     4   9  19  38  61  82 110 152 195 234 284 344
#     4   9  17  33  60  89 112 146 192 235 280 333
#     4  12  24  38  58  88 118 149 186 231 290 346
#     4  10  18  36  64  88 114 149 192 237 282 340
#     4  11  23  38  57  83 116 154 192 234 286 346
#
# _framework density 18.509312999999999
#
# number of rings (size 3 to 8) (size 9 to 14) (size 15 to 20)
#    0.000    1.833    1.667    2.750    1.167    4.333 
#    1.500    2.500    0.000    0.000    0.000    0.000 
#    0.000    0.000    0.000    0.000    0.000    0.000 
#
# Total GULP energy -268137.907619 kJ/mol
# GULP energy per Si atom -5586.206409 kJ/mol
# Density = 1.846718 g / cm^3
# Si number density = 18.509313 Si / 1000 Ang^3
#
#
#
# Elastic Constant Matrix: (Units=GPa)
#
#
# Indices 1 2 3 4 5 6 
#
# 1 135.2290 22.3972 73.9603 0.0000 0.0000 0.0000
# 2 22.3972 20.4991 10.6303 0.0000 0.0000 0.0000
# 3 73.9603 10.6303 111.0492 0.0000 0.0000 0.0000
# 4 0.0000 0.0000 0.0000 -33.3101 0.0000 0.0000
# 5 0.0000 0.0000 0.0000 0.0000 2.2457 0.0000
# 6 0.0000 0.0000 0.0000 0.0000 0.0000 15.2374
#
#
#
# Elastic Compliance Matrix: (Units=1/GPa)
#
#
# Indices 1 2 3 4 5 6 
#
# 1 0.013527 -0.010635 -0.007991 0.000000 0.000000 0.000000
# 2 -0.010635 0.059693 0.001369 0.000000 0.000000 0.000000
# 3 -0.007991 0.001369 0.014196 0.000000 0.000000 0.000000
# 4 0.000000 0.000000 0.000000 -0.030021 0.000000 0.000000
# 5 0.000000 0.000000 0.000000 0.000000 0.445304 0.000000
# 6 0.000000 0.000000 0.000000 0.000000 0.000000 0.065628
#
#
# Mechanical properties :
#
#
# Convention : Reuss Voigt Hill
#
# Bulk Modulus (GPa) = 18.90318 53.41699 36.16008
# Shear Modulus (GPa) = 8.05834 7.48723 7.77279
#
# Velocity S-wave (km/s) = 2.08881 2.01343 2.05147
# Velocity P-wave (km/s) = 4.00655 5.85896 5.01896
#
# Compressibility (1/GPa) = 0.05290116
#
# Stress axis : x y z
#
# Youngs Moduli (GPa) = 73.92741 16.75247 70.44223
#
# Poissons Ratio (x) = 0.17817 0.56290
# Poissons Ratio (y) = 0.78624 -0.09644
# Poissons Ratio (z) = 0.59075 -0.02294
#
# Static dielectric constant tensor:
#      x y z
#    x 1.644590 0.000000 0.000000 
#    y 0.000000 1.629340 0.000000 
#    z 0.000000 0.000000 1.595740 
# 
# From -- ./inp_files/29655.got.cif
#   From: 2010.05.17/outbox.cif.g08.bks.cpg/sg51_15_cif.got.tgz:29655.got - 2010.06.03 11:52:47.
