data_PCOD9399377
_publ_section_title
;
Structure prediction by ZEFSAII (Michael W. Deem and Ramdas Pophale) SiO2 
 PCOD9399377
Probable space group: P M M A
;
_chemical_formula_sum "Si O2"
_cell_formula_units_Z 40
_cell_length_a 27.092324
_cell_length_b 8.157313
_cell_length_c 9.330509
_cell_angle_alpha 90.000000
_cell_angle_beta 90.000000
_cell_angle_gamma 90.000000
_cell_volume 2062.047777
_symmetry_space_group_name_H-M "P M M A"
_symmetry_group_IT_number 51
_symmetry_cell_setting 'orthorhombic'
loop_
_space_group_symop_operation_xyz
x,y,z
1/2-x,-y,z
1/2+x,-y,-z
-x,y,-z
-x,-y,-z
1/2+x,y,-z
1/2-x,y,z
x,-y,z
loop_
_atom_site_type_symbol
_atom_site_label
_atom_site_fract_x
_atom_site_fract_y
_atom_site_fract_z
Si Si1 0.646269 0.195037 0.418572
Si Si2 0.250000 0.310362 0.608324
Si Si3 0.548820 0.304490 0.582303
Si Si4 0.643179 0.799205 0.086547
Si Si5 0.750000 0.809725 0.072356
Si Si6 0.547803 0.198617 0.910400
O O1 0.698401 0.271168 0.468415
O O2 0.598989 0.238356 0.512295
O O3 0.637574 0.249998 0.253197
O O4 0.652393 0.000000 0.417564
O O5 0.250000 0.500000 0.651283
O O6 0.250000 0.202248 0.753742
O O7 0.500000 0.241346 0.500000
O O8 0.549737 0.500000 0.567976
O O9 0.545781 0.258122 0.748307
O O10 0.696693 0.739731 0.030891
O O11 0.644101 0.000000 0.085543
O O12 0.597407 0.745784 0.991035
O O13 0.750000 0.000000 0.029073
O O14 0.548040 0.000000 0.909011
O O15 0.500000 0.252211 0.000000
#
# Coordination Sequence:
#
# PCOD9399377 Si02
#       6
#     8   4   8   8   4   8
#     4  10  19  35  59  83 108 143 186 225 264 315
#     4  10  18  30  51  82 117 146 176 218 268 318
#     4  11  24  39  54  77 110 145 181 225 279 332
#     4   8  15  29  52  79 103 131 173 223 263 303
#     4   8  14  28  49  74 105 140 178 214 252 306
#     4  10  20  35  55  78 103 135 178 224 270 323
#
# _framework density 19.398191000000001
#
# number of rings (size 3 to 8) (size 9 to 14) (size 15 to 20)
#    0.000    2.400    0.000    4.500    0.000    3.600 
#    0.000    6.000    0.000    2.400    0.000    0.000 
#    0.000    0.000    0.000    0.000    0.000    0.000 
#
# Total GULP energy -223144.849045 kJ/mol
# GULP energy per Si atom -5578.621226 kJ/mol
# Density = 1.935404 g / cm^3
# Si number density = 19.398191 Si / 1000 Ang^3
#
#
#
# Elastic Constant Matrix: (Units=GPa)
#
#
# Indices 1 2 3 4 5 6 
#
# 1 213.1079 21.7784 79.9336 0.0000 0.0000 0.0000
# 2 21.7784 30.7154 12.4506 0.0000 0.0000 0.0000
# 3 79.9336 12.4506 91.3134 0.0000 0.0000 0.0000
# 4 0.0000 0.0000 0.0000 0.9612 0.0000 0.0000
# 5 0.0000 0.0000 0.0000 0.0000 33.6491 0.0000
# 6 0.0000 0.0000 0.0000 0.0000 0.0000 15.2175
#
#
#
# Elastic Compliance Matrix: (Units=1/GPa)
#
#
# Indices 1 2 3 4 5 6 
#
# 1 0.007191 -0.002696 -0.005927 0.000000 0.000000 0.000000
# 2 -0.002696 0.035473 -0.002477 0.000000 0.000000 0.000000
# 3 -0.005927 -0.002477 0.016478 0.000000 0.000000 0.000000
# 4 0.000000 0.000000 0.000000 1.040355 0.000000 0.000000
# 5 0.000000 0.000000 0.000000 0.000000 0.029718 0.000000
# 6 0.000000 0.000000 0.000000 0.000000 0.000000 0.065714
#
#
# Mechanical properties :
#
#
# Convention : Reuss Voigt Hill
#
# Bulk Modulus (GPa) = 27.07002 62.60689 44.83845
# Shear Modulus (GPa) = 4.06688 24.69716 14.38202
#
# Velocity S-wave (km/s) = 1.44951 3.57202 2.72584
# Velocity P-wave (km/s) = 4.09715 7.02546 5.75081
#
# Compressibility (1/GPa) = 0.03694124
#
# Stress axis : x y z
#
# Youngs Moduli (GPa) = 139.05693 28.19081 60.68791
#
# Poissons Ratio (x) = 0.07601 0.35973
# Poissons Ratio (y) = 0.37492 0.15030
# Poissons Ratio (z) = 0.82426 0.06982
#
# Static dielectric constant tensor:
#      x y z
#    x 1.712330 0.000000 0.000000 
#    y 0.000000 1.674100 0.000000 
#    z 0.000000 0.000000 1.636080 
# 
# From -- ./inp_files/12133.got.cif
#   From: 2010.05.17/outbox.cif.g08.bks.cpg/sg51_7_cif.got.tgz:12133.got - 2010.06.03 11:52:47.
