data_PCOD9399594
_publ_section_title
;
Structure prediction by ZEFSAII (Michael W. Deem and Ramdas Pophale) SiO2 
 PCOD9399594
Probable space group: P M M A
;
_chemical_formula_sum "Si O2"
_cell_formula_units_Z 64
_cell_length_a 20.950518
_cell_length_b 15.408853
_cell_length_c 10.929073
_cell_angle_alpha 90.000000
_cell_angle_beta 90.000000
_cell_angle_gamma 90.000000
_cell_volume 3528.161075
_symmetry_space_group_name_H-M "P M M A"
_symmetry_group_IT_number 51
_symmetry_cell_setting 'orthorhombic'
loop_
_space_group_symop_operation_xyz
x,y,z
1/2-x,-y,z
1/2+x,-y,-z
-x,y,-z
-x,-y,-z
1/2+x,y,-z
1/2-x,y,z
x,-y,z
loop_
_atom_site_type_symbol
_atom_site_label
_atom_site_fract_x
_atom_site_fract_y
_atom_site_fract_z
Si Si1 0.400915 0.757085 0.982348
Si Si2 0.512600 0.756957 0.787505
Si Si3 0.038803 0.596501 0.624757
Si Si4 0.175860 0.146607 0.573868
Si Si5 0.180816 0.352061 0.611607
Si Si6 0.942699 0.903226 0.597553
Si Si7 0.821170 0.398835 0.103714
Si Si8 0.826580 0.097195 0.146514
O O1 0.454673 0.777278 0.880123
O O2 0.370991 0.663236 0.958840
O O3 0.350536 0.832043 0.950119
O O4 0.429087 0.750756 0.117487
O O5 0.487467 0.672102 0.713642
O O6 0.534810 0.830404 0.692875
O O7 0.031380 0.500000 0.680054
O O8 0.000000 0.601744 0.500000
O O9 0.112611 0.606951 0.583411
O O10 0.250000 0.117707 0.552272
O O11 0.176859 0.251097 0.577731
O O12 0.123398 0.116932 0.475035
O O13 0.156026 0.117689 0.711469
O O14 0.250000 0.385975 0.565187
O O15 0.182955 0.364502 0.757686
O O16 0.000000 0.904957 0.500000
O O17 0.937450 0.000000 0.652696
O O18 0.750000 0.390755 0.049789
O O19 0.838439 0.500000 0.105422
O O20 0.750000 0.098730 0.145528
O O21 0.849247 0.000000 0.116902
#
# Coordination Sequence:
#
# PCOD9399594 Si02
#       8
#     8   8   8   8   8   8   8   8
#     4  11  22  37  56  80 111 153 191 234 287 345
#     4  11  24  38  55  79 113 151 196 238 282 349
#     4  11  22  37  59  86 119 156 192 237 295 354
#     4  10  19  34  59  88 118 148 185 238 293 348
#     4  10  18  31  56  88 119 147 184 235 290 341
#     4  11  23  39  60  84 113 151 194 244 300 353
#     4  10  19  33  57  86 113 143 184 235 288 340
#     4  10  19  33  57  86 112 140 181 235 291 344
#
# _framework density 18.139762000000001
#
# number of rings (size 3 to 8) (size 9 to 14) (size 15 to 20)
#    0.000    1.500    2.500    3.750    0.000    4.000 
#    0.000    3.750    0.000    1.500    0.000    0.000 
#    0.000    0.000    0.000    0.000    0.000    0.000 
#
# Total GULP energy -356664.010066 kJ/mol
# GULP energy per Si atom -5572.875157 kJ/mol
# Density = 1.809847 g / cm^3
# Si number density = 18.139762 Si / 1000 Ang^3
#
#
#
# Elastic Constant Matrix: (Units=GPa)
#
#
# Indices 1 2 3 4 5 6 
#
# 1 93.3469 41.0682 52.4482 0.0000 0.0000 0.0000
# 2 41.0682 106.9550 42.7438 0.0000 0.0000 0.0000
# 3 52.4482 42.7438 50.3739 0.0000 0.0000 0.0000
# 4 0.0000 0.0000 0.0000 -400.8371 0.0000 0.0000
# 5 0.0000 0.0000 0.0000 0.0000 27.7610 0.0000
# 6 0.0000 0.0000 0.0000 0.0000 0.0000 16.7628
#
#
#
# Elastic Compliance Matrix: (Units=1/GPa)
#
#
# Indices 1 2 3 4 5 6 
#
# 1 0.025926 0.001260 -0.028062 0.000000 0.000000 0.000000
# 2 0.001260 0.014208 -0.013368 0.000000 0.000000 0.000000
# 3 -0.028062 -0.013368 0.060413 0.000000 0.000000 0.000000
# 4 0.000000 0.000000 0.000000 -0.002495 0.000000 0.000000
# 5 0.000000 0.000000 0.000000 0.000000 0.036022 0.000000
# 6 0.000000 0.000000 0.000000 0.000000 0.000000 0.059656
#
#
# Mechanical properties :
#
#
# Convention : Reuss Voigt Hill
#
# Bulk Modulus (GPa) = 49.49080 58.13291 53.81185
# Shear Modulus (GPa) = 17.80590 -63.63495 -22.91452
#
# Velocity S-wave (km/s) = 3.13644 -5.92929 -3.55804
# Velocity P-wave (km/s) = 6.36071 3.84169 3.58469
#
# Compressibility (1/GPa) = 0.02020578
#
# Stress axis : x y z
#
# Youngs Moduli (GPa) = 38.57200 70.38097 16.55278
#
# Poissons Ratio (x) = -0.08869 0.46451
# Poissons Ratio (y) = -0.04860 0.22128
# Poissons Ratio (z) = 1.08242 0.94087
#
# Static dielectric constant tensor:
#      x y z
#    x 1.679630 0.000000 0.000000 
#    y 0.000000 1.651420 0.000000 
#    z 0.000000 0.000000 1.588540 
# 
# From -- ./inp_files/17546.got.cif
#   From: 2010.05.17/outbox.cif.g08.bks.cpg/sg51_9_cif.got.tgz:17546.got - 2010.06.03 11:52:47.
