data_PCOD9399494
_publ_section_title
;
Structure prediction by ZEFSAII (Michael W. Deem and Ramdas Pophale) SiO2 
 PCOD9399494
Probable space group: P M M A
;
_chemical_formula_sum "Si O2"
_cell_formula_units_Z 52
_cell_length_a 7.467274
_cell_length_b 13.989881
_cell_length_c 24.997135
_cell_angle_alpha 90.000000
_cell_angle_beta 90.000000
_cell_angle_gamma 90.000000
_cell_volume 2611.357570
_symmetry_space_group_name_H-M "P M M A"
_symmetry_group_IT_number 51
_symmetry_cell_setting 'orthorhombic'
loop_
_space_group_symop_operation_xyz
x,y,z
1/2-x,-y,z
1/2+x,-y,-z
-x,y,-z
-x,-y,-z
1/2+x,y,-z
1/2-x,y,z
x,-y,z
loop_
_atom_site_type_symbol
_atom_site_label
_atom_site_fract_x
_atom_site_fract_y
_atom_site_fract_z
Si Si1 0.469102 0.391419 0.349817
Si Si2 0.535470 0.000000 0.562744
Si Si3 0.035531 0.890531 0.940295
Si Si4 0.966873 0.110428 0.275629
Si Si5 0.546634 0.195751 0.613545
Si Si6 0.539179 0.203371 0.167118
Si Si7 0.534471 0.393494 0.773534
O O1 0.250000 0.388660 0.350123
O O2 0.520914 0.500000 0.364769
O O3 0.531745 0.303042 0.386586
O O4 0.526387 0.375861 0.287787
O O5 0.500000 0.000000 0.500000
O O6 0.464371 0.100427 0.586895
O O7 0.750000 0.000000 0.573801
O O8 0.250000 0.895438 0.936157
O O9 0.967022 0.828349 0.890441
O O10 0.967165 0.000000 0.936790
O O11 0.000000 0.853379 0.000000
O O12 0.750000 0.121118 0.277992
O O13 0.032370 0.143899 0.217684
O O14 0.048185 0.170655 0.323560
O O15 0.009757 0.000000 0.284346
O O16 0.750000 0.202676 0.592566
O O17 0.750000 0.181470 0.165672
O O18 0.520221 0.312712 0.184921
O O19 0.750000 0.392957 0.771613
O O20 0.475291 0.500000 0.788601
#
# Coordination Sequence:
#
# PCOD9399494 Si02
#       7
#     8   4   8   8   8   8   8
#     4   8  14  26  46  71  98 127 157 193 240 288
#     4  10  22  36  52  74  98 132 171 206 243 282
#     4   9  18  33  50  67  91 124 162 202 240 286
#     4  10  19  29  43  68 101 132 155 183 237 296
#     4  10  18  31  51  73  97 125 163 204 236 278
#     4  10  19  30  46  69  97 128 159 192 239 295
#     4   9  17  29  46  69  97 128 159 192 236 290
#
# _framework density 19.913014
#
# number of rings (size 3 to 8) (size 9 to 14) (size 15 to 20)
#    0.000    2.615    2.308    1.385    0.000    3.385 
#    0.000    0.000    0.000    4.154    0.000    0.000 
#    0.000    0.000    0.000    0.000    0.000    0.000 
#
# Total GULP energy -289898.625784 kJ/mol
# GULP energy per Si atom -5574.973573 kJ/mol
# Density = 1.986769 g / cm^3
# Si number density = 19.913014 Si / 1000 Ang^3
#
#
#
# Elastic Constant Matrix: (Units=GPa)
#
#
# Indices 1 2 3 4 5 6 
#
# 1 57.1413 -3.4759 -1.9592 0.0000 0.0000 0.0000
# 2 -3.4759 153.0139 62.3282 0.0000 0.0000 0.0000
# 3 -1.9592 62.3282 74.4559 0.0000 0.0000 0.0000
# 4 0.0000 0.0000 0.0000 16.0766 0.0000 0.0000
# 5 0.0000 0.0000 0.0000 0.0000 14.8846 0.0000
# 6 0.0000 0.0000 0.0000 0.0000 0.0000 6.9821
#
#
#
# Elastic Compliance Matrix: (Units=1/GPa)
#
#
# Indices 1 2 3 4 5 6 
#
# 1 0.017527 0.000319 0.000194 0.000000 0.000000 0.000000
# 2 0.000319 0.009923 -0.008298 0.000000 0.000000 0.000000
# 3 0.000194 -0.008298 0.020382 0.000000 0.000000 0.000000
# 4 0.000000 0.000000 0.000000 0.062202 0.000000 0.000000
# 5 0.000000 0.000000 0.000000 0.000000 0.067184 0.000000
# 6 0.000000 0.000000 0.000000 0.000000 0.000000 0.143224
#
#
# Mechanical properties :
#
#
# Convention : Reuss Voigt Hill
#
# Bulk Modulus (GPa) = 30.99642 44.26636 37.63139
# Shear Modulus (GPa) = 14.41898 22.76986 18.59442
#
# Velocity S-wave (km/s) = 2.69383 3.38519 3.05910
# Velocity P-wave (km/s) = 5.02746 6.12841 5.60503
#
# Compressibility (1/GPa) = 0.03226179
#
# Stress axis : x y z
#
# Youngs Moduli (GPa) = 57.05630 100.77895 49.06214
#
# Poissons Ratio (x) = -0.03216 -0.00952
# Poissons Ratio (y) = -0.01821 0.40712
# Poissons Ratio (z) = -0.01107 0.83627
#
# Static dielectric constant tensor:
#      x y z
#    x 1.774640 0.000000 0.000000 
#    y 0.000000 1.744740 0.000000 
#    z 0.000000 0.000000 1.679250 
# 
# From -- ./inp_files/31724.got.cif
#   From: 2010.05.17/outbox.cif.g08.bks.cpg/sg51_16_cif.got.tgz:31724.got - 2010.06.03 11:52:47.
