data_PCOD9399268
_publ_section_title
;
Structure prediction by ZEFSAII (Michael W. Deem and Ramdas Pophale) SiO2 
 PCOD9399268
Probable space group: P M M A
;
_chemical_formula_sum "Si O2"
_cell_formula_units_Z 56
_cell_length_a 22.827681
_cell_length_b 13.895451
_cell_length_c 10.910399
_cell_angle_alpha 90.000000
_cell_angle_beta 90.000000
_cell_angle_gamma 90.000000
_cell_volume 3460.788631
_symmetry_space_group_name_H-M "P M M A"
_symmetry_group_IT_number 51
_symmetry_cell_setting 'orthorhombic'
loop_
_space_group_symop_operation_xyz
x,y,z
1/2-x,-y,z
1/2+x,-y,-z
-x,y,-z
-x,-y,-z
1/2+x,y,-z
1/2-x,y,z
x,-y,z
loop_
_atom_site_type_symbol
_atom_site_label
_atom_site_fract_x
_atom_site_fract_y
_atom_site_fract_z
Si Si1 0.126376 0.612505 0.894005
Si Si2 0.596739 0.890948 0.559018
Si Si3 0.820105 0.389461 0.354985
Si Si4 0.491692 0.711866 0.860603
Si Si5 0.115947 0.616373 0.170472
Si Si6 0.029849 0.110102 0.690559
Si Si7 0.179775 0.283547 0.392429
O O1 0.141243 0.500000 0.896064
O O2 0.158638 0.653873 0.774457
O O3 0.057903 0.630078 0.868262
O O4 0.137575 0.646602 0.033359
O O5 0.535489 0.885455 0.632728
O O6 0.576554 0.874605 0.418489
O O7 0.643752 0.815514 0.606785
O O8 0.618846 0.000000 0.569312
O O9 0.750000 0.392009 0.351610
O O10 0.841772 0.500000 0.364196
O O11 0.836668 0.334397 0.478595
O O12 0.552360 0.666409 0.813198
O O13 0.468537 0.802283 0.784327
O O14 0.500000 0.745122 0.000000
O O15 0.110331 0.500000 0.172087
O O16 0.158125 0.652600 0.278000
O O17 0.037717 0.000000 0.737313
O O18 0.250000 0.271188 0.388662
#
# Coordination Sequence:
#
# PCOD9399268 Si02
#       7
#     8   8   8   8   8   8   8
#     4   9  18  32  50  70  96 133 170 200 240 293
#     4   9  18  33  52  72  95 126 162 199 245 299
#     4   9  18  32  48  68  96 127 161 202 243 286
#     4  10  18  30  49  72 101 130 161 202 249 295
#     4  10  20  33  48  70 101 134 167 202 243 294
#     4   9  17  31  52  74  97 125 159 203 247 295
#     4  11  21  33  51  74 100 129 162 208 255 291
#
# _framework density 16.181283000000001
#
# number of rings (size 3 to 8) (size 9 to 14) (size 15 to 20)
#    0.000    2.429    1.429    2.571    0.000    3.714 
#    0.000    1.429    0.000    3.429    0.000    0.000 
#    0.000    2.286    0.000    0.000    0.000    0.000 
#
# Total GULP energy -311749.761854 kJ/mol
# GULP energy per Si atom -5566.960033 kJ/mol
# Density = 1.614445 g / cm^3
# Si number density = 16.181283 Si / 1000 Ang^3
#
#
#
# Elastic Constant Matrix: (Units=GPa)
#
#
# Indices 1 2 3 4 5 6 
#
# 1 35.0670 16.7953 24.0795 0.0000 0.0000 0.0000
# 2 16.7953 59.7305 28.0107 0.0000 0.0000 0.0000
# 3 24.0795 28.0107 88.6023 0.0000 0.0000 0.0000
# 4 0.0000 0.0000 0.0000 19.8729 0.0000 0.0000
# 5 0.0000 0.0000 0.0000 0.0000 24.8683 0.0000
# 6 0.0000 0.0000 0.0000 0.0000 0.0000 20.5606
#
#
#
# Elastic Compliance Matrix: (Units=1/GPa)
#
#
# Indices 1 2 3 4 5 6 
#
# 1 0.037222 -0.006719 -0.007992 0.000000 0.000000 0.000000
# 2 -0.006719 0.020869 -0.004772 0.000000 0.000000 0.000000
# 3 -0.007992 -0.004772 0.014967 0.000000 0.000000 0.000000
# 4 0.000000 0.000000 0.000000 0.050320 0.000000 0.000000
# 5 0.000000 0.000000 0.000000 0.000000 0.040212 0.000000
# 6 0.000000 0.000000 0.000000 0.000000 0.000000 0.048637
#
#
# Mechanical properties :
#
#
# Convention : Reuss Voigt Hill
#
# Bulk Modulus (GPa) = 29.33074 35.68564 32.50819
# Shear Modulus (GPa) = 19.04365 20.69467 19.86916
#
# Velocity S-wave (km/s) = 3.43431 3.58009 3.50796
# Velocity P-wave (km/s) = 5.82166 6.26026 6.04494
#
# Compressibility (1/GPa) = 0.03409393
#
# Stress axis : x y z
#
# Youngs Moduli (GPa) = 26.86549 47.91886 66.81441
#
# Poissons Ratio (x) = 0.32194 0.53398
# Poissons Ratio (y) = 0.18050 0.31881
# Poissons Ratio (z) = 0.21471 0.22864
#
# Static dielectric constant tensor:
#      x y z
#    x 1.528460 0.000000 0.000000 
#    y 0.000000 1.538040 0.000000 
#    z 0.000000 0.000000 1.569140 
# 
# From -- ./inp_files/11016.got.cif
#   From: 2010.05.17/outbox.cif.g08.bks.cpg/sg51_6_cif.got.tgz:11016.got - 2010.06.03 11:52:47.
