data_PCOD9399109
_publ_section_title
;
Structure prediction by ZEFSAII (Michael W. Deem and Ramdas Pophale) SiO2 
 PCOD9399109
Probable space group: P M M A
;
_chemical_formula_sum "Si O2"
_cell_formula_units_Z 56
_cell_length_a 18.053660
_cell_length_b 14.428740
_cell_length_c 14.059907
_cell_angle_alpha 90.000000
_cell_angle_beta 90.000000
_cell_angle_gamma 90.000000
_cell_volume 3662.487195
_symmetry_space_group_name_H-M "P M M A"
_symmetry_group_IT_number 51
_symmetry_cell_setting 'orthorhombic'
loop_
_space_group_symop_operation_xyz
x,y,z
1/2-x,-y,z
1/2+x,-y,-z
-x,y,-z
-x,-y,-z
1/2+x,y,-z
1/2-x,y,z
x,-y,z
loop_
_atom_site_type_symbol
_atom_site_label
_atom_site_fract_x
_atom_site_fract_y
_atom_site_fract_z
Si Si1 0.912769 0.107980 0.500756
Si Si2 0.335300 0.706770 0.198187
Si Si3 0.451878 0.390055 0.701021
Si Si4 0.967547 0.389266 0.897167
Si Si5 0.338166 0.716648 0.579030
Si Si6 0.110784 0.389441 0.388856
Si Si7 0.662172 0.895255 0.705386
O O1 0.867731 0.179205 0.436234
O O2 0.882334 0.118400 0.607998
O O3 0.000000 0.129860 0.500000
O O4 0.903346 0.000000 0.473540
O O5 0.250000 0.701112 0.169249
O O6 0.391458 0.662963 0.123887
O O7 0.346709 0.651029 0.297264
O O8 0.355087 0.813180 0.222151
O O9 0.436121 0.500000 0.695503
O O10 0.478208 0.367956 0.808254
O O11 0.383058 0.331807 0.663865
O O12 0.523736 0.372391 0.633694
O O13 0.954429 0.500000 0.892793
O O14 0.000000 0.366647 0.000000
O O15 0.250000 0.713789 0.590138
O O16 0.361553 0.661055 0.483238
O O17 0.121284 0.500000 0.395953
O O18 0.750000 0.887406 0.683089
O O19 0.648468 0.000000 0.740077
#
# Coordination Sequence:
#
# PCOD9399109 Si02
#       7
#     8   8   8   8   8   8   8
#     4  10  20  32  47  67  94 133 176 208 234 276
#     4  10  18  29  49  77  99 123 159 203 250 292
#     4   9  19  34  50  67  92 127 165 203 239 287
#     4   9  19  36  55  73  95 126 160 201 256 301
#     4  12  22  30  44  68 100 137 166 194 233 282
#     4  10  19  30  45  67  98 132 163 197 238 282
#     4   9  17  30  47  70 101 130 158 200 251 292
#
# _framework density 15.290156
#
# number of rings (size 3 to 8) (size 9 to 14) (size 15 to 20)
#    0.000    2.143    1.429    3.857    2.000    4.857 
#    0.000    0.714    0.000    3.000    0.000    0.000 
#    0.000    2.286    0.000    0.000    0.000    0.000 
#
# Total GULP energy -312440.241267 kJ/mol
# GULP energy per Si atom -5579.290023 kJ/mol
# Density = 1.525535 g / cm^3
# Si number density = 15.290156 Si / 1000 Ang^3
#
#
#
# Elastic Constant Matrix: (Units=GPa)
#
#
# Indices 1 2 3 4 5 6 
#
# 1 112.1682 66.6739 58.2809 0.0000 0.0000 0.0000
# 2 66.6739 79.2931 42.8840 0.0000 0.0000 0.0000
# 3 58.2809 42.8840 70.3683 0.0000 0.0000 0.0000
# 4 0.0000 0.0000 0.0000 15.1801 0.0000 0.0000
# 5 0.0000 0.0000 0.0000 0.0000 17.4392 0.0000
# 6 0.0000 0.0000 0.0000 0.0000 0.0000 19.6152
#
#
#
# Elastic Compliance Matrix: (Units=1/GPa)
#
#
# Indices 1 2 3 4 5 6 
#
# 1 0.021912 -0.012842 -0.010321 0.000000 0.000000 0.000000
# 2 -0.012842 0.026339 -0.005415 0.000000 0.000000 0.000000
# 3 -0.010321 -0.005415 0.026059 0.000000 0.000000 0.000000
# 4 0.000000 0.000000 0.000000 0.065876 0.000000 0.000000
# 5 0.000000 0.000000 0.000000 0.000000 0.057342 0.000000
# 6 0.000000 0.000000 0.000000 0.000000 0.000000 0.050981
#
#
# Mechanical properties :
#
#
# Convention : Reuss Voigt Hill
#
# Bulk Modulus (GPa) = 58.30145 66.38969 62.34557
# Shear Modulus (GPa) = 16.05738 16.71294 16.38516
#
# Velocity S-wave (km/s) = 3.24416 3.30972 3.27710
# Velocity P-wave (km/s) = 7.22811 7.62364 7.42851
#
# Compressibility (1/GPa) = 0.01715223
#
# Stress axis : x y z
#
# Youngs Moduli (GPa) = 45.63770 37.96714 38.37399
#
# Poissons Ratio (x) = 0.48759 0.39607
# Poissons Ratio (y) = 0.58610 0.20779
# Poissons Ratio (z) = 0.47104 0.20559
#
# Static dielectric constant tensor:
#      x y z
#    x 1.506260 0.000000 0.000000 
#    y 0.000000 1.528940 0.000000 
#    z 0.000000 0.000000 1.481260 
# 
# From -- ./inp_files/24264.got.cif
#   From: 2010.05.17/outbox.cif.g08.bks.cpg/sg51_13_cif.got.tgz:24264.got - 2010.06.03 11:52:47.
