data_PCOD9399344
_publ_section_title
;
Structure prediction by ZEFSAII (Michael W. Deem and Ramdas Pophale) SiO2 
 PCOD9399344
Probable space group: P M M A
;
_chemical_formula_sum "Si O2"
_cell_formula_units_Z 28
_cell_length_a 8.715176
_cell_length_b 19.185067
_cell_length_c 9.252257
_cell_angle_alpha 90.000000
_cell_angle_beta 90.000000
_cell_angle_gamma 90.000000
_cell_volume 1546.988801
_symmetry_space_group_name_H-M "P M M A"
_symmetry_group_IT_number 51
_symmetry_cell_setting 'orthorhombic'
loop_
_space_group_symop_operation_xyz
x,y,z
1/2-x,-y,z
1/2+x,-y,-z
-x,y,-z
-x,-y,-z
1/2+x,y,-z
1/2-x,y,z
x,-y,z
loop_
_atom_site_type_symbol
_atom_site_label
_atom_site_fract_x
_atom_site_fract_y
_atom_site_fract_z
Si Si1 0.933386 0.218399 0.161478
Si Si2 0.566145 0.076013 0.836492
Si Si3 0.565973 0.356753 0.338408
Si Si4 0.066669 0.500000 0.336107
O O1 0.750000 0.212791 0.153300
O O2 0.973745 0.287515 0.249963
O O3 0.998543 0.146711 0.229257
O O4 0.000000 0.224607 0.000000
O O5 0.750000 0.081271 0.843048
O O6 0.526383 0.000000 0.771450
O O7 0.500000 0.074878 0.000000
O O8 0.500000 0.349686 0.500000
O O9 0.750000 0.363825 0.345146
O O10 0.495738 0.427674 0.272023
O O11 0.250000 0.500000 0.340184
O O12 0.000000 0.500000 0.500000
#
# Coordination Sequence:
#
# PCOD9399344 Si02
#       4
#     8   8   8   4
#     4  10  20  32  49  73 100 129 160 197 241 286
#     4   9  16  26  43  67  94 125 160 197 236 279
#     4  10  20  34  52  74  98 126 161 199 239 284
#     4  10  18  30  51  74  95 124 160 198 238 280
#
# _framework density 18.099678000000001
#
# number of rings (size 3 to 8) (size 9 to 14) (size 15 to 20)
#    0.000    2.286    0.000    7.286    0.000    6.286 
#    0.000    0.714    0.000    0.857    0.000    0.000 
#    0.000    0.000    0.000    0.000    0.000    0.000 
#
# Total GULP energy -156052.720515 kJ/mol
# GULP energy per Si atom -5573.311447 kJ/mol
# Density = 1.805848 g / cm^3
# Si number density = 18.099678 Si / 1000 Ang^3
#
#
#
# Elastic Constant Matrix: (Units=GPa)
#
#
# Indices 1 2 3 4 5 6 
#
# 1 81.4590 80.3270 17.2412 0.0000 0.0000 0.0000
# 2 80.3270 243.4946 45.7364 0.0000 0.0000 0.0000
# 3 17.2412 45.7364 22.3778 0.0000 0.0000 0.0000
# 4 0.0000 0.0000 0.0000 -40.5001 0.0000 0.0000
# 5 0.0000 0.0000 0.0000 0.0000 16.5701 0.0000
# 6 0.0000 0.0000 0.0000 0.0000 0.0000 37.8081
#
#
#
# Elastic Compliance Matrix: (Units=1/GPa)
#
#
# Indices 1 2 3 4 5 6 
#
# 1 0.018307 -0.005502 -0.002859 0.000000 0.000000 0.000000
# 2 -0.005502 0.008320 -0.012765 0.000000 0.000000 0.000000
# 3 -0.002859 -0.012765 0.072979 0.000000 0.000000 0.000000
# 4 0.000000 0.000000 0.000000 -0.024691 0.000000 0.000000
# 5 0.000000 0.000000 0.000000 0.000000 0.060350 0.000000
# 6 0.000000 0.000000 0.000000 0.000000 0.000000 0.026449
#
#
# Mechanical properties :
#
#
# Convention : Reuss Voigt Hill
#
# Bulk Modulus (GPa) = 17.43574 70.43784 43.93679
# Shear Modulus (GPa) = 22.41318 16.37742 19.39530
#
# Velocity S-wave (km/s) = 3.52279 3.01133 3.27705
# Velocity P-wave (km/s) = 5.11868 7.14786 6.21662
#
# Compressibility (1/GPa) = 0.05735347
#
# Stress axis : x y z
#
# Youngs Moduli (GPa) = 54.62352 120.19690 13.70263
#
# Poissons Ratio (x) = 0.66137 0.03918
# Poissons Ratio (y) = 0.30056 0.17491
# Poissons Ratio (z) = 0.15617 1.53427
#
# Static dielectric constant tensor:
#      x y z
#    x 1.605090 0.000000 0.000000 
#    y 0.000000 1.706020 0.000000 
#    z 0.000000 0.000000 1.599010 
# 
# From -- ./inp_files/4780.got.cif
#   From: 2010.05.17/outbox.cif.g08.bks.cpg/sg51_3_cif.got.tgz:4780.got - 2010.06.03 11:52:47.
