data_PCOD9399003
_publ_section_title
;
Structure prediction by ZEFSAII (Michael W. Deem and Ramdas Pophale) SiO2 
 PCOD9399003
Probable space group: P M M A
;
_chemical_formula_sum "Si O2"
_cell_formula_units_Z 56
_cell_length_a 8.999240
_cell_length_b 18.707886
_cell_length_c 21.426708
_cell_angle_alpha 90.000000
_cell_angle_beta 90.000000
_cell_angle_gamma 90.000000
_cell_volume 3607.331051
_symmetry_space_group_name_H-M "P M M A"
_symmetry_group_IT_number 51
_symmetry_cell_setting 'orthorhombic'
loop_
_space_group_symop_operation_xyz
x,y,z
1/2-x,-y,z
1/2+x,-y,-z
-x,y,-z
-x,-y,-z
1/2+x,y,-z
1/2-x,y,z
x,-y,z
loop_
_atom_site_type_symbol
_atom_site_label
_atom_site_fract_x
_atom_site_fract_y
_atom_site_fract_z
Si Si1 0.428252 0.659856 0.184725
Si Si2 0.080158 0.291299 0.623203
Si Si3 0.929575 0.853793 0.435222
Si Si4 0.425770 0.083589 0.311249
Si Si5 0.921204 0.208301 0.243629
Si Si6 0.928370 0.418677 0.685731
Si Si7 0.926309 0.585225 0.066058
O O1 0.250000 0.661525 0.180722
O O2 0.492509 0.738699 0.197711
O O3 0.469075 0.611592 0.245501
O O4 0.498304 0.626019 0.123205
O O5 0.250000 0.309691 0.607988
O O6 0.027128 0.229707 0.576182
O O7 0.079455 0.249908 0.689773
O O8 0.988611 0.362928 0.634796
O O9 0.750000 0.857974 0.435382
O O10 0.000000 0.878683 0.500000
O O11 0.994275 0.897101 0.376569
O O12 0.250000 0.099153 0.317032
O O13 0.497042 0.134355 0.258741
O O14 0.444988 0.000000 0.297815
O O15 0.750000 0.197927 0.225046
O O16 0.750000 0.418633 0.682920
O O17 0.981656 0.500000 0.678000
O O18 0.750000 0.598548 0.064542
O O19 0.949323 0.500000 0.074692
O O20 0.000000 0.604937 0.000000
#
# Coordination Sequence:
#
# PCOD9399003 Si02
#       7
#     8   8   8   8   8   8   8
#     4  10  18  29  46  66  91 122 156 193 231 273
#     4   8  16  29  43  61  83 108 139 177 221 265
#     4  10  20  33  49  67  87 114 149 184 219 265
#     4  10  20  33  49  70  96 123 149 179 219 267
#     4   9  17  30  47  67  91 118 150 186 225 269
#     4   9  17  27  41  63  87 111 141 179 224 270
#     4  10  20  32  45  63  91 128 167 204 241 279
#
# _framework density 15.523942
#
# number of rings (size 3 to 8) (size 9 to 14) (size 15 to 20)
#    0.000    2.571    0.000    3.429    0.000    7.714 
#    0.000    0.000    0.000    0.429    0.000    0.000 
#    0.000    0.571    0.000    2.143    0.000    3.286 
#
# Total GULP energy -312122.949697 kJ/mol
# GULP energy per Si atom -5573.624102 kJ/mol
# Density = 1.548861 g / cm^3
# Si number density = 15.523942 Si / 1000 Ang^3
#
#
#
# Elastic Constant Matrix: (Units=GPa)
#
#
# Indices 1 2 3 4 5 6 
#
# 1 70.6261 46.4091 22.7385 0.0000 0.0000 0.0000
# 2 46.4091 85.2066 12.2918 0.0000 0.0000 0.0000
# 3 22.7385 12.2918 29.5490 0.0000 0.0000 0.0000
# 4 0.0000 0.0000 0.0000 18.6737 0.0000 0.0000
# 5 0.0000 0.0000 0.0000 0.0000 22.7549 0.0000
# 6 0.0000 0.0000 0.0000 0.0000 0.0000 26.2301
#
#
#
# Elastic Compliance Matrix: (Units=1/GPa)
#
#
# Indices 1 2 3 4 5 6 
#
# 1 0.027715 -0.012786 -0.016008 0.000000 0.000000 0.000000
# 2 -0.012786 0.018384 0.002192 0.000000 0.000000 0.000000
# 3 -0.016008 0.002192 0.045249 0.000000 0.000000 0.000000
# 4 0.000000 0.000000 0.000000 0.053551 0.000000 0.000000
# 5 0.000000 0.000000 0.000000 0.000000 0.043947 0.000000
# 6 0.000000 0.000000 0.000000 0.000000 0.000000 0.038124
#
#
# Mechanical properties :
#
#
# Convention : Reuss Voigt Hill
#
# Bulk Modulus (GPa) = 26.21734 38.69560 32.45647
# Shear Modulus (GPa) = 17.07126 20.46123 18.76624
#
# Velocity S-wave (km/s) = 3.31973 3.63443 3.48064
# Velocity P-wave (km/s) = 5.62309 6.52630 6.09146
#
# Compressibility (1/GPa) = 0.03814269
#
# Stress axis : x y z
#
# Youngs Moduli (GPa) = 36.08171 54.39484 22.09984
#
# Poissons Ratio (x) = 0.69549 0.35378
# Poissons Ratio (y) = 0.46134 -0.04844
# Poissons Ratio (z) = 0.57761 -0.11921
#
# Static dielectric constant tensor:
#      x y z
#    x 1.523110 0.000000 0.000000 
#    y 0.000000 1.520800 0.000000 
#    z 0.000000 0.000000 1.494770 
# 
# From -- ./inp_files/32209.got.cif
#   From: 2010.05.17/outbox.cif.g08.bks.cpg/sg51_17_cif.got.tgz:32209.got - 2010.06.03 11:52:47.
