data_PCOD9399577
_publ_section_title
;
Structure prediction by ZEFSAII (Michael W. Deem and Ramdas Pophale) SiO2 
 PCOD9399577
Probable space group: P M M A
;
_chemical_formula_sum "Si O2"
_cell_formula_units_Z 48
_cell_length_a 32.075145
_cell_length_b 8.638685
_cell_length_c 9.295911
_cell_angle_alpha 90.000000
_cell_angle_beta 90.000000
_cell_angle_gamma 90.000000
_cell_volume 2575.776779
_symmetry_space_group_name_H-M "P M M A"
_symmetry_group_IT_number 51
_symmetry_cell_setting 'orthorhombic'
loop_
_space_group_symop_operation_xyz
x,y,z
1/2-x,-y,z
1/2+x,-y,-z
-x,y,-z
-x,-y,-z
1/2+x,y,-z
1/2-x,y,z
x,-y,z
loop_
_atom_site_type_symbol
_atom_site_label
_atom_site_fract_x
_atom_site_fract_y
_atom_site_fract_z
Si Si1 0.168611 0.811699 0.160921
Si Si2 0.669896 0.186291 0.170552
Si Si3 0.088883 0.184540 0.342903
Si Si4 0.498079 0.321017 0.325179
Si Si5 0.750000 0.812194 0.659726
Si Si6 0.250000 0.315406 0.662702
Si Si7 0.409999 0.313642 0.665582
O O1 0.125988 0.762688 0.238487
O O2 0.208766 0.763829 0.253100
O O3 0.168594 0.000000 0.159818
O O4 0.171500 0.762183 0.995693
O O5 0.709099 0.252648 0.256872
O O6 0.627302 0.243111 0.243195
O O7 0.671684 0.000000 0.175567
O O8 0.043118 0.228122 0.284323
O O9 0.094139 0.260806 0.499791
O O10 0.091571 0.000000 0.360674
O O11 0.500000 0.318167 0.500000
O O12 0.492992 0.500000 0.281727
O O13 0.543866 0.264174 0.279769
O O14 0.750000 0.744802 0.500485
O O15 0.750000 0.000000 0.650338
O O16 0.250000 0.500000 0.664358
O O17 0.408906 0.500000 0.669913
#
# Coordination Sequence:
#
# PCOD9399577 Si02
#       7
#     8   8   8   8   4   4   8
#     4   9  20  36  56  82 110 140 179 227 273 319
#     4  11  22  39  60  81 108 145 183 220 268 321
#     4  10  18  31  54  83 110 141 186 233 275 323
#     4   8  16  31  50  74 108 146 182 225 275 321
#     4  10  19  38  64  84 106 142 183 220 266 324
#     4  12  25  40  58  86 116 140 175 222 268 318
#     4  10  20  35  54  80 112 144 182 228 274 323
#
# _framework density 18.635157
#
# number of rings (size 3 to 8) (size 9 to 14) (size 15 to 20)
#    0.000    2.167    0.000    4.750    0.000    6.333 
#    0.000    7.500    0.000    5.000    0.000    0.000 
#    0.000    0.000    0.000    0.000    0.000    0.000 
#
# Total GULP energy -267948.165702 kJ/mol
# GULP energy per Si atom -5582.253452 kJ/mol
# Density = 1.859274 g / cm^3
# Si number density = 18.635157 Si / 1000 Ang^3
#
#
#
# Elastic Constant Matrix: (Units=GPa)
#
#
# Indices 1 2 3 4 5 6 
#
# 1 208.6726 49.3069 104.5394 0.0000 0.0000 0.0000
# 2 49.3069 57.0516 36.5817 0.0000 0.0000 0.0000
# 3 104.5394 36.5817 133.6526 0.0000 0.0000 0.0000
# 4 0.0000 0.0000 0.0000 -14.4051 0.0000 0.0000
# 5 0.0000 0.0000 0.0000 0.0000 -16.0755 0.0000
# 6 0.0000 0.0000 0.0000 0.0000 0.0000 28.7822
#
#
#
# Elastic Compliance Matrix: (Units=1/GPa)
#
#
# Indices 1 2 3 4 5 6 
#
# 1 0.008489 -0.003734 -0.005618 0.000000 0.000000 0.000000
# 2 -0.003734 0.022902 -0.003347 0.000000 0.000000 0.000000
# 3 -0.005618 -0.003347 0.012792 0.000000 0.000000 0.000000
# 4 0.000000 0.000000 0.000000 -0.069420 0.000000 0.000000
# 5 0.000000 0.000000 0.000000 0.000000 -0.062206 0.000000
# 6 0.000000 0.000000 0.000000 0.000000 0.000000 0.034744
#
#
# Mechanical properties :
#
#
# Convention : Reuss Voigt Hill
#
# Bulk Modulus (GPa) = 53.23681 86.69254 69.96468
# Shear Modulus (GPa) = -237.64873 13.59026 -112.02923
#
# Velocity S-wave (km/s) = -11.30504 2.70345 -7.76194
# Velocity P-wave (km/s) = 11.90694 7.50778 6.53485
#
# Compressibility (1/GPa) = 0.01878399
#
# Stress axis : x y z
#
# Youngs Moduli (GPa) = 117.80112 43.66454 78.17244
#
# Poissons Ratio (x) = 0.16306 0.43914
# Poissons Ratio (y) = 0.43993 0.26167
# Poissons Ratio (z) = 0.66176 0.14616
#
# Static dielectric constant tensor:
#      x y z
#    x 1.649680 0.000000 0.000000 
#    y 0.000000 1.632050 0.000000 
#    z 0.000000 0.000000 1.612190 
# 
# From -- ./inp_files/12959.got.cif
#   From: 2010.05.17/outbox.cif.g08.bks.cpg/sg51_7_cif.got.tgz:12959.got - 2010.06.03 11:52:47.
