data_PCOD9399272
_publ_section_title
;
Structure prediction by ZEFSAII (Michael W. Deem and Ramdas Pophale) SiO2 
 PCOD9399272
Probable space group: P M M A
;
_chemical_formula_sum "Si O2"
_cell_formula_units_Z 44
_cell_length_a 8.574338
_cell_length_b 29.883378
_cell_length_c 9.699258
_cell_angle_alpha 90.000000
_cell_angle_beta 90.000000
_cell_angle_gamma 90.000000
_cell_volume 2485.242658
_symmetry_space_group_name_H-M "P M M A"
_symmetry_group_IT_number 51
_symmetry_cell_setting 'orthorhombic'
loop_
_space_group_symop_operation_xyz
x,y,z
1/2-x,-y,z
1/2+x,-y,-z
-x,y,-z
-x,-y,-z
1/2+x,y,-z
1/2-x,y,z
x,-y,z
loop_
_atom_site_type_symbol
_atom_site_label
_atom_site_fract_x
_atom_site_fract_y
_atom_site_fract_z
Si Si1 0.062377 0.093687 0.156050
Si Si2 0.936963 0.367919 0.344215
Si Si3 0.563814 0.000000 0.157067
Si Si4 0.936977 0.274979 0.656795
Si Si5 0.061673 0.449734 0.845813
Si Si6 0.561912 0.823461 0.655674
O O1 0.250000 0.091830 0.151572
O O2 0.011289 0.135783 0.247867
O O3 0.999346 0.046671 0.216109
O O4 0.000000 0.098434 0.000000
O O5 0.750000 0.367328 0.349382
O O6 0.990760 0.410309 0.255129
O O7 0.000000 0.371526 0.500000
O O8 0.994199 0.320544 0.281959
O O9 0.750000 0.000000 0.155829
O O10 0.500000 0.000000 0.000000
O O11 0.750000 0.278368 0.655675
O O12 0.982533 0.225939 0.712520
O O13 0.000000 0.274327 0.500000
O O14 0.250000 0.448861 0.849031
O O15 0.013404 0.500000 0.801932
O O16 0.000000 0.442563 0.000000
O O17 0.500000 0.828170 0.500000
O O18 0.750000 0.824261 0.649220
#
# Coordination Sequence:
#
# PCOD9399272 Si02
#       6
#     8   8   4   8   8   8
#     4  10  19  33  51  73  98 126 160 199 239 282
#     4  10  19  31  49  74  99 124 158 199 239 281
#     4  10  18  30  49  72  95 126 162 196 238 286
#     4   9  16  29  48  70  96 127 160 195 236 283
#     4   9  19  35  52  70  95 127 162 198 238 286
#     4   9  19  33  51  73  98 127 161 198 238 284
#
# _framework density 17.704509000000002
#
# number of rings (size 3 to 8) (size 9 to 14) (size 15 to 20)
#    0.000    2.545    0.000    4.636    0.000    4.000 
#    0.000    1.364    0.000    4.364    0.000    0.000 
#    0.000    0.000    0.000    0.000    0.000    0.000 
#
# Total GULP energy -245164.620610 kJ/mol
# GULP energy per Si atom -5571.923196 kJ/mol
# Density = 1.766421 g / cm^3
# Si number density = 17.704509 Si / 1000 Ang^3
#
#
#
# Elastic Constant Matrix: (Units=GPa)
#
#
# Indices 1 2 3 4 5 6 
#
# 1 49.1599 43.5362 14.7621 0.0000 0.0000 0.0000
# 2 43.5362 225.2550 75.8679 0.0000 0.0000 0.0000
# 3 14.7621 75.8679 47.1897 0.0000 0.0000 0.0000
# 4 0.0000 0.0000 0.0000 -28.9398 0.0000 0.0000
# 5 0.0000 0.0000 0.0000 0.0000 19.9784 0.0000
# 6 0.0000 0.0000 0.0000 0.0000 0.0000 28.1687
#
#
#
# Elastic Compliance Matrix: (Units=1/GPa)
#
#
# Indices 1 2 3 4 5 6 
#
# 1 0.024543 -0.004706 -0.000112 0.000000 0.000000 0.000000
# 2 -0.004706 0.010585 -0.015545 0.000000 0.000000 0.000000
# 3 -0.000112 -0.015545 0.046218 0.000000 0.000000 0.000000
# 4 0.000000 0.000000 0.000000 -0.034555 0.000000 0.000000
# 5 0.000000 0.000000 0.000000 0.000000 0.050054 0.000000
# 6 0.000000 0.000000 0.000000 0.000000 0.000000 0.035500
#
#
# Mechanical properties :
#
#
# Convention : Reuss Voigt Hill
#
# Bulk Modulus (GPa) = 24.61840 65.54858 45.08349
# Shear Modulus (GPa) = 26.79359 16.33735 21.56547
#
# Velocity S-wave (km/s) = 3.89443 3.04102 3.49388
# Velocity P-wave (km/s) = 5.84444 7.03096 6.46498
#
# Compressibility (1/GPa) = 0.04062002
#
# Stress axis : x y z
#
# Youngs Moduli (GPa) = 40.74503 94.47631 21.63643
#
# Poissons Ratio (x) = 0.44459 0.00242
# Poissons Ratio (y) = 0.19174 0.33634
# Poissons Ratio (z) = 0.00456 1.46865
#
# Static dielectric constant tensor:
#      x y z
#    x 1.606250 0.000000 0.000000 
#    y 0.000000 1.670250 0.000000 
#    z 0.000000 0.000000 1.554410 
# 
# From -- ./inp_files/5799.got.cif
#   From: 2010.05.17/outbox.cif.g08.bks.cpg/sg51_3_cif.got.tgz:5799.got - 2010.06.03 11:52:47.
