data_PCOD9399869
_publ_section_title
;
Structure prediction by ZEFSAII (Michael W. Deem and Ramdas Pophale) SiO2 
 PCOD9399869
Probable space group: P M M A
;
_chemical_formula_sum "Si O2"
_cell_formula_units_Z 64
_cell_length_a 8.629006
_cell_length_b 21.231289
_cell_length_c 20.287872
_cell_angle_alpha 90.000000
_cell_angle_beta 90.000000
_cell_angle_gamma 90.000000
_cell_volume 3716.837970
_symmetry_space_group_name_H-M "P M M A"
_symmetry_group_IT_number 51
_symmetry_cell_setting 'orthorhombic'
loop_
_space_group_symop_operation_xyz
x,y,z
1/2-x,-y,z
1/2+x,-y,-z
-x,y,-z
-x,-y,-z
1/2+x,y,-z
1/2-x,y,z
x,-y,z
loop_
_atom_site_type_symbol
_atom_site_label
_atom_site_fract_x
_atom_site_fract_y
_atom_site_fract_z
Si Si1 0.434395 0.188462 0.792871
Si Si2 0.936167 0.114462 0.569433
Si Si3 0.938033 0.692835 0.710966
Si Si4 0.562569 0.070528 0.712860
Si Si5 0.436107 0.621645 0.069969
Si Si6 0.436324 0.738373 0.430537
Si Si7 0.439197 0.430111 0.209969
Si Si8 0.064257 0.230460 0.070750
O O1 0.250000 0.191317 0.792380
O O2 0.501385 0.248429 0.753210
O O3 0.491594 0.125403 0.756881
O O4 0.496194 0.193580 0.867351
O O5 0.750000 0.112247 0.566278
O O6 0.984733 0.080261 0.636394
O O7 0.983846 0.188070 0.575843
O O8 0.000000 0.089981 0.500000
O O9 0.750000 0.695159 0.713311
O O10 0.986489 0.702068 0.635122
O O11 0.989038 0.627183 0.743382
O O12 0.750000 0.076514 0.714933
O O13 0.520758 0.000000 0.734250
O O14 0.250000 0.618819 0.067413
O O15 0.487992 0.584701 0.134891
O O16 0.479823 0.695397 0.078096
O O17 0.500000 0.598923 0.000000
O O18 0.500000 0.714282 0.500000
O O19 0.250000 0.737247 0.432858
O O20 0.250000 0.429423 0.210204
O O21 0.489430 0.500000 0.229926
O O22 0.250000 0.226857 0.071465
O O23 0.000000 0.209399 0.000000
#
# Coordination Sequence:
#
# PCOD9399869 Si02
#       8
#     8   8   8   8   8   8   8   8
#     4  12  23  34  54  82 109 139 177 221 265 310
#     4   9  17  30  48  73 104 137 175 213 255 311
#     4  10  18  34  55  75 101 138 178 221 267 314
#     4  10  21  38  57  76 104 144 182 216 261 315
#     4   9  17  29  47  71 102 137 171 210 251 300
#     4   9  17  29  49  73 101 131 168 216 267 314
#     4   9  17  30  50  75 101 134 178 222 264 310
#     4  10  19  34  55  80 109 139 174 219 265 312
#
# _framework density 17.218938000000001
#
# number of rings (size 3 to 8) (size 9 to 14) (size 15 to 20)
#    0.000    2.250    2.500    1.500    0.000    2.250 
#    0.000    0.000    0.000    1.875    0.000    0.000 
#    0.000    0.000    0.000    0.000    0.000    0.000 
#
# Total GULP energy -357051.470826 kJ/mol
# GULP energy per Si atom -5578.929232 kJ/mol
# Density = 1.717975 g / cm^3
# Si number density = 17.218938 Si / 1000 Ang^3
#
#
#
# Elastic Constant Matrix: (Units=GPa)
#
#
# Indices 1 2 3 4 5 6 
#
# 1 18.3058 26.6459 29.5008 0.0000 0.0000 0.0000
# 2 26.6459 113.0364 74.5965 0.0000 0.0000 0.0000
# 3 29.5008 74.5965 144.5860 0.0000 0.0000 0.0000
# 4 0.0000 0.0000 0.0000 21.9332 0.0000 0.0000
# 5 0.0000 0.0000 0.0000 0.0000 29.4912 0.0000
# 6 0.0000 0.0000 0.0000 0.0000 0.0000 -152.7566
#
#
#
# Elastic Compliance Matrix: (Units=1/GPa)
#
#
# Indices 1 2 3 4 5 6 
#
# 1 0.094918 -0.014547 -0.011861 0.000000 0.000000 0.000000
# 2 -0.014547 0.015643 -0.005103 0.000000 0.000000 0.000000
# 3 -0.011861 -0.005103 0.011969 0.000000 0.000000 0.000000
# 4 0.000000 0.000000 0.000000 0.045593 0.000000 0.000000
# 5 0.000000 0.000000 0.000000 0.000000 0.033908 0.000000
# 6 0.000000 0.000000 0.000000 0.000000 0.000000 -0.006546
#
#
# Mechanical properties :
#
#
# Convention : Reuss Voigt Hill
#
# Bulk Modulus (GPa) = 16.80455 59.71274 38.25865
# Shear Modulus (GPa) = 17.96341 -10.58743 3.68799
#
# Velocity S-wave (km/s) = 3.23342 -2.48235 1.46508
# Velocity P-wave (km/s) = 4.87037 5.15148 5.01290
#
# Compressibility (1/GPa) = 0.05950768
#
# Stress axis : x y z
#
# Youngs Moduli (GPa) = 10.53544 63.92486 83.54829
#
# Poissons Ratio (x) = 0.92992 0.99100
# Poissons Ratio (y) = 0.15326 0.42633
# Poissons Ratio (z) = 0.12496 0.32619
#
# Static dielectric constant tensor:
#      x y z
#    x 1.582480 0.000000 0.000000 
#    y 0.000000 1.579700 0.000000 
#    z 0.000000 0.000000 1.582350 
# 
# From -- ./inp_files/32303.got.cif
#   From: 2010.05.17/outbox.cif.g08.bks.cpg/sg51_17_cif.got.tgz:32303.got - 2010.06.03 11:52:47.
