data_PCOD9399687
_publ_section_title
;
Structure prediction by ZEFSAII (Michael W. Deem and Ramdas Pophale) SiO2 
 PCOD9399687
Probable space group: P M M A
;
_chemical_formula_sum "Si O2"
_cell_formula_units_Z 40
_cell_length_a 16.106696
_cell_length_b 7.783002
_cell_length_c 14.985430
_cell_angle_alpha 90.000000
_cell_angle_beta 90.000000
_cell_angle_gamma 90.000000
_cell_volume 1878.550235
_symmetry_space_group_name_H-M "P M M A"
_symmetry_group_IT_number 51
_symmetry_cell_setting 'orthorhombic'
loop_
_space_group_symop_operation_xyz
x,y,z
1/2-x,-y,z
1/2+x,-y,-z
-x,y,-z
-x,-y,-z
1/2+x,y,-z
1/2-x,y,z
x,-y,z
loop_
_atom_site_type_symbol
_atom_site_label
_atom_site_fract_x
_atom_site_fract_y
_atom_site_fract_z
Si Si1 0.081145 0.697051 0.603240
Si Si2 0.158259 0.789734 0.218004
Si Si3 0.341142 0.206123 0.786451
Si Si4 0.105295 0.196329 0.410314
Si Si5 0.500370 0.789481 0.897147
O O1 0.057547 0.500000 0.617007
O O2 0.139179 0.754971 0.683388
O O3 0.120062 0.715212 0.505056
O O4 0.994522 0.799866 0.604511
O O5 0.250000 0.740302 0.186520
O O6 0.144546 0.731342 0.320058
O O7 0.082583 0.733152 0.155821
O O8 0.154973 0.000000 0.220226
O O9 0.250000 0.272997 0.810955
O O10 0.417932 0.269915 0.845533
O O11 0.339754 0.000000 0.796717
O O12 0.132983 0.000000 0.419985
O O13 0.500427 0.000000 0.895637
O O14 0.500000 0.736407 0.000000
#
# Coordination Sequence:
#
# PCOD9399687 Si02
#       5
#     8   8   8   8   8
#     4  11  21  33  52  79 110 144 184 224 270 317
#     4   9  17  29  49  78 108 136 171 214 263 316
#     4  10  20  35  55  80 109 144 183 221 267 326
#     4  10  18  32  54  78 109 147 185 220 265 320
#     4   9  17  31  52  79 110 138 170 220 277 324
#
# _framework density 21.293015
#
# number of rings (size 3 to 8) (size 9 to 14) (size 15 to 20)
#    0.000    2.200    2.000    3.600    0.000    2.000 
#    0.000    6.000    0.000    2.400    0.000    0.000 
#    0.000    0.000    0.000    0.000    0.000    0.000 
#
# Total GULP energy -223390.280518 kJ/mol
# GULP energy per Si atom -5584.757013 kJ/mol
# Density = 2.124455 g / cm^3
# Si number density = 21.293015 Si / 1000 Ang^3
#
#
#
# Elastic Constant Matrix: (Units=GPa)
#
#
# Indices 1 2 3 4 5 6 
#
# 1 177.5865 5.7215 109.8975 0.0000 0.0000 0.0000
# 2 5.7215 33.0709 -5.7947 0.0000 0.0000 0.0000
# 3 109.8975 -5.7947 145.6120 0.0000 0.0000 0.0000
# 4 0.0000 0.0000 0.0000 -48.2874 0.0000 0.0000
# 5 0.0000 0.0000 0.0000 0.0000 -1.7750 0.0000
# 6 0.0000 0.0000 0.0000 0.0000 0.0000 -16.6175
#
#
#
# Elastic Compliance Matrix: (Units=1/GPa)
#
#
# Indices 1 2 3 4 5 6 
#
# 1 0.010924 -0.003358 -0.008378 0.000000 0.000000 0.000000
# 2 -0.003358 0.031483 0.003787 0.000000 0.000000 0.000000
# 3 -0.008378 0.003787 0.013342 0.000000 0.000000 0.000000
# 4 0.000000 0.000000 0.000000 -0.020709 0.000000 0.000000
# 5 0.000000 0.000000 0.000000 0.000000 -0.563385 0.000000
# 6 0.000000 0.000000 0.000000 0.000000 0.000000 -0.060178
#
#
# Mechanical properties :
#
#
# Convention : Reuss Voigt Hill
#
# Bulk Modulus (GPa) = 25.09403 63.99089 44.54246
# Shear Modulus (GPa) = -8.93908 3.09369 -2.92269
#
# Velocity S-wave (km/s) = -2.05116 1.20668 -1.17285
# Velocity P-wave (km/s) = 2.49019 5.66208 4.37380
#
# Compressibility (1/GPa) = 0.03985011
#
# Stress axis : x y z
#
# Youngs Moduli (GPa) = 91.54065 31.76360 74.95311
#
# Poissons Ratio (x) = 0.10666 0.62798
# Poissons Ratio (y) = 0.30739 -0.28387
# Poissons Ratio (z) = 0.76696 -0.12030
#
# Static dielectric constant tensor:
#      x y z
#    x 1.774610 0.000000 0.000000 
#    y 0.000000 1.742860 0.000000 
#    z 0.000000 0.000000 1.738760 
# 
# From -- ./inp_files/23692.got.cif
#   From: 2010.05.17/outbox.cif.g08.bks.cpg/sg51_12_cif.got.tgz:23692.got - 2010.06.03 11:52:47.
