data_PCOD9399860
_publ_section_title
;
Structure prediction by ZEFSAII (Michael W. Deem and Ramdas Pophale) SiO2 
 PCOD9399860
Probable space group: P M M A
;
_chemical_formula_sum "Si O2"
_cell_formula_units_Z 40
_cell_length_a 13.776697
_cell_length_b 15.185275
_cell_length_c 9.915582
_cell_angle_alpha 90.000000
_cell_angle_beta 90.000000
_cell_angle_gamma 90.000000
_cell_volume 2074.368832
_symmetry_space_group_name_H-M "P M M A"
_symmetry_group_IT_number 51
_symmetry_cell_setting 'orthorhombic'
loop_
_space_group_symop_operation_xyz
x,y,z
1/2-x,-y,z
1/2+x,-y,-z
-x,y,-z
-x,-y,-z
1/2+x,y,-z
1/2-x,y,z
x,-y,z
loop_
_atom_site_type_symbol
_atom_site_label
_atom_site_fract_x
_atom_site_fract_y
_atom_site_fract_z
Si Si1 0.250000 0.097647 0.238580
Si Si2 0.750000 0.108853 0.062239
Si Si3 0.566758 0.162479 0.612951
Si Si4 0.052980 0.597357 0.724010
Si Si5 0.936702 0.779093 0.136545
Si Si6 0.636799 0.356574 0.563697
O O1 0.342958 0.111503 0.329262
O O2 0.250000 0.000000 0.188203
O O3 0.250000 0.145099 0.094332
O O4 0.654847 0.155817 0.123342
O O5 0.750000 0.000000 0.080724
O O6 0.500000 0.119313 0.500000
O O7 0.501239 0.186360 0.740270
O O8 0.610502 0.253143 0.552759
O O9 0.066221 0.500000 0.782242
O O10 0.083931 0.677549 0.820807
O O11 0.111717 0.604147 0.582659
O O12 0.940419 0.608612 0.674252
O O13 0.000000 0.781127 0.000000
O O14 0.750000 0.368867 0.597566
#
# Coordination Sequence:
#
# PCOD9399860 Si02
#       6
#     4   4   8   8   8   8
#     4  11  24  41  65  95 126 162 212 271 333 399
#     4  11  26  45  70  97 126 170 223 265 320 403
#     4  11  21  39  65  93 129 169 207 265 332 388
#     4  10  22  37  57  93 131 170 215 260 314 376
#     4  11  23  42  67  94 128 173 212 267 319 380
#     4  10  18  33  61  87 125 170 214 257 311 382
#
# _framework density 19.282973999999999
#
# number of rings (size 3 to 8) (size 9 to 14) (size 15 to 20)
#    0.000    1.400    7.000    1.200    1.400    4.400 
#    0.000    1.000    0.000    0.000    0.000    0.000 
#    0.000    0.000    0.000    0.000    0.000    0.000 
#
# Total GULP energy -222994.938932 kJ/mol
# GULP energy per Si atom -5574.873473 kJ/mol
# Density = 1.923908 g / cm^3
# Si number density = 19.282974 Si / 1000 Ang^3
#
#
#
# Elastic Constant Matrix: (Units=GPa)
#
#
# Indices 1 2 3 4 5 6 
#
# 1 116.1840 54.9758 39.4815 0.0000 0.0000 0.0000
# 2 54.9758 104.1467 27.9906 0.0000 0.0000 0.0000
# 3 39.4815 27.9906 84.5572 0.0000 0.0000 0.0000
# 4 0.0000 0.0000 0.0000 19.5065 0.0000 0.0000
# 5 0.0000 0.0000 0.0000 0.0000 43.4872 0.0000
# 6 0.0000 0.0000 0.0000 0.0000 0.0000 15.2683
#
#
#
# Elastic Compliance Matrix: (Units=1/GPa)
#
#
# Indices 1 2 3 4 5 6 
#
# 1 0.012620 -0.005574 -0.004047 0.000000 0.000000 0.000000
# 2 -0.005574 0.013001 -0.001701 0.000000 0.000000 0.000000
# 3 -0.004047 -0.001701 0.014279 0.000000 0.000000 0.000000
# 4 0.000000 0.000000 0.000000 0.051265 0.000000 0.000000
# 5 0.000000 0.000000 0.000000 0.000000 0.022995 0.000000
# 6 0.000000 0.000000 0.000000 0.000000 0.000000 0.065495
#
#
# Mechanical properties :
#
#
# Convention : Reuss Voigt Hill
#
# Bulk Modulus (GPa) = 57.95244 61.08709 59.51977
# Shear Modulus (GPa) = 24.03239 27.81506 25.92372
#
# Velocity S-wave (km/s) = 3.53413 3.80210 3.67056
# Velocity P-wave (km/s) = 6.83903 7.14302 6.99268
#
# Compressibility (1/GPa) = 0.01725553
#
# Stress axis : x y z
#
# Youngs Moduli (GPa) = 79.24034 76.91525 70.03153
#
# Poissons Ratio (x) = 0.42871 0.28344
# Poissons Ratio (y) = 0.44167 0.11914
# Poissons Ratio (z) = 0.32072 0.13085
#
# Static dielectric constant tensor:
#      x y z
#    x 1.688840 0.000000 0.000000 
#    y 0.000000 1.713190 0.000000 
#    z 0.000000 0.000000 1.689910 
# 
# From -- ./inp_files/8010.got.cif
#   From: 2010.05.17/outbox.cif.g08.bks.cpg/sg51_5_cif.got.tgz:8010.got - 2010.06.03 11:52:47.
