data_PCOD9399401
_publ_section_title
;
Structure prediction by ZEFSAII (Michael W. Deem and Ramdas Pophale) SiO2 
 PCOD9399401
Probable space group: P M M A
;
_chemical_formula_sum "Si O2"
_cell_formula_units_Z 64
_cell_length_a 8.799241
_cell_length_b 15.728615
_cell_length_c 25.228004
_cell_angle_alpha 90.000000
_cell_angle_beta 90.000000
_cell_angle_gamma 90.000000
_cell_volume 3491.552574
_symmetry_space_group_name_H-M "P M M A"
_symmetry_group_IT_number 51
_symmetry_cell_setting 'orthorhombic'
loop_
_space_group_symop_operation_xyz
x,y,z
1/2-x,-y,z
1/2+x,-y,-z
-x,y,-z
-x,-y,-z
1/2+x,y,-z
1/2-x,y,z
x,-y,z
loop_
_atom_site_type_symbol
_atom_site_label
_atom_site_fract_x
_atom_site_fract_y
_atom_site_fract_z
Si Si1 0.568022 0.597437 0.558374
Si Si2 0.069292 0.906475 0.902299
Si Si3 0.069502 0.267330 0.056554
Si Si4 0.070397 0.306155 0.764169
Si Si5 0.928772 0.131165 0.791484
Si Si6 0.068621 0.594728 0.864996
Si Si7 0.430890 0.274293 0.643382
Si Si8 0.432911 0.093821 0.330016
O O1 0.500000 0.612166 0.500000
O O2 0.750000 0.602448 0.555868
O O3 0.526396 0.500000 0.573910
O O4 0.506039 0.666571 0.599334
O O5 0.250000 0.895266 0.907610
O O6 0.986261 0.827503 0.929182
O O7 0.023958 0.903993 0.840287
O O8 0.027177 0.000000 0.923352
O O9 0.250000 0.268692 0.054471
O O10 0.010338 0.332955 0.100569
O O11 0.000000 0.291617 0.000000
O O12 0.250000 0.281887 0.768591
O O13 0.046638 0.385632 0.802584
O O14 0.036873 0.313182 0.701957
O O15 0.967735 0.230610 0.786913
O O16 0.750000 0.116694 0.801099
O O17 0.967489 0.096514 0.733088
O O18 0.250000 0.599768 0.874682
O O19 0.015701 0.500000 0.878310
O O20 0.250000 0.272911 0.636017
O O21 0.491919 0.177206 0.644618
O O22 0.250000 0.101456 0.334851
O O23 0.478202 0.000000 0.350339
#
# Coordination Sequence:
#
# PCOD9399401 Si02
#       8
#     8   8   8   8   8   8   8   8
#     4  10  21  38  60  85 114 151 195 244 294 344
#     4  11  23  38  58  84 114 147 183 226 277 337
#     4  12  26  44  65  85 109 143 183 234 286 340
#     4   9  18  33  54  81 118 156 189 226 275 333
#     4  10  18  30  52  81 113 149 188 231 278 328
#     4  10  21  39  63  88 116 150 187 230 280 336
#     4  10  20  33  54  86 120 156 196 239 284 338
#     4   9  18  32  50  76 115 159 199 239 282 330
#
# _framework density 18.329955000000002
#
# number of rings (size 3 to 8) (size 9 to 14) (size 15 to 20)
#    0.000    1.875    1.250    3.000    0.000    4.750 
#    0.000    1.250    0.000    0.375    0.000    0.000 
#    0.000    0.000    0.000    0.000    0.000    0.000 
#
# Total GULP energy -357269.574824 kJ/mol
# GULP energy per Si atom -5582.337107 kJ/mol
# Density = 1.828823 g / cm^3
# Si number density = 18.329955 Si / 1000 Ang^3
#
#
#
# Elastic Constant Matrix: (Units=GPa)
#
#
# Indices 1 2 3 4 5 6 
#
# 1 59.8700 52.8241 37.1212 0.0000 0.0000 0.0000
# 2 52.8241 129.6131 65.0911 0.0000 0.0000 0.0000
# 3 37.1212 65.0911 85.9389 0.0000 0.0000 0.0000
# 4 0.0000 0.0000 0.0000 -9.1029 0.0000 0.0000
# 5 0.0000 0.0000 0.0000 0.0000 28.4237 0.0000
# 6 0.0000 0.0000 0.0000 0.0000 0.0000 14.9609
#
#
#
# Elastic Compliance Matrix: (Units=1/GPa)
#
#
# Indices 1 2 3 4 5 6 
#
# 1 0.027598 -0.008491 -0.005490 0.000000 0.000000 0.000000
# 2 -0.008491 0.015064 -0.007742 0.000000 0.000000 0.000000
# 3 -0.005490 -0.007742 0.019871 0.000000 0.000000 0.000000
# 4 0.000000 0.000000 0.000000 -0.109855 0.000000 0.000000
# 5 0.000000 0.000000 0.000000 0.000000 0.035182 0.000000
# 6 0.000000 0.000000 0.000000 0.000000 0.000000 0.066841
#
#
# Mechanical properties :
#
#
# Convention : Reuss Voigt Hill
#
# Bulk Modulus (GPa) = 52.38875 65.05498 58.72186
# Shear Modulus (GPa) = 47.84306 14.88206 31.36256
#
# Velocity S-wave (km/s) = 5.11446 2.85247 4.14091
# Velocity P-wave (km/s) = 7.96994 6.81300 7.41407
#
# Compressibility (1/GPa) = 0.01908807
#
# Stress axis : x y z
#
# Youngs Moduli (GPa) = 36.23409 66.38557 50.32368
#
# Poissons Ratio (x) = 0.56365 0.27629
# Poissons Ratio (y) = 0.30765 0.38959
# Poissons Ratio (z) = 0.19893 0.51394
#
# Static dielectric constant tensor:
#      x y z
#    x 1.610290 0.000000 0.000000 
#    y 0.000000 1.644860 0.000000 
#    z 0.000000 0.000000 1.618210 
# 
# From -- ./inp_files/35000.got.cif
#   From: 2010.05.17/outbox.cif.g08.bks.cpg/sg51_18_cif.got.tgz:35000.got - 2010.06.03 11:52:47.
