data_PCOD9399543
_publ_section_title
;
Structure prediction by ZEFSAII (Michael W. Deem and Ramdas Pophale) SiO2 
 PCOD9399543
Probable space group: P M M A
;
_chemical_formula_sum "Si O2"
_cell_formula_units_Z 56
_cell_length_a 9.015508
_cell_length_b 14.615377
_cell_length_c 26.473977
_cell_angle_alpha 90.000000
_cell_angle_beta 90.000000
_cell_angle_gamma 90.000000
_cell_volume 3488.344857
_symmetry_space_group_name_H-M "P M M A"
_symmetry_group_IT_number 51
_symmetry_cell_setting 'orthorhombic'
loop_
_space_group_symop_operation_xyz
x,y,z
1/2-x,-y,z
1/2+x,-y,-z
-x,y,-z
-x,-y,-z
1/2+x,y,-z
1/2-x,y,z
x,-y,z
loop_
_atom_site_type_symbol
_atom_site_label
_atom_site_fract_x
_atom_site_fract_y
_atom_site_fract_z
Si Si1 0.572603 0.895207 0.086833
Si Si2 0.429515 0.100808 0.793594
Si Si3 0.426988 0.608159 0.343722
Si Si4 0.073960 0.713189 0.051251
Si Si5 0.929044 0.292090 0.249068
Si Si6 0.925459 0.391181 0.143688
Si Si7 0.420945 0.388695 0.551416
O O1 0.750000 0.880625 0.080540
O O2 0.538942 0.886591 0.146823
O O3 0.482460 0.817200 0.058812
O O4 0.539427 0.000000 0.071870
O O5 0.250000 0.099607 0.790332
O O6 0.479512 0.188125 0.761960
O O7 0.483965 0.000000 0.778146
O O8 0.250000 0.617434 0.344821
O O9 0.462124 0.500000 0.336979
O O10 0.496237 0.663784 0.297634
O O11 0.494817 0.637901 0.397474
O O12 0.250000 0.710165 0.047516
O O13 0.016640 0.656938 0.099497
O O14 0.000000 0.676720 0.000000
O O15 0.750000 0.293507 0.255154
O O16 0.963470 0.349568 0.198379
O O17 0.750000 0.372007 0.135270
O O18 0.947244 0.500000 0.143725
O O19 0.500000 0.357473 0.500000
O O20 0.250000 0.359712 0.552791
O O21 0.422965 0.500000 0.550316
#
# Coordination Sequence:
#
# PCOD9399543 Si02
#       7
#     8   8   8   8   8   8   8
#     4   9  17  34  59  81 102 127 156 193 240 295
#     4   8  14  27  51  78 100 124 154 190 235 291
#     4  10  20  31  43  65 100 138 175 212 247 284
#     4  12  25  39  56  75 100 128 160 201 244 296
#     4  10  18  31  53  76 100 128 162 200 241 291
#     4  10  21  38  58  77  98 126 163 205 249 298
#     4   9  16  27  44  65  92 129 172 213 253 294
#
# _framework density 16.053459
#
# number of rings (size 3 to 8) (size 9 to 14) (size 15 to 20)
#    0.000    2.286    1.429    3.429    0.000    4.857 
#    0.000    0.000    0.000    0.429    0.000    0.000 
#    0.000    0.571    0.000    1.571    0.000    2.286 
#
# Total GULP energy -312436.225267 kJ/mol
# GULP energy per Si atom -5579.218308 kJ/mol
# Density = 1.601692 g / cm^3
# Si number density = 16.053459 Si / 1000 Ang^3
#
#
#
# Elastic Constant Matrix: (Units=GPa)
#
#
# Indices 1 2 3 4 5 6 
#
# 1 66.5959 44.6607 63.3072 0.0000 0.0000 0.0000
# 2 44.6607 71.6576 56.8075 0.0000 0.0000 0.0000
# 3 63.3072 56.8075 137.0896 0.0000 0.0000 0.0000
# 4 0.0000 0.0000 0.0000 7.9013 0.0000 0.0000
# 5 0.0000 0.0000 0.0000 0.0000 29.7957 0.0000
# 6 0.0000 0.0000 0.0000 0.0000 0.0000 18.4297
#
#
#
# Elastic Compliance Matrix: (Units=1/GPa)
#
#
# Indices 1 2 3 4 5 6 
#
# 1 0.032999 -0.012637 -0.010002 0.000000 0.000000 0.000000
# 2 -0.012637 0.025622 -0.004781 0.000000 0.000000 0.000000
# 3 -0.010002 -0.004781 0.013895 0.000000 0.000000 0.000000
# 4 0.000000 0.000000 0.000000 0.126562 0.000000 0.000000
# 5 0.000000 0.000000 0.000000 0.000000 0.033562 0.000000
# 6 0.000000 0.000000 0.000000 0.000000 0.000000 0.054260
#
#
# Mechanical properties :
#
#
# Convention : Reuss Voigt Hill
#
# Bulk Modulus (GPa) = 56.58027 67.21044 61.89536
# Shear Modulus (GPa) = 14.38299 18.59652 16.48975
#
# Velocity S-wave (km/s) = 2.99648 3.40724 3.20844
# Velocity P-wave (km/s) = 6.87701 7.57869 7.23636
#
# Compressibility (1/GPa) = 0.01767401
#
# Stress axis : x y z
#
# Youngs Moduli (GPa) = 30.30395 39.02876 71.96976
#
# Poissons Ratio (x) = 0.49322 0.71984
# Poissons Ratio (y) = 0.38296 0.34412
# Poissons Ratio (z) = 0.30310 0.18661
#
# Static dielectric constant tensor:
#      x y z
#    x 1.534350 0.000000 0.000000 
#    y 0.000000 1.542520 0.000000 
#    z 0.000000 0.000000 1.520270 
# 
# From -- ./inp_files/31970.got.cif
#   From: 2010.05.17/outbox.cif.g08.bks.cpg/sg51_16_cif.got.tgz:31970.got - 2010.06.03 11:52:47.
