data_PCOD9399807
_publ_section_title
;
Structure prediction by ZEFSAII (Michael W. Deem and Ramdas Pophale) SiO2 
 PCOD9399807
Probable space group: P M M A
;
_chemical_formula_sum "Si O2"
_cell_formula_units_Z 56
_cell_length_a 17.705872
_cell_length_b 7.477762
_cell_length_c 18.378939
_cell_angle_alpha 90.000000
_cell_angle_beta 90.000000
_cell_angle_gamma 90.000000
_cell_volume 2433.376979
_symmetry_space_group_name_H-M "P M M A"
_symmetry_group_IT_number 51
_symmetry_cell_setting 'orthorhombic'
loop_
_space_group_symop_operation_xyz
x,y,z
1/2-x,-y,z
1/2+x,-y,-z
-x,y,-z
-x,-y,-z
1/2+x,y,-z
1/2-x,y,z
x,-y,z
loop_
_atom_site_type_symbol
_atom_site_label
_atom_site_fract_x
_atom_site_fract_y
_atom_site_fract_z
Si Si1 0.512519 0.706770 0.664510
Si Si2 0.878076 0.207028 0.430590
Si Si3 0.663694 0.281476 0.909089
Si Si4 0.102766 0.292780 0.936666
Si Si5 0.479092 0.280898 0.175166
Si Si6 0.750000 0.218770 0.322271
Si Si7 0.750000 0.784057 0.155889
Si Si8 0.336146 0.216626 0.409432
O O1 0.491173 0.500000 0.665347
O O2 0.462774 0.786675 0.599578
O O3 0.496892 0.782364 0.744831
O O4 0.600853 0.722654 0.647203
O O5 0.822872 0.279225 0.368014
O O6 0.862585 0.282454 0.510452
O O7 0.856212 0.000000 0.437758
O O8 0.750000 0.220993 0.901998
O O9 0.665868 0.500000 0.911873
O O10 0.606356 0.231457 0.845184
O O11 0.626793 0.218298 0.985156
O O12 0.082869 0.500000 0.950332
O O13 0.176321 0.281993 0.886113
O O14 0.034183 0.217420 0.889156
O O15 0.482644 0.500000 0.176689
O O16 0.750000 0.278116 0.239190
O O17 0.750000 0.000000 0.318609
O O18 0.750000 0.000000 0.153833
O O19 0.250000 0.273245 0.395900
O O20 0.337490 0.000000 0.408552
#
# Coordination Sequence:
#
# PCOD9399807 Si02
#       8
#     8   8   8   8   8   4   4   8
#     4  11  23  36  52  82 119 150 175 214 279 342
#     4  10  19  37  61  81 104 139 187 233 268 314
#     4   9  16  29  53  83 105 131 180 232 267 299
#     4  10  18  33  55  79 104 137 184 227 261 308
#     4   9  19  33  51  78 113 144 176 222 270 316
#     4   9  18  33  55  81 106 139 182 224 267 321
#     4  11  21  31  49  79 114 143 166 208 273 331
#     4  10  21  39  62  83 103 138 190 238 271 310
#
# _framework density 23.013286999999998
#
# number of rings (size 3 to 8) (size 9 to 14) (size 15 to 20)
#    0.000    2.143    1.429    2.357    0.000    4.857 
#    0.000    3.214    0.000    3.429    0.000    0.000 
#    0.000    0.000    0.000    0.000    0.000    0.000 
#
# Total GULP energy -312946.413838 kJ/mol
# GULP energy per Si atom -5588.328819 kJ/mol
# Density = 2.296091 g / cm^3
# Si number density = 23.013287 Si / 1000 Ang^3
#
#
#
# Elastic Constant Matrix: (Units=GPa)
#
#
# Indices 1 2 3 4 5 6 
#
# 1 111.6320 -11.1952 -0.6462 0.0000 0.0000 0.0000
# 2 -11.1952 67.2583 -2.7622 0.0000 0.0000 0.0000
# 3 -0.6462 -2.7622 20.1622 0.0000 0.0000 0.0000
# 4 0.0000 0.0000 0.0000 10.4603 0.0000 0.0000
# 5 0.0000 0.0000 0.0000 0.0000 49.1663 0.0000
# 6 0.0000 0.0000 0.0000 0.0000 0.0000 -57.1604
#
#
#
# Elastic Compliance Matrix: (Units=1/GPa)
#
#
# Indices 1 2 3 4 5 6 
#
# 1 0.009115 0.001538 0.000503 0.000000 0.000000 0.000000
# 2 0.001538 0.015212 0.002133 0.000000 0.000000 0.000000
# 3 0.000503 0.002133 0.049906 0.000000 0.000000 0.000000
# 4 0.000000 0.000000 0.000000 0.095600 0.000000 0.000000
# 5 0.000000 0.000000 0.000000 0.000000 0.020339 0.000000
# 6 0.000000 0.000000 0.000000 0.000000 0.000000 -0.017495
#
#
# Mechanical properties :
#
#
# Convention : Reuss Voigt Hill
#
# Bulk Modulus (GPa) = 12.10935 18.87170 15.49052
# Shear Modulus (GPa) = 26.06122 14.73698 20.39910
#
# Velocity S-wave (km/s) = 3.36883 2.53330 2.98049
# Velocity P-wave (km/s) = 4.51723 4.09572 4.31163
#
# Compressibility (1/GPa) = 0.08258083
#
# Stress axis : x y z
#
# Youngs Moduli (GPa) = 109.70758 65.73910 20.03764
#
# Poissons Ratio (x) = -0.10110 -0.01008
# Poissons Ratio (y) = -0.16872 -0.04275
# Poissons Ratio (z) = -0.05516 -0.14024
#
# Static dielectric constant tensor:
#      x y z
#    x 1.828710 0.000000 0.000000 
#    y 0.000000 1.944150 0.000000 
#    z 0.000000 0.000000 1.830610 
# 
# From -- ./inp_files/33583.got.cif
#   From: 2010.05.17/outbox.cif.g08.bks.cpg/sg51_17_cif.got.tgz:33583.got - 2010.06.03 11:52:47.
