data_PCOD9399228
_publ_section_title
;
Structure prediction by ZEFSAII (Michael W. Deem and Ramdas Pophale) SiO2 
 PCOD9399228
Probable space group: P M M A
;
_chemical_formula_sum "Si O2"
_cell_formula_units_Z 36
_cell_length_a 8.579972
_cell_length_b 16.041284
_cell_length_c 14.773741
_cell_angle_alpha 90.000000
_cell_angle_beta 90.000000
_cell_angle_gamma 90.000000
_cell_volume 2033.365635
_symmetry_space_group_name_H-M "P M M A"
_symmetry_group_IT_number 51
_symmetry_cell_setting 'orthorhombic'
loop_
_space_group_symop_operation_xyz
x,y,z
1/2-x,-y,z
1/2+x,-y,-z
-x,y,-z
-x,-y,-z
1/2+x,y,-z
1/2-x,y,z
x,-y,z
loop_
_atom_site_type_symbol
_atom_site_label
_atom_site_fract_x
_atom_site_fract_y
_atom_site_fract_z
Si Si1 0.438416 0.594456 0.100636
Si Si2 0.936178 0.824787 0.601111
Si Si3 0.063947 0.000000 0.602745
Si Si4 0.937164 0.094197 0.102319
Si Si5 0.561793 0.249274 0.782786
O O1 0.250000 0.595865 0.098349
O O2 0.487019 0.500000 0.124955
O O3 0.492209 0.666252 0.168756
O O4 0.500000 0.612264 0.000000
O O5 0.750000 0.830467 0.594444
O O6 0.981531 0.758033 0.677139
O O7 0.000000 0.810629 0.500000
O O8 0.999752 0.913127 0.638937
O O9 0.000000 0.000000 0.500000
O O10 0.250000 0.000000 0.604677
O O11 0.750000 0.098119 0.101270
O O12 0.001051 0.168741 0.163336
O O13 0.981956 0.000000 0.132933
O O14 0.000000 0.104137 0.000000
O O15 0.750000 0.247242 0.786927
#
# Coordination Sequence:
#
# PCOD9399228 Si02
#       5
#     8   8   4   8   8
#     4   9  18  34  55  79 105 131 162 204 254 307
#     4  10  20  34  50  71  99 133 172 214 258 300
#     4  10  18  30  48  68  93 126 167 210 254 296
#     4  10  21  35  50  71 101 137 172 206 247 298
#     4  10  21  34  52  76 101 133 171 211 255 304
#
# _framework density 17.704637000000002
#
# number of rings (size 3 to 8) (size 9 to 14) (size 15 to 20)
#    0.000    2.222    0.000    4.333    1.556    5.778 
#    0.000    0.000    0.000    0.667    0.000    0.000 
#    0.000    0.000    0.000    0.000    0.000    0.889 
#
# Total GULP energy -200837.120711 kJ/mol
# GULP energy per Si atom -5578.808909 kJ/mol
# Density = 1.766434 g / cm^3
# Si number density = 17.704637 Si / 1000 Ang^3
#
#
#
# Elastic Constant Matrix: (Units=GPa)
#
#
# Indices 1 2 3 4 5 6 
#
# 1 32.6377 29.2550 28.2689 0.0000 0.0000 0.0000
# 2 29.2550 132.3359 99.8306 0.0000 0.0000 0.0000
# 3 28.2689 99.8306 120.7405 0.0000 0.0000 0.0000
# 4 0.0000 0.0000 0.0000 27.2242 0.0000 0.0000
# 5 0.0000 0.0000 0.0000 0.0000 21.5072 0.0000
# 6 0.0000 0.0000 0.0000 0.0000 0.0000 17.4228
#
#
#
# Elastic Compliance Matrix: (Units=1/GPa)
#
#
# Indices 1 2 3 4 5 6 
#
# 1 0.039488 -0.004664 -0.005389 0.000000 0.000000 0.000000
# 2 -0.004664 0.020634 -0.015968 0.000000 0.000000 0.000000
# 3 -0.005389 -0.015968 0.022747 0.000000 0.000000 0.000000
# 4 0.000000 0.000000 0.000000 0.036732 0.000000 0.000000
# 5 0.000000 0.000000 0.000000 0.000000 0.046496 0.000000
# 6 0.000000 0.000000 0.000000 0.000000 0.000000 0.057396
#
#
# Mechanical properties :
#
#
# Convention : Reuss Voigt Hill
#
# Bulk Modulus (GPa) = 32.44062 66.71368 49.57715
# Shear Modulus (GPa) = 17.49415 21.78816 19.64116
#
# Velocity S-wave (km/s) = 3.14683 3.51186 3.33435
# Velocity P-wave (km/s) = 5.61840 7.36258 6.54882
#
# Compressibility (1/GPa) = 0.03082555
#
# Stress axis : x y z
#
# Youngs Moduli (GPa) = 25.32436 48.46450 43.96238
#
# Poissons Ratio (x) = 0.22605 0.23690
# Poissons Ratio (y) = 0.11812 0.70200
# Poissons Ratio (z) = 0.13646 0.77389
#
# Static dielectric constant tensor:
#      x y z
#    x 1.601160 0.000000 0.000000 
#    y 0.000000 1.621690 0.000000 
#    z 0.000000 0.000000 1.602670 
# 
# From -- ./inp_files/20327.got.cif
#   From: 2010.05.17/outbox.cif.g08.bks.cpg/sg51_11_cif.got.tgz:20327.got - 2010.06.03 11:52:47.
