data_PCOD9399587
_publ_section_title
;
Structure prediction by ZEFSAII (Michael W. Deem and Ramdas Pophale) SiO2 
 PCOD9399587
Probable space group: P M M A
;
_chemical_formula_sum "Si O2"
_cell_formula_units_Z 40
_cell_length_a 15.436551
_cell_length_b 7.729266
_cell_length_c 15.822898
_cell_angle_alpha 90.000000
_cell_angle_beta 90.000000
_cell_angle_gamma 90.000000
_cell_volume 1887.880733
_symmetry_space_group_name_H-M "P M M A"
_symmetry_group_IT_number 51
_symmetry_cell_setting 'orthorhombic'
loop_
_space_group_symop_operation_xyz
x,y,z
1/2-x,-y,z
1/2+x,-y,-z
-x,y,-z
-x,-y,-z
1/2+x,y,-z
1/2-x,y,z
x,-y,z
loop_
_atom_site_type_symbol
_atom_site_label
_atom_site_fract_x
_atom_site_fract_y
_atom_site_fract_z
Si Si1 0.106400 0.203520 0.335282
Si Si2 0.250000 0.708345 0.659950
Si Si3 0.750000 0.288991 0.993655
Si Si4 0.928199 0.295357 0.259974
Si Si5 0.250000 0.292104 0.200196
Si Si6 0.932362 0.711892 0.070696
Si Si7 0.750000 0.790952 0.536912
O O1 0.165857 0.233792 0.252511
O O2 0.164873 0.273230 0.412564
O O3 0.010901 0.274229 0.320083
O O4 0.096424 0.000000 0.348041
O O5 0.250000 0.500000 0.669208
O O6 0.338444 0.775794 0.702584
O O7 0.250000 0.745656 0.560582
O O8 0.750000 0.500000 0.991887
O O9 0.750000 0.230800 0.896274
O O10 0.663515 0.236388 0.041932
O O11 0.914497 0.500000 0.249460
O O12 0.949507 0.227481 0.166076
O O13 0.250000 0.500000 0.199389
O O14 0.936307 0.500000 0.070415
O O15 0.000000 0.771184 0.000000
O O16 0.750000 0.000000 0.544815
#
# Coordination Sequence:
#
# PCOD9399587 Si02
#       7
#     8   4   4   8   4   8   4
#     4  10  21  37  56  79 108 141 178 221 269 321
#     4  10  22  37  55  81 112 140 172 223 276 316
#     4   9  16  26  46  76 105 136 176 221 265 309
#     4  10  20  35  55  81 111 143 179 221 269 316
#     4  10  18  31  55  84 109 138 179 226 274 318
#     4   9  16  27  46  74 106 137 173 215 255 302
#     4   9  21  40  58  77 102 136 177 218 265 329
#
# _framework density 21.187778999999999
#
# number of rings (size 3 to 8) (size 9 to 14) (size 15 to 20)
#    0.000    2.400    0.000    3.300    0.000    9.600 
#    0.000    4.000    0.000    6.600    0.000    0.000 
#    0.000    0.000    0.000    0.000    0.000    0.000 
#
# Total GULP energy -223359.882420 kJ/mol
# GULP energy per Si atom -5583.997060 kJ/mol
# Density = 2.113955 g / cm^3
# Si number density = 21.187779 Si / 1000 Ang^3
#
#
#
# Elastic Constant Matrix: (Units=GPa)
#
#
# Indices 1 2 3 4 5 6 
#
# 1 184.8240 0.7688 80.7725 0.0000 0.0000 0.0000
# 2 0.7688 19.9531 12.6039 0.0000 0.0000 0.0000
# 3 80.7725 12.6039 135.6859 0.0000 0.0000 0.0000
# 4 0.0000 0.0000 0.0000 80.5871 0.0000 0.0000
# 5 0.0000 0.0000 0.0000 0.0000 18.7485 0.0000
# 6 0.0000 0.0000 0.0000 0.0000 0.0000 27.9814
#
#
#
# Elastic Compliance Matrix: (Units=1/GPa)
#
#
# Indices 1 2 3 4 5 6 
#
# 1 0.007445 0.002669 -0.004680 0.000000 0.000000 0.000000
# 2 0.002669 0.054199 -0.006623 0.000000 0.000000 0.000000
# 3 -0.004680 -0.006623 0.010771 0.000000 0.000000 0.000000
# 4 0.000000 0.000000 0.000000 0.012409 0.000000 0.000000
# 5 0.000000 0.000000 0.000000 0.000000 0.053338 0.000000
# 6 0.000000 0.000000 0.000000 0.000000 0.000000 0.035738
#
#
# Mechanical properties :
#
#
# Convention : Reuss Voigt Hill
#
# Bulk Modulus (GPa) = 18.13361 58.75038 38.44199
# Shear Modulus (GPa) = 23.86083 41.88459 32.87271
#
# Velocity S-wave (km/s) = 3.35947 4.45098 3.94317
# Velocity P-wave (km/s) = 4.86057 7.36231 6.23814
#
# Compressibility (1/GPa) = 0.05514622
#
# Stress axis : x y z
#
# Youngs Moduli (GPa) = 134.32639 18.45069 92.84238
#
# Poissons Ratio (x) = -0.04925 0.43447
# Poissons Ratio (y) = -0.35854 0.61494
# Poissons Ratio (z) = 0.62860 0.12221
#
# Static dielectric constant tensor:
#      x y z
#    x 1.748410 0.000000 0.000000 
#    y 0.000000 1.787370 0.000000 
#    z 0.000000 0.000000 1.740160 
# 
# From -- ./inp_files/23880.got.cif
#   From: 2010.05.17/outbox.cif.g08.bks.cpg/sg51_12_cif.got.tgz:23880.got - 2010.06.03 11:52:47.
