data_PCOD9399062
_publ_section_title
;
Structure prediction by ZEFSAII (Michael W. Deem and Ramdas Pophale) SiO2 
 PCOD9399062
Probable space group: P M M A
;
_chemical_formula_sum "Si O2"
_cell_formula_units_Z 56
_cell_length_a 23.657359
_cell_length_b 7.656686
_cell_length_c 15.712483
_cell_angle_alpha 90.000000
_cell_angle_beta 90.000000
_cell_angle_gamma 90.000000
_cell_volume 2846.111553
_symmetry_space_group_name_H-M "P M M A"
_symmetry_group_IT_number 51
_symmetry_cell_setting 'orthorhombic'
loop_
_space_group_symop_operation_xyz
x,y,z
1/2-x,-y,z
1/2+x,-y,-z
-x,y,-z
-x,-y,-z
1/2+x,y,-z
1/2-x,y,z
x,-y,z
loop_
_atom_site_type_symbol
_atom_site_label
_atom_site_fract_x
_atom_site_fract_y
_atom_site_fract_z
Si Si1 0.250000 0.713036 0.067719
Si Si2 0.912892 0.293989 0.661620
Si Si3 0.750000 0.794547 0.131648
Si Si4 0.874258 0.214473 0.152222
Si Si5 0.433051 0.704294 0.520601
Si Si6 0.563487 0.788979 0.981180
Si Si7 0.459320 0.201036 0.703205
Si Si8 0.140852 0.705829 0.170409
O O1 0.250000 0.500000 0.063981
O O2 0.194777 0.774912 0.119096
O O3 0.250000 0.776586 0.970856
O O4 0.900716 0.500000 0.653964
O O5 0.905996 0.221031 0.565977
O O6 0.874869 0.219140 0.737418
O O7 0.978787 0.282392 0.689818
O O8 0.690039 0.723371 0.164348
O O9 0.750000 0.000000 0.152277
O O10 0.919209 0.273866 0.222932
O O11 0.873740 0.000000 0.154323
O O12 0.896202 0.266115 0.058827
O O13 0.500000 0.712805 0.500000
O O14 0.418229 0.500000 0.529903
O O15 0.426959 0.789266 0.612677
O O16 0.587596 0.725852 0.891953
O O17 0.563385 0.000000 0.978901
O O18 0.500000 0.730278 0.000000
O O19 0.470734 0.000000 0.724771
O O20 0.151533 0.500000 0.182463
#
# Coordination Sequence:
#
# PCOD9399062 Si02
#       8
#     4   8   4   8   8   8   8   8
#     4  10  20  34  50  71  94 118 160 213 244 263
#     4   9  18  32  48  68  96 129 157 183 229 292
#     4  10  18  34  54  65  84 126 172 195 224 287
#     4   9  18  30  46  68  92 122 157 192 230 277
#     4   8  15  29  47  67  94 126 156 184 224 285
#     4  10  19  31  47  69  97 125 154 192 235 281
#     4  10  18  29  47  73  99 120 151 196 239 275
#     4  10  20  33  49  69  95 125 159 198 239 281
#
# _framework density 19.675967
#
# number of rings (size 3 to 8) (size 9 to 14) (size 15 to 20)
#    0.000    2.571    1.429    2.143    0.000    4.571 
#    0.000    2.857    0.000    0.857    0.000    1.000 
#    0.000    0.000    0.000    0.000    0.000    1.214 
#
# Total GULP energy -312239.393343 kJ/mol
# GULP energy per Si atom -5575.703453 kJ/mol
# Density = 1.963118 g / cm^3
# Si number density = 19.675967 Si / 1000 Ang^3
#
#
#
# Elastic Constant Matrix: (Units=GPa)
#
#
# Indices 1 2 3 4 5 6 
#
# 1 36.4542 -11.3831 -14.4265 0.0000 0.0000 0.0000
# 2 -11.3831 31.2442 -9.2571 0.0000 0.0000 0.0000
# 3 -14.4265 -9.2571 63.1418 0.0000 0.0000 0.0000
# 4 0.0000 0.0000 0.0000 17.3975 0.0000 0.0000
# 5 0.0000 0.0000 0.0000 0.0000 19.6357 0.0000
# 6 0.0000 0.0000 0.0000 0.0000 0.0000 2.1006
#
#
#
# Elastic Compliance Matrix: (Units=1/GPa)
#
#
# Indices 1 2 3 4 5 6 
#
# 1 0.036953 0.016689 0.010890 0.000000 0.000000 0.000000
# 2 0.016689 0.040997 0.009824 0.000000 0.000000 0.000000
# 3 0.010890 0.009824 0.019766 0.000000 0.000000 0.000000
# 4 0.000000 0.000000 0.000000 0.057480 0.000000 0.000000
# 5 0.000000 0.000000 0.000000 0.000000 0.050928 0.000000
# 6 0.000000 0.000000 0.000000 0.000000 0.000000 0.476058
#
#
# Mechanical properties :
#
#
# Convention : Reuss Voigt Hill
#
# Bulk Modulus (GPa) = 5.79644 6.74519 6.27082
# Shear Modulus (GPa) = 7.52013 18.88720 13.20367
#
# Velocity S-wave (km/s) = 1.95711 3.10161 2.59328
# Velocity P-wave (km/s) = 2.83891 4.03264 3.48723
#
# Compressibility (1/GPa) = 0.17251976
#
# Stress axis : x y z
#
# Youngs Moduli (GPa) = 27.06175 24.39213 50.59288
#
# Poissons Ratio (x) = -0.40709 -0.55094
# Poissons Ratio (y) = -0.45164 -0.49700
# Poissons Ratio (z) = -0.29469 -0.23962
#
# Static dielectric constant tensor:
#      x y z
#    x 1.688860 0.000000 0.000000 
#    y 0.000000 1.725200 0.000000 
#    z 0.000000 0.000000 1.711420 
# 
# From -- ./inp_files/25898.got.cif
#   From: 2010.05.17/outbox.cif.g08.bks.cpg/sg51_13_cif.got.tgz:25898.got - 2010.06.03 11:52:47.
