data_PCOD9399015
_publ_section_title
;
Structure prediction by ZEFSAII (Michael W. Deem and Ramdas Pophale) SiO2 
 PCOD9399015
Probable space group: P M M A
;
_chemical_formula_sum "Si O2"
_cell_formula_units_Z 64
_cell_length_a 7.651117
_cell_length_b 20.742292
_cell_length_c 20.789505
_cell_angle_alpha 90.000000
_cell_angle_beta 90.000000
_cell_angle_gamma 90.000000
_cell_volume 3299.329847
_symmetry_space_group_name_H-M "P M M A"
_symmetry_group_IT_number 51
_symmetry_cell_setting 'orthorhombic'
loop_
_space_group_symop_operation_xyz
x,y,z
1/2-x,-y,z
1/2+x,-y,-z
-x,y,-z
-x,-y,-z
1/2+x,y,-z
1/2-x,y,z
x,-y,z
loop_
_atom_site_type_symbol
_atom_site_label
_atom_site_fract_x
_atom_site_fract_y
_atom_site_fract_z
Si Si1 0.455429 0.258049 0.204118
Si Si2 0.455287 0.792421 0.428811
Si Si3 0.539759 0.788907 0.929923
Si Si4 0.459839 0.426679 0.427405
Si Si5 0.965492 0.684498 0.667864
Si Si6 0.455581 0.069227 0.099001
Si Si7 0.038936 0.112382 0.760775
Si Si8 0.540672 0.069547 0.379676
O O1 0.250000 0.272727 0.197609
O O2 0.527967 0.250770 0.131747
O O3 0.525835 0.306009 0.258682
O O4 0.474846 0.185883 0.232872
O O5 0.500000 0.769483 0.500000
O O6 0.250000 0.788319 0.421681
O O7 0.528760 0.746162 0.373574
O O8 0.501895 0.867043 0.420176
O O9 0.750000 0.793110 0.922610
O O10 0.469949 0.862881 0.926392
O O11 0.500000 0.761900 0.000000
O O12 0.500000 0.403800 0.500000
O O13 0.250000 0.428984 0.422434
O O14 0.527290 0.500000 0.421238
O O15 0.521526 0.378206 0.372095
O O16 0.750000 0.684560 0.669014
O O17 0.250000 0.068430 0.082799
O O18 0.473495 0.075596 0.176145
O O19 0.531842 0.000000 0.078593
O O20 0.250000 0.112014 0.762258
O O21 0.979193 0.082581 0.693412
O O22 0.750000 0.066005 0.376739
O O23 0.474379 0.000000 0.403029
#
# Coordination Sequence:
#
# PCOD9399015 Si02
#       8
#     8   8   8   8   8   8   8   8
#     4   9  17  32  50  67  90 120 155 190 228 275
#     4  11  22  35  51  68  88 116 152 193 236 281
#     4   9  18  30  45  63  87 117 147 187 235 284
#     4   9  17  30  49  75 107 140 167 192 226 270
#     4   9  17  31  52  74  96 125 161 195 226 269
#     4   9  18  31  45  61  83 114 150 183 224 287
#     4  10  18  29  46  68  90 110 140 189 244 284
#     4  10  21  35  48  63  86 113 145 191 244 292
#
# _framework density 19.397877999999999
#
# number of rings (size 3 to 8) (size 9 to 14) (size 15 to 20)
#    0.000    2.500    1.250    2.250    0.000    4.000 
#    0.000    1.250    0.000    0.000    0.000    0.000 
#    0.000    0.500    0.000    0.375    0.000    0.750 
#
# Total GULP energy -356997.288904 kJ/mol
# GULP energy per Si atom -5578.082639 kJ/mol
# Density = 1.935373 g / cm^3
# Si number density = 19.397878 Si / 1000 Ang^3
#
#
#
# Elastic Constant Matrix: (Units=GPa)
#
#
# Indices 1 2 3 4 5 6 
#
# 1 34.8832 -2.0479 2.8072 0.0000 0.0000 0.0000
# 2 -2.0479 76.3288 62.8028 0.0000 0.0000 0.0000
# 3 2.8072 62.8028 146.0822 0.0000 0.0000 0.0000
# 4 0.0000 0.0000 0.0000 20.6522 0.0000 0.0000
# 5 0.0000 0.0000 0.0000 0.0000 19.4265 0.0000
# 6 0.0000 0.0000 0.0000 0.0000 0.0000 -14.1431
#
#
#
# Elastic Compliance Matrix: (Units=1/GPa)
#
#
# Indices 1 2 3 4 5 6 
#
# 1 0.028890 0.001906 -0.001375 0.000000 0.000000 0.000000
# 2 0.001906 0.020398 -0.008806 0.000000 0.000000 0.000000
# 3 -0.001375 -0.008806 0.010658 0.000000 0.000000 0.000000
# 4 0.000000 0.000000 0.000000 0.048421 0.000000 0.000000
# 5 0.000000 0.000000 0.000000 0.000000 0.051476 0.000000
# 6 0.000000 0.000000 0.000000 0.000000 0.000000 -0.070706
#
#
# Mechanical properties :
#
#
# Convention : Reuss Voigt Hill
#
# Bulk Modulus (GPa) = 23.04347 42.71314 32.87831
# Shear Modulus (GPa) = 41.61447 18.10260 29.85854
#
# Velocity S-wave (km/s) = 4.63677 3.05819 3.92761
# Velocity P-wave (km/s) = 6.36957 5.87685 6.12816
#
# Compressibility (1/GPa) = 0.04339624
#
# Stress axis : x y z
#
# Youngs Moduli (GPa) = 34.61454 49.02482 93.82907
#
# Poissons Ratio (x) = -0.09345 0.12898
# Poissons Ratio (y) = -0.06598 0.82625
# Poissons Ratio (z) = 0.04758 0.43171
#
# Static dielectric constant tensor:
#      x y z
#    x 1.739890 0.000000 0.000000 
#    y 0.000000 1.726030 0.000000 
#    z 0.000000 0.000000 1.701840 
# 
# From -- ./inp_files/32574.got.cif
#   From: 2010.05.17/outbox.cif.g08.bks.cpg/sg51_17_cif.got.tgz:32574.got - 2010.06.03 11:52:47.
