data_PCOD9399905
_publ_section_title
;
Structure prediction by ZEFSAII (Michael W. Deem and Ramdas Pophale) SiO2 
 PCOD9399905
Probable space group: P M M A
;
_chemical_formula_sum "Si O2"
_cell_formula_units_Z 56
_cell_length_a 15.315603
_cell_length_b 8.606505
_cell_length_c 22.531763
_cell_angle_alpha 90.000000
_cell_angle_beta 90.000000
_cell_angle_gamma 90.000000
_cell_volume 2969.997613
_symmetry_space_group_name_H-M "P M M A"
_symmetry_group_IT_number 51
_symmetry_cell_setting 'orthorhombic'
loop_
_space_group_symop_operation_xyz
x,y,z
1/2-x,-y,z
1/2+x,-y,-z
-x,y,-z
-x,-y,-z
1/2+x,y,-z
1/2-x,y,z
x,-y,z
loop_
_atom_site_type_symbol
_atom_site_label
_atom_site_fract_x
_atom_site_fract_y
_atom_site_fract_z
Si Si1 0.556595 0.812291 0.441847
Si Si2 0.849763 0.315210 0.140579
Si Si3 0.154684 0.189082 0.115060
Si Si4 0.489493 0.185857 0.208571
Si Si5 0.103085 0.819149 0.986577
Si Si6 0.750000 0.187932 0.479023
Si Si7 0.937796 0.313891 0.663529
Si Si8 0.250000 0.312042 0.386855
O O1 0.500000 0.766892 0.500000
O O2 0.658024 0.763003 0.449162
O O3 0.506865 0.746190 0.384968
O O4 0.555410 0.000000 0.438600
O O5 0.750000 0.267928 0.151087
O O6 0.856992 0.500000 0.147268
O O7 0.874415 0.269946 0.073162
O O8 0.915746 0.234304 0.185638
O O9 0.250000 0.230241 0.138763
O O10 0.078303 0.242931 0.158048
O O11 0.148576 0.000000 0.112157
O O12 0.145711 0.242377 0.047130
O O13 0.463963 0.253928 0.271848
O O14 0.483718 0.000000 0.211394
O O15 0.128752 0.000000 0.977842
O O16 0.000000 0.816416 0.000000
O O17 0.750000 0.248070 0.546391
O O18 0.750000 0.000000 0.480138
O O19 0.938453 0.500000 0.663238
O O20 0.839653 0.261894 0.645275
O O21 0.250000 0.500000 0.389032
#
# Coordination Sequence:
#
# PCOD9399905 Si02
#       8
#     8   8   8   8   8   4   8   4
#     4  10  20  37  62  91 121 154 197 247 296 345
#     4  11  24  41  61  86 118 156 200 249 306 365
#     4   9  18  33  55  85 117 148 187 238 293 348
#     4  11  23  41  63  86 115 155 203 249 296 350
#     4  10  18  34  60  88 117 150 195 246 297 353
#     4  10  20  36  62  94 124 152 195 250 297 344
#     4  11  24  41  60  87 124 163 200 242 295 356
#     4  10  22  38  60  90 126 162 197 232 289 362
#
# _framework density 18.855233999999999
#
# number of rings (size 3 to 8) (size 9 to 14) (size 15 to 20)
#    0.000    1.714    2.857    1.714    1.000    3.429 
#    1.286    0.000    0.000    0.857    0.000    0.000 
#    0.000    0.000    0.000    0.000    0.000    0.000 
#
# Total GULP energy -312755.968406 kJ/mol
# GULP energy per Si atom -5584.928007 kJ/mol
# Density = 1.881232 g / cm^3
# Si number density = 18.855234 Si / 1000 Ang^3
#
#
#
# Elastic Constant Matrix: (Units=GPa)
#
#
# Indices 1 2 3 4 5 6 
#
# 1 168.0707 30.1267 82.6152 0.0000 0.0000 0.0000
# 2 30.1267 16.0254 24.1037 0.0000 0.0000 0.0000
# 3 82.6152 24.1037 135.4474 0.0000 0.0000 0.0000
# 4 0.0000 0.0000 0.0000 126.1084 0.0000 0.0000
# 5 0.0000 0.0000 0.0000 0.0000 6.7732 0.0000
# 6 0.0000 0.0000 0.0000 0.0000 0.0000 13.2161
#
#
#
# Elastic Compliance Matrix: (Units=1/GPa)
#
#
# Indices 1 2 3 4 5 6 
#
# 1 0.010266 -0.013493 -0.003861 0.000000 0.000000 0.000000
# 2 -0.013493 0.102942 -0.010089 0.000000 0.000000 0.000000
# 3 -0.003861 -0.010089 0.011533 0.000000 0.000000 0.000000
# 4 0.000000 0.000000 0.000000 0.007930 0.000000 0.000000
# 5 0.000000 0.000000 0.000000 0.000000 0.147640 0.000000
# 6 0.000000 0.000000 0.000000 0.000000 0.000000 0.075665
#
#
# Mechanical properties :
#
#
# Convention : Reuss Voigt Hill
#
# Bulk Modulus (GPa) = 14.31522 65.91498 40.11510
# Shear Modulus (GPa) = 11.51683 41.39940 26.45811
#
# Velocity S-wave (km/s) = 2.47412 4.69085 3.75003
# Velocity P-wave (km/s) = 3.97119 8.02329 6.33023
#
# Compressibility (1/GPa) = 0.06985573
#
# Stress axis : x y z
#
# Youngs Moduli (GPa) = 97.40689 9.71420 86.70675
#
# Poissons Ratio (x) = 0.13107 0.33474
# Poissons Ratio (y) = 1.31432 0.87480
# Poissons Ratio (z) = 0.37605 0.09801
#
# Static dielectric constant tensor:
#      x y z
#    x 1.683600 0.000000 0.000000 
#    y 0.000000 1.647970 0.000000 
#    z 0.000000 0.000000 1.613650 
# 
# From -- ./inp_files/33525.got.cif
#   From: 2010.05.17/outbox.cif.g08.bks.cpg/sg51_17_cif.got.tgz:33525.got - 2010.06.03 11:52:47.
