data_PCOD9399802
_publ_section_title
;
Structure prediction by ZEFSAII (Michael W. Deem and Ramdas Pophale) SiO2 
 PCOD9399802
Probable space group: P M M A
;
_chemical_formula_sum "Si O2"
_cell_formula_units_Z 64
_cell_length_a 8.299352
_cell_length_b 20.333519
_cell_length_c 21.360307
_cell_angle_alpha 90.000000
_cell_angle_beta 90.000000
_cell_angle_gamma 90.000000
_cell_volume 3604.659282
_symmetry_space_group_name_H-M "P M M A"
_symmetry_group_IT_number 51
_symmetry_cell_setting 'orthorhombic'
loop_
_space_group_symop_operation_xyz
x,y,z
1/2-x,-y,z
1/2+x,-y,-z
-x,y,-z
-x,-y,-z
1/2+x,y,-z
1/2-x,y,z
x,-y,z
loop_
_atom_site_type_symbol
_atom_site_label
_atom_site_fract_x
_atom_site_fract_y
_atom_site_fract_z
Si Si1 0.946807 0.789503 0.811380
Si Si2 0.944361 0.072649 0.381952
Si Si3 0.444934 0.927045 0.238448
Si Si4 0.942031 0.210337 0.432478
Si Si5 0.055412 0.709436 0.312780
Si Si6 0.557454 0.573263 0.116214
Si Si7 0.055030 0.426839 0.259497
Si Si8 0.441583 0.710209 0.067570
O O1 0.750000 0.788115 0.812513
O O2 0.997654 0.865147 0.802893
O O3 0.996154 0.750195 0.748870
O O4 0.004732 0.753024 0.873834
O O5 0.750000 0.072150 0.385410
O O6 0.005431 0.136030 0.419356
O O7 0.992944 0.081364 0.309353
O O8 0.002829 0.000000 0.402242
O O9 0.250000 0.925805 0.240966
O O10 0.495018 0.000000 0.216847
O O11 0.750000 0.207472 0.432758
O O12 0.000000 0.233544 0.500000
O O13 0.994789 0.256347 0.375386
O O14 0.250000 0.710845 0.314157
O O15 0.002752 0.634123 0.302051
O O16 0.750000 0.574308 0.111848
O O17 0.500148 0.500000 0.097077
O O18 0.507450 0.582375 0.188795
O O19 0.489585 0.634379 0.078165
O O20 0.250000 0.425239 0.256415
O O21 0.005663 0.500000 0.280549
O O22 0.250000 0.714012 0.068971
O O23 0.500000 0.733148 0.000000
#
# Coordination Sequence:
#
# PCOD9399802 Si02
#       8
#     8   8   8   8   8   8   8   8
#     4   9  17  31  52  77 103 131 167 210 257 300
#     4   9  18  32  48  70 102 135 167 205 249 296
#     4   9  16  28  50  77 101 129 167 207 248 298
#     4  11  23  36  51  74 103 139 175 212 255 304
#     4  10  18  33  55  78 104 134 168 212 256 303
#     4  10  20  33  50  75 106 138 172 209 249 299
#     4   9  17  31  53  79 105 136 171 207 253 304
#     4  11  22  37  53  73 102 138 175 215 259 307
#
# _framework density 17.754798000000001
#
# number of rings (size 3 to 8) (size 9 to 14) (size 15 to 20)
#    0.000    2.250    2.500    1.125    0.000    2.250 
#    0.000    1.250    0.000    0.750    0.000    0.000 
#    0.000    0.000    0.000    0.000    0.000    0.125 
#
# Total GULP energy -356993.659491 kJ/mol
# GULP energy per Si atom -5578.025930 kJ/mol
# Density = 1.771439 g / cm^3
# Si number density = 17.754798 Si / 1000 Ang^3
#
#
#
# Elastic Constant Matrix: (Units=GPa)
#
#
# Indices 1 2 3 4 5 6 
#
# 1 10.2705 18.6882 13.3914 0.0000 0.0000 0.0000
# 2 18.6882 121.8324 71.0092 0.0000 0.0000 0.0000
# 3 13.3914 71.0092 120.6818 0.0000 0.0000 0.0000
# 4 0.0000 0.0000 0.0000 20.5075 0.0000 0.0000
# 5 0.0000 0.0000 0.0000 0.0000 23.7484 0.0000
# 6 0.0000 0.0000 0.0000 0.0000 0.0000 14.5632
#
#
#
# Elastic Compliance Matrix: (Units=1/GPa)
#
#
# Indices 1 2 3 4 5 6 
#
# 1 0.136517 -0.018433 -0.004303 0.000000 0.000000 0.000000
# 2 -0.018433 0.014981 -0.006769 0.000000 0.000000 0.000000
# 3 -0.004303 -0.006769 0.012747 0.000000 0.000000 0.000000
# 4 0.000000 0.000000 0.000000 0.048763 0.000000 0.000000
# 5 0.000000 0.000000 0.000000 0.000000 0.042108 0.000000
# 6 0.000000 0.000000 0.000000 0.000000 0.000000 0.068666
#
#
# Mechanical properties :
#
#
# Convention : Reuss Voigt Hill
#
# Bulk Modulus (GPa) = 9.50258 50.99583 30.24920
# Shear Modulus (GPa) = 11.96547 21.74356 16.85451
#
# Velocity S-wave (km/s) = 2.59883 3.50331 3.08440
# Velocity P-wave (km/s) = 3.79064 6.71929 5.45517
#
# Compressibility (1/GPa) = 0.10523456
#
# Stress axis : x y z
#
# Youngs Moduli (GPa) = 7.32512 66.75125 78.45102
#
# Poissons Ratio (x) = 1.23042 0.33754
# Poissons Ratio (y) = 0.13502 0.53107
# Poissons Ratio (z) = 0.03152 0.45187
#
# Static dielectric constant tensor:
#      x y z
#    x 1.613700 0.000000 0.000000 
#    y 0.000000 1.647100 0.000000 
#    z 0.000000 0.000000 1.577820 
# 
# From -- ./inp_files/28360.got.cif
#   From: 2010.05.17/outbox.cif.g08.bks.cpg/sg51_15_cif.got.tgz:28360.got - 2010.06.03 11:52:47.
