data_PCOD9399562
_publ_section_title
;
Structure prediction by ZEFSAII (Michael W. Deem and Ramdas Pophale) SiO2 
 PCOD9399562
Probable space group: P M M A
;
_chemical_formula_sum "Si O2"
_cell_formula_units_Z 40
_cell_length_a 8.544721
_cell_length_b 16.021834
_cell_length_c 14.969487
_cell_angle_alpha 90.000000
_cell_angle_beta 90.000000
_cell_angle_gamma 90.000000
_cell_volume 2049.354228
_symmetry_space_group_name_H-M "P M M A"
_symmetry_group_IT_number 51
_symmetry_cell_setting 'orthorhombic'
loop_
_space_group_symop_operation_xyz
x,y,z
1/2-x,-y,z
1/2+x,-y,-z
-x,y,-z
-x,-y,-z
1/2+x,y,-z
1/2-x,y,z
x,-y,z
loop_
_atom_site_type_symbol
_atom_site_label
_atom_site_fract_x
_atom_site_fract_y
_atom_site_fract_z
Si Si1 0.937351 0.155516 0.093497
Si Si2 0.439038 0.907231 0.712900
Si Si3 0.059242 0.408073 0.286383
Si Si4 0.937488 0.655017 0.906154
Si Si5 0.062390 0.751736 0.399686
O O1 0.750000 0.159177 0.088881
O O2 0.982672 0.107346 0.183341
O O3 0.002571 0.249745 0.101373
O O4 0.000000 0.120055 0.000000
O O5 0.250000 0.902862 0.707946
O O6 0.507861 0.833417 0.653706
O O7 0.488229 0.000000 0.684329
O O8 0.250000 0.407078 0.287824
O O9 0.007673 0.500000 0.316162
O O10 0.012738 0.392321 0.183508
O O11 0.005932 0.331133 0.347181
O O12 0.750000 0.656053 0.909451
O O13 0.000000 0.620460 0.000000
O O14 0.250000 0.750238 0.400935
O O15 0.000000 0.752723 0.500000
#
# Coordination Sequence:
#
# PCOD9399562 Si02
#       5
#     8   8   8   8   8
#     4  10  19  32  54  82 116 153 191 232 277 330
#     4  10  22  40  61  86 117 152 191 236 285 337
#     4   9  19  36  58  84 116 152 189 231 282 339
#     4  10  18  31  53  81 114 153 193 230 275 329
#     4  11  23  41  64  87 113 147 188 236 292 346
#
# _framework density 19.518343999999999
#
# number of rings (size 3 to 8) (size 9 to 14) (size 15 to 20)
#    0.000    2.000    2.000    3.000    0.000    2.800 
#    0.000    0.000    0.000    8.400    0.000    0.000 
#    0.000    0.000    0.000    0.000    0.000    0.000 
#
# Total GULP energy -223365.543730 kJ/mol
# GULP energy per Si atom -5584.138593 kJ/mol
# Density = 1.947392 g / cm^3
# Si number density = 19.518344 Si / 1000 Ang^3
#
#
#
# Elastic Constant Matrix: (Units=GPa)
#
#
# Indices 1 2 3 4 5 6 
#
# 1 35.7406 29.1048 36.1687 0.0000 0.0000 0.0000
# 2 29.1048 160.8925 94.6135 0.0000 0.0000 0.0000
# 3 36.1687 94.6135 161.8900 0.0000 0.0000 0.0000
# 4 0.0000 0.0000 0.0000 0.9310 0.0000 0.0000
# 5 0.0000 0.0000 0.0000 0.0000 22.5322 0.0000
# 6 0.0000 0.0000 0.0000 0.0000 0.0000 15.8728
#
#
#
# Elastic Compliance Matrix: (Units=1/GPa)
#
#
# Indices 1 2 3 4 5 6 
#
# 1 0.036956 -0.002788 -0.006627 0.000000 0.000000 0.000000
# 2 -0.002788 0.009680 -0.005035 0.000000 0.000000 0.000000
# 3 -0.006627 -0.005035 0.010600 0.000000 0.000000 0.000000
# 4 0.000000 0.000000 0.000000 1.074058 0.000000 0.000000
# 5 0.000000 0.000000 0.000000 0.000000 0.044381 0.000000
# 6 0.000000 0.000000 0.000000 0.000000 0.000000 0.063001
#
#
# Mechanical properties :
#
#
# Convention : Reuss Voigt Hill
#
# Bulk Modulus (GPa) = 35.28953 75.36635 55.32794
# Shear Modulus (GPa) = 3.91536 21.10961 12.51249
#
# Velocity S-wave (km/s) = 1.41787 3.29223 2.53467
# Velocity P-wave (km/s) = 4.56069 7.29031 6.08064
#
# Compressibility (1/GPa) = 0.02833702
#
# Stress axis : x y z
#
# Youngs Moduli (GPa) = 27.05888 103.30289 94.33984
#
# Poissons Ratio (x) = 0.28802 0.62520
# Poissons Ratio (y) = 0.07544 0.47496
# Poissons Ratio (z) = 0.17932 0.52008
#
# Static dielectric constant tensor:
#      x y z
#    x 1.668830 0.000000 0.000000 
#    y 0.000000 1.686510 0.000000 
#    z 0.000000 0.000000 1.674550 
# 
# From -- ./inp_files/20468.got.cif
#   From: 2010.05.17/outbox.cif.g08.bks.cpg/sg51_11_cif.got.tgz:20468.got - 2010.06.03 11:52:47.
