data_PCOD9399462
_publ_section_title
;
Structure prediction by ZEFSAII (Michael W. Deem and Ramdas Pophale) SiO2 
 PCOD9399462
Probable space group: P M M A
;
_chemical_formula_sum "Si O2"
_cell_formula_units_Z 64
_cell_length_a 9.325505
_cell_length_b 22.729701
_cell_length_c 18.628023
_cell_angle_alpha 90.000000
_cell_angle_beta 90.000000
_cell_angle_gamma 90.000000
_cell_volume 3948.506412
_symmetry_space_group_name_H-M "P M M A"
_symmetry_group_IT_number 51
_symmetry_cell_setting 'orthorhombic'
loop_
_space_group_symop_operation_xyz
x,y,z
1/2-x,-y,z
1/2+x,-y,-z
-x,y,-z
-x,-y,-z
1/2+x,y,-z
1/2-x,y,z
x,-y,z
loop_
_atom_site_type_symbol
_atom_site_label
_atom_site_fract_x
_atom_site_fract_y
_atom_site_fract_z
Si Si1 0.584717 0.432524 0.277637
Si Si2 0.590162 0.756370 0.437449
Si Si3 0.420711 0.434282 0.126739
Si Si4 0.578068 0.694896 0.927974
Si Si5 0.082656 0.330501 0.347592
Si Si6 0.418958 0.236382 0.217428
Si Si7 0.586603 0.148115 0.312064
Si Si8 0.416871 0.070615 0.424778
O O1 0.750000 0.412640 0.273524
O O2 0.582396 0.500000 0.301910
O O3 0.512222 0.431137 0.199295
O O4 0.492514 0.390868 0.327591
O O5 0.500000 0.785887 0.500000
O O6 0.750000 0.742045 0.461246
O O7 0.501403 0.700347 0.411731
O O8 0.597626 0.799798 0.370558
O O9 0.250000 0.431150 0.143566
O O10 0.445948 0.500000 0.094469
O O11 0.455366 0.374673 0.084097
O O12 0.750000 0.699319 0.935333
O O13 0.537113 0.733246 0.857761
O O14 0.500000 0.714938 0.000000
O O15 0.250000 0.337035 0.362682
O O16 0.068783 0.287288 0.278203
O O17 0.250000 0.220986 0.213196
O O18 0.508277 0.179882 0.244919
O O19 0.750000 0.128596 0.295699
O O20 0.494294 0.100050 0.355991
O O21 0.500000 0.082285 0.500000
O O22 0.250000 0.090270 0.430024
O O23 0.417928 0.000000 0.415869
#
# Coordination Sequence:
#
# PCOD9399462 Si02
#       8
#     8   8   8   8   8   8   8   8
#     4  10  19  29  44  67  90 111 142 187 234 282
#     4  10  20  32  46  69  96 122 154 192 234 280
#     4   9  17  31  48  64  87 120 157 194 236 293
#     4  10  20  33  47  68  94 127 161 199 249 299
#     4  10  18  31  50  67  86 116 150 189 235 283
#     4   9  18  33  49  67  93 123 161 202 243 288
#     4  10  20  32  50  74  99 131 168 205 243 278
#     4  10  20  33  50  74 107 146 181 210 241 278
#
# _framework density 16.208659999999998
#
# number of rings (size 3 to 8) (size 9 to 14) (size 15 to 20)
#    0.000    2.250    1.250    2.250    0.000    5.750 
#    0.000    0.000    0.000    0.375    0.000    0.000 
#    0.000    0.500    0.000    1.625    0.000    2.000 
#
# Total GULP energy -356643.237323 kJ/mol
# GULP energy per Si atom -5572.550583 kJ/mol
# Density = 1.617177 g / cm^3
# Si number density = 16.208660 Si / 1000 Ang^3
#
#
#
# Elastic Constant Matrix: (Units=GPa)
#
#
# Indices 1 2 3 4 5 6 
#
# 1 99.7584 45.9680 39.2599 0.0000 0.0000 0.0000
# 2 45.9680 60.1213 33.7400 0.0000 0.0000 0.0000
# 3 39.2599 33.7400 65.8175 0.0000 0.0000 0.0000
# 4 0.0000 0.0000 0.0000 19.3134 0.0000 0.0000
# 5 0.0000 0.0000 0.0000 0.0000 24.7747 0.0000
# 6 0.0000 0.0000 0.0000 0.0000 0.0000 8.6032
#
#
#
# Elastic Compliance Matrix: (Units=1/GPa)
#
#
# Indices 1 2 3 4 5 6 
#
# 1 0.016462 -0.009934 -0.004727 0.000000 0.000000 0.000000
# 2 -0.009934 0.029345 -0.009118 0.000000 0.000000 0.000000
# 3 -0.004727 -0.009118 0.022687 0.000000 0.000000 0.000000
# 4 0.000000 0.000000 0.000000 0.051778 0.000000 0.000000
# 5 0.000000 0.000000 0.000000 0.000000 0.040364 0.000000
# 6 0.000000 0.000000 0.000000 0.000000 0.000000 0.116235
#
#
# Mechanical properties :
#
#
# Convention : Reuss Voigt Hill
#
# Bulk Modulus (GPa) = 47.76217 51.51479 49.63848
# Shear Modulus (GPa) = 15.08717 17.65355 16.37036
#
# Velocity S-wave (km/s) = 3.05423 3.30380 3.18146
# Velocity P-wave (km/s) = 6.47833 6.81210 6.64731
#
# Compressibility (1/GPa) = 0.02093707
#
# Stress axis : x y z
#
# Youngs Moduli (GPa) = 60.74591 34.07711 44.07748
#
# Poissons Ratio (x) = 0.33851 0.20836
# Poissons Ratio (y) = 0.60344 0.40189
# Poissons Ratio (z) = 0.28716 0.31071
#
# Static dielectric constant tensor:
#      x y z
#    x 1.567200 0.000000 0.000000 
#    y 0.000000 1.551830 0.000000 
#    z 0.000000 0.000000 1.578170 
# 
# From -- ./inp_files/28362.got.cif
#   From: 2010.05.17/outbox.cif.g08.bks.cpg/sg51_15_cif.got.tgz:28362.got - 2010.06.03 11:52:47.
