data_PCOD9399545
_publ_section_title
;
Structure prediction by ZEFSAII (Michael W. Deem and Ramdas Pophale) SiO2 
 PCOD9399545
Probable space group: P M M A
;
_chemical_formula_sum "Si O2"
_cell_formula_units_Z 48
_cell_length_a 7.693148
_cell_length_b 10.480807
_cell_length_c 28.171976
_cell_angle_alpha 90.000000
_cell_angle_beta 90.000000
_cell_angle_gamma 90.000000
_cell_volume 2271.517677
_symmetry_space_group_name_H-M "P M M A"
_symmetry_group_IT_number 51
_symmetry_cell_setting 'orthorhombic'
loop_
_space_group_symop_operation_xyz
x,y,z
1/2-x,-y,z
1/2+x,-y,-z
-x,y,-z
-x,-y,-z
1/2+x,y,-z
1/2-x,y,z
x,-y,z
loop_
_atom_site_type_symbol
_atom_site_label
_atom_site_fract_x
_atom_site_fract_y
_atom_site_fract_z
Si Si1 0.963517 0.000000 0.729876
Si Si2 0.960720 0.500000 0.695861
Si Si3 0.455820 0.500000 0.585240
Si Si4 0.037240 0.643970 0.128574
Si Si5 0.037832 0.724988 0.234072
Si Si6 0.953560 0.000000 0.622781
Si Si7 0.459014 0.144125 0.054572
Si Si8 0.544346 0.771552 0.446803
O O1 0.018003 0.131198 0.754741
O O2 0.750000 0.000000 0.730642
O O3 0.029312 0.000000 0.675610
O O4 0.750000 0.500000 0.694508
O O5 0.016754 0.624940 0.725374
O O6 0.023311 0.500000 0.641966
O O7 0.250000 0.500000 0.574496
O O8 0.531325 0.631150 0.564137
O O9 0.250000 0.645183 0.128263
O O10 0.982811 0.500000 0.116714
O O11 0.983215 0.678715 0.182081
O O12 0.976608 0.749801 0.091189
O O13 0.250000 0.723400 0.234301
O O14 0.994198 0.875312 0.592123
O O15 0.750000 0.000000 0.630434
O O16 0.250000 0.140246 0.059144
O O17 0.524352 0.000000 0.064020
O O18 0.500000 0.175771 0.000000
O O19 0.500000 0.813377 0.500000
O O20 0.750000 0.761295 0.444138
#
# Coordination Sequence:
#
# PCOD9399545 Si02
#       8
#     4   4   4   8   8   4   8   8
#     4   9  18  28  44  71 104 133 163 205 252 303
#     4  10  18  31  53  76 102 137 173 208 257 310
#     4  10  23  39  57  82 112 145 181 220 268 322
#     4   9  16  27  44  69 100 131 165 208 257 306
#     4   9  16  27  44  72 103 130 163 210 259 302
#     4  11  22  38  57  83 114 145 179 219 268 325
#     4   9  18  31  48  71  98 131 169 210 257 306
#     4  11  23  40  60  83 110 143 181 224 271 320
#
# _framework density 21.131246999999998
#
# number of rings (size 3 to 8) (size 9 to 14) (size 15 to 20)
#    0.000    2.333    0.833    2.250    1.167    3.000 
#    0.000    0.000    0.000    1.000    0.000    0.000 
#    0.000    0.000    0.000    0.000    0.000    0.000 
#
# Total GULP energy -268131.936510 kJ/mol
# GULP energy per Si atom -5586.082011 kJ/mol
# Density = 2.108315 g / cm^3
# Si number density = 21.131247 Si / 1000 Ang^3
#
#
#
# Elastic Constant Matrix: (Units=GPa)
#
#
# Indices 1 2 3 4 5 6 
#
# 1 35.0853 3.0986 -9.2292 0.0000 0.0000 0.0000
# 2 3.0986 128.5711 42.0156 0.0000 0.0000 0.0000
# 3 -9.2292 42.0156 89.3431 0.0000 0.0000 0.0000
# 4 0.0000 0.0000 0.0000 41.4999 0.0000 0.0000
# 5 0.0000 0.0000 0.0000 0.0000 17.8969 0.0000
# 6 0.0000 0.0000 0.0000 0.0000 0.0000 27.8262
#
#
#
# Elastic Compliance Matrix: (Units=1/GPa)
#
#
# Indices 1 2 3 4 5 6 
#
# 1 0.029741 -0.002033 0.004028 0.000000 0.000000 0.000000
# 2 -0.002033 0.009329 -0.004597 0.000000 0.000000 0.000000
# 3 0.004028 -0.004597 0.013771 0.000000 0.000000 0.000000
# 4 0.000000 0.000000 0.000000 0.024096 0.000000 0.000000
# 5 0.000000 0.000000 0.000000 0.000000 0.055876 0.000000
# 6 0.000000 0.000000 0.000000 0.000000 0.000000 0.035937
#
#
# Mechanical properties :
#
#
# Convention : Reuss Voigt Hill
#
# Bulk Modulus (GPa) = 20.99200 36.08550 28.53875
# Shear Modulus (GPa) = 26.33881 31.91890 29.12885
#
# Velocity S-wave (km/s) = 3.53432 3.89074 3.71681
# Velocity P-wave (km/s) = 5.15858 6.10719 5.65282
#
# Compressibility (1/GPa) = 0.04763719
#
# Stress axis : x y z
#
# Youngs Moduli (GPa) = 33.62337 107.19102 72.61676
#
# Poissons Ratio (x) = 0.21794 -0.29253
# Poissons Ratio (y) = 0.06836 0.33384
# Poissons Ratio (z) = -0.13545 0.49279
#
# Static dielectric constant tensor:
#      x y z
#    x 1.786750 0.000000 0.000000 
#    y 0.000000 1.709000 0.000000 
#    z 0.000000 0.000000 1.652700 
# 
# From -- ./inp_files/37248.got.cif
#   From: 2010.05.17/outbox.cif.g08.bks.cpg/sg51_19_cif.got.tgz:37248.got - 2010.06.03 11:52:47.
