data_PCOD9399389
_publ_section_title
;
Structure prediction by ZEFSAII (Michael W. Deem and Ramdas Pophale) SiO2 
 PCOD9399389
Probable space group: P M M A
;
_chemical_formula_sum "Si O2"
_cell_formula_units_Z 64
_cell_length_a 33.763300
_cell_length_b 9.299297
_cell_length_c 10.888525
_cell_angle_alpha 90.000000
_cell_angle_beta 90.000000
_cell_angle_gamma 90.000000
_cell_volume 3418.724140
_symmetry_space_group_name_H-M "P M M A"
_symmetry_group_IT_number 51
_symmetry_cell_setting 'orthorhombic'
loop_
_space_group_symop_operation_xyz
x,y,z
1/2-x,-y,z
1/2+x,-y,-z
-x,y,-z
-x,-y,-z
1/2+x,y,-z
1/2-x,y,z
x,-y,z
loop_
_atom_site_type_symbol
_atom_site_label
_atom_site_fract_x
_atom_site_fract_y
_atom_site_fract_z
Si Si1 0.922905 0.166313 0.553786
Si Si2 0.053757 0.830335 0.825878
Si Si3 0.796076 0.328927 0.687939
Si Si4 0.488784 0.334055 0.313549
Si Si5 0.629686 0.170229 0.321689
Si Si6 0.794836 0.327716 0.397766
Si Si7 0.064935 0.333835 0.067105
Si Si8 0.131337 0.166013 0.200983
O O1 0.960663 0.263817 0.583950
O O2 0.895830 0.215845 0.441124
O O3 0.894851 0.167976 0.673990
O O4 0.934946 0.000000 0.531345
O O5 0.099757 0.808740 0.790740
O O6 0.026861 0.760076 0.720178
O O7 0.045651 0.000000 0.832684
O O8 0.046365 0.752461 0.954311
O O9 0.750000 0.302930 0.719017
O O10 0.803766 0.500000 0.701662
O O11 0.800860 0.294032 0.542808
O O12 0.826926 0.237902 0.766325
O O13 0.498359 0.500000 0.339858
O O14 0.462762 0.330129 0.187570
O O15 0.670706 0.253657 0.321167
O O16 0.637406 0.000000 0.334663
O O17 0.750000 0.283334 0.365131
O O18 0.797140 0.500000 0.386462
O O19 0.070432 0.500000 0.032446
O O20 0.105948 0.258045 0.104924
O O21 0.135227 0.000000 0.162440
#
# Coordination Sequence:
#
# PCOD9399389 Si02
#       8
#     8   8   8   8   8   8   8   8
#     4   9  18  33  51  74 105 139 172 208 258 311
#     4  11  23  37  54  76 104 138 178 221 264 309
#     4   9  17  29  47  75 110 141 168 204 255 311
#     4  10  21  36  55  78 103 133 173 220 267 314
#     4  10  21  36  53  77 109 143 177 215 258 311
#     4   9  18  32  52  79 109 141 176 213 254 303
#     4  10  21  37  56  76 101 133 174 222 267 312
#     4  10  18  30  52  78 104 135 172 212 257 310
#
# _framework density 18.720434000000001
#
# number of rings (size 3 to 8) (size 9 to 14) (size 15 to 20)
#    0.000    2.250    1.250    2.625    0.000    6.000 
#    0.000    3.750    0.000    0.750    0.000    3.500 
#    0.000    0.000    0.000    0.000    0.000    0.000 
#
# Total GULP energy -357380.689863 kJ/mol
# GULP energy per Si atom -5584.073279 kJ/mol
# Density = 1.867783 g / cm^3
# Si number density = 18.720434 Si / 1000 Ang^3
#
#
#
# Elastic Constant Matrix: (Units=GPa)
#
#
# Indices 1 2 3 4 5 6 
#
# 1 106.1438 60.6360 6.7854 0.0000 0.0000 0.0000
# 2 60.6360 93.4961 17.1858 0.0000 0.0000 0.0000
# 3 6.7854 17.1858 34.7455 0.0000 0.0000 0.0000
# 4 0.0000 0.0000 0.0000 18.7527 0.0000 0.0000
# 5 0.0000 0.0000 0.0000 0.0000 16.2359 0.0000
# 6 0.0000 0.0000 0.0000 0.0000 0.0000 35.6915
#
#
#
# Elastic Compliance Matrix: (Units=1/GPa)
#
#
# Indices 1 2 3 4 5 6 
#
# 1 0.015102 -0.010177 0.002085 0.000000 0.000000 0.000000
# 2 -0.010177 0.018624 -0.007224 0.000000 0.000000 0.000000
# 3 0.002085 -0.007224 0.031947 0.000000 0.000000 0.000000
# 4 0.000000 0.000000 0.000000 0.053326 0.000000 0.000000
# 5 0.000000 0.000000 0.000000 0.000000 0.061592 0.000000
# 6 0.000000 0.000000 0.000000 0.000000 0.000000 0.028018
#
#
# Mechanical properties :
#
#
# Convention : Reuss Voigt Hill
#
# Bulk Modulus (GPa) = 28.53978 44.84441 36.69209
# Shear Modulus (GPa) = 19.92653 24.12121 22.02387
#
# Velocity S-wave (km/s) = 3.26610 3.59346 3.43368
# Velocity P-wave (km/s) = 5.43153 6.42060 5.94666
#
# Compressibility (1/GPa) = 0.03503881
#
# Stress axis : x y z
#
# Youngs Moduli (GPa) = 66.21706 53.69427 31.30205
#
# Poissons Ratio (x) = 0.54647 -0.06525
# Poissons Ratio (y) = 0.67391 0.22613
# Poissons Ratio (z) = -0.13804 0.38790
#
# Static dielectric constant tensor:
#      x y z
#    x 1.641160 0.000000 0.000000 
#    y 0.000000 1.627900 0.000000 
#    z 0.000000 0.000000 1.653490 
# 
# From -- ./inp_files/19499.got.cif
#   From: 2010.05.17/outbox.cif.g08.bks.cpg/sg51_10_cif.got.tgz:19499.got - 2010.06.03 11:52:47.
