data_PCOD9399197
_publ_section_title
;
Structure prediction by ZEFSAII (Michael W. Deem and Ramdas Pophale) SiO2 
 PCOD9399197
Probable space group: P M M A
;
_chemical_formula_sum "Si O2"
_cell_formula_units_Z 64
_cell_length_a 8.854655
_cell_length_b 24.070553
_cell_length_c 19.668020
_cell_angle_alpha 90.000000
_cell_angle_beta 90.000000
_cell_angle_gamma 90.000000
_cell_volume 4191.971813
_symmetry_space_group_name_H-M "P M M A"
_symmetry_group_IT_number 51
_symmetry_cell_setting 'orthorhombic'
loop_
_space_group_symop_operation_xyz
x,y,z
1/2-x,-y,z
1/2+x,-y,-z
-x,y,-z
-x,-y,-z
1/2+x,y,-z
1/2-x,y,z
x,-y,z
loop_
_atom_site_type_symbol
_atom_site_label
_atom_site_fract_x
_atom_site_fract_y
_atom_site_fract_z
Si Si1 0.930922 0.886530 0.071829
Si Si2 0.431026 0.244081 0.929024
Si Si3 0.568121 0.062874 0.792748
Si Si4 0.930670 0.229410 0.573892
Si Si5 0.430194 0.565124 0.573682
Si Si6 0.568889 0.661205 0.660127
Si Si7 0.068543 0.275281 0.781816
Si Si8 0.567668 0.831079 0.707279
O O1 0.750000 0.890577 0.069866
O O2 0.972964 0.821150 0.079869
O O3 0.995491 0.919494 0.135792
O O4 0.000000 0.905482 0.000000
O O5 0.250000 0.245999 0.933893
O O6 0.476753 0.276564 0.860999
O O7 0.500000 0.263708 0.000000
O O8 0.750000 0.064856 0.800048
O O9 0.526491 0.108867 0.736487
O O10 0.524868 0.000000 0.774775
O O11 0.750000 0.229389 0.567436
O O12 0.973784 0.288138 0.608933
O O13 0.972823 0.182408 0.629234
O O14 0.000000 0.222787 0.500000
O O15 0.500000 0.579112 0.500000
O O16 0.250000 0.572605 0.571113
O O17 0.462178 0.500000 0.586646
O O18 0.501645 0.605101 0.629667
O O19 0.750000 0.658895 0.663140
O O20 0.503313 0.678402 0.733250
O O21 0.250000 0.277338 0.777467
O O22 0.010805 0.216414 0.752270
O O23 0.750000 0.824075 0.713096
#
# Coordination Sequence:
#
# PCOD9399197 Si02
#       8
#     8   8   8   8   8   8   8   8
#     4  10  19  32  47  66  89 116 149 184 224 271
#     4   9  18  29  44  66  91 120 152 184 225 278
#     4  10  20  33  49  66  84 112 149 188 230 276
#     4   9  18  30  45  67  90 114 144 181 226 272
#     4  10  20  33  49  70  99 137 175 208 240 274
#     4  10  20  32  47  70  98 129 164 198 235 276
#     4  10  18  30  47  69  94 120 153 192 236 280
#     4   9  18  32  47  64  88 114 144 183 228 282
#
# _framework density 15.267277999999999
#
# number of rings (size 3 to 8) (size 9 to 14) (size 15 to 20)
#    0.000    2.375    1.250    2.625    0.000    6.250 
#    0.000    0.000    0.000    0.375    0.000    0.000 
#    0.000    0.500    0.000    1.625    0.000    2.250 
#
# Total GULP energy -356891.114767 kJ/mol
# GULP energy per Si atom -5576.423668 kJ/mol
# Density = 1.523253 g / cm^3
# Si number density = 15.267278 Si / 1000 Ang^3
#
#
#
# Elastic Constant Matrix: (Units=GPa)
#
#
# Indices 1 2 3 4 5 6 
#
# 1 29.7381 33.6265 38.9058 0.0000 0.0000 0.0000
# 2 33.6265 77.9116 58.7036 0.0000 0.0000 0.0000
# 3 38.9058 58.7036 136.1280 0.0000 0.0000 0.0000
# 4 0.0000 0.0000 0.0000 26.4854 0.0000 0.0000
# 5 0.0000 0.0000 0.0000 0.0000 28.3052 0.0000
# 6 0.0000 0.0000 0.0000 0.0000 0.0000 15.2165
#
#
#
# Elastic Compliance Matrix: (Units=1/GPa)
#
#
# Indices 1 2 3 4 5 6 
#
# 1 0.075636 -0.024229 -0.011168 0.000000 0.000000 0.000000
# 2 -0.024229 0.026774 -0.004621 0.000000 0.000000 0.000000
# 3 -0.011168 -0.004621 0.012531 0.000000 0.000000 0.000000
# 4 0.000000 0.000000 0.000000 0.037757 0.000000 0.000000
# 5 0.000000 0.000000 0.000000 0.000000 0.035329 0.000000
# 6 0.000000 0.000000 0.000000 0.000000 0.000000 0.065718
#
#
# Mechanical properties :
#
#
# Convention : Reuss Voigt Hill
#
# Bulk Modulus (GPa) = 28.65080 56.24995 42.45037
# Shear Modulus (GPa) = 14.47525 21.50420 17.98972
#
# Velocity S-wave (km/s) = 3.08250 3.75709 3.43639
# Velocity P-wave (km/s) = 5.61034 7.46622 6.60380
#
# Compressibility (1/GPa) = 0.03490304
#
# Stress axis : x y z
#
# Youngs Moduli (GPa) = 13.22127 37.34909 79.80311
#
# Poissons Ratio (x) = 0.90494 0.89126
# Poissons Ratio (y) = 0.32034 0.36880
# Poissons Ratio (z) = 0.14766 0.17260
#
# Static dielectric constant tensor:
#      x y z
#    x 1.520760 0.000000 0.000000 
#    y 0.000000 1.499790 0.000000 
#    z 0.000000 0.000000 1.502520 
# 
# From -- ./inp_files/28562.got.cif
#   From: 2010.05.17/outbox.cif.g08.bks.cpg/sg51_15_cif.got.tgz:28562.got - 2010.06.03 11:52:47.
