data_PCOD9399148
_publ_section_title
;
Structure prediction by ZEFSAII (Michael W. Deem and Ramdas Pophale) SiO2 
 PCOD9399148
Probable space group: P M M A
;
_chemical_formula_sum "Si O2"
_cell_formula_units_Z 64
_cell_length_a 9.165502
_cell_length_b 19.103721
_cell_length_c 23.351003
_cell_angle_alpha 90.000000
_cell_angle_beta 90.000000
_cell_angle_gamma 90.000000
_cell_volume 4088.648378
_symmetry_space_group_name_H-M "P M M A"
_symmetry_group_IT_number 51
_symmetry_cell_setting 'orthorhombic'
loop_
_space_group_symop_operation_xyz
x,y,z
1/2-x,-y,z
1/2+x,-y,-z
-x,y,-z
-x,-y,-z
1/2+x,y,-z
1/2-x,y,z
x,-y,z
loop_
_atom_site_type_symbol
_atom_site_label
_atom_site_fract_x
_atom_site_fract_y
_atom_site_fract_z
Si Si1 0.417744 0.683358 0.647192
Si Si2 0.080856 0.287152 0.942429
Si Si3 0.921385 0.676940 0.827848
Si Si4 0.427287 0.078521 0.813004
Si Si5 0.088050 0.419987 0.755273
Si Si6 0.075147 0.579794 0.437932
Si Si7 0.573214 0.786313 0.257673
Si Si8 0.919445 0.117700 0.058685
O O1 0.250000 0.691303 0.626771
O O2 0.417066 0.628679 0.699840
O O3 0.514632 0.643805 0.600247
O O4 0.464833 0.756046 0.678905
O O5 0.250000 0.307344 0.941793
O O6 0.075342 0.202282 0.939228
O O7 0.994406 0.317012 0.889106
O O8 0.000000 0.308573 0.000000
O O9 0.750000 0.688556 0.830004
O O10 0.964250 0.604121 0.798493
O O11 0.998829 0.734604 0.787735
O O12 0.250000 0.081229 0.815712
O O13 0.468585 0.136800 0.765785
O O14 0.476681 0.093451 0.878795
O O15 0.471454 0.000000 0.797034
O O16 0.250000 0.409638 0.781606
O O17 0.073546 0.500000 0.738486
O O18 0.250000 0.584658 0.442663
O O19 0.041770 0.500000 0.415520
O O20 0.000000 0.583996 0.500000
O O21 0.750000 0.780026 0.253791
O O22 0.750000 0.096040 0.054349
O O23 0.000000 0.095394 0.000000
#
# Coordination Sequence:
#
# PCOD9399148 Si02
#       8
#     8   8   8   8   8   8   8   8
#     4   9  17  29  48  69  93 125 160 194 228 266
#     4  10  18  30  46  64  85 109 142 185 229 278
#     4  11  20  29  45  67  89 115 146 185 230 274
#     4   9  16  28  47  67  88 119 157 195 237 284
#     4   9  18  32  49  68  91 121 153 186 227 272
#     4  10  20  32  47  69 100 135 167 196 226 263
#     4   9  17  32  48  65  90 122 158 196 235 277
#     4   9  17  28  43  62  85 113 146 186 229 279
#
# _framework density 15.653095
#
# number of rings (size 3 to 8) (size 9 to 14) (size 15 to 20)
#    0.000    2.500    1.250    3.000    0.000    4.250 
#    0.000    0.000    0.000    1.500    0.000    0.000 
#    0.000    0.500    0.000    0.875    0.000    1.250 
#
# Total GULP energy -356290.261581 kJ/mol
# GULP energy per Si atom -5567.035337 kJ/mol
# Density = 1.561747 g / cm^3
# Si number density = 15.653095 Si / 1000 Ang^3
#
#
#
# Elastic Constant Matrix: (Units=GPa)
#
#
# Indices 1 2 3 4 5 6 
#
# 1 51.5737 15.2816 35.1237 0.0000 0.0000 0.0000
# 2 15.2816 69.0558 33.6696 0.0000 0.0000 0.0000
# 3 35.1237 33.6696 73.2242 0.0000 0.0000 0.0000
# 4 0.0000 0.0000 0.0000 20.0467 0.0000 0.0000
# 5 0.0000 0.0000 0.0000 0.0000 25.1037 0.0000
# 6 0.0000 0.0000 0.0000 0.0000 0.0000 8.9571
#
#
#
# Elastic Compliance Matrix: (Units=1/GPa)
#
#
# Indices 1 2 3 4 5 6 
#
# 1 0.028809 0.000467 -0.014034 0.000000 0.000000 0.000000
# 2 0.000467 0.018673 -0.008810 0.000000 0.000000 0.000000
# 3 -0.014034 -0.008810 0.024439 0.000000 0.000000 0.000000
# 4 0.000000 0.000000 0.000000 0.049884 0.000000 0.000000
# 5 0.000000 0.000000 0.000000 0.000000 0.039835 0.000000
# 6 0.000000 0.000000 0.000000 0.000000 0.000000 0.111644
#
#
# Mechanical properties :
#
#
# Convention : Reuss Voigt Hill
#
# Bulk Modulus (GPa) = 36.80820 40.22260 38.51540
# Shear Modulus (GPa) = 15.28617 18.14007 16.71312
#
# Velocity S-wave (km/s) = 3.12838 3.40793 3.27114
# Velocity P-wave (km/s) = 6.05104 6.42163 6.23909
#
# Compressibility (1/GPa) = 0.02716786
#
# Stress axis : x y z
#
# Youngs Moduli (GPa) = 34.71174 53.55228 40.91761
#
# Poissons Ratio (x) = -0.02502 0.57422
# Poissons Ratio (y) = -0.01622 0.36050
# Poissons Ratio (z) = 0.48713 0.47182
#
# Static dielectric constant tensor:
#      x y z
#    x 1.530560 0.000000 0.000000 
#    y 0.000000 1.544330 0.000000 
#    z 0.000000 0.000000 1.173570 
# 
# From -- ./inp_files/32539.got.cif
#   From: 2010.05.17/outbox.cif.g08.bks.cpg/sg51_17_cif.got.tgz:32539.got - 2010.06.03 11:52:47.
