data_PCOD9399878
_publ_section_title
;
Structure prediction by ZEFSAII (Michael W. Deem and Ramdas Pophale) SiO2 
 PCOD9399878
Probable space group: P M M A
;
_chemical_formula_sum "Si O2"
_cell_formula_units_Z 30
_cell_length_a 14.207426
_cell_length_b 11.426322
_cell_length_c 9.967939
_cell_angle_alpha 90.000000
_cell_angle_beta 90.000000
_cell_angle_gamma 90.000000
_cell_volume 1618.181504
_symmetry_space_group_name_H-M "P M M A"
_symmetry_group_IT_number 51
_symmetry_cell_setting 'orthorhombic'
loop_
_space_group_symop_operation_xyz
x,y,z
1/2-x,-y,z
1/2+x,-y,-z
-x,y,-z
-x,-y,-z
1/2+x,y,-z
1/2-x,y,z
x,-y,z
loop_
_atom_site_type_symbol
_atom_site_label
_atom_site_fract_x
_atom_site_fract_y
_atom_site_fract_z
Si Si1 0.750000 0.633307 0.996771
Si Si2 0.750000 0.743316 0.289341
Si Si3 0.950582 0.362507 0.355538
Si Si4 0.926565 0.749238 0.876509
Si Si5 0.750000 0.000000 0.198680
Si Si6 0.393206 0.000000 0.046282
O O1 0.750000 0.500000 0.041322
O O2 0.842260 0.661902 0.911265
O O3 0.750000 0.711187 0.130726
O O4 0.654959 0.689629 0.351599
O O5 0.750000 0.883851 0.288127
O O6 0.946428 0.500000 0.315855
O O7 0.000000 0.355458 0.500000
O O8 0.014655 0.290209 0.251742
O O9 0.881181 0.879325 0.873130
O O10 0.000000 0.746963 0.000000
O O11 0.835514 0.000000 0.092110
O O12 0.500000 0.000000 0.000000
#
# Coordination Sequence:
#
# PCOD9399878 Si02
#       6
#     4   4   8   8   2   4
#     4  12  22  33  60  94 123 154 204 266 310 366
#     4  12  22  41  66  92 121 167 216 253 320 381
#     4  11  25  43  63  91 132 172 209 260 320 382
#     4  11  21  37  60  92 121 158 211 259 310 368
#     4  12  20  40  64  96 126 164 206 264 322 370
#     4  10  18  34  56  87 124 155 193 256 313 355
#
# _framework density 18.53933
#
# number of rings (size 3 to 8) (size 9 to 14) (size 15 to 20)
#    0.000    0.800    5.333    3.600    0.000    2.133 
#    0.000    4.000    0.000    0.000    0.000    0.000 
#    0.000    0.000    0.000    0.000    0.000    0.000 
#
# Total GULP energy -167559.192817 kJ/mol
# GULP energy per Si atom -5585.306427 kJ/mol
# Density = 1.849713 g / cm^3
# Si number density = 18.539330 Si / 1000 Ang^3
#
#
#
# Elastic Constant Matrix: (Units=GPa)
#
#
# Indices 1 2 3 4 5 6 
#
# 1 109.8213 1.9780 21.0776 0.0000 0.0000 0.0000
# 2 1.9780 111.8188 21.5355 0.0000 0.0000 0.0000
# 3 21.0776 21.5355 63.2640 0.0000 0.0000 0.0000
# 4 0.0000 0.0000 0.0000 12.4322 0.0000 0.0000
# 5 0.0000 0.0000 0.0000 0.0000 21.6621 0.0000
# 6 0.0000 0.0000 0.0000 0.0000 0.0000 26.9161
#
#
#
# Elastic Compliance Matrix: (Units=1/GPa)
#
#
# Indices 1 2 3 4 5 6 
#
# 1 0.009752 0.000485 -0.003414 0.000000 0.000000 0.000000
# 2 0.000485 0.009595 -0.003428 0.000000 0.000000 0.000000
# 3 -0.003414 -0.003428 0.018111 0.000000 0.000000 0.000000
# 4 0.000000 0.000000 0.000000 0.080436 0.000000 0.000000
# 5 0.000000 0.000000 0.000000 0.000000 0.046163 0.000000
# 6 0.000000 0.000000 0.000000 0.000000 0.000000 0.037152
#
#
# Mechanical properties :
#
#
# Convention : Reuss Voigt Hill
#
# Bulk Modulus (GPa) = 40.41350 41.56513 40.98932
# Shear Modulus (GPa) = 22.50509 28.22296 25.36402
#
# Velocity S-wave (km/s) = 3.48790 3.90594 3.70282
# Velocity P-wave (km/s) = 6.16982 6.54297 6.35913
#
# Compressibility (1/GPa) = 0.02474420
#
# Stress axis : x y z
#
# Youngs Moduli (GPa) = 102.54038 104.22520 55.21471
#
# Poissons Ratio (x) = -0.05055 0.18852
# Poissons Ratio (y) = -0.04974 0.18926
# Poissons Ratio (z) = 0.35010 0.35725
#
# Static dielectric constant tensor:
#      x y z
#    x 1.677050 0.000000 0.000000 
#    y 0.000000 1.716860 0.000000 
#    z 0.000000 0.000000 1.590180 
# 
# From -- ./inp_files/7524.got.cif
#   From: 2010.05.17/outbox.cif.g08.bks.cpg/sg51_4_cif.got.tgz:7524.got - 2010.06.03 11:52:47.
