data_PCOD9399487
_publ_section_title
;
Structure prediction by ZEFSAII (Michael W. Deem and Ramdas Pophale) SiO2 
 PCOD9399487
Probable space group: P M M A
;
_chemical_formula_sum "Si O2"
_cell_formula_units_Z 48
_cell_length_a 8.735274
_cell_length_b 16.649072
_cell_length_c 18.662912
_cell_angle_alpha 90.000000
_cell_angle_beta 90.000000
_cell_angle_gamma 90.000000
_cell_volume 2714.225784
_symmetry_space_group_name_H-M "P M M A"
_symmetry_group_IT_number 51
_symmetry_cell_setting 'orthorhombic'
loop_
_space_group_symop_operation_xyz
x,y,z
1/2-x,-y,z
1/2+x,-y,-z
-x,y,-z
-x,-y,-z
1/2+x,y,-z
1/2-x,y,z
x,-y,z
loop_
_atom_site_type_symbol
_atom_site_label
_atom_site_fract_x
_atom_site_fract_y
_atom_site_fract_z
Si Si1 0.067382 0.000000 0.580617
Si Si2 0.068389 0.745560 0.706697
Si Si3 0.433544 0.162462 0.852311
Si Si4 0.431506 0.681186 0.074609
Si Si5 0.567222 0.592152 0.779233
Si Si6 0.933414 0.000000 0.918911
Si Si7 0.068746 0.164650 0.420578
O O1 0.000000 0.000000 0.500000
O O2 0.003803 0.082612 0.611465
O O3 0.250000 0.000000 0.579622
O O4 0.250000 0.752067 0.694828
O O5 0.026947 0.806605 0.771951
O O6 0.023347 0.656973 0.732798
O O7 0.978692 0.767379 0.634927
O O8 0.250000 0.155149 0.856653
O O9 0.490094 0.234809 0.903160
O O10 0.508860 0.079500 0.877327
O O11 0.250000 0.694103 0.068621
O O12 0.459100 0.618390 0.138519
O O13 0.500000 0.652949 0.000000
O O14 0.750000 0.600763 0.766019
O O15 0.524075 0.500000 0.766926
O O16 0.750000 0.000000 0.922708
O O17 0.000000 0.000000 0.000000
O O18 0.250000 0.155475 0.427040
O O19 0.000000 0.177388 0.500000
#
# Coordination Sequence:
#
# PCOD9399487 Si02
#       7
#     4   8   8   8   8   4   8
#     4  10  18  31  50  75 108 141 175 213 253 297
#     4  10  21  37  57  81 108 139 176 219 267 319
#     4  10  21  37  54  73 101 137 178 221 265 313
#     4  10  19  32  51  75 104 136 172 215 263 314
#     4   9  19  36  56  78 105 138 175 215 262 318
#     4  12  24  37  54  75 103 139 183 229 270 313
#     4  11  21  35  56  82 113 147 183 221 263 313
#
# _framework density 17.684602000000002
#
# number of rings (size 3 to 8) (size 9 to 14) (size 15 to 20)
#    0.000    1.833    0.000    6.000    0.000    4.000 
#    0.000    0.833    0.000    0.500    0.000    0.000 
#    0.000    0.000    0.000    0.000    0.000    0.000 
#
# Total GULP energy -268017.216249 kJ/mol
# GULP energy per Si atom -5583.692005 kJ/mol
# Density = 1.764435 g / cm^3
# Si number density = 17.684602 Si / 1000 Ang^3
#
#
#
# Elastic Constant Matrix: (Units=GPa)
#
#
# Indices 1 2 3 4 5 6 
#
# 1 113.7556 47.7511 49.7045 0.0000 0.0000 0.0000
# 2 47.7511 103.4677 39.4014 0.0000 0.0000 0.0000
# 3 49.7045 39.4014 79.9064 0.0000 0.0000 0.0000
# 4 0.0000 0.0000 0.0000 9.6015 0.0000 0.0000
# 5 0.0000 0.0000 0.0000 0.0000 27.6229 0.0000
# 6 0.0000 0.0000 0.0000 0.0000 0.0000 27.5333
#
#
#
# Elastic Compliance Matrix: (Units=1/GPa)
#
#
# Indices 1 2 3 4 5 6 
#
# 1 0.013087 -0.003619 -0.006356 0.000000 0.000000 0.000000
# 2 -0.003619 0.012900 -0.004110 0.000000 0.000000 0.000000
# 3 -0.006356 -0.004110 0.018495 0.000000 0.000000 0.000000
# 4 0.000000 0.000000 0.000000 0.104150 0.000000 0.000000
# 5 0.000000 0.000000 0.000000 0.000000 0.036202 0.000000
# 6 0.000000 0.000000 0.000000 0.000000 0.000000 0.036320
#
#
# Mechanical properties :
#
#
# Convention : Reuss Voigt Hill
#
# Bulk Modulus (GPa) = 61.30416 63.42707 62.36562
# Shear Modulus (GPa) = 19.62621 23.63640 21.63131
#
# Velocity S-wave (km/s) = 3.33497 3.65986 3.50118
# Velocity P-wave (km/s) = 7.04059 7.33505 7.18933
#
# Compressibility (1/GPa) = 0.01631211
#
# Stress axis : x y z
#
# Youngs Moduli (GPa) = 76.40977 77.51795 54.06944
#
# Poissons Ratio (x) = 0.28057 0.34367
# Poissons Ratio (y) = 0.27656 0.22220
# Poissons Ratio (z) = 0.48566 0.31857
#
# Static dielectric constant tensor:
#      x y z
#    x 1.596100 0.000000 0.000000 
#    y 0.000000 1.603130 0.000000 
#    z 0.000000 0.000000 1.556980 
# 
# From -- ./inp_files/27676.got.cif
#   From: 2010.05.17/outbox.cif.g08.bks.cpg/sg51_14_cif.got.tgz:27676.got - 2010.06.03 11:52:47.
