data_PCOD9399098
_publ_section_title
;
Structure prediction by ZEFSAII (Michael W. Deem and Ramdas Pophale) SiO2 
 PCOD9399098
Probable space group: P M M A
;
_chemical_formula_sum "Si O2"
_cell_formula_units_Z 48
_cell_length_a 24.633023
_cell_length_b 7.522595
_cell_length_c 13.033093
_cell_angle_alpha 90.000000
_cell_angle_beta 90.000000
_cell_angle_gamma 90.000000
_cell_volume 2415.087597
_symmetry_space_group_name_H-M "P M M A"
_symmetry_group_IT_number 51
_symmetry_cell_setting 'orthorhombic'
loop_
_space_group_symop_operation_xyz
x,y,z
1/2-x,-y,z
1/2+x,-y,-z
-x,y,-z
-x,-y,-z
1/2+x,y,-z
1/2-x,y,z
x,-y,z
loop_
_atom_site_type_symbol
_atom_site_label
_atom_site_fract_x
_atom_site_fract_y
_atom_site_fract_z
Si Si1 0.383143 0.717223 0.699391
Si Si2 0.688864 0.210768 0.876929
Si Si3 0.311444 0.712877 0.886688
Si Si4 0.000726 0.717206 0.620103
Si Si5 0.884022 0.290627 0.686147
Si Si6 0.312089 0.282603 0.502810
O O1 0.384356 0.500000 0.701277
O O2 0.355131 0.778613 0.804559
O O3 0.444267 0.777001 0.675692
O O4 0.344880 0.768710 0.604268
O O5 0.750000 0.283499 0.856590
O O6 0.644674 0.272367 0.795410
O O7 0.691846 0.000000 0.866490
O O8 0.674996 0.251389 0.994863
O O9 0.250000 0.781130 0.867767
O O10 0.309044 0.500000 0.874504
O O11 0.002147 0.500000 0.621462
O O12 0.945110 0.778985 0.673500
O O13 0.000000 0.768381 0.500000
O O14 0.888667 0.500000 0.664632
O O15 0.844268 0.219392 0.597640
O O16 0.250000 0.222701 0.503841
O O17 0.311011 0.500000 0.501288
#
# Coordination Sequence:
#
# PCOD9399098 Si02
#       6
#     8   8   8   8   8   8
#     4   9  15  25  43  70 102 129 156 194 243 292
#     4  10  21  36  52  69  94 129 164 201 248 297
#     4   9  17  30  50  74  97 123 160 206 249 289
#     4   9  15  26  44  71 105 136 161 192 238 288
#     4  10  18  29  49  75 101 129 163 200 237 283
#     4   9  15  22  38  69 103 126 149 192 246 290
#
# _framework density 19.875056000000001
#
# number of rings (size 3 to 8) (size 9 to 14) (size 15 to 20)
#    0.000    2.667    1.667    1.500    0.000    3.667 
#    0.000    0.833    0.000    7.500    0.000    2.333 
#    0.000    0.000    0.000    0.000    0.000    0.000 
#
# Total GULP energy -267884.693531 kJ/mol
# GULP energy per Si atom -5580.931115 kJ/mol
# Density = 1.982982 g / cm^3
# Si number density = 19.875056 Si / 1000 Ang^3
#
#
#
# Elastic Constant Matrix: (Units=GPa)
#
#
# Indices 1 2 3 4 5 6 
#
# 1 228.2439 4.6722 128.9470 0.0000 0.0000 0.0000
# 2 4.6722 46.8086 -9.7185 0.0000 0.0000 0.0000
# 3 128.9470 -9.7185 136.5867 0.0000 0.0000 0.0000
# 4 0.0000 0.0000 0.0000 -86.0237 0.0000 0.0000
# 5 0.0000 0.0000 0.0000 0.0000 28.0206 0.0000
# 6 0.0000 0.0000 0.0000 0.0000 0.0000 -7.8456
#
#
#
# Elastic Compliance Matrix: (Units=1/GPa)
#
#
# Indices 1 2 3 4 5 6 
#
# 1 0.009770 -0.002934 -0.009433 0.000000 0.000000 0.000000
# 2 -0.002934 0.022565 0.004375 0.000000 0.000000 0.000000
# 3 -0.009433 0.004375 0.016538 0.000000 0.000000 0.000000
# 4 0.000000 0.000000 0.000000 -0.011625 0.000000 0.000000
# 5 0.000000 0.000000 0.000000 0.000000 0.035688 0.000000
# 6 0.000000 0.000000 0.000000 0.000000 0.000000 -0.127460
#
#
# Mechanical properties :
#
#
# Convention : Reuss Voigt Hill
#
# Bulk Modulus (GPa) = 30.40394 73.27117 51.83756
# Shear Modulus (GPa) = -181.29736 6.01284 -87.64226
#
# Velocity S-wave (km/s) = -9.56120 1.74123 -6.64773
# Velocity P-wave (km/s) = 10.32269 6.40222 5.72580
#
# Compressibility (1/GPa) = 0.03289047
#
# Stress axis : x y z
#
# Youngs Moduli (GPa) = 102.35156 44.31691 60.46840
#
# Poissons Ratio (x) = 0.13001 0.57037
# Poissons Ratio (y) = 0.30026 -0.26455
# Poissons Ratio (z) = 0.96543 -0.19389
#
# Static dielectric constant tensor:
#      x y z
#    x 1.693830 0.000000 0.000000 
#    y 0.000000 1.742460 0.000000 
#    z 0.000000 0.000000 1.666100 
# 
# From -- ./inp_files/18576.got.cif
#   From: 2010.05.17/outbox.cif.g08.bks.cpg/sg51_10_cif.got.tgz:18576.got - 2010.06.03 11:52:47.
