data_PCOD9399808
_publ_section_title
;
Structure prediction by ZEFSAII (Michael W. Deem and Ramdas Pophale) SiO2 
 PCOD9399808
Probable space group: P M M A
;
_chemical_formula_sum "Si O2"
_cell_formula_units_Z 56
_cell_length_a 15.820693
_cell_length_b 18.739861
_cell_length_c 9.569505
_cell_angle_alpha 90.000000
_cell_angle_beta 90.000000
_cell_angle_gamma 90.000000
_cell_volume 2837.143758
_symmetry_space_group_name_H-M "P M M A"
_symmetry_group_IT_number 51
_symmetry_cell_setting 'orthorhombic'
loop_
_space_group_symop_operation_xyz
x,y,z
1/2-x,-y,z
1/2+x,-y,-z
-x,y,-z
-x,-y,-z
1/2+x,y,-z
1/2-x,y,z
x,-y,z
loop_
_atom_site_type_symbol
_atom_site_label
_atom_site_fract_x
_atom_site_fract_y
_atom_site_fract_z
Si Si1 0.352530 0.918075 0.700657
Si Si2 0.848792 0.264389 0.798432
Si Si3 0.154224 0.701883 0.725654
Si Si4 0.347946 0.579175 0.233793
Si Si5 0.589834 0.807441 0.066520
Si Si6 0.152091 0.187256 0.471228
Si Si7 0.091793 0.417595 0.543623
O O1 0.250000 0.915660 0.695955
O O2 0.378821 0.871114 0.834438
O O3 0.384112 0.879405 0.558395
O O4 0.379336 0.000000 0.710448
O O5 0.750000 0.276150 0.761599
O O6 0.884341 0.344914 0.819361
O O7 0.887927 0.220135 0.668539
O O8 0.854011 0.216084 0.935196
O O9 0.250000 0.705076 0.782843
O O10 0.090960 0.738056 0.833625
O O11 0.153242 0.749932 0.585759
O O12 0.130242 0.624584 0.672029
O O13 0.250000 0.575936 0.189710
O O14 0.385668 0.500000 0.200801
O O15 0.353146 0.586155 0.402599
O O16 0.500000 0.823752 0.000000
O O17 0.250000 0.168315 0.437333
O O18 0.080790 0.500000 0.581082
O O19 0.000000 0.387900 0.500000
#
# Coordination Sequence:
#
# PCOD9399808 Si02
#       7
#     8   8   8   8   8   8   8
#     4   9  18  37  62  84 110 143 177 219 276 344
#     4  10  18  33  55  80 109 141 183 235 278 332
#     4  10  19  35  55  76 106 147 194 239 281 344
#     4   9  17  30  51  77 104 139 182 229 283 332
#     4  11  24  36  53  80 113 153 190 231 282 337
#     4   8  15  29  54  82 101 127 174 226 273 320
#     4  10  20  31  50  81 113 142 182 240 297 342
#
# _framework density 19.738161000000002
#
# number of rings (size 3 to 8) (size 9 to 14) (size 15 to 20)
#    0.000    2.429    1.429    2.571    2.000    1.143 
#    0.000    3.571    0.000    6.000    0.000    0.000 
#    0.000    0.000    0.000    0.000    0.000    0.000 
#
# Total GULP energy -311967.907726 kJ/mol
# GULP energy per Si atom -5570.855495 kJ/mol
# Density = 1.969324 g / cm^3
# Si number density = 19.738161 Si / 1000 Ang^3
#
#
#
# Elastic Constant Matrix: (Units=GPa)
#
#
# Indices 1 2 3 4 5 6 
#
# 1 21.1066 13.2109 -0.3722 0.0000 0.0000 0.0000
# 2 13.2109 144.1438 49.0305 0.0000 0.0000 0.0000
# 3 -0.3722 49.0305 70.2312 0.0000 0.0000 0.0000
# 4 0.0000 0.0000 0.0000 18.5359 0.0000 0.0000
# 5 0.0000 0.0000 0.0000 0.0000 4.7483 0.0000
# 6 0.0000 0.0000 0.0000 0.0000 0.0000 13.3034
#
#
#
# Elastic Compliance Matrix: (Units=1/GPa)
#
#
# Indices 1 2 3 4 5 6 
#
# 1 0.051404 -0.006300 0.004671 0.000000 0.000000 0.000000
# 2 -0.006300 0.009870 -0.006924 0.000000 0.000000 0.000000
# 3 0.004671 -0.006924 0.019097 0.000000 0.000000 0.000000
# 4 0.000000 0.000000 0.000000 0.053949 0.000000 0.000000
# 5 0.000000 0.000000 0.000000 0.000000 0.210603 0.000000
# 6 0.000000 0.000000 0.000000 0.000000 0.000000 0.075169
#
#
# Mechanical properties :
#
#
# Convention : Reuss Voigt Hill
#
# Bulk Modulus (GPa) = 15.80657 39.91333 27.85995
# Shear Modulus (GPa) = 10.91017 18.89168 14.90093
#
# Velocity S-wave (km/s) = 2.35360 3.09708 2.75058
# Velocity P-wave (km/s) = 3.92574 5.74931 4.92270
#
# Compressibility (1/GPa) = 0.06326482
#
# Stress axis : x y z
#
# Youngs Moduli (GPa) = 19.45369 101.31606 52.36350
#
# Poissons Ratio (x) = 0.63828 -0.24457
# Poissons Ratio (y) = 0.12256 0.36256
# Poissons Ratio (z) = -0.09086 0.70151
#
# Static dielectric constant tensor:
#      x y z
#    x 1.741590 0.000000 0.000000 
#    y 0.000000 1.732140 0.000000 
#    z 0.000000 0.000000 1.678330 
# 
# From -- ./inp_files/8578.got.cif
#   From: 2010.05.17/outbox.cif.g08.bks.cpg/sg51_5_cif.got.tgz:8578.got - 2010.06.03 11:52:47.
