data_PCOD9399024
_publ_section_title
;
Structure prediction by ZEFSAII (Michael W. Deem and Ramdas Pophale) SiO2 
 PCOD9399024
Probable space group: P M M A
;
_chemical_formula_sum "Si O2"
_cell_formula_units_Z 44
_cell_length_a 8.860548
_cell_length_b 22.070003
_cell_length_c 13.774363
_cell_angle_alpha 90.000000
_cell_angle_beta 90.000000
_cell_angle_gamma 90.000000
_cell_volume 2693.608654
_symmetry_space_group_name_H-M "P M M A"
_symmetry_group_IT_number 51
_symmetry_cell_setting 'orthorhombic'
loop_
_space_group_symop_operation_xyz
x,y,z
1/2-x,-y,z
1/2+x,-y,-z
-x,y,-z
-x,-y,-z
1/2+x,y,-z
1/2-x,y,z
x,-y,z
loop_
_atom_site_type_symbol
_atom_site_label
_atom_site_fract_x
_atom_site_fract_y
_atom_site_fract_z
Si Si1 0.570471 0.185228 0.899004
Si Si2 0.431749 0.632849 0.608705
Si Si3 0.431236 0.931217 0.804538
Si Si4 0.430257 0.130572 0.601159
Si Si5 0.569113 0.248061 0.697180
Si Si6 0.930897 0.500000 0.392548
O O1 0.750000 0.182650 0.907361
O O2 0.508159 0.118753 0.871821
O O3 0.532103 0.227589 0.807057
O O4 0.500000 0.205873 0.000000
O O5 0.500000 0.636865 0.500000
O O6 0.250000 0.638034 0.603545
O O7 0.499847 0.687575 0.669859
O O8 0.472152 0.565754 0.649970
O O9 0.250000 0.927137 0.816366
O O10 0.464760 0.912601 0.692890
O O11 0.478681 0.000000 0.824032
O O12 0.500000 0.109162 0.500000
O O13 0.250000 0.135676 0.592662
O O14 0.500017 0.195932 0.628347
O O15 0.750000 0.248762 0.685867
O O16 0.750000 0.500000 0.400838
O O17 0.000000 0.500000 0.500000
#
# Coordination Sequence:
#
# PCOD9399024 Si02
#       6
#     8   8   8   8   8   4
#     4  10  21  36  54  73  93 117 148 190 238 285
#     4  10  18  29  46  69  99 133 164 194 227 265
#     4   9  19  35  52  70  93 121 154 190 229 277
#     4  10  19  31  47  67  93 125 158 192 230 271
#     4  10  20  33  48  69  94 121 156 194 232 276
#     4   8  16  28  42  64  95 130 165 194 223 262
#
# _framework density 16.334963999999999
#
# number of rings (size 3 to 8) (size 9 to 14) (size 15 to 20)
#    0.000    2.364    0.000    2.727    0.000    4.727 
#    0.000    0.000    0.000    0.000    0.000    0.636 
#    0.000    0.000    0.000    0.000    0.000    0.000 
#
# Total GULP energy -245401.737950 kJ/mol
# GULP energy per Si atom -5577.312226 kJ/mol
# Density = 1.629778 g / cm^3
# Si number density = 16.334964 Si / 1000 Ang^3
#
#
#
# Elastic Constant Matrix: (Units=GPa)
#
#
# Indices 1 2 3 4 5 6 
#
# 1 39.7145 28.8815 26.5138 0.0000 0.0000 0.0000
# 2 28.8815 112.2520 17.9312 0.0000 0.0000 0.0000
# 3 26.5138 17.9312 63.9126 0.0000 0.0000 0.0000
# 4 0.0000 0.0000 0.0000 8.7482 0.0000 0.0000
# 5 0.0000 0.0000 0.0000 0.0000 27.9617 0.0000
# 6 0.0000 0.0000 0.0000 0.0000 0.0000 18.6926
#
#
#
# Elastic Compliance Matrix: (Units=1/GPa)
#
#
# Indices 1 2 3 4 5 6 
#
# 1 0.040938 -0.008187 -0.014686 0.000000 0.000000 0.000000
# 2 -0.008187 0.010964 0.000320 0.000000 0.000000 0.000000
# 3 -0.014686 0.000320 0.021649 0.000000 0.000000 0.000000
# 4 0.000000 0.000000 0.000000 0.114309 0.000000 0.000000
# 5 0.000000 0.000000 0.000000 0.000000 0.035763 0.000000
# 6 0.000000 0.000000 0.000000 0.000000 0.000000 0.053497
#
#
# Mechanical properties :
#
#
# Convention : Reuss Voigt Hill
#
# Bulk Modulus (GPa) = 35.15508 40.28135 37.71821
# Shear Modulus (GPa) = 15.07352 20.58401 17.82876
#
# Velocity S-wave (km/s) = 3.04102 3.55367 3.30729
# Velocity P-wave (km/s) = 5.82224 6.44602 6.14205
#
# Compressibility (1/GPa) = 0.02844539
#
# Stress axis : x y z
#
# Youngs Moduli (GPa) = 24.42710 91.20908 46.19173
#
# Poissons Ratio (x) = 0.74674 0.67837
# Poissons Ratio (y) = 0.19999 -0.01480
# Poissons Ratio (z) = 0.35874 -0.02922
#
# Static dielectric constant tensor:
#      x y z
#    x 1.542800 0.000000 0.000000 
#    y 0.000000 1.557230 0.000000 
#    z 0.000000 0.000000 1.534240 
# 
# From -- ./inp_files/21372.got.cif
#   From: 2010.05.17/outbox.cif.g08.bks.cpg/sg51_11_cif.got.tgz:21372.got - 2010.06.03 11:52:47.
