data_PCOD9399378
_publ_section_title
;
Structure prediction by ZEFSAII (Michael W. Deem and Ramdas Pophale) SiO2 
 PCOD9399378
Probable space group: P M M A
;
_chemical_formula_sum "Si O2"
_cell_formula_units_Z 56
_cell_length_a 19.543080
_cell_length_b 14.601740
_cell_length_c 10.119374
_cell_angle_alpha 90.000000
_cell_angle_beta 90.000000
_cell_angle_gamma 90.000000
_cell_volume 2887.694649
_symmetry_space_group_name_H-M "P M M A"
_symmetry_group_IT_number 51
_symmetry_cell_setting 'orthorhombic'
loop_
_space_group_symop_operation_xyz
x,y,z
1/2-x,-y,z
1/2+x,-y,-z
-x,y,-z
-x,-y,-z
1/2+x,y,-z
1/2-x,y,z
x,-y,z
loop_
_atom_site_type_symbol
_atom_site_label
_atom_site_fract_x
_atom_site_fract_y
_atom_site_fract_z
Si Si1 0.671539 0.800253 0.205031
Si Si2 0.357641 0.397587 0.887259
Si Si3 0.332938 0.104710 0.071384
Si Si4 0.068308 0.784285 0.565967
Si Si5 0.983273 0.397741 0.289711
Si Si6 0.173735 0.213919 0.327556
Si Si7 0.859522 0.397505 0.798173
O O1 0.750000 0.830381 0.237452
O O2 0.673870 0.689951 0.185529
O O3 0.612408 0.823809 0.310836
O O4 0.650676 0.841856 0.063035
O O5 0.331939 0.500000 0.851791
O O6 0.436455 0.395084 0.841195
O O7 0.351737 0.387501 0.044219
O O8 0.250000 0.105326 0.077686
O O9 0.355504 0.154348 0.205614
O O10 0.356328 0.000000 0.065507
O O11 0.043002 0.684282 0.617938
O O12 0.123519 0.782142 0.449990
O O13 0.000000 0.827990 0.500000
O O14 0.973674 0.500000 0.348128
O O15 0.061455 0.387607 0.246309
O O16 0.250000 0.180431 0.363078
O O17 0.178680 0.316200 0.272188
O O18 0.837204 0.500000 0.762681
#
# Coordination Sequence:
#
# PCOD9399378 Si02
#       7
#     8   8   8   8   8   8   8
#     4  10  20  36  59  87 115 146 188 238 282 329
#     4   9  17  29  50  83 117 150 187 233 283 332
#     4   9  19  39  66  90 112 143 186 233 284 346
#     4  11  22  37  56  83 112 158 192 230 278 335
#     4   9  18  32  51  76 111 156 206 238 261 318
#     4  11  22  37  56  86 119 148 184 233 289 340
#     4  10  18  30  51  82 117 153 191 232 280 331
#
# _framework density 19.392631999999999
#
# number of rings (size 3 to 8) (size 9 to 14) (size 15 to 20)
#    0.000    2.143    2.857    0.857    0.000    3.143 
#    0.000    2.857    0.000    8.571    0.000    0.000 
#    0.000    0.000    0.000    0.000    0.000    0.000 
#
# Total GULP energy -312100.509958 kJ/mol
# GULP energy per Si atom -5573.223392 kJ/mol
# Density = 1.934849 g / cm^3
# Si number density = 19.392632 Si / 1000 Ang^3
#
#
#
# Elastic Constant Matrix: (Units=GPa)
#
#
# Indices 1 2 3 4 5 6 
#
# 1 68.9321 -13.1102 3.9402 0.0000 0.0000 0.0000
# 2 -13.1102 19.7965 -18.9012 0.0000 0.0000 0.0000
# 3 3.9402 -18.9012 46.1860 0.0000 0.0000 0.0000
# 4 0.0000 0.0000 0.0000 5.1416 0.0000 0.0000
# 5 0.0000 0.0000 0.0000 0.0000 -198.9020 0.0000
# 6 0.0000 0.0000 0.0000 0.0000 0.0000 3.4474
#
#
#
# Elastic Compliance Matrix: (Units=1/GPa)
#
#
# Indices 1 2 3 4 5 6 
#
# 1 0.017350 0.016540 0.005288 0.000000 0.000000 0.000000
# 2 0.016540 0.098676 0.038971 0.000000 0.000000 0.000000
# 3 0.005288 0.038971 0.037149 0.000000 0.000000 0.000000
# 4 0.000000 0.000000 0.000000 0.194493 0.000000 0.000000
# 5 0.000000 0.000000 0.000000 0.000000 -0.005028 0.000000
# 6 0.000000 0.000000 0.000000 0.000000 0.000000 0.290076
#
#
# Mechanical properties :
#
#
# Convention : Reuss Voigt Hill
#
# Bulk Modulus (GPa) = 3.63935 8.75246 6.19591
# Shear Modulus (GPa) = 8.29587 -27.19689 -9.45051
#
# Velocity S-wave (km/s) = 2.07054 -3.74897 -2.20994
# Velocity P-wave (km/s) = 2.75625 3.77049 1.81930
#
# Compressibility (1/GPa) = 0.27477411
#
# Stress axis : x y z
#
# Youngs Moduli (GPa) = 57.63554 10.13418 26.91858
#
# Poissons Ratio (x) = -0.16762 -0.14236
# Poissons Ratio (y) = -0.95327 -1.04905
# Poissons Ratio (z) = -0.30481 -0.39494
#
# Static dielectric constant tensor:
#      x y z
#    x 1.699470 0.000000 0.000000 
#    y 0.000000 1.614630 0.000000 
#    z 0.000000 0.000000 1.669850 
# 
# From -- ./inp_files/11033.got.cif
#   From: 2010.05.17/outbox.cif.g08.bks.cpg/sg51_6_cif.got.tgz:11033.got - 2010.06.03 11:52:47.
