data_PCOD9399775
_publ_section_title
;
Structure prediction by ZEFSAII (Michael W. Deem and Ramdas Pophale) SiO2 
 PCOD9399775
Probable space group: P M M A
;
_chemical_formula_sum "Si O2"
_cell_formula_units_Z 64
_cell_length_a 30.696149
_cell_length_b 9.008643
_cell_length_c 12.457922
_cell_angle_alpha 90.000000
_cell_angle_beta 90.000000
_cell_angle_gamma 90.000000
_cell_volume 3444.997241
_symmetry_space_group_name_H-M "P M M A"
_symmetry_group_IT_number 51
_symmetry_cell_setting 'orthorhombic'
loop_
_space_group_symop_operation_xyz
x,y,z
1/2-x,-y,z
1/2+x,-y,-z
-x,y,-z
-x,-y,-z
1/2+x,y,-z
1/2-x,y,z
x,-y,z
loop_
_atom_site_type_symbol
_atom_site_label
_atom_site_fract_x
_atom_site_fract_y
_atom_site_fract_z
Si Si1 0.301820 0.664866 0.029580
Si Si2 0.353046 0.172717 0.864864
Si Si3 0.802974 0.169574 0.758952
Si Si4 0.938681 0.824955 0.998931
Si Si5 0.472292 0.319628 0.602046
Si Si6 0.698978 0.179742 0.516082
Si Si7 0.993271 0.678513 0.835687
Si Si8 0.127412 0.321563 0.639020
O O1 0.250000 0.654968 0.041477
O O2 0.319890 0.500000 0.011679
O O3 0.318446 0.733149 0.141516
O O4 0.311543 0.766090 0.927350
O O5 0.364827 0.265305 0.759865
O O6 0.349193 0.000000 0.835995
O O7 0.390729 0.189824 0.953986
O O8 0.750000 0.165789 0.761598
O O9 0.813478 0.221587 0.638696
O O10 0.818139 0.000000 0.773079
O O11 0.949307 0.744830 0.886913
O O12 0.948510 0.000000 0.990027
O O13 0.969527 0.748262 0.088108
O O14 0.500000 0.266754 0.500000
O O15 0.471963 0.500000 0.598999
O O16 0.495600 0.278621 0.713933
O O17 0.421527 0.273849 0.603953
O O18 0.750000 0.220530 0.497253
O O19 0.665159 0.252850 0.434917
O O20 0.696808 0.000000 0.509506
O O21 0.993644 0.500000 0.844484
O O22 0.129360 0.500000 0.635210
#
# Coordination Sequence:
#
# PCOD9399775 Si02
#       8
#     8   8   8   8   8   8   8   8
#     4  10  21  36  56  84 115 145 184 235 284 333
#     4  11  23  38  57  78 110 153 190 230 285 346
#     4   8  15  32  57  79 105 145 186 223 271 333
#     4  10  20  34  54  80 110 138 176 229 275 321
#     4   9  19  37  58  81 113 150 186 226 280 342
#     4   9  19  37  60  85 116 155 195 233 279 341
#     4  10  18  32  58  83 106 141 181 219 269 332
#     4  11  22  37  59  84 114 148 192 246 288 333
#
# _framework density 18.577663999999999
#
# number of rings (size 3 to 8) (size 9 to 14) (size 15 to 20)
#    0.000    2.250    1.250    3.375    0.000    3.500 
#    2.250    1.250    0.000    5.250    0.000    0.000 
#    0.000    0.000    0.000    0.000    0.000    0.000 
#
# Total GULP energy -356874.690494 kJ/mol
# GULP energy per Si atom -5576.167039 kJ/mol
# Density = 1.853538 g / cm^3
# Si number density = 18.577664 Si / 1000 Ang^3
#
#
#
# Elastic Constant Matrix: (Units=GPa)
#
#
# Indices 1 2 3 4 5 6 
#
# 1 55.8351 31.5355 65.8540 0.0000 0.0000 0.0000
# 2 31.5355 58.4070 40.2267 0.0000 0.0000 0.0000
# 3 65.8540 40.2267 128.9931 0.0000 0.0000 0.0000
# 4 0.0000 0.0000 0.0000 24.2634 0.0000 0.0000
# 5 0.0000 0.0000 0.0000 0.0000 27.8613 0.0000
# 6 0.0000 0.0000 0.0000 0.0000 0.0000 16.8247
#
#
#
# Elastic Compliance Matrix: (Units=1/GPa)
#
#
# Indices 1 2 3 4 5 6 
#
# 1 0.051079 -0.012250 -0.022257 0.000000 0.000000 0.000000
# 2 -0.012250 0.024742 -0.001462 0.000000 0.000000 0.000000
# 3 -0.022257 -0.001462 0.019571 0.000000 0.000000 0.000000
# 4 0.000000 0.000000 0.000000 0.041214 0.000000 0.000000
# 5 0.000000 0.000000 0.000000 0.000000 0.035892 0.000000
# 6 0.000000 0.000000 0.000000 0.000000 0.000000 0.059437
#
#
# Mechanical properties :
#
#
# Convention : Reuss Voigt Hill
#
# Bulk Modulus (GPa) = 42.63559 57.60751 50.12155
# Shear Modulus (GPa) = 16.04147 20.83114 18.43630
#
# Velocity S-wave (km/s) = 2.94169 3.35221 3.15364
# Velocity P-wave (km/s) = 5.87689 6.78671 6.34812
#
# Compressibility (1/GPa) = 0.02345458
#
# Stress axis : x y z
#
# Youngs Moduli (GPa) = 19.57734 40.41664 51.09593
#
# Poissons Ratio (x) = 0.49511 1.13725
# Poissons Ratio (y) = 0.23982 0.07470
# Poissons Ratio (z) = 0.43573 0.05909
#
# Static dielectric constant tensor:
#      x y z
#    x 1.675130 0.000000 0.000000 
#    y 0.000000 1.639570 0.000000 
#    z 0.000000 0.000000 1.631110 
# 
# From -- ./inp_files/19630.got.cif
#   From: 2010.05.17/outbox.cif.g08.bks.cpg/sg51_10_cif.got.tgz:19630.got - 2010.06.03 11:52:47.
