data_PCOD9399292
_publ_section_title
;
Structure prediction by ZEFSAII (Michael W. Deem and Ramdas Pophale) SiO2 
 PCOD9399292
Probable space group: P M M A
;
_chemical_formula_sum "Si O2"
_cell_formula_units_Z 56
_cell_length_a 7.900412
_cell_length_b 14.948928
_cell_length_c 22.262769
_cell_angle_alpha 90.000000
_cell_angle_beta 90.000000
_cell_angle_gamma 90.000000
_cell_volume 2629.292909
_symmetry_space_group_name_H-M "P M M A"
_symmetry_group_IT_number 51
_symmetry_cell_setting 'orthorhombic'
loop_
_space_group_symop_operation_xyz
x,y,z
1/2-x,-y,z
1/2+x,-y,-z
-x,y,-z
-x,-y,-z
1/2+x,y,-z
1/2-x,y,z
x,-y,z
loop_
_atom_site_type_symbol
_atom_site_label
_atom_site_fract_x
_atom_site_fract_y
_atom_site_fract_z
Si Si1 0.452646 0.736161 0.191286
Si Si2 0.559087 0.363037 0.567307
Si Si3 0.452239 0.000000 0.431945
Si Si4 0.955042 0.397553 0.703607
Si Si5 0.054587 0.187910 0.613647
Si Si6 0.050228 0.000000 0.930483
Si Si7 0.544889 0.895757 0.267402
Si Si8 0.949592 0.200379 0.930223
O O1 0.250000 0.722240 0.190242
O O2 0.519292 0.668499 0.243396
O O3 0.490191 0.838234 0.210964
O O4 0.518730 0.734152 0.122374
O O5 0.500000 0.389271 0.500000
O O6 0.750000 0.395179 0.570206
O O7 0.481558 0.386319 0.633700
O O8 0.546754 0.255471 0.572085
O O9 0.500000 0.000000 0.500000
O O10 0.540771 0.912490 0.407872
O O11 0.250000 0.000000 0.420712
O O12 0.750000 0.384905 0.699868
O O13 0.988483 0.500000 0.720632
O O14 0.250000 0.217099 0.614511
O O15 0.981737 0.171248 0.679854
O O16 0.986164 0.902694 0.911249
O O17 0.250000 0.000000 0.921166
O O18 0.000000 0.000000 0.000000
O O19 0.750000 0.898181 0.271786
O O20 0.487666 0.000000 0.270403
O O21 0.750000 0.211348 0.929694
O O22 0.000000 0.213397 0.000000
#
# Coordination Sequence:
#
# PCOD9399292 Si02
#       8
#     8   8   4   8   8   4   8   8
#     4  10  21  37  59  86 113 147 192 236 280 334
#     4  11  22  37  58  83 111 144 183 229 285 343
#     4  12  24  36  51  72 101 142 190 236 282 332
#     4   9  19  38  63  88 113 143 185 237 291 346
#     4  11  21  37  55  75 107 144 185 232 281 337
#     4  10  18  30  49  74 111 156 198 234 272 322
#     4  10  21  36  54  79 112 149 187 230 281 335
#     4  10  20  34  53  80 115 152 192 235 275 326
#
# _framework density 21.298501000000002
#
# number of rings (size 3 to 8) (size 9 to 14) (size 15 to 20)
#    0.000    1.714    2.143    3.857    1.000    2.286 
#    0.000    0.000    0.000    3.857    0.000    0.000 
#    0.000    0.000    0.000    0.000    0.000    0.571 
#
# Total GULP energy -311763.881301 kJ/mol
# GULP energy per Si atom -5567.212166 kJ/mol
# Density = 2.125003 g / cm^3
# Si number density = 21.298501 Si / 1000 Ang^3
#
#
#
# Elastic Constant Matrix: (Units=GPa)
#
#
# Indices 1 2 3 4 5 6 
#
# 1 40.9787 8.1930 14.2020 0.0000 0.0000 0.0000
# 2 8.1930 101.2993 58.0735 0.0000 0.0000 0.0000
# 3 14.2020 58.0735 194.4050 0.0000 0.0000 0.0000
# 4 0.0000 0.0000 0.0000 -90.3744 0.0000 0.0000
# 5 0.0000 0.0000 0.0000 0.0000 13.9436 0.0000
# 6 0.0000 0.0000 0.0000 0.0000 0.0000 6.6274
#
#
#
# Elastic Compliance Matrix: (Units=1/GPa)
#
#
# Indices 1 2 3 4 5 6 
#
# 1 0.025154 -0.001184 -0.001484 0.000000 0.000000 0.000000
# 2 -0.001184 0.011967 -0.003488 0.000000 0.000000 0.000000
# 3 -0.001484 -0.003488 0.006294 0.000000 0.000000 0.000000
# 4 0.000000 0.000000 0.000000 -0.011065 0.000000 0.000000
# 5 0.000000 0.000000 0.000000 0.000000 0.071718 0.000000
# 6 0.000000 0.000000 0.000000 0.000000 0.000000 0.150888
#
#
# Mechanical properties :
#
#
# Convention : Reuss Voigt Hill
#
# Bulk Modulus (GPa) = 32.15086 55.29111 43.72098
# Shear Modulus (GPa) = 18.00915 3.12027 10.56471
#
# Velocity S-wave (km/s) = 2.91101 1.21169 2.22959
# Velocity P-wave (km/s) = 5.14069 5.28905 5.21540
#
# Compressibility (1/GPa) = 0.03110337
#
# Stress axis : x y z
#
# Youngs Moduli (GPa) = 39.75530 83.56058 158.87133
#
# Poissons Ratio (x) = 0.09891 0.23576
# Poissons Ratio (y) = 0.04706 0.55422
# Poissons Ratio (z) = 0.05900 0.29150
#
# Static dielectric constant tensor:
#      x y z
#    x 1.818900 0.000000 0.000000 
#    y 0.000000 1.782430 0.000000 
#    z 0.000000 0.000000 1.943500 
# 
# From -- ./inp_files/32129.got.cif
#   From: 2010.05.17/outbox.cif.g08.bks.cpg/sg51_17_cif.got.tgz:32129.got - 2010.06.03 11:52:47.
