data_PCOD9399679
_publ_section_title
;
Structure prediction by ZEFSAII (Michael W. Deem and Ramdas Pophale) SiO2 
 PCOD9399679
Probable space group: P M M A
;
_chemical_formula_sum "Si O2"
_cell_formula_units_Z 64
_cell_length_a 20.052371
_cell_length_b 7.931131
_cell_length_c 21.302122
_cell_angle_alpha 90.000000
_cell_angle_beta 90.000000
_cell_angle_gamma 90.000000
_cell_volume 3387.846479
_symmetry_space_group_name_H-M "P M M A"
_symmetry_group_IT_number 51
_symmetry_cell_setting 'orthorhombic'
loop_
_space_group_symop_operation_xyz
x,y,z
1/2-x,-y,z
1/2+x,-y,-z
-x,y,-z
-x,-y,-z
1/2+x,y,-z
1/2-x,y,z
x,-y,z
loop_
_atom_site_type_symbol
_atom_site_label
_atom_site_fract_x
_atom_site_fract_y
_atom_site_fract_z
Si Si1 0.539319 0.703642 0.937818
Si Si2 0.675139 0.298190 0.493788
Si Si3 0.535763 0.792491 0.686918
Si Si4 0.175727 0.702532 0.864620
Si Si5 0.675581 0.294125 0.990647
Si Si6 0.537128 0.199419 0.188328
Si Si7 0.961079 0.202021 0.438660
Si Si8 0.324409 0.201522 0.361793
O O1 0.538696 0.500000 0.939001
O O2 0.615498 0.761854 0.946461
O O3 0.503104 0.755670 0.874545
O O4 0.500000 0.761331 0.000000
O O5 0.750000 0.240867 0.476434
O O6 0.675064 0.500000 0.496141
O O7 0.616526 0.241001 0.448129
O O8 0.661632 0.233472 0.564468
O O9 0.500073 0.731738 0.750141
O O10 0.494075 0.737485 0.625710
O O11 0.612406 0.736100 0.677772
O O12 0.536466 0.000000 0.687286
O O13 0.250000 0.762907 0.846244
O O14 0.178107 0.500000 0.866689
O O15 0.113810 0.748701 0.821382
O O16 0.163094 0.758100 0.936887
O O17 0.750000 0.239265 0.972856
O O18 0.675422 0.500000 0.990701
O O19 0.536905 0.000000 0.194614
O O20 0.000000 0.269151 0.500000
O O21 0.968875 0.000000 0.438774
O O22 0.250000 0.270217 0.348052
O O23 0.321608 0.000000 0.353270
#
# Coordination Sequence:
#
# PCOD9399679 Si02
#       8
#     8   8   8   8   8   8   8   8
#     4  10  18  32  54  76 100 132 176 219 253 300
#     4  10  20  32  48  77 113 137 160 208 270 317
#     4   9  19  35  51  75 106 135 170 214 260 305
#     4   9  17  33  56  77  98 130 175 217 252 302
#     4   8  14  27  50  76  98 125 166 217 261 293
#     4  11  22  34  50  75 112 143 166 208 266 318
#     4  10  18  33  57  77  96 129 176 220 250 297
#     4   9  16  31  56  77  95 131 182 220 247 296
#
# _framework density 18.891057
#
# number of rings (size 3 to 8) (size 9 to 14) (size 15 to 20)
#    0.000    2.500    2.500    1.500    0.000    1.500 
#    0.000    3.750    0.000    4.875    0.000    0.000 
#    0.000    0.000    0.000    0.000    0.000    0.000 
#
# Total GULP energy -356875.979617 kJ/mol
# GULP energy per Si atom -5576.187182 kJ/mol
# Density = 1.884806 g / cm^3
# Si number density = 18.891057 Si / 1000 Ang^3
#
#
#
# Elastic Constant Matrix: (Units=GPa)
#
#
# Indices 1 2 3 4 5 6 
#
# 1 189.6909 7.7132 94.0211 0.0000 0.0000 0.0000
# 2 7.7132 13.7749 8.3627 0.0000 0.0000 0.0000
# 3 94.0211 8.3627 116.7353 0.0000 0.0000 0.0000
# 4 0.0000 0.0000 0.0000 22.5766 0.0000 0.0000
# 5 0.0000 0.0000 0.0000 0.0000 27.1664 0.0000
# 6 0.0000 0.0000 0.0000 0.0000 0.0000 14.9996
#
#
#
# Elastic Compliance Matrix: (Units=1/GPa)
#
#
# Indices 1 2 3 4 5 6 
#
# 1 0.008780 -0.000652 -0.007025 0.000000 0.000000 0.000000
# 2 -0.000652 0.075945 -0.004916 0.000000 0.000000 0.000000
# 3 -0.007025 -0.004916 0.014577 0.000000 0.000000 0.000000
# 4 0.000000 0.000000 0.000000 0.044294 0.000000 0.000000
# 5 0.000000 0.000000 0.000000 0.000000 0.036810 0.000000
# 6 0.000000 0.000000 0.000000 0.000000 0.000000 0.066669
#
#
# Mechanical properties :
#
#
# Convention : Reuss Voigt Hill
#
# Bulk Modulus (GPa) = 13.49221 60.04390 36.76805
# Shear Modulus (GPa) = 16.83702 26.95545 21.89623
#
# Velocity S-wave (km/s) = 2.98865 3.78152 3.40822
# Velocity P-wave (km/s) = 4.36658 7.13581 5.91552
#
# Compressibility (1/GPa) = 0.07411683
#
# Stress axis : x y z
#
# Youngs Moduli (GPa) = 113.89183 13.16748 68.60253
#
# Poissons Ratio (x) = 0.00858 0.48194
# Poissons Ratio (y) = 0.07421 0.33723
# Poissons Ratio (z) = 0.80010 0.06473
#
# Static dielectric constant tensor:
#      x y z
#    x 1.702410 0.000000 0.000000 
#    y 0.000000 1.687270 0.000000 
#    z 0.000000 0.000000 1.625990 
# 
# From -- ./inp_files/30519.got.cif
#   From: 2010.05.17/outbox.cif.g08.bks.cpg/sg51_16_cif.got.tgz:30519.got - 2010.06.03 11:52:47.
