data_PCOD9399093
_publ_section_title
;
Structure prediction by ZEFSAII (Michael W. Deem and Ramdas Pophale) SiO2 
 PCOD9399093
Probable space group: P M M A
;
_chemical_formula_sum "Si O2"
_cell_formula_units_Z 64
_cell_length_a 8.756041
_cell_length_b 14.848735
_cell_length_c 29.037801
_cell_angle_alpha 90.000000
_cell_angle_beta 90.000000
_cell_angle_gamma 90.000000
_cell_volume 3775.382581
_symmetry_space_group_name_H-M "P M M A"
_symmetry_group_IT_number 51
_symmetry_cell_setting 'orthorhombic'
loop_
_space_group_symop_operation_xyz
x,y,z
1/2-x,-y,z
1/2+x,-y,-z
-x,y,-z
-x,-y,-z
1/2+x,y,-z
1/2-x,y,z
x,-y,z
loop_
_atom_site_type_symbol
_atom_site_label
_atom_site_fract_x
_atom_site_fract_y
_atom_site_fract_z
Si Si1 0.932669 0.103767 0.949742
Si Si2 0.569377 0.892346 0.783447
Si Si3 0.068359 0.394178 0.276921
Si Si4 0.433917 0.397744 0.822305
Si Si5 0.065170 0.718188 0.366827
Si Si6 0.435980 0.101756 0.321783
Si Si7 0.432180 0.782326 0.867077
Si Si8 0.432796 0.603810 0.550402
O O1 0.750000 0.107431 0.951650
O O2 0.992732 0.170441 0.910843
O O3 0.977044 0.000000 0.938332
O O4 0.000000 0.124405 0.000000
O O5 0.750000 0.870457 0.787637
O O6 0.520620 0.873510 0.730775
O O7 0.478151 0.838509 0.821692
O O8 0.554311 0.000000 0.790330
O O9 0.250000 0.380738 0.270808
O O10 0.041144 0.500000 0.286060
O O11 0.019875 0.336888 0.320922
O O12 0.988171 0.371550 0.228927
O O13 0.250000 0.399259 0.822441
O O14 0.488587 0.500000 0.831525
O O15 0.483526 0.320449 0.857603
O O16 0.250000 0.714606 0.370150
O O17 0.017578 0.821156 0.357271
O O18 0.995571 0.671028 0.411227
O O19 0.250000 0.100095 0.321323
O O20 0.488056 0.000000 0.331740
O O21 0.250000 0.783552 0.872567
O O22 0.500000 0.623659 0.500000
O O23 0.250000 0.608294 0.548601
O O24 0.476746 0.500000 0.561941
#
# Coordination Sequence:
#
# PCOD9399093 Si02
#       8
#     8   8   8   8   8   8   8   8
#     4  10  21  37  56  77 101 127 154 189 236 289
#     4   9  17  30  48  70  98 132 167 200 235 280
#     4   9  17  28  44  69  98 127 162 202 241 283
#     4   9  19  34  48  65  95 134 171 205 240 277
#     4  10  18  29  49  73  97 127 161 198 239 283
#     4   8  15  28  46  69  97 130 167 202 235 274
#     4  11  21  31  48  73  99 129 164 202 243 285
#     4  10  21  36  53  73  97 123 151 188 236 289
#
# _framework density 16.951923000000001
#
# number of rings (size 3 to 8) (size 9 to 14) (size 15 to 20)
#    0.000    2.500    0.000    3.375    0.000    6.250 
#    0.000    1.875    0.000    1.875    0.000    0.000 
#    0.000    0.000    0.000    0.000    0.000    0.000 
#
# Total GULP energy -357050.798108 kJ/mol
# GULP energy per Si atom -5578.918720 kJ/mol
# Density = 1.691334 g / cm^3
# Si number density = 16.951923 Si / 1000 Ang^3
#
#
#
# Elastic Constant Matrix: (Units=GPa)
#
#
# Indices 1 2 3 4 5 6 
#
# 1 23.3125 35.8298 33.4508 0.0000 0.0000 0.0000
# 2 35.8298 112.8370 102.9392 0.0000 0.0000 0.0000
# 3 33.4508 102.9392 122.6771 0.0000 0.0000 0.0000
# 4 0.0000 0.0000 0.0000 32.6083 0.0000 0.0000
# 5 0.0000 0.0000 0.0000 0.0000 29.3864 0.0000
# 6 0.0000 0.0000 0.0000 0.0000 0.0000 19.0186
#
#
#
# Elastic Compliance Matrix: (Units=1/GPa)
#
#
# Indices 1 2 3 4 5 6 
#
# 1 0.083928 -0.024617 -0.002229 0.000000 0.000000 0.000000
# 2 -0.024617 0.045013 -0.031059 0.000000 0.000000 0.000000
# 3 -0.002229 -0.031059 0.034821 0.000000 0.000000 0.000000
# 4 0.000000 0.000000 0.000000 0.030667 0.000000 0.000000
# 5 0.000000 0.000000 0.000000 0.000000 0.034029 0.000000
# 6 0.000000 0.000000 0.000000 0.000000 0.000000 0.052580
#
#
# Mechanical properties :
#
#
# Convention : Reuss Voigt Hill
#
# Bulk Modulus (GPa) = 20.85357 67.02959 43.94158
# Shear Modulus (GPa) = 12.11149 21.97646 17.04397
#
# Velocity S-wave (km/s) = 2.67584 3.60446 3.17429
# Velocity P-wave (km/s) = 4.67709 7.54650 6.27793
#
# Compressibility (1/GPa) = 0.04795342
#
# Stress axis : x y z
#
# Youngs Moduli (GPa) = 11.91501 22.21563 28.71856
#
# Poissons Ratio (x) = 0.54688 0.06400
# Poissons Ratio (y) = 0.29331 0.89196
# Poissons Ratio (z) = 0.02655 0.68999
#
# Static dielectric constant tensor:
#      x y z
#    x 1.572110 0.000000 0.000000 
#    y 0.000000 1.601820 0.000000 
#    z 0.000000 0.000000 1.536020 
# 
# From -- ./inp_files/34896.got.cif
#   From: 2010.05.17/outbox.cif.g08.bks.cpg/sg51_18_cif.got.tgz:34896.got - 2010.06.03 11:52:47.
