data_PCOD9399236
_publ_section_title
;
Structure prediction by ZEFSAII (Michael W. Deem and Ramdas Pophale) SiO2 
 PCOD9399236
Probable space group: P M M A
;
_chemical_formula_sum "Si O2"
_cell_formula_units_Z 52
_cell_length_a 8.586949
_cell_length_b 24.050940
_cell_length_c 14.774904
_cell_angle_alpha 90.000000
_cell_angle_beta 90.000000
_cell_angle_gamma 90.000000
_cell_volume 3051.375157
_symmetry_space_group_name_H-M "P M M A"
_symmetry_group_IT_number 51
_symmetry_cell_setting 'orthorhombic'
loop_
_space_group_symop_operation_xyz
x,y,z
1/2-x,-y,z
1/2+x,-y,-z
-x,y,-z
-x,-y,-z
1/2+x,y,-z
1/2-x,y,z
x,-y,z
loop_
_atom_site_type_symbol
_atom_site_label
_atom_site_fract_x
_atom_site_fract_y
_atom_site_fract_z
Si Si1 0.936786 0.383597 0.897700
Si Si2 0.061788 0.169075 0.101178
Si Si3 0.564342 0.500000 0.102810
Si Si4 0.561973 0.276142 0.780467
Si Si5 0.936732 0.889766 0.596200
Si Si6 0.435195 0.764303 0.596078
Si Si7 0.060155 0.938348 0.212581
O O1 0.750000 0.386897 0.902745
O O2 0.981021 0.331275 0.835925
O O3 0.001698 0.441814 0.859105
O O4 0.000000 0.376025 0.000000
O O5 0.250000 0.168745 0.099105
O O6 0.014149 0.221715 0.162089
O O7 0.008148 0.111792 0.148188
O O8 0.000000 0.174190 0.000000
O O9 0.750000 0.500000 0.101753
O O10 0.500000 0.500000 0.000000
O O11 0.750000 0.274816 0.771908
O O12 0.488808 0.271520 0.681518
O O13 0.750000 0.888634 0.592687
O O14 0.985134 0.924571 0.684079
O O15 0.000000 0.910570 0.500000
O O16 0.995889 0.826557 0.608298
O O17 0.500000 0.743425 0.500000
O O18 0.250000 0.768178 0.591701
O O19 0.250000 0.938012 0.210767
O O20 0.007630 0.000000 0.185944
#
# Coordination Sequence:
#
# PCOD9399236 Si02
#       7
#     8   8   4   8   8   8   8
#     4  10  19  31  50  75 108 143 180 216 256 301
#     4  10  20  35  52  71  98 129 166 209 255 303
#     4  10  18  30  48  70 105 144 183 218 254 296
#     4  10  20  35  53  76 104 136 169 210 257 303
#     4  10  18  32  52  73  99 126 160 200 252 311
#     4  11  21  33  53  77 103 132 165 204 252 307
#     4   9  18  33  52  70  94 131 167 203 253 310
#
# _framework density 17.041498000000001
#
# number of rings (size 3 to 8) (size 9 to 14) (size 15 to 20)
#    0.000    2.000    1.538    5.308    0.000    2.462 
#    0.000    0.000    0.000    3.231    0.000    0.538 
#    0.000    0.000    0.000    0.000    0.000    0.000 
#
# Total GULP energy -290218.229041 kJ/mol
# GULP energy per Si atom -5581.119789 kJ/mol
# Density = 1.700271 g / cm^3
# Si number density = 17.041498 Si / 1000 Ang^3
#
#
#
# Elastic Constant Matrix: (Units=GPa)
#
#
# Indices 1 2 3 4 5 6 
#
# 1 48.8944 35.6504 29.9331 0.0000 0.0000 0.0000
# 2 35.6504 135.5253 68.0030 0.0000 0.0000 0.0000
# 3 29.9331 68.0030 115.9052 0.0000 0.0000 0.0000
# 4 0.0000 0.0000 0.0000 24.7675 0.0000 0.0000
# 5 0.0000 0.0000 0.0000 0.0000 29.2840 0.0000
# 6 0.0000 0.0000 0.0000 0.0000 0.0000 -11.5545
#
#
#
# Elastic Compliance Matrix: (Units=1/GPa)
#
#
# Indices 1 2 3 4 5 6 
#
# 1 0.026495 -0.005012 -0.003902 0.000000 0.000000 0.000000
# 2 -0.005012 0.011405 -0.005397 0.000000 0.000000 0.000000
# 3 -0.003902 -0.005397 0.012802 0.000000 0.000000 0.000000
# 4 0.000000 0.000000 0.000000 0.040376 0.000000 0.000000
# 5 0.000000 0.000000 0.000000 0.000000 0.034148 0.000000
# 6 0.000000 0.000000 0.000000 0.000000 0.000000 -0.086546
#
#
# Mechanical properties :
#
#
# Convention : Reuss Voigt Hill
#
# Bulk Modulus (GPa) = 45.28891 63.05530 54.17211
# Shear Modulus (GPa) = 66.96783 19.61528 43.29156
#
# Velocity S-wave (km/s) = 6.27553 3.39636 5.04567
# Velocity P-wave (km/s) = 8.89623 7.24305 8.11187
#
# Compressibility (1/GPa) = 0.02208046
#
# Stress axis : x y z
#
# Youngs Moduli (GPa) = 37.74254 87.67876 78.11183
#
# Poissons Ratio (x) = 0.43942 0.30480
# Poissons Ratio (y) = 0.18915 0.42159
# Poissons Ratio (z) = 0.14728 0.47323
#
# Static dielectric constant tensor:
#      x y z
#    x 1.576540 0.000000 0.000000 
#    y 0.000000 1.589610 0.000000 
#    z 0.000000 0.000000 1.558070 
# 
# From -- ./inp_files/22072.got.cif
#   From: 2010.05.17/outbox.cif.g08.bks.cpg/sg51_12_cif.got.tgz:22072.got - 2010.06.03 11:52:47.
