data_PCOD9399382
_publ_section_title
;
Structure prediction by ZEFSAII (Michael W. Deem and Ramdas Pophale) SiO2 
 PCOD9399382
Probable space group: P M M A
;
_chemical_formula_sum "Si O2"
_cell_formula_units_Z 52
_cell_length_a 8.544657
_cell_length_b 19.414544
_cell_length_c 20.026332
_cell_angle_alpha 90.000000
_cell_angle_beta 90.000000
_cell_angle_gamma 90.000000
_cell_volume 3322.180618
_symmetry_space_group_name_H-M "P M M A"
_symmetry_group_IT_number 51
_symmetry_cell_setting 'orthorhombic'
loop_
_space_group_symop_operation_xyz
x,y,z
1/2-x,-y,z
1/2+x,-y,-z
-x,y,-z
-x,-y,-z
1/2+x,y,-z
1/2-x,y,z
x,-y,z
loop_
_atom_site_type_symbol
_atom_site_label
_atom_site_fract_x
_atom_site_fract_y
_atom_site_fract_z
Si Si1 0.063258 0.921023 0.926356
Si Si2 0.432638 0.000000 0.275345
Si Si3 0.066521 0.146530 0.431763
Si Si4 0.566641 0.765465 0.318780
Si Si5 0.067935 0.000000 0.586139
Si Si6 0.937748 0.500000 0.575688
Si Si7 0.066539 0.853466 0.200967
Si Si8 0.438709 0.647385 0.577037
O O1 0.250000 0.922698 0.927974
O O2 0.010619 0.866435 0.870856
O O3 0.008009 0.000000 0.910145
O O4 0.000000 0.904971 0.000000
O O5 0.453577 0.928441 0.236202
O O6 0.250000 0.000000 0.299723
O O7 0.557151 0.000000 0.334089
O O8 0.250000 0.160510 0.423908
O O9 0.000000 0.178465 0.500000
O O10 0.968152 0.172442 0.369413
O O11 0.030386 0.066227 0.434639
O O12 0.750000 0.754613 0.308369
O O13 0.495378 0.792285 0.248936
O O14 0.508228 0.701954 0.365881
O O15 0.250000 0.000000 0.564702
O O16 0.750000 0.500000 0.577392
O O17 0.000000 0.500000 0.500000
O O18 0.004343 0.427753 0.601690
O O19 0.250000 0.842404 0.192147
O O20 0.500000 0.658062 0.500000
O O21 0.250000 0.649793 0.572878
#
# Coordination Sequence:
#
# PCOD9399382 Si02
#       8
#     8   4   8   8   4   4   8   8
#     4  10  20  33  51  73  97 123 158 202 248 295
#     4  10  20  33  48  67  88 117 154 195 242 288
#     4  12  24  37  49  62  83 111 149 196 244 287
#     4  11  23  36  50  70  94 124 159 194 238 288
#     4  12  23  35  50  63  80 107 148 197 242 288
#     4  10  18  30  52  76  98 124 157 194 237 288
#     4  11  21  34  52  70  95 125 158 199 244 293
#     4  10  20  34  52  73  99 127 160 201 242 288
#
# _framework density 15.652371
#
# number of rings (size 3 to 8) (size 9 to 14) (size 15 to 20)
#    0.000    1.231    2.308    6.231    0.000    4.923 
#    0.000    0.000    0.000    0.000    0.000    0.000 
#    0.000    0.000    0.000    0.692    0.000    9.077 
#
# Total GULP energy -289907.874726 kJ/mol
# GULP energy per Si atom -5575.151437 kJ/mol
# Density = 1.561675 g / cm^3
# Si number density = 15.652371 Si / 1000 Ang^3
#
#
#
# Elastic Constant Matrix: (Units=GPa)
#
#
# Indices 1 2 3 4 5 6 
#
# 1 48.9858 12.7144 30.8539 0.0000 0.0000 0.0000
# 2 12.7144 93.0772 35.9320 0.0000 0.0000 0.0000
# 3 30.8539 35.9320 102.1406 0.0000 0.0000 0.0000
# 4 0.0000 0.0000 0.0000 -6.8557 0.0000 0.0000
# 5 0.0000 0.0000 0.0000 0.0000 26.7500 0.0000
# 6 0.0000 0.0000 0.0000 0.0000 0.0000 16.8962
#
#
#
# Elastic Compliance Matrix: (Units=1/GPa)
#
#
# Indices 1 2 3 4 5 6 
#
# 1 0.025238 -0.000584 -0.007418 0.000000 0.000000 0.000000
# 2 -0.000584 0.012446 -0.004202 0.000000 0.000000 0.000000
# 3 -0.007418 -0.004202 0.013510 0.000000 0.000000 0.000000
# 4 0.000000 0.000000 0.000000 -0.145865 0.000000 0.000000
# 5 0.000000 0.000000 0.000000 0.000000 0.037383 0.000000
# 6 0.000000 0.000000 0.000000 0.000000 0.000000 0.059185
#
#
# Mechanical properties :
#
#
# Convention : Reuss Voigt Hill
#
# Bulk Modulus (GPa) = 37.33408 44.80047 41.06728
# Shear Modulus (GPa) = 141.91385 18.33833 80.12609
#
# Velocity S-wave (km/s) = 9.53220 3.42658 7.16255
# Velocity P-wave (km/s) = 12.04385 6.65880 9.73123
#
# Compressibility (1/GPa) = 0.02678518
#
# Stress axis : x y z
#
# Youngs Moduli (GPa) = 39.62269 80.34945 74.02188
#
# Poissons Ratio (x) = 0.04690 0.54912
# Poissons Ratio (y) = 0.02313 0.31103
# Poissons Ratio (z) = 0.29394 0.33762
#
# Static dielectric constant tensor:
#      x y z
#    x 1.525680 0.000000 0.000000 
#    y 0.000000 1.634780 0.000000 
#    z 0.000000 0.000000 1.539140 
# 
# From -- ./inp_files/27991.got.cif
#   From: 2010.05.17/outbox.cif.g08.bks.cpg/sg51_14_cif.got.tgz:27991.got - 2010.06.03 11:52:47.
