data_PCOD9399822
_publ_section_title
;
Structure prediction by ZEFSAII (Michael W. Deem and Ramdas Pophale) SiO2 
 PCOD9399822
Probable space group: P M M A
;
_chemical_formula_sum "Si O2"
_cell_formula_units_Z 40
_cell_length_a 18.645145
_cell_length_b 7.447607
_cell_length_c 12.739162
_cell_angle_alpha 90.000000
_cell_angle_beta 90.000000
_cell_angle_gamma 90.000000
_cell_volume 1768.981850
_symmetry_space_group_name_H-M "P M M A"
_symmetry_group_IT_number 51
_symmetry_cell_setting 'orthorhombic'
loop_
_space_group_symop_operation_xyz
x,y,z
1/2-x,-y,z
1/2+x,-y,-z
-x,y,-z
-x,-y,-z
1/2+x,y,-z
1/2-x,y,z
x,-y,z
loop_
_atom_site_type_symbol
_atom_site_label
_atom_site_fract_x
_atom_site_fract_y
_atom_site_fract_z
Si Si1 0.579999 0.783010 0.466766
Si Si2 0.668870 0.290082 0.670807
Si Si3 0.410659 0.219433 0.770764
Si Si4 0.562617 0.795367 0.853149
Si Si5 0.829772 0.780550 0.027118
O O1 0.500000 0.723054 0.500000
O O2 0.636842 0.728120 0.554485
O O3 0.597534 0.721137 0.349084
O O4 0.578693 0.000000 0.466254
O O5 0.750000 0.220050 0.677550
O O6 0.670034 0.500000 0.698013
O O7 0.614572 0.201758 0.752511
O O8 0.486979 0.283193 0.817238
O O9 0.350116 0.269173 0.854255
O O10 0.412837 0.000000 0.767327
O O11 0.546038 0.000000 0.885162
O O12 0.608674 0.715395 0.947974
O O13 0.750000 0.721218 0.997201
O O14 0.829799 0.000000 0.021269
#
# Coordination Sequence:
#
# PCOD9399822 Si02
#       5
#     8   8   8   8   8
#     4  10  19  35  57  82 108 139 181 225 268 319
#     4  11  24  38  53  78 111 145 181 223 272 322
#     4   9  17  30  51  79 110 138 172 222 273 320
#     4  10  18  33  56  80 106 138 179 225 268 317
#     4   9  17  28  47  79 112 140 173 216 272 328
#
# _framework density 22.611875999999999
#
# number of rings (size 3 to 8) (size 9 to 14) (size 15 to 20)
#    0.000    2.200    2.000    1.800    0.000    6.000 
#    0.000    2.000    0.000    3.600    0.000    2.800 
#    0.000    0.000    0.000    0.000    0.000    0.000 
#
# Total GULP energy -223561.847539 kJ/mol
# GULP energy per Si atom -5589.046188 kJ/mol
# Density = 2.256041 g / cm^3
# Si number density = 22.611876 Si / 1000 Ang^3
#
#
#
# Elastic Constant Matrix: (Units=GPa)
#
#
# Indices 1 2 3 4 5 6 
#
# 1 54.1233 -5.2653 -3.3065 0.0000 0.0000 0.0000
# 2 -5.2653 72.4255 -5.8636 0.0000 0.0000 0.0000
# 3 -3.3065 -5.8636 115.7776 0.0000 0.0000 0.0000
# 4 0.0000 0.0000 0.0000 -172.5446 0.0000 0.0000
# 5 0.0000 0.0000 0.0000 0.0000 113.8107 0.0000
# 6 0.0000 0.0000 0.0000 0.0000 0.0000 11.2628
#
#
#
# Elastic Compliance Matrix: (Units=1/GPa)
#
#
# Indices 1 2 3 4 5 6 
#
# 1 0.018650 0.001405 0.000604 0.000000 0.000000 0.000000
# 2 0.001405 0.013970 0.000748 0.000000 0.000000 0.000000
# 3 0.000604 0.000748 0.008692 0.000000 0.000000 0.000000
# 4 0.000000 0.000000 0.000000 -0.005796 0.000000 0.000000
# 5 0.000000 0.000000 0.000000 0.000000 0.008787 0.000000
# 6 0.000000 0.000000 0.000000 0.000000 0.000000 0.088788
#
#
# Mechanical properties :
#
#
# Convention : Reuss Voigt Hill
#
# Bulk Modulus (GPa) = 21.35642 23.71731 22.53686
# Shear Modulus (GPa) = 34.91931 7.62323 21.27127
#
# Velocity S-wave (km/s) = 3.93401 1.83811 3.07043
# Velocity P-wave (km/s) = 5.48639 3.87512 4.74958
#
# Compressibility (1/GPa) = 0.04682434
#
# Stress axis : x y z
#
# Youngs Moduli (GPa) = 53.61972 71.58230 115.04360
#
# Poissons Ratio (x) = -0.10055 -0.06946
# Poissons Ratio (y) = -0.07532 -0.08601
# Poissons Ratio (z) = -0.03237 -0.05352
#
# Static dielectric constant tensor:
#      x y z
#    x 1.799180 0.000000 0.000000 
#    y 0.000000 1.922820 0.000000 
#    z 0.000000 0.000000 1.803260 
# 
# From -- ./inp_files/17067.got.cif
#   From: 2010.05.17/outbox.cif.g08.bks.cpg/sg51_9_cif.got.tgz:17067.got - 2010.06.03 11:52:47.
