data_PCOD9399930
_publ_section_title
;
Structure prediction by ZEFSAII (Michael W. Deem and Ramdas Pophale) SiO2 
 PCOD9399930
Probable space group: P M M A
;
_chemical_formula_sum "Si O2"
_cell_formula_units_Z 52
_cell_length_a 7.983459
_cell_length_b 13.993452
_cell_length_c 23.306771
_cell_angle_alpha 90.000000
_cell_angle_beta 90.000000
_cell_angle_gamma 90.000000
_cell_volume 2603.742732
_symmetry_space_group_name_H-M "P M M A"
_symmetry_group_IT_number 51
_symmetry_cell_setting 'orthorhombic'
loop_
_space_group_symop_operation_xyz
x,y,z
1/2-x,-y,z
1/2+x,-y,-z
-x,y,-z
-x,-y,-z
1/2+x,y,-z
1/2-x,y,z
x,-y,z
loop_
_atom_site_type_symbol
_atom_site_label
_atom_site_fract_x
_atom_site_fract_y
_atom_site_fract_z
Si Si1 0.558783 0.108882 0.247195
Si Si2 0.449475 0.607791 0.748673
Si Si3 0.452652 0.107758 0.066140
Si Si4 0.448695 0.500000 0.434086
Si Si5 0.449681 0.103990 0.615282
Si Si6 0.450656 0.692348 0.629929
Si Si7 0.438283 0.747854 0.159505
O O1 0.750000 0.143869 0.237994
O O2 0.532989 0.106725 0.315389
O O3 0.439536 0.174210 0.210554
O O4 0.546859 0.000000 0.227293
O O5 0.250000 0.602127 0.740561
O O6 0.517710 0.500000 0.745467
O O7 0.513712 0.670928 0.694804
O O8 0.480341 0.657152 0.809726
O O9 0.250000 0.107413 0.071353
O O10 0.517253 0.192800 0.106882
O O11 0.511146 0.000000 0.082030
O O12 0.500000 0.122937 0.000000
O O13 0.250000 0.500000 0.428389
O O14 0.500000 0.500000 0.500000
O O15 0.516099 0.596024 0.404640
O O16 0.250000 0.101135 0.602176
O O17 0.516921 0.209805 0.600320
O O18 0.518876 0.000000 0.595691
O O19 0.250000 0.706079 0.633818
O O20 0.250000 0.720958 0.143364
#
# Coordination Sequence:
#
# PCOD9399930 Si02
#       7
#     8   8   8   4   8   8   8
#     4   9  16  27  44  68 100 139 180 211 244 305
#     4  10  20  35  54  77 107 145 184 222 270 331
#     4   9  19  35  52  72 101 138 179 224 274 327
#     4  12  26  42  62  88 116 146 191 238 283 332
#     4   8  14  26  48  78 110 145 182 217 258 317
#     4  10  18  35  60  83 115 152 187 231 280 326
#     4  11  21  31  47  73 107 138 171 220 279 332
#
# _framework density 19.971250000000001
#
# number of rings (size 3 to 8) (size 9 to 14) (size 15 to 20)
#    0.000    2.308    2.308    2.538    0.000    3.077 
#    0.000    1.538    0.000    1.385    0.000    0.000 
#    0.000    0.000    0.000    0.000    0.000    0.000 
#
# Total GULP energy -289720.491858 kJ/mol
# GULP energy per Si atom -5571.547920 kJ/mol
# Density = 1.992579 g / cm^3
# Si number density = 19.971250 Si / 1000 Ang^3
#
#
#
# Elastic Constant Matrix: (Units=GPa)
#
#
# Indices 1 2 3 4 5 6 
#
# 1 13.9709 8.5722 -6.2680 0.0000 0.0000 0.0000
# 2 8.5722 169.8517 31.3860 0.0000 0.0000 0.0000
# 3 -6.2680 31.3860 53.3063 0.0000 0.0000 0.0000
# 4 0.0000 0.0000 0.0000 9.2195 0.0000 0.0000
# 5 0.0000 0.0000 0.0000 0.0000 16.1004 0.0000
# 6 0.0000 0.0000 0.0000 0.0000 0.0000 11.3977
#
#
#
# Elastic Compliance Matrix: (Units=1/GPa)
#
#
# Indices 1 2 3 4 5 6 
#
# 1 0.081696 -0.006618 0.013503 0.000000 0.000000 0.000000
# 2 -0.006618 0.007142 -0.004984 0.000000 0.000000 0.000000
# 3 0.013503 -0.004984 0.023281 0.000000 0.000000 0.000000
# 4 0.000000 0.000000 0.000000 0.108466 0.000000 0.000000
# 5 0.000000 0.000000 0.000000 0.000000 0.062110 0.000000
# 6 0.000000 0.000000 0.000000 0.000000 0.000000 0.087737
#
#
# Mechanical properties :
#
#
# Convention : Reuss Voigt Hill
#
# Bulk Modulus (GPa) = 8.62645 33.83436 21.23040
# Shear Modulus (GPa) = 12.33737 20.90608 16.62173
#
# Velocity S-wave (km/s) = 2.48817 3.23895 2.88806
# Velocity P-wave (km/s) = 3.54732 5.56472 4.66634
#
# Compressibility (1/GPa) = 0.11592254
#
# Stress axis : x y z
#
# Youngs Moduli (GPa) = 12.24045 140.00933 42.95259
#
# Poissons Ratio (x) = 0.92661 -0.57999
# Poissons Ratio (y) = 0.08101 0.21406
# Poissons Ratio (z) = -0.16528 0.69774
#
# Static dielectric constant tensor:
#      x y z
#    x 1.721610 0.000000 0.000000 
#    y 0.000000 1.790640 0.000000 
#    z 0.000000 0.000000 1.686930 
# 
# From -- ./inp_files/31772.got.cif
#   From: 2010.05.17/outbox.cif.g08.bks.cpg/sg51_16_cif.got.tgz:31772.got - 2010.06.03 11:52:47.
