data_PCOD9399811
_publ_section_title
;
Structure prediction by ZEFSAII (Michael W. Deem and Ramdas Pophale) SiO2 
 PCOD9399811
Probable space group: P M M A
;
_chemical_formula_sum "Si O2"
_cell_formula_units_Z 56
_cell_length_a 16.874061
_cell_length_b 7.788753
_cell_length_c 18.928276
_cell_angle_alpha 90.000000
_cell_angle_beta 90.000000
_cell_angle_gamma 90.000000
_cell_volume 2487.703437
_symmetry_space_group_name_H-M "P M M A"
_symmetry_group_IT_number 51
_symmetry_cell_setting 'orthorhombic'
loop_
_space_group_symop_operation_xyz
x,y,z
1/2-x,-y,z
1/2+x,-y,-z
-x,y,-z
-x,-y,-z
1/2+x,y,-z
1/2-x,y,z
x,-y,z
loop_
_atom_site_type_symbol
_atom_site_label
_atom_site_fract_x
_atom_site_fract_y
_atom_site_fract_z
Si Si1 0.580066 0.793749 0.827729
Si Si2 0.162623 0.299234 0.770992
Si Si3 0.250000 0.791262 0.409084
Si Si4 0.164300 0.703644 0.037096
Si Si5 0.916069 0.196803 0.361725
Si Si6 0.250000 0.790287 0.573766
Si Si7 0.421790 0.797596 0.902888
Si Si8 0.412611 0.211213 0.334349
O O1 0.649693 0.749140 0.881660
O O2 0.502283 0.726125 0.868777
O O3 0.587915 0.732207 0.747605
O O4 0.575344 0.000000 0.824199
O O5 0.250000 0.232431 0.753717
O O6 0.158139 0.500000 0.753351
O O7 0.099326 0.202393 0.722763
O O8 0.146543 0.278813 0.853523
O O9 0.250000 0.746605 0.491372
O O10 0.168433 0.734105 0.372093
O O11 0.250000 0.000000 0.404977
O O12 0.250000 0.773371 0.014339
O O13 0.164786 0.500000 0.030261
O O14 0.096400 0.768154 0.984537
O O15 0.834113 0.271868 0.393396
O O16 0.004657 0.269628 0.370748
O O17 0.919166 0.000000 0.386943
O O18 0.250000 0.000000 0.582092
O O19 0.422315 0.000000 0.891636
O O20 0.414637 0.000000 0.335193
#
# Coordination Sequence:
#
# PCOD9399811 Si02
#       8
#     8   8   4   8   8   4   8   8
#     4  10  21  37  58  83 108 145 195 242 289 345
#     4  11  22  34  52  82 116 151 190 234 287 349
#     4   9  18  32  52  87 124 153 190 239 293 340
#     4  11  25  41  55  79 114 150 190 239 292 346
#     4  10  18  33  55  82 116 152 191 236 287 344
#     4   9  18  30  53  87 122 157 190 229 287 350
#     4  11  22  38  59  83 112 146 191 240 289 346
#     4   9  18  33  54  82 118 153 190 240 291 341
#
# _framework density 22.510724
#
# number of rings (size 3 to 8) (size 9 to 14) (size 15 to 20)
#    0.000    1.857    2.143    2.143    1.000    7.143 
#    0.000    2.857    0.000    0.000    0.000    5.000 
#    0.000    0.000    0.000    0.000    0.000    0.000 
#
# Total GULP energy -312654.977995 kJ/mol
# GULP energy per Si atom -5583.124607 kJ/mol
# Density = 2.245949 g / cm^3
# Si number density = 22.510724 Si / 1000 Ang^3
#
#
#
# Elastic Constant Matrix: (Units=GPa)
#
#
# Indices 1 2 3 4 5 6 
#
# 1 173.0081 3.5675 71.0167 0.0000 0.0000 0.0000
# 2 3.5675 38.7450 0.5750 0.0000 0.0000 0.0000
# 3 71.0167 0.5750 112.9257 0.0000 0.0000 0.0000
# 4 0.0000 0.0000 0.0000 -9.2088 0.0000 0.0000
# 5 0.0000 0.0000 0.0000 0.0000 31.5901 0.0000
# 6 0.0000 0.0000 0.0000 0.0000 0.0000 20.7370
#
#
#
# Elastic Compliance Matrix: (Units=1/GPa)
#
#
# Indices 1 2 3 4 5 6 
#
# 1 0.007808 -0.000646 -0.004907 0.000000 0.000000 0.000000
# 2 -0.000646 0.025865 0.000275 0.000000 0.000000 0.000000
# 3 -0.004907 0.000275 0.011940 0.000000 0.000000 0.000000
# 4 0.000000 0.000000 0.000000 -0.108592 0.000000 0.000000
# 5 0.000000 0.000000 0.000000 0.000000 0.031655 0.000000
# 6 0.000000 0.000000 0.000000 0.000000 0.000000 0.048223
#
#
# Mechanical properties :
#
#
# Convention : Reuss Voigt Hill
#
# Bulk Modulus (GPa) = 28.52568 52.77745 40.65157
# Shear Modulus (GPa) = 127.74384 25.25831 76.50107
#
# Velocity S-wave (km/s) = 7.54130 3.35335 5.83593
# Velocity P-wave (km/s) = 9.40892 6.20400 7.96923
#
# Compressibility (1/GPa) = 0.03505613
#
# Stress axis : x y z
#
# Youngs Moduli (GPa) = 128.08186 38.66195 83.75413
#
# Poissons Ratio (x) = 0.02498 0.41096
# Poissons Ratio (y) = 0.08275 -0.02300
# Poissons Ratio (z) = 0.62846 -0.01062
#
# Static dielectric constant tensor:
#      x y z
#    x 1.892600 0.000000 0.000000 
#    y 0.000000 1.804660 0.000000 
#    z 0.000000 0.000000 1.805900 
# 
# From -- ./inp_files/33564.got.cif
#   From: 2010.05.17/outbox.cif.g08.bks.cpg/sg51_17_cif.got.tgz:33564.got - 2010.06.03 11:52:47.
