data_PCOD9399883
_publ_section_title
;
Structure prediction by ZEFSAII (Michael W. Deem and Ramdas Pophale) SiO2 
 PCOD9399883
Probable space group: P M M A
;
_chemical_formula_sum "Si O2"
_cell_formula_units_Z 64
_cell_length_a 31.569750
_cell_length_b 8.728177
_cell_length_c 12.467570
_cell_angle_alpha 90.000000
_cell_angle_beta 90.000000
_cell_angle_gamma 90.000000
_cell_volume 3435.393604
_symmetry_space_group_name_H-M "P M M A"
_symmetry_group_IT_number 51
_symmetry_cell_setting 'orthorhombic'
loop_
_space_group_symop_operation_xyz
x,y,z
1/2-x,-y,z
1/2+x,-y,-z
-x,y,-z
-x,-y,-z
1/2+x,y,-z
1/2-x,y,z
x,-y,z
loop_
_atom_site_type_symbol
_atom_site_label
_atom_site_fract_x
_atom_site_fract_y
_atom_site_fract_z
Si Si1 0.450977 0.313102 0.512474
Si Si2 0.886801 0.179844 0.865703
Si Si3 0.200990 0.185065 0.509602
Si Si4 0.440444 0.313814 0.752752
Si Si5 0.134180 0.681458 0.910582
Si Si6 0.699580 0.820953 0.244575
Si Si7 0.373457 0.316596 0.364438
Si Si8 0.478255 0.320204 0.116575
O O1 0.500000 0.263905 0.500000
O O2 0.451634 0.500000 0.510554
O O3 0.434712 0.264169 0.630272
O O4 0.417476 0.264207 0.421846
O O5 0.871560 0.259634 0.757066
O O6 0.936267 0.221991 0.878088
O O7 0.880693 0.000000 0.856332
O O8 0.865268 0.240958 0.973895
O O9 0.250000 0.230840 0.488097
O O10 0.190355 0.226973 0.632876
O O11 0.166490 0.255529 0.431208
O O12 0.199626 0.000000 0.503495
O O13 0.438607 0.500000 0.753356
O O14 0.405298 0.261200 0.837547
O O15 0.486882 0.273429 0.796159
O O16 0.128853 0.500000 0.925919
O O17 0.175082 0.720003 0.840699
O O18 0.750000 0.811791 0.231062
O O19 0.687308 0.000000 0.232122
O O20 0.373394 0.500000 0.366639
O O21 0.467145 0.500000 0.134211
O O22 0.500000 0.310289 0.000000
#
# Coordination Sequence:
#
# PCOD9399883 Si02
#       8
#     8   8   8   8   8   8   8   8
#     4   9  17  30  51  80 112 146 185 229 280 340
#     4  12  25  39  55  78 113 154 196 238 290 351
#     4   9  19  38  63  89 120 156 189 227 286 355
#     4   9  17  30  52  81 111 142 179 228 284 333
#     4  11  21  36  57  83 112 144 190 238 283 332
#     4   9  19  37  60  87 120 154 183 219 278 346
#     4  11  22  37  59  85 114 151 199 250 296 341
#     4  10  18  34  57  80 109 148 191 235 283 334
#
# _framework density 18.629597
#
# number of rings (size 3 to 8) (size 9 to 14) (size 15 to 20)
#    0.000    2.000    1.250    4.125    0.000    4.250 
#    0.000    1.875    0.000   12.000    0.000    0.000 
#    0.000    0.000    0.000    0.000    0.000    0.000 
#
# Total GULP energy -357384.242267 kJ/mol
# GULP energy per Si atom -5584.128785 kJ/mol
# Density = 1.858720 g / cm^3
# Si number density = 18.629597 Si / 1000 Ang^3
#
#
#
# Elastic Constant Matrix: (Units=GPa)
#
#
# Indices 1 2 3 4 5 6 
#
# 1 73.0603 24.3628 62.5529 0.0000 0.0000 0.0000
# 2 24.3628 31.2611 33.9325 0.0000 0.0000 0.0000
# 3 62.5529 33.9325 141.5022 0.0000 0.0000 0.0000
# 4 0.0000 0.0000 0.0000 20.9220 0.0000 0.0000
# 5 0.0000 0.0000 0.0000 0.0000 29.0261 0.0000
# 6 0.0000 0.0000 0.0000 0.0000 0.0000 16.1383
#
#
#
# Elastic Compliance Matrix: (Units=1/GPa)
#
#
# Indices 1 2 3 4 5 6 
#
# 1 0.024028 -0.009729 -0.008289 0.000000 0.000000 0.000000
# 2 -0.009729 0.047184 -0.007014 0.000000 0.000000 0.000000
# 3 -0.008289 -0.007014 0.012413 0.000000 0.000000 0.000000
# 4 0.000000 0.000000 0.000000 0.047797 0.000000 0.000000
# 5 0.000000 0.000000 0.000000 0.000000 0.034452 0.000000
# 6 0.000000 0.000000 0.000000 0.000000 0.000000 0.061964
#
#
# Mechanical properties :
#
#
# Convention : Reuss Voigt Hill
#
# Bulk Modulus (GPa) = 29.79568 54.16891 41.98230
# Shear Modulus (GPa) = 17.29568 21.54899 19.42233
#
# Velocity S-wave (km/s) = 3.05027 3.40473 3.23236
# Velocity P-wave (km/s) = 5.33235 6.67804 6.04277
#
# Compressibility (1/GPa) = 0.03356191
#
# Stress axis : x y z
#
# Youngs Moduli (GPa) = 41.61725 21.19364 80.55839
#
# Poissons Ratio (x) = 0.20619 0.66776
# Poissons Ratio (y) = 0.40488 0.56505
# Poissons Ratio (z) = 0.34497 0.14865
#
# Static dielectric constant tensor:
#      x y z
#    x 1.637250 0.000000 0.000000 
#    y 0.000000 1.643010 0.000000 
#    z 0.000000 0.000000 1.641210 
# 
# From -- ./inp_files/19533.got.cif
#   From: 2010.05.17/outbox.cif.g08.bks.cpg/sg51_10_cif.got.tgz:19533.got - 2010.06.03 11:52:47.
