data_PCOD9399331
_publ_section_title
;
Structure prediction by ZEFSAII (Michael W. Deem and Ramdas Pophale) SiO2 
 PCOD9399331
Probable space group: P M M A
;
_chemical_formula_sum "Si O2"
_cell_formula_units_Z 56
_cell_length_a 21.290369
_cell_length_b 9.346268
_cell_length_c 16.154788
_cell_angle_alpha 90.000000
_cell_angle_beta 90.000000
_cell_angle_gamma 90.000000
_cell_volume 3214.568479
_symmetry_space_group_name_H-M "P M M A"
_symmetry_group_IT_number 51
_symmetry_cell_setting 'orthorhombic'
loop_
_space_group_symop_operation_xyz
x,y,z
1/2-x,-y,z
1/2+x,-y,-z
-x,y,-z
-x,-y,-z
1/2+x,y,-z
1/2-x,y,z
x,-y,z
loop_
_atom_site_type_symbol
_atom_site_label
_atom_site_fract_x
_atom_site_fract_y
_atom_site_fract_z
Si Si1 0.250000 0.662356 0.121959
Si Si2 0.571188 0.829305 0.264596
Si Si3 0.250000 0.828563 0.290026
Si Si4 0.000786 0.329589 0.402615
Si Si5 0.954923 0.833155 0.853693
Si Si6 0.323463 0.828753 0.858601
Si Si7 0.122778 0.667443 0.015075
Si Si8 0.113494 0.168129 0.317785
O O1 0.250000 0.500000 0.155147
O O2 0.250000 0.769880 0.197477
O O3 0.187599 0.679628 0.067395
O O4 0.553034 0.745008 0.347208
O O5 0.519623 0.792904 0.193012
O O6 0.639533 0.800906 0.226743
O O7 0.563972 0.000000 0.279179
O O8 0.315124 0.785628 0.331825
O O9 0.250000 0.000000 0.286459
O O10 0.997903 0.500000 0.391576
O O11 0.064731 0.264923 0.365925
O O12 0.000000 0.297261 0.500000
O O13 0.932059 0.739366 0.930448
O O14 0.903489 0.821077 0.779818
O O15 0.959186 0.000000 0.878267
O O16 0.250000 0.787043 0.857665
O O17 0.326511 0.000000 0.873348
O O18 0.361348 0.749099 0.930693
O O19 0.109950 0.500000 0.001105
O O20 0.105251 0.000000 0.339335
#
# Coordination Sequence:
#
# PCOD9399331 Si02
#       8
#     4   8   4   8   8   8   8   8
#     4  10  20  30  42  68 105 144 183 220 257 298
#     4   9  20  38  58  81 105 133 171 218 270 318
#     4  10  18  30  50  76 107 140 177 214 255 310
#     4  10  21  37  59  84 107 133 169 208 255 320
#     4   9  17  31  50  73 103 138 176 216 261 307
#     4  10  21  37  57  77 100 136 182 226 266 309
#     4  11  21  32  47  72 106 143 185 223 258 302
#     4   9  18  31  51  79 108 140 174 211 256 306
#
# _framework density 17.420688999999999
#
# number of rings (size 3 to 8) (size 9 to 14) (size 15 to 20)
#    0.000    2.286    2.143    1.714    0.000    5.714 
#    0.000    2.857    1.571    0.000    0.000    0.000 
#    0.000    0.000    0.000    0.000    0.000    0.000 
#
# Total GULP energy -312348.630730 kJ/mol
# GULP energy per Si atom -5577.654120 kJ/mol
# Density = 1.738104 g / cm^3
# Si number density = 17.420689 Si / 1000 Ang^3
#
#
#
# Elastic Constant Matrix: (Units=GPa)
#
#
# Indices 1 2 3 4 5 6 
#
# 1 49.9060 31.1951 42.4903 0.0000 0.0000 0.0000
# 2 31.1951 50.8411 61.7796 0.0000 0.0000 0.0000
# 3 42.4903 61.7796 102.8173 0.0000 0.0000 0.0000
# 4 0.0000 0.0000 0.0000 30.7879 0.0000 0.0000
# 5 0.0000 0.0000 0.0000 0.0000 11.8532 0.0000
# 6 0.0000 0.0000 0.0000 0.0000 0.0000 12.3320
#
#
#
# Elastic Compliance Matrix: (Units=1/GPa)
#
#
# Indices 1 2 3 4 5 6 
#
# 1 0.033324 -0.013758 -0.005505 0.000000 0.000000 0.000000
# 2 -0.013758 0.078567 -0.041523 0.000000 0.000000 0.000000
# 3 -0.005505 -0.041523 0.036951 0.000000 0.000000 0.000000
# 4 0.000000 0.000000 0.000000 0.032480 0.000000 0.000000
# 5 0.000000 0.000000 0.000000 0.000000 0.084366 0.000000
# 6 0.000000 0.000000 0.000000 0.000000 0.000000 0.081090
#
#
# Mechanical properties :
#
#
# Convention : Reuss Voigt Hill
#
# Bulk Modulus (GPa) = 36.66906 52.72160 44.69533
# Shear Modulus (GPa) = 10.47252 15.53458 13.00355
#
# Velocity S-wave (km/s) = 2.45450 2.98943 2.73507
# Velocity P-wave (km/s) = 5.39700 6.49962 5.97380
#
# Compressibility (1/GPa) = 0.02727095
#
# Stress axis : x y z
#
# Youngs Moduli (GPa) = 30.00809 12.72795 27.06293
#
# Poissons Ratio (x) = 0.17511 0.14898
# Poissons Ratio (y) = 0.41284 1.12374
# Poissons Ratio (z) = 0.16520 0.52850
#
# Static dielectric constant tensor:
#      x y z
#    x 1.623320 0.000000 0.000000 
#    y 0.000000 1.581430 0.000000 
#    z 0.000000 0.000000 1.565840 
# 
# From -- ./inp_files/25825.got.cif
#   From: 2010.05.17/outbox.cif.g08.bks.cpg/sg51_13_cif.got.tgz:25825.got - 2010.06.03 11:52:47.
