data_PCOD9399436
_publ_section_title
;
Structure prediction by ZEFSAII (Michael W. Deem and Ramdas Pophale) SiO2 
 PCOD9399436
Probable space group: P M M A
;
_chemical_formula_sum "Si O2"
_cell_formula_units_Z 64
_cell_length_a 18.414482
_cell_length_b 12.879979
_cell_length_c 17.770056
_cell_angle_alpha 90.000000
_cell_angle_beta 90.000000
_cell_angle_gamma 90.000000
_cell_volume 4214.668856
_symmetry_space_group_name_H-M "P M M A"
_symmetry_group_IT_number 51
_symmetry_cell_setting 'orthorhombic'
loop_
_space_group_symop_operation_xyz
x,y,z
1/2-x,-y,z
1/2+x,-y,-z
-x,y,-z
-x,-y,-z
1/2+x,y,-z
1/2-x,y,z
x,-y,z
loop_
_atom_site_type_symbol
_atom_site_label
_atom_site_fract_x
_atom_site_fract_y
_atom_site_fract_z
Si Si1 0.413379 0.374756 0.666192
Si Si2 0.168525 0.771711 0.090663
Si Si3 0.888976 0.620427 0.787995
Si Si4 0.076487 0.625110 0.378663
Si Si5 0.050322 0.689256 0.827608
Si Si6 0.833786 0.618358 0.050333
Si Si7 0.018241 0.879880 0.087764
Si Si8 0.831987 0.373675 0.480281
O O1 0.409195 0.500000 0.680627
O O2 0.491216 0.353375 0.627442
O O3 0.412945 0.316472 0.745562
O O4 0.354762 0.344005 0.603992
O O5 0.250000 0.814948 0.088149
O O6 0.159274 0.692866 0.160088
O O7 0.103353 0.853182 0.096887
O O8 0.156809 0.701073 0.016351
O O9 0.867655 0.500000 0.791941
O O10 0.888788 0.656721 0.701086
O O11 0.972838 0.630712 0.816708
O O12 0.082589 0.500000 0.379906
O O13 0.114756 0.664410 0.453870
O O14 0.105857 0.638282 0.886446
O O15 0.027472 0.801436 0.860138
O O16 0.750000 0.628350 0.078239
O O17 0.841801 0.500000 0.021765
O O18 0.003357 0.000000 0.104389
O O19 0.000000 0.860221 0.000000
O O20 0.750000 0.343216 0.497500
O O21 0.835848 0.500000 0.480619
#
# Coordination Sequence:
#
# PCOD9399436 Si02
#       8
#     8   8   8   8   8   8   8   8
#     4   9  16  26  41  60  87 119 151 183 220 263
#     4  10  20  32  45  67  94 119 149 183 225 275
#     4   9  17  27  43  65  91 125 158 187 220 260
#     4   8  14  25  38  55  82 119 157 186 213 249
#     4  10  18  31  47  66  88 117 155 195 227 273
#     4  10  19  29  42  63  94 128 154 179 215 264
#     4  10  20  36  54  69  84 109 149 196 240 274
#     4   9  16  24  36  57  85 120 157 185 213 253
#
# _framework density 15.18506
#
# number of rings (size 3 to 8) (size 9 to 14) (size 15 to 20)
#    0.000    2.625    1.250    2.625    0.000    3.500 
#    0.000    4.375    0.000    0.375    0.000    0.000 
#    0.000   18.000    0.000    2.625    0.000    0.000 
#
# Total GULP energy -356407.127380 kJ/mol
# GULP energy per Si atom -5568.861365 kJ/mol
# Density = 1.515050 g / cm^3
# Si number density = 15.185060 Si / 1000 Ang^3
#
#
#
# Elastic Constant Matrix: (Units=GPa)
#
#
# Indices 1 2 3 4 5 6 
#
# 1 28.0082 5.6027 11.3339 0.0000 0.0000 0.0000
# 2 5.6027 43.3501 16.5427 0.0000 0.0000 0.0000
# 3 11.3339 16.5427 59.0206 0.0000 0.0000 0.0000
# 4 0.0000 0.0000 0.0000 7.1332 0.0000 0.0000
# 5 0.0000 0.0000 0.0000 0.0000 18.9526 0.0000
# 6 0.0000 0.0000 0.0000 0.0000 0.0000 10.2937
#
#
#
# Elastic Compliance Matrix: (Units=1/GPa)
#
#
# Indices 1 2 3 4 5 6 
#
# 1 0.038941 -0.002440 -0.006794 0.000000 0.000000 0.000000
# 2 -0.002440 0.025984 -0.006814 0.000000 0.000000 0.000000
# 3 -0.006794 -0.006814 0.020158 0.000000 0.000000 0.000000
# 4 0.000000 0.000000 0.000000 0.140190 0.000000 0.000000
# 5 0.000000 0.000000 0.000000 0.000000 0.052763 0.000000
# 6 0.000000 0.000000 0.000000 0.000000 0.000000 0.097147
#
#
# Mechanical properties :
#
#
# Convention : Reuss Voigt Hill
#
# Bulk Modulus (GPa) = 18.87302 21.92640 20.39971
# Shear Modulus (GPa) = 11.76629 13.73585 12.75107
#
# Velocity S-wave (km/s) = 2.78665 3.01086 2.90092
# Velocity P-wave (km/s) = 4.77593 5.15343 4.96827
#
# Compressibility (1/GPa) = 0.05298570
#
# Stress axis : x y z
#
# Youngs Moduli (GPa) = 25.67970 38.48551 49.60836
#
# Poissons Ratio (x) = 0.09392 0.33704
# Poissons Ratio (y) = 0.06267 0.33805
# Poissons Ratio (z) = 0.17447 0.26225
#
# Static dielectric constant tensor:
#      x y z
#    x 1.526200 0.000000 0.000000 
#    y 0.000000 1.471970 0.000000 
#    z 0.000000 0.000000 1.516320 
# 
# From -- ./inp_files/30274.got.cif
#   From: 2010.05.17/outbox.cif.g08.bks.cpg/sg51_16_cif.got.tgz:30274.got - 2010.06.03 11:52:47.
