data_PCOD9399729
_publ_section_title
;
Structure prediction by ZEFSAII (Michael W. Deem and Ramdas Pophale) SiO2 
 PCOD9399729
Probable space group: P M M A
;
_chemical_formula_sum "Si O2"
_cell_formula_units_Z 64
_cell_length_a 24.519188
_cell_length_b 7.542097
_cell_length_c 15.723708
_cell_angle_alpha 90.000000
_cell_angle_beta 90.000000
_cell_angle_gamma 90.000000
_cell_volume 2907.723908
_symmetry_space_group_name_H-M "P M M A"
_symmetry_group_IT_number 51
_symmetry_cell_setting 'orthorhombic'
loop_
_space_group_symop_operation_xyz
x,y,z
1/2-x,-y,z
1/2+x,-y,-z
-x,y,-z
-x,-y,-z
1/2+x,y,-z
1/2-x,y,z
x,-y,z
loop_
_atom_site_type_symbol
_atom_site_label
_atom_site_fract_x
_atom_site_fract_y
_atom_site_fract_z
Si Si1 0.389472 0.783676 0.406667
Si Si2 0.187343 0.217006 0.251986
Si Si3 0.511788 0.704524 0.865939
Si Si4 0.131032 0.201392 0.081643
Si Si5 0.620730 0.214056 0.403273
Si Si6 0.105954 0.295132 0.898211
Si Si7 0.003895 0.215316 0.669409
Si Si8 0.189026 0.289618 0.759196
O O1 0.350862 0.724450 0.329672
O O2 0.371422 0.724463 0.500096
O O3 0.451835 0.732973 0.386945
O O4 0.388165 0.000000 0.406500
O O5 0.250000 0.267788 0.263774
O O6 0.164031 0.278852 0.161213
O O7 0.184745 0.000000 0.250683
O O8 0.518827 0.500000 0.893852
O O9 0.567650 0.797315 0.891052
O O10 0.455290 0.780902 0.903063
O O11 0.504479 0.714927 0.764449
O O12 0.149740 0.000000 0.069718
O O13 0.134063 0.289262 0.989690
O O14 0.561572 0.273358 0.368798
O O15 0.666204 0.267314 0.335615
O O16 0.619570 0.000000 0.404808
O O17 0.096192 0.500000 0.873906
O O18 0.144520 0.215292 0.825590
O O19 0.004377 0.000000 0.674189
O O20 0.250000 0.216606 0.768578
O O21 0.192160 0.500000 0.776624
#
# Coordination Sequence:
#
# PCOD9399729 Si02
#       8
#     8   8   8   8   8   8   8   8
#     4   9  17  32  54  83 116 148 179 219 277 335
#     4   9  18  33  53  78 109 144 182 223 268 321
#     4  11  21  35  57  82 111 147 182 221 272 334
#     4  11  22  36  57  85 112 142 181 228 281 331
#     4  10  20  33  57  88 115 142 181 234 281 326
#     4  10  22  39  57  80 109 144 184 225 274 333
#     4  10  18  32  55  84 115 145 180 226 280 332
#     4  10  22  41  60  77 108 154 194 229 275 330
#
# _framework density 22.010342000000001
#
# number of rings (size 3 to 8) (size 9 to 14) (size 15 to 20)
#    0.000    2.000    2.500    1.500    0.000    5.750 
#    0.000    1.875    0.000    2.625    0.000    0.000 
#    0.000    0.000    0.000    0.000    0.000    0.000 
#
# Total GULP energy -357660.664164 kJ/mol
# GULP energy per Si atom -5588.447878 kJ/mol
# Density = 2.196025 g / cm^3
# Si number density = 22.010342 Si / 1000 Ang^3
#
#
#
# Elastic Constant Matrix: (Units=GPa)
#
#
# Indices 1 2 3 4 5 6 
#
# 1 90.0079 -2.4530 6.8387 0.0000 0.0000 0.0000
# 2 -2.4530 53.8179 -11.7493 0.0000 0.0000 0.0000
# 3 6.8387 -11.7493 93.4269 0.0000 0.0000 0.0000
# 4 0.0000 0.0000 0.0000 7.7040 0.0000 0.0000
# 5 0.0000 0.0000 0.0000 0.0000 8.2769 0.0000
# 6 0.0000 0.0000 0.0000 0.0000 0.0000 7.8136
#
#
#
# Elastic Compliance Matrix: (Units=1/GPa)
#
#
# Indices 1 2 3 4 5 6 
#
# 1 0.011178 0.000340 -0.000775 0.000000 0.000000 0.000000
# 2 0.000340 0.019116 0.002379 0.000000 0.000000 0.000000
# 3 -0.000775 0.002379 0.011060 0.000000 0.000000 0.000000
# 4 0.000000 0.000000 0.000000 0.129802 0.000000 0.000000
# 5 0.000000 0.000000 0.000000 0.000000 0.120818 0.000000
# 6 0.000000 0.000000 0.000000 0.000000 0.000000 0.127982
#
#
# Mechanical properties :
#
#
# Convention : Reuss Voigt Hill
#
# Bulk Modulus (GPa) = 22.10353 24.72508 23.41431
# Shear Modulus (GPa) = 11.59692 21.06666 16.33179
#
# Velocity S-wave (km/s) = 2.29789 3.09710 2.72693
# Velocity P-wave (km/s) = 4.13576 4.90379 4.53606
#
# Compressibility (1/GPa) = 0.04524164
#
# Stress axis : x y z
#
# Youngs Moduli (GPa) = 89.45883 52.31200 90.41992
#
# Poissons Ratio (x) = -0.01780 0.07012
# Poissons Ratio (y) = -0.03043 -0.21512
# Poissons Ratio (z) = 0.06937 -0.12446
#
# Static dielectric constant tensor:
#      x y z
#    x 1.786260 0.000000 0.000000 
#    y 0.000000 1.847120 0.000000 
#    z 0.000000 0.000000 1.775130 
# 
# From -- ./inp_files/26293.got.cif
#   From: 2010.05.17/outbox.cif.g08.bks.cpg/sg51_14_cif.got.tgz:26293.got - 2010.06.03 11:52:47.
