data_PCOD9399524
_publ_section_title
;
Structure prediction by ZEFSAII (Michael W. Deem and Ramdas Pophale) SiO2 
 PCOD9399524
Probable space group: P M M A
;
_chemical_formula_sum "Si O2"
_cell_formula_units_Z 52
_cell_length_a 8.574617
_cell_length_b 24.137998
_cell_length_c 14.808532
_cell_angle_alpha 90.000000
_cell_angle_beta 90.000000
_cell_angle_gamma 90.000000
_cell_volume 3064.982405
_symmetry_space_group_name_H-M "P M M A"
_symmetry_group_IT_number 51
_symmetry_cell_setting 'orthorhombic'
loop_
_space_group_symop_operation_xyz
x,y,z
1/2-x,-y,z
1/2+x,-y,-z
-x,y,-z
-x,-y,-z
1/2+x,y,-z
1/2-x,y,z
x,-y,z
loop_
_atom_site_type_symbol
_atom_site_label
_atom_site_fract_x
_atom_site_fract_y
_atom_site_fract_z
Si Si1 0.060035 0.561160 0.787881
Si Si2 0.063135 0.732220 0.404614
Si Si3 0.562363 0.331133 0.101349
Si Si4 0.937509 0.121567 0.102692
Si Si5 0.937680 0.000000 0.102040
Si Si6 0.436903 0.393087 0.595629
Si Si7 0.936949 0.225808 0.788693
O O1 0.250000 0.561377 0.789455
O O2 0.007229 0.500000 0.816199
O O3 0.009064 0.611887 0.850666
O O4 0.013797 0.573460 0.684411
O O5 0.250000 0.728385 0.408945
O O6 0.018506 0.767167 0.316430
O O7 0.000000 0.754074 0.500000
O O8 0.996270 0.670027 0.393863
O O9 0.750000 0.330027 0.100824
O O10 0.502092 0.278964 0.158153
O O11 0.500000 0.328051 0.000000
O O12 0.750000 0.124200 0.099321
O O13 0.985836 0.060264 0.138701
O O14 0.000242 0.170572 0.164632
O O15 0.000000 0.127723 0.000000
O O16 0.750000 0.000000 0.100841
O O17 0.000000 0.000000 0.000000
O O18 0.500000 0.414541 0.500000
O O19 0.250000 0.392351 0.592097
O O20 0.750000 0.226469 0.794605
#
# Coordination Sequence:
#
# PCOD9399524 Si02
#       7
#     8   8   8   8   4   8   8
#     4   9  19  35  53  72  96 128 165 204 250 306
#     4  10  20  33  52  75 102 130 162 203 249 301
#     4  11  22  37  55  73  97 130 167 209 257 303
#     4  10  19  32  51  76 108 143 178 212 249 293
#     4   8  16  30  48  72 103 140 177 212 247 288
#     4  10  18  31  52  75  99 127 159 196 247 305
#     4  11  22  35  52  77 106 134 168 209 251 298
#
# _framework density 16.96584
#
# number of rings (size 3 to 8) (size 9 to 14) (size 15 to 20)
#    0.000    2.000    1.538    3.692    0.000    3.077 
#    0.000    0.000    0.000    6.462    0.000    0.538 
#    0.000    0.000    0.000    0.000    0.000    0.000 
#
# Total GULP energy -290123.721989 kJ/mol
# GULP energy per Si atom -5579.302346 kJ/mol
# Density = 1.692722 g / cm^3
# Si number density = 16.965840 Si / 1000 Ang^3
#
#
#
# Elastic Constant Matrix: (Units=GPa)
#
#
# Indices 1 2 3 4 5 6 
#
# 1 43.8838 31.2181 33.0081 0.0000 0.0000 0.0000
# 2 31.2181 149.3871 77.0065 0.0000 0.0000 0.0000
# 3 33.0081 77.0065 124.0534 0.0000 0.0000 0.0000
# 4 0.0000 0.0000 0.0000 24.5659 0.0000 0.0000
# 5 0.0000 0.0000 0.0000 0.0000 22.8999 0.0000
# 6 0.0000 0.0000 0.0000 0.0000 0.0000 -2.9525
#
#
#
# Elastic Compliance Matrix: (Units=1/GPa)
#
#
# Indices 1 2 3 4 5 6 
#
# 1 0.029439 -0.003109 -0.005903 0.000000 0.000000 0.000000
# 2 -0.003109 0.010172 -0.005487 0.000000 0.000000 0.000000
# 3 -0.005903 -0.005487 0.013038 0.000000 0.000000 0.000000
# 4 0.000000 0.000000 0.000000 0.040707 0.000000 0.000000
# 5 0.000000 0.000000 0.000000 0.000000 0.043668 0.000000
# 6 0.000000 0.000000 0.000000 0.000000 0.000000 -0.338691
#
#
# Mechanical properties :
#
#
# Convention : Reuss Voigt Hill
#
# Bulk Modulus (GPa) = 42.28220 66.64330 54.46275
# Shear Modulus (GPa) = -30.34281 20.64209 -4.85036
#
# Velocity S-wave (km/s) = -4.23361 3.49189 -1.69266
# Velocity P-wave (km/s) = 1.03831 7.45814 5.32456
#
# Compressibility (1/GPa) = 0.02365062
#
# Stress axis : x y z
#
# Youngs Moduli (GPa) = 33.96800 98.30614 76.69876
#
# Poissons Ratio (x) = 0.30564 0.45278
# Poissons Ratio (y) = 0.10561 0.42086
# Poissons Ratio (z) = 0.20052 0.53943
#
# Static dielectric constant tensor:
#      x y z
#    x 1.574150 0.000000 0.000000 
#    y 0.000000 1.581180 0.000000 
#    z 0.000000 0.000000 1.565250 
# 
# From -- ./inp_files/22105.got.cif
#   From: 2010.05.17/outbox.cif.g08.bks.cpg/sg51_12_cif.got.tgz:22105.got - 2010.06.03 11:52:47.
