data_PCOD9399895
_publ_section_title
;
Structure prediction by ZEFSAII (Michael W. Deem and Ramdas Pophale) SiO2 
 PCOD9399895
Probable space group: P M M A
;
_chemical_formula_sum "Si O2"
_cell_formula_units_Z 64
_cell_length_a 15.026412
_cell_length_b 8.487474
_cell_length_c 26.819382
_cell_angle_alpha 90.000000
_cell_angle_beta 90.000000
_cell_angle_gamma 90.000000
_cell_volume 3420.444243
_symmetry_space_group_name_H-M "P M M A"
_symmetry_group_IT_number 51
_symmetry_cell_setting 'orthorhombic'
loop_
_space_group_symop_operation_xyz
x,y,z
1/2-x,-y,z
1/2+x,-y,-z
-x,y,-z
-x,-y,-z
1/2+x,y,-z
1/2-x,y,z
x,-y,z
loop_
_atom_site_type_symbol
_atom_site_label
_atom_site_fract_x
_atom_site_fract_y
_atom_site_fract_z
Si Si1 0.353468 0.319220 0.112083
Si Si2 0.348236 0.191486 0.895320
Si Si3 0.852863 0.690323 0.365843
Si Si4 0.647553 0.810103 0.633956
Si Si5 0.000562 0.184978 0.820699
Si Si6 0.995331 0.809309 0.442619
Si Si7 0.505773 0.312502 0.709961
Si Si8 0.106450 0.182256 0.004965
O O1 0.250000 0.305243 0.124036
O O2 0.381742 0.500000 0.119681
O O3 0.411366 0.210299 0.147704
O O4 0.366770 0.274088 0.054306
O O5 0.250000 0.228448 0.876972
O O6 0.422356 0.248533 0.857285
O O7 0.357725 0.000000 0.898411
O O8 0.358863 0.246816 0.952281
O O9 0.750000 0.745384 0.363697
O O10 0.850745 0.500000 0.365969
O O11 0.916336 0.740938 0.319595
O O12 0.908070 0.746957 0.414092
O O13 0.750000 0.753042 0.632265
O O14 0.583495 0.758498 0.588203
O O15 0.592136 0.759510 0.682711
O O16 0.650710 0.000000 0.632718
O O17 0.997852 0.267111 0.767525
O O18 0.015912 0.000000 0.812321
O O19 0.000000 0.758856 0.500000
O O20 0.992427 0.000000 0.441288
O O21 0.511153 0.500000 0.704705
O O22 0.136167 0.000000 0.010721
O O23 0.000000 0.181435 0.000000
#
# Coordination Sequence:
#
# PCOD9399895 Si02
#       8
#     8   8   8   8   8   8   8   8
#     4  11  24  39  55  79 110 142 177 218 265 316
#     4   9  18  33  54  80 108 136 169 211 257 310
#     4   9  19  36  56  78 108 148 189 224 264 320
#     4   9  18  34  55  78 106 143 184 221 262 316
#     4  11  22  38  58  80 106 137 177 220 268 323
#     4   9  18  32  52  82 117 148 181 225 272 314
#     4  10  21  37  56  78 105 137 175 224 277 320
#     4  10  18  34  59  83 106 139 177 212 257 313
#
# _framework density 18.711020999999999
#
# number of rings (size 3 to 8) (size 9 to 14) (size 15 to 20)
#    0.000    2.250    1.250    1.500    0.000    4.500 
#    0.000    1.250    0.000    1.875    0.000    0.000 
#    0.000    0.000    0.000    0.000    0.000    0.000 
#
# Total GULP energy -357057.301243 kJ/mol
# GULP energy per Si atom -5579.020332 kJ/mol
# Density = 1.866843 g / cm^3
# Si number density = 18.711021 Si / 1000 Ang^3
#
#
#
# Elastic Constant Matrix: (Units=GPa)
#
#
# Indices 1 2 3 4 5 6 
#
# 1 136.2052 14.2097 57.9277 0.0000 0.0000 0.0000
# 2 14.2097 5.2526 3.6843 0.0000 0.0000 0.0000
# 3 57.9277 3.6843 131.0597 0.0000 0.0000 0.0000
# 4 0.0000 0.0000 0.0000 11.6103 0.0000 0.0000
# 5 0.0000 0.0000 0.0000 0.0000 35.0166 0.0000
# 6 0.0000 0.0000 0.0000 0.0000 0.0000 16.4647
#
#
#
# Elastic Compliance Matrix: (Units=1/GPa)
#
#
# Indices 1 2 3 4 5 6 
#
# 1 0.012522 -0.030596 -0.004674 0.000000 0.000000 0.000000
# 2 -0.030596 0.268971 0.005962 0.000000 0.000000 0.000000
# 3 -0.004674 0.005962 0.009529 0.000000 0.000000 0.000000
# 4 0.000000 0.000000 0.000000 0.086130 0.000000 0.000000
# 5 0.000000 0.000000 0.000000 0.000000 0.028558 0.000000
# 6 0.000000 0.000000 0.000000 0.000000 0.000000 0.060736
#
#
# Mechanical properties :
#
#
# Convention : Reuss Voigt Hill
#
# Bulk Modulus (GPa) = 4.30285 47.12898 25.71592
# Shear Modulus (GPa) = 8.29833 25.73139 17.01486
#
# Velocity S-wave (km/s) = 2.10823 3.71239 3.01881
# Velocity P-wave (km/s) = 2.86894 6.60442 5.09162
#
# Compressibility (1/GPa) = 0.23240416
#
# Stress axis : x y z
#
# Youngs Moduli (GPa) = 79.86015 3.71787 104.94716
#
# Poissons Ratio (x) = 0.11375 0.49057
# Poissons Ratio (y) = 2.44342 -0.62571
# Poissons Ratio (z) = 0.37331 -0.02217
#
# Static dielectric constant tensor:
#      x y z
#    x 1.659960 0.000000 0.000000 
#    y 0.000000 1.659140 0.000000 
#    z 0.000000 0.000000 1.623220 
# 
# From -- ./inp_files/35818.got.cif
#   From: 2010.05.17/outbox.cif.g08.bks.cpg/sg51_18_cif.got.tgz:35818.got - 2010.06.03 11:52:47.
