data_PCOD9399094
_publ_section_title
;
Structure prediction by ZEFSAII (Michael W. Deem and Ramdas Pophale) SiO2 
 PCOD9399094
Probable space group: P M M A
;
_chemical_formula_sum "Si O2"
_cell_formula_units_Z 64
_cell_length_a 8.480852
_cell_length_b 15.012837
_cell_length_c 28.873378
_cell_angle_alpha 90.000000
_cell_angle_beta 90.000000
_cell_angle_gamma 90.000000
_cell_volume 3676.206090
_symmetry_space_group_name_H-M "P M M A"
_symmetry_group_IT_number 51
_symmetry_cell_setting 'orthorhombic'
loop_
_space_group_symop_operation_xyz
x,y,z
1/2-x,-y,z
1/2+x,-y,-z
-x,y,-z
-x,-y,-z
1/2+x,y,-z
1/2-x,y,z
x,-y,z
loop_
_atom_site_type_symbol
_atom_site_label
_atom_site_fract_x
_atom_site_fract_y
_atom_site_fract_z
Si Si1 0.440060 0.399641 0.323139
Si Si2 0.060036 0.603187 0.779205
Si Si3 0.938767 0.601540 0.948394
Si Si4 0.561332 0.898447 0.448490
Si Si5 0.059073 0.779346 0.365419
Si Si6 0.940377 0.897638 0.826177
Si Si7 0.941705 0.897906 0.720957
Si Si8 0.938504 0.278361 0.134205
O O1 0.250000 0.401821 0.324264
O O2 0.498882 0.500000 0.332399
O O3 0.489719 0.374606 0.270916
O O4 0.492568 0.322699 0.358158
O O5 0.250000 0.608501 0.776185
O O6 0.018439 0.500000 0.789478
O O7 0.004810 0.667004 0.820341
O O8 0.750000 0.602867 0.948759
O O9 0.990938 0.500000 0.936527
O O10 0.000053 0.671124 0.910919
O O11 0.000000 0.620862 0.000000
O O12 0.500000 0.878361 0.500000
O O13 0.750000 0.897622 0.448991
O O14 0.500858 0.829296 0.410646
O O15 0.508409 0.000000 0.436886
O O16 0.250000 0.781389 0.366137
O O17 0.004856 0.833289 0.319685
O O18 0.750000 0.894772 0.826858
O O19 0.993056 0.876002 0.773286
O O20 0.005548 0.822855 0.860044
O O21 0.987130 0.000000 0.836017
O O22 0.750000 0.895438 0.721449
O O23 0.987980 0.000000 0.711085
O O24 0.750000 0.281168 0.133939
#
# Coordination Sequence:
#
# PCOD9399094 Si02
#       8
#     8   8   8   8   8   8   8   8
#     4   9  18  31  47  70 100 133 169 207 243 281
#     4   9  18  31  46  68 101 138 171 204 245 291
#     4  10  21  37  57  80 105 132 163 202 249 301
#     4  10  21  36  53  74  99 124 152 191 240 293
#     4  10  18  29  49  73  98 130 164 199 241 289
#     4   9  18  33  51  71  99 136 177 217 251 288
#     4   8  14  25  43  68  96 127 164 203 243 288
#     4  11  21  32  50  75 104 137 171 208 251 301
#
# _framework density 17.409251999999999
#
# number of rings (size 3 to 8) (size 9 to 14) (size 15 to 20)
#    0.000    2.500    0.000    3.375    0.000    5.250 
#    0.000    1.875    0.000    1.500    0.000    0.000 
#    0.000    0.000    0.000    0.000    0.000    0.000 
#
# Total GULP energy -357066.455201 kJ/mol
# GULP energy per Si atom -5579.163363 kJ/mol
# Density = 1.736963 g / cm^3
# Si number density = 17.409252 Si / 1000 Ang^3
#
#
#
# Elastic Constant Matrix: (Units=GPa)
#
#
# Indices 1 2 3 4 5 6 
#
# 1 18.2755 30.7947 24.5246 0.0000 0.0000 0.0000
# 2 30.7947 135.9654 105.5591 0.0000 0.0000 0.0000
# 3 24.5246 105.5591 112.4135 0.0000 0.0000 0.0000
# 4 0.0000 0.0000 0.0000 31.8645 0.0000 0.0000
# 5 0.0000 0.0000 0.0000 0.0000 24.5605 0.0000
# 6 0.0000 0.0000 0.0000 0.0000 0.0000 17.1803
#
#
#
# Elastic Compliance Matrix: (Units=1/GPa)
#
#
# Indices 1 2 3 4 5 6 
#
# 1 0.088587 -0.018672 -0.001793 0.000000 0.000000 0.000000
# 2 -0.018672 0.031078 -0.025109 0.000000 0.000000 0.000000
# 3 -0.001793 -0.025109 0.032865 0.000000 0.000000 0.000000
# 4 0.000000 0.000000 0.000000 0.031383 0.000000 0.000000
# 5 0.000000 0.000000 0.000000 0.000000 0.040716 0.000000
# 6 0.000000 0.000000 0.000000 0.000000 0.000000 0.058206
#
#
# Mechanical properties :
#
#
# Convention : Reuss Voigt Hill
#
# Bulk Modulus (GPa) = 16.29165 65.37904 40.83534
# Shear Modulus (GPa) = 12.67608 21.77281 17.22444
#
# Velocity S-wave (km/s) = 2.70130 3.54028 3.14886
# Velocity P-wave (km/s) = 4.37124 7.37206 6.06032
#
# Compressibility (1/GPa) = 0.06138114
#
# Stress axis : x y z
#
# Youngs Moduli (GPa) = 11.28837 32.17722 30.42725
#
# Poissons Ratio (x) = 0.60081 0.05456
# Poissons Ratio (y) = 0.21077 0.76401
# Poissons Ratio (z) = 0.02024 0.80795
#
# Static dielectric constant tensor:
#      x y z
#    x 1.567220 0.000000 0.000000 
#    y 0.000000 1.610260 0.000000 
#    z 0.000000 0.000000 1.559540 
# 
# From -- ./inp_files/34930.got.cif
#   From: 2010.05.17/outbox.cif.g08.bks.cpg/sg51_18_cif.got.tgz:34930.got - 2010.06.03 11:52:47.
