data_PCOD9399164
_publ_section_title
;
Structure prediction by ZEFSAII (Michael W. Deem and Ramdas Pophale) SiO2 
 PCOD9399164
Probable space group: P M M A
;
_chemical_formula_sum "Si O2"
_cell_formula_units_Z 44
_cell_length_a 8.496362
_cell_length_b 14.528506
_cell_length_c 19.657749
_cell_angle_alpha 90.000000
_cell_angle_beta 90.000000
_cell_angle_gamma 90.000000
_cell_volume 2426.541652
_symmetry_space_group_name_H-M "P M M A"
_symmetry_group_IT_number 51
_symmetry_cell_setting 'orthorhombic'
loop_
_space_group_symop_operation_xyz
x,y,z
1/2-x,-y,z
1/2+x,-y,-z
-x,y,-z
-x,-y,-z
1/2+x,y,-z
1/2-x,y,z
x,-y,z
loop_
_atom_site_type_symbol
_atom_site_label
_atom_site_fract_x
_atom_site_fract_y
_atom_site_fract_z
Si Si1 0.562856 0.000000 0.922819
Si Si2 0.439941 0.725717 0.205851
Si Si3 0.063932 0.195216 0.923543
Si Si4 0.058155 0.603794 0.330918
Si Si5 0.441743 0.103559 0.299792
Si Si6 0.939795 0.226467 0.576108
O O1 0.502479 0.097291 0.895880
O O2 0.750000 0.000000 0.920495
O O3 0.500000 0.000000 0.000000
O O4 0.250000 0.726441 0.200291
O O5 0.511523 0.729050 0.130982
O O6 0.485248 0.643086 0.256511
O O7 0.489548 0.818696 0.245919
O O8 0.250000 0.188208 0.927796
O O9 0.000000 0.209951 0.000000
O O10 0.250000 0.603297 0.332569
O O11 0.002900 0.500000 0.342617
O O12 0.007537 0.678723 0.387003
O O13 0.250000 0.101685 0.297772
O O14 0.487445 0.143152 0.373790
O O15 0.497891 0.000000 0.286962
O O16 0.750000 0.227676 0.575099
O O17 0.000000 0.218247 0.500000
#
# Coordination Sequence:
#
# PCOD9399164 Si02
#       6
#     4   8   8   8   8   8
#     4  10  18  30  46  66  94 128 165 198 231 276
#     4   9  17  30  50  73  92 121 164 205 247 295
#     4  11  21  33  48  70 101 132 163 201 245 289
#     4   8  15  30  51  72  95 124 160 201 246 300
#     4   8  15  28  45  65  90 125 165 198 232 284
#     4   9  17  29  46  69  96 124 159 197 238 288
#
# _framework density 18.132802000000002
#
# number of rings (size 3 to 8) (size 9 to 14) (size 15 to 20)
#    0.000    2.909    0.000    5.727    1.273    0.727 
#    0.000    3.636    0.000    3.273    0.000    0.000 
#    0.000    0.000    0.000    0.000    0.000    0.000 
#
# Total GULP energy -245189.354611 kJ/mol
# GULP energy per Si atom -5572.485332 kJ/mol
# Density = 1.809153 g / cm^3
# Si number density = 18.132802 Si / 1000 Ang^3
#
#
#
# Elastic Constant Matrix: (Units=GPa)
#
#
# Indices 1 2 3 4 5 6 
#
# 1 45.0863 -2.0652 10.4308 0.0000 0.0000 0.0000
# 2 -2.0652 51.1156 -5.0621 0.0000 0.0000 0.0000
# 3 10.4308 -5.0621 80.5612 0.0000 0.0000 0.0000
# 4 0.0000 0.0000 0.0000 16.3700 0.0000 0.0000
# 5 0.0000 0.0000 0.0000 0.0000 27.3502 0.0000
# 6 0.0000 0.0000 0.0000 0.0000 0.0000 9.4486
#
#
#
# Elastic Compliance Matrix: (Units=1/GPa)
#
#
# Indices 1 2 3 4 5 6 
#
# 1 0.022885 0.000635 -0.002923 0.000000 0.000000 0.000000
# 2 0.000635 0.019704 0.001156 0.000000 0.000000 0.000000
# 3 -0.002923 0.001156 0.012864 0.000000 0.000000 0.000000
# 4 0.000000 0.000000 0.000000 0.061088 0.000000 0.000000
# 5 0.000000 0.000000 0.000000 0.000000 0.036563 0.000000
# 6 0.000000 0.000000 0.000000 0.000000 0.000000 0.105836
#
#
# Mechanical properties :
#
#
# Convention : Reuss Voigt Hill
#
# Bulk Modulus (GPa) = 18.80112 20.37445 19.58779
# Shear Modulus (GPa) = 17.92548 22.19774 20.06161
#
# Velocity S-wave (km/s) = 3.14756 3.50262 3.32982
# Velocity P-wave (km/s) = 4.85804 5.25532 5.06058
#
# Compressibility (1/GPa) = 0.05318832
#
# Stress axis : x y z
#
# Youngs Moduli (GPa) = 43.69665 50.75211 77.73611
#
# Poissons Ratio (x) = -0.03223 0.22724
# Poissons Ratio (y) = -0.02775 -0.08985
# Poissons Ratio (z) = 0.12773 -0.05866
#
# Static dielectric constant tensor:
#      x y z
#    x 1.616040 0.000000 0.000000 
#    y 0.000000 1.640170 0.000000 
#    z 0.000000 0.000000 1.621820 
# 
# From -- ./inp_files/27367.got.cif
#   From: 2010.05.17/outbox.cif.g08.bks.cpg/sg51_14_cif.got.tgz:27367.got - 2010.06.03 11:52:47.
