data_PCOD9399369
_publ_section_title
;
Structure prediction by ZEFSAII (Michael W. Deem and Ramdas Pophale) SiO2 
 PCOD9399369
Probable space group: P M M A
;
_chemical_formula_sum "Si O2"
_cell_formula_units_Z 44
_cell_length_a 8.672713
_cell_length_b 29.067307
_cell_length_c 9.337325
_cell_angle_alpha 90.000000
_cell_angle_beta 90.000000
_cell_angle_gamma 90.000000
_cell_volume 2353.868774
_symmetry_space_group_name_H-M "P M M A"
_symmetry_group_IT_number 51
_symmetry_cell_setting 'orthorhombic'
loop_
_space_group_symop_operation_xyz
x,y,z
1/2-x,-y,z
1/2+x,-y,-z
-x,y,-z
-x,-y,-z
1/2+x,y,-z
1/2-x,y,z
x,-y,z
loop_
_atom_site_type_symbol
_atom_site_label
_atom_site_fract_x
_atom_site_fract_y
_atom_site_fract_z
Si Si1 0.435922 0.185868 0.340168
Si Si2 0.934962 0.364543 0.658793
Si Si3 0.935430 0.095598 0.838619
Si Si4 0.434348 0.000000 0.837587
Si Si5 0.934690 0.446814 0.158018
Si Si6 0.563828 0.724907 0.840083
O O1 0.500000 0.186950 0.500000
O O2 0.250000 0.186914 0.346815
O O3 0.480040 0.139343 0.256687
O O4 0.486929 0.230397 0.249677
O O5 0.750000 0.365547 0.653787
O O6 0.983368 0.321420 0.757373
O O7 0.000000 0.358831 0.500000
O O8 0.996291 0.411222 0.729769
O O9 0.750000 0.092400 0.846364
O O10 0.002329 0.047873 0.776163
O O11 0.000000 0.101430 0.000000
O O12 0.250000 0.000000 0.839921
O O13 0.500000 0.000000 0.000000
O O14 0.750000 0.442897 0.155312
O O15 0.974985 0.500000 0.190883
O O16 0.000000 0.436339 0.000000
O O17 0.750000 0.725513 0.846600
O O18 0.500000 0.725904 0.000000
#
# Coordination Sequence:
#
# PCOD9399369 Si02
#       6
#     8   8   8   4   8   8
#     4  10  22  38  56  80 111 144 180 222 270 323
#     4  11  23  38  58  84 116 151 188 230 279 334
#     4  10  19  33  54  80 108 140 180 224 268 318
#     4  10  18  30  51  78 107 140 178 222 270 318
#     4  10  21  38  60  85 114 149 190 235 281 330
#     4  10  22  39  59  85 112 143 183 226 273 326
#
# _framework density 18.692630000000001
#
# number of rings (size 3 to 8) (size 9 to 14) (size 15 to 20)
#    0.000    1.818    0.000    5.182    0.000    6.545 
#    0.000    0.455    0.000    0.000    0.000    0.000 
#    0.000    0.000    0.000    0.000    0.000    0.000 
#
# Total GULP energy -245834.717271 kJ/mol
# GULP energy per Si atom -5587.152665 kJ/mol
# Density = 1.865008 g / cm^3
# Si number density = 18.692630 Si / 1000 Ang^3
#
#
#
# Elastic Constant Matrix: (Units=GPa)
#
#
# Indices 1 2 3 4 5 6 
#
# 1 51.7751 46.7568 38.6248 0.0000 0.0000 0.0000
# 2 46.7568 153.6046 103.8227 0.0000 0.0000 0.0000
# 3 38.6248 103.8227 153.7904 0.0000 0.0000 0.0000
# 4 0.0000 0.0000 0.0000 -1.0841 0.0000 0.0000
# 5 0.0000 0.0000 0.0000 0.0000 36.4074 0.0000
# 6 0.0000 0.0000 0.0000 0.0000 0.0000 13.3686
#
#
#
# Elastic Compliance Matrix: (Units=1/GPa)
#
#
# Indices 1 2 3 4 5 6 
#
# 1 0.027061 -0.006701 -0.002272 0.000000 0.000000 0.000000
# 2 -0.006701 0.013633 -0.007521 0.000000 0.000000 0.000000
# 3 -0.002272 -0.007521 0.012150 0.000000 0.000000 0.000000
# 4 0.000000 0.000000 0.000000 -0.922466 0.000000 0.000000
# 5 0.000000 0.000000 0.000000 0.000000 0.027467 0.000000
# 6 0.000000 0.000000 0.000000 0.000000 0.000000 0.074802
#
#
# Mechanical properties :
#
#
# Convention : Reuss Voigt Hill
#
# Bulk Modulus (GPa) = 50.36285 81.95320 66.15803
# Shear Modulus (GPa) = -6.87055 21.06944 7.09944
#
# Velocity S-wave (km/s) = -1.91925 3.36095 1.95096
# Velocity P-wave (km/s) = 4.69997 7.68108 6.36745
#
# Compressibility (1/GPa) = 0.01985591
#
# Stress axis : x y z
#
# Youngs Moduli (GPa) = 36.95288 73.34877 82.30252
#
# Poissons Ratio (x) = 0.49155 0.18703
# Poissons Ratio (y) = 0.24764 0.61898
# Poissons Ratio (z) = 0.08397 0.55164
#
# Static dielectric constant tensor:
#      x y z
#    x 1.631430 0.000000 0.000000 
#    y 0.000000 1.661430 0.000000 
#    z 0.000000 0.000000 1.601080 
# 
# From -- ./inp_files/5720.got.cif
#   From: 2010.05.17/outbox.cif.g08.bks.cpg/sg51_3_cif.got.tgz:5720.got - 2010.06.03 11:52:47.
