data_PCOD9399579
_publ_section_title
;
Structure prediction by ZEFSAII (Michael W. Deem and Ramdas Pophale) SiO2 
 PCOD9399579
Probable space group: P M M A
;
_chemical_formula_sum "Si O2"
_cell_formula_units_Z 40
_cell_length_a 8.850372
_cell_length_b 11.809901
_cell_length_c 20.856271
_cell_angle_alpha 90.000000
_cell_angle_beta 90.000000
_cell_angle_gamma 90.000000
_cell_volume 2179.939515
_symmetry_space_group_name_H-M "P M M A"
_symmetry_group_IT_number 51
_symmetry_cell_setting 'orthorhombic'
loop_
_space_group_symop_operation_xyz
x,y,z
1/2-x,-y,z
1/2+x,-y,-z
-x,y,-z
-x,-y,-z
1/2+x,y,-z
1/2-x,y,z
x,-y,z
loop_
_atom_site_type_symbol
_atom_site_label
_atom_site_fract_x
_atom_site_fract_y
_atom_site_fract_z
Si Si1 0.073635 0.500000 0.594259
Si Si2 0.067366 0.631926 0.068776
Si Si3 0.425951 0.735275 0.199539
Si Si4 0.426903 0.134672 0.686139
Si Si5 0.919131 0.500000 0.724401
Si Si6 0.429677 0.740981 0.435062
O O1 0.250000 0.500000 0.577810
O O2 0.046137 0.500000 0.670664
O O3 0.994378 0.386117 0.570432
O O4 0.250000 0.634853 0.066640
O O5 0.024331 0.500000 0.081303
O O6 0.018935 0.712275 0.127296
O O7 0.000000 0.663480 0.000000
O O8 0.250000 0.771443 0.197762
O O9 0.517997 0.817641 0.245572
O O10 0.429039 0.611837 0.233066
O O11 0.250000 0.161584 0.677276
O O12 0.518609 0.193941 0.628847
O O13 0.447005 0.000000 0.683442
O O14 0.750000 0.500000 0.693554
O O15 0.500000 0.792389 0.500000
O O16 0.250000 0.739021 0.439299
#
# Coordination Sequence:
#
# PCOD9399579 Si02
#       6
#     4   8   8   8   4   8
#     4  12  23  37  58  89 124 153 187 230 282 343
#     4   9  17  30  49  80 119 156 187 223 274 335
#     4  10  19  34  58  84 116 152 191 234 283 341
#     4  11  25  43  61  84 113 146 191 244 293 342
#     4  10  18  31  54  85 115 151 187 230 285 341
#     4  12  25  42  63  87 117 152 190 233 285 343
#
# _framework density 18.349132999999998
#
# number of rings (size 3 to 8) (size 9 to 14) (size 15 to 20)
#    0.000    1.400    3.000    3.600    0.000    2.800 
#    0.000    0.000    0.000    0.600    0.000    0.000 
#    0.000    0.000    0.000    0.000    0.000    0.000 
#
# Total GULP energy -223471.388676 kJ/mol
# GULP energy per Si atom -5586.784717 kJ/mol
# Density = 1.830737 g / cm^3
# Si number density = 18.349133 Si / 1000 Ang^3
#
#
#
# Elastic Constant Matrix: (Units=GPa)
#
#
# Indices 1 2 3 4 5 6 
#
# 1 115.7406 46.2116 57.3074 0.0000 0.0000 0.0000
# 2 46.2116 48.7803 32.1290 0.0000 0.0000 0.0000
# 3 57.3074 32.1290 148.6806 0.0000 0.0000 0.0000
# 4 0.0000 0.0000 0.0000 66.7682 0.0000 0.0000
# 5 0.0000 0.0000 0.0000 0.0000 34.9729 0.0000
# 6 0.0000 0.0000 0.0000 0.0000 0.0000 41.9445
#
#
#
# Elastic Compliance Matrix: (Units=1/GPa)
#
#
# Indices 1 2 3 4 5 6 
#
# 1 0.015083 -0.012195 -0.003178 0.000000 0.000000 0.000000
# 2 -0.012195 0.033763 -0.002595 0.000000 0.000000 0.000000
# 3 -0.003178 -0.002595 0.008512 0.000000 0.000000 0.000000
# 4 0.000000 0.000000 0.000000 0.014977 0.000000 0.000000
# 5 0.000000 0.000000 0.000000 0.000000 0.028594 0.000000
# 6 0.000000 0.000000 0.000000 0.000000 0.000000 0.023841
#
#
# Mechanical properties :
#
#
# Convention : Reuss Voigt Hill
#
# Bulk Modulus (GPa) = 46.68655 64.94417 55.81536
# Shear Modulus (GPa) = 29.78913 40.57404 35.18159
#
# Velocity S-wave (km/s) = 4.03359 4.70747 4.38350
# Velocity P-wave (km/s) = 6.86963 8.06334 7.49030
#
# Compressibility (1/GPa) = 0.02141945
#
# Stress axis : x y z
#
# Youngs Moduli (GPa) = 66.30044 29.61853 117.48586
#
# Poissons Ratio (x) = 0.36121 0.37339
# Poissons Ratio (y) = 0.80856 0.30492
# Poissons Ratio (z) = 0.21072 0.07687
#
# Static dielectric constant tensor:
#      x y z
#    x 1.625920 0.000000 0.000000 
#    y 0.000000 1.609930 0.000000 
#    z 0.000000 0.000000 1.653130 
# 
# From -- ./inp_files/31409.got.cif
#   From: 2010.05.17/outbox.cif.g08.bks.cpg/sg51_16_cif.got.tgz:31409.got - 2010.06.03 11:52:47.
