data_PCOD9399559
_publ_section_title
;
Structure prediction by ZEFSAII (Michael W. Deem and Ramdas Pophale) SiO2 
 PCOD9399559
Probable space group: P M M A
;
_chemical_formula_sum "Si O2"
_cell_formula_units_Z 64
_cell_length_a 8.472772
_cell_length_b 15.790984
_cell_length_c 25.430727
_cell_angle_alpha 90.000000
_cell_angle_beta 90.000000
_cell_angle_gamma 90.000000
_cell_volume 3402.463610
_symmetry_space_group_name_H-M "P M M A"
_symmetry_group_IT_number 51
_symmetry_cell_setting 'orthorhombic'
loop_
_space_group_symop_operation_xyz
x,y,z
1/2-x,-y,z
1/2+x,-y,-z
-x,y,-z
-x,-y,-z
1/2+x,y,-z
1/2-x,y,z
x,-y,z
loop_
_atom_site_type_symbol
_atom_site_label
_atom_site_fract_x
_atom_site_fract_y
_atom_site_fract_z
Si Si1 0.563800 0.632082 0.208079
Si Si2 0.062206 0.770333 0.942836
Si Si3 0.563955 0.811635 0.762859
Si Si4 0.560637 0.097216 0.559000
Si Si5 0.436835 0.592172 0.095684
Si Si6 0.560319 0.220182 0.351024
Si Si7 0.058313 0.408419 0.672901
Si Si8 0.939878 0.905179 0.143456
O O1 0.750000 0.616194 0.200516
O O2 0.531347 0.731978 0.213219
O O3 0.472043 0.597859 0.158028
O O4 0.516365 0.596806 0.265171
O O5 0.250000 0.775601 0.942839
O O6 0.003148 0.834238 0.897682
O O7 0.014547 0.674081 0.930027
O O8 0.000000 0.794272 0.000000
O O9 0.750000 0.794332 0.765380
O O10 0.511384 0.818360 0.702496
O O11 0.518577 0.888912 0.800186
O O12 0.500000 0.113259 0.500000
O O13 0.750000 0.101800 0.559651
O O14 0.492101 0.164717 0.599709
O O15 0.514477 0.000000 0.572805
O O16 0.250000 0.596975 0.086969
O O17 0.494694 0.500000 0.076807
O O18 0.750000 0.219664 0.346555
O O19 0.507569 0.319435 0.352832
O O20 0.250000 0.408310 0.670729
O O21 0.003686 0.500000 0.651886
O O22 0.750000 0.897067 0.149285
O O23 0.973565 0.000000 0.124451
#
# Coordination Sequence:
#
# PCOD9399559 Si02
#       8
#     8   8   8   8   8   8   8   8
#     4  10  18  31  53  80 111 149 189 229 278 334
#     4  11  24  42  64  84 109 144 183 232 285 340
#     4  11  21  34  55  83 118 154 189 231 280 335
#     4  10  21  38  60  85 114 149 192 242 294 347
#     4  11  23  37  56  84 115 146 183 229 280 336
#     4  10  20  34  56  85 118 156 195 237 285 337
#     4   8  15  28  48  77 112 149 189 229 271 324
#     4  10  22  41  63  86 112 145 185 229 281 344
#
# _framework density 18.809899000000001
#
# number of rings (size 3 to 8) (size 9 to 14) (size 15 to 20)
#    0.000    1.875    1.250    4.125    0.000    4.000 
#    0.000    0.000    0.000    7.875    0.000    0.000 
#    0.000    0.000    0.000    0.000    0.000    0.000 
#
# Total GULP energy -357285.478378 kJ/mol
# GULP energy per Si atom -5582.585600 kJ/mol
# Density = 1.876709 g / cm^3
# Si number density = 18.809899 Si / 1000 Ang^3
#
#
#
# Elastic Constant Matrix: (Units=GPa)
#
#
# Indices 1 2 3 4 5 6 
#
# 1 33.2126 22.2433 14.8664 0.0000 0.0000 0.0000
# 2 22.2433 119.0071 64.9246 0.0000 0.0000 0.0000
# 3 14.8664 64.9246 89.3544 0.0000 0.0000 0.0000
# 4 0.0000 0.0000 0.0000 -2.7469 0.0000 0.0000
# 5 0.0000 0.0000 0.0000 0.0000 31.6150 0.0000
# 6 0.0000 0.0000 0.0000 0.0000 0.0000 15.9370
#
#
#
# Elastic Compliance Matrix: (Units=1/GPa)
#
#
# Indices 1 2 3 4 5 6 
#
# 1 0.034582 -0.005508 -0.001751 0.000000 0.000000 0.000000
# 2 -0.005508 0.014798 -0.009836 0.000000 0.000000 0.000000
# 3 -0.001751 -0.009836 0.018630 0.000000 0.000000 0.000000
# 4 0.000000 0.000000 0.000000 -0.364044 0.000000 0.000000
# 5 0.000000 0.000000 0.000000 0.000000 0.031631 0.000000
# 6 0.000000 0.000000 0.000000 0.000000 0.000000 0.062747
#
#
# Mechanical properties :
#
#
# Convention : Reuss Voigt Hill
#
# Bulk Modulus (GPa) = 29.56937 49.51585 39.54261
# Shear Modulus (GPa) = -32.01187 18.26365 -6.87411
#
# Velocity S-wave (km/s) = -4.12984 3.11940 -1.91375
# Velocity P-wave (km/s) = 2.64320 6.27342 4.02301
#
# Compressibility (1/GPa) = 0.03381878
#
# Stress axis : x y z
#
# Youngs Moduli (GPa) = 28.91684 67.57443 53.67777
#
# Poissons Ratio (x) = 0.37221 0.09401
# Poissons Ratio (y) = 0.15928 0.52798
# Poissons Ratio (z) = 0.05065 0.66467
#
# Static dielectric constant tensor:
#      x y z
#    x 1.649920 0.000000 0.000000 
#    y 0.000000 1.701390 0.000000 
#    z 0.000000 0.000000 1.624260 
# 
# From -- ./inp_files/35001.got.cif
#   From: 2010.05.17/outbox.cif.g08.bks.cpg/sg51_18_cif.got.tgz:35001.got - 2010.06.03 11:52:47.
