data_PCOD9399050
_publ_section_title
;
Structure prediction by ZEFSAII (Michael W. Deem and Ramdas Pophale) SiO2 
 PCOD9399050
Probable space group: P M M A
;
_chemical_formula_sum "Si O2"
_cell_formula_units_Z 64
_cell_length_a 22.245498
_cell_length_b 7.468070
_cell_length_c 20.182909
_cell_angle_alpha 90.000000
_cell_angle_beta 90.000000
_cell_angle_gamma 90.000000
_cell_volume 3353.005568
_symmetry_space_group_name_H-M "P M M A"
_symmetry_group_IT_number 51
_symmetry_cell_setting 'orthorhombic'
loop_
_space_group_symop_operation_xyz
x,y,z
1/2-x,-y,z
1/2+x,-y,-z
-x,y,-z
-x,-y,-z
1/2+x,y,-z
1/2-x,y,z
x,-y,z
loop_
_atom_site_type_symbol
_atom_site_label
_atom_site_fract_x
_atom_site_fract_y
_atom_site_fract_z
Si Si1 0.890206 0.785881 0.405135
Si Si2 0.941280 0.785755 0.958024
Si Si3 0.523669 0.205108 0.819389
Si Si4 0.181856 0.285149 0.963319
Si Si5 0.010830 0.780006 0.330230
Si Si6 0.684969 0.286590 0.287342
Si Si7 0.435060 0.790046 0.462715
Si Si8 0.111707 0.717452 0.834337
O O1 0.831844 0.748621 0.362687
O O2 0.892362 0.714046 0.479984
O O3 0.946224 0.721240 0.359827
O O4 0.897911 0.000000 0.410135
O O5 0.942084 0.714159 0.882469
O O6 0.949569 0.000000 0.953610
O O7 0.876063 0.756616 0.990923
O O8 0.000000 0.718866 0.000000
O O9 0.523366 0.282360 0.744632
O O10 0.454568 0.208151 0.843805
O O11 0.544290 0.000000 0.811546
O O12 0.250000 0.219126 0.978712
O O13 0.185908 0.500000 0.962484
O O14 0.159153 0.228584 0.890383
O O15 0.056787 0.720515 0.388282
O O16 0.009857 0.000000 0.328897
O O17 0.750000 0.214077 0.270250
O O18 0.686287 0.500000 0.277877
O O19 0.635314 0.218759 0.236643
O O20 0.500000 0.779897 0.500000
O O21 0.420861 0.000000 0.454161
O O22 0.106711 0.500000 0.835797
#
# Coordination Sequence:
#
# PCOD9399050 Si02
#       8
#     8   8   8   8   8   8   8   8
#     4   9  15  25  43  63  83 110 147 186 219 256
#     4  10  20  33  49  72 102 128 153 191 241 293
#     4  10  18  29  47  70  96 125 154 184 227 283
#     4  10  21  36  53  71  91 122 166 206 237 277
#     4   8  13  23  41  64  89 114 141 175 218 266
#     4  10  20  31  41  57  87 124 155 185 225 270
#     4   7  11  20  37  62  85 106 135 172 212 252
#     4  10  19  31  47  65  89 122 159 194 228 269
#
# _framework density 19.087353
#
# number of rings (size 3 to 8) (size 9 to 14) (size 15 to 20)
#    0.000    2.750    2.500    1.875    0.000    2.750 
#    0.000    0.000    0.000    6.375    0.000    0.875 
#    0.000    7.000    0.000    0.000    0.000    0.000 
#
# Total GULP energy -356348.579619 kJ/mol
# GULP energy per Si atom -5567.946557 kJ/mol
# Density = 1.904391 g / cm^3
# Si number density = 19.087353 Si / 1000 Ang^3
#
#
#
# Elastic Constant Matrix: (Units=GPa)
#
#
# Indices 1 2 3 4 5 6 
#
# 1 69.0328 -4.5726 45.0323 0.0000 0.0000 0.0000
# 2 -4.5726 55.2291 4.7110 0.0000 0.0000 0.0000
# 3 45.0323 4.7110 138.4575 0.0000 0.0000 0.0000
# 4 0.0000 0.0000 0.0000 7.9264 0.0000 0.0000
# 5 0.0000 0.0000 0.0000 0.0000 13.8069 0.0000
# 6 0.0000 0.0000 0.0000 0.0000 0.0000 13.4400
#
#
#
# Elastic Compliance Matrix: (Units=1/GPa)
#
#
# Indices 1 2 3 4 5 6 
#
# 1 0.018619 0.002064 -0.006126 0.000000 0.000000 0.000000
# 2 0.002064 0.018388 -0.001297 0.000000 0.000000 0.000000
# 3 -0.006126 -0.001297 0.009259 0.000000 0.000000 0.000000
# 4 0.000000 0.000000 0.000000 0.126161 0.000000 0.000000
# 5 0.000000 0.000000 0.000000 0.000000 0.072427 0.000000
# 6 0.000000 0.000000 0.000000 0.000000 0.000000 0.074405
#
#
# Mechanical properties :
#
#
# Convention : Reuss Voigt Hill
#
# Bulk Modulus (GPa) = 28.13094 39.22898 33.67996
# Shear Modulus (GPa) = 14.62736 21.53791 18.08263
#
# Velocity S-wave (km/s) = 2.77128 3.36279 3.08126
# Velocity P-wave (km/s) = 5.00100 5.97284 5.50839
#
# Compressibility (1/GPa) = 0.03554805
#
# Stress axis : x y z
#
# Youngs Moduli (GPa) = 53.70955 54.38350 108.00377
#
# Poissons Ratio (x) = -0.11225 0.66161
# Poissons Ratio (y) = -0.11086 0.14008
# Poissons Ratio (z) = 0.32901 0.07053
#
# Static dielectric constant tensor:
#      x y z
#    x 1.654390 0.000000 0.000000 
#    y 0.000000 1.729680 0.000000 
#    z 0.000000 0.000000 1.728010 
# 
# From -- ./inp_files/34132.got.cif
#   From: 2010.05.17/outbox.cif.g08.bks.cpg/sg51_18_cif.got.tgz:34132.got - 2010.06.03 11:52:47.
