data_PCOD9399405
_publ_section_title
;
Structure prediction by ZEFSAII (Michael W. Deem and Ramdas Pophale) SiO2 
 PCOD9399405
Probable space group: P M M A
;
_chemical_formula_sum "Si O2"
_cell_formula_units_Z 40
_cell_length_a 15.257703
_cell_length_b 7.918587
_cell_length_c 18.524634
_cell_angle_alpha 90.000000
_cell_angle_beta 90.000000
_cell_angle_gamma 90.000000
_cell_volume 2238.136066
_symmetry_space_group_name_H-M "P M M A"
_symmetry_group_IT_number 51
_symmetry_cell_setting 'orthorhombic'
loop_
_space_group_symop_operation_xyz
x,y,z
1/2-x,-y,z
1/2+x,-y,-z
-x,y,-z
-x,-y,-z
1/2+x,y,-z
1/2-x,y,z
x,-y,z
loop_
_atom_site_type_symbol
_atom_site_label
_atom_site_fract_x
_atom_site_fract_y
_atom_site_fract_z
Si Si1 0.079421 0.687392 0.338497
Si Si2 0.947078 0.795457 0.927519
Si Si3 0.852256 0.000000 0.286345
Si Si4 0.499903 0.000000 0.413848
Si Si5 0.438373 0.313136 0.789264
Si Si6 0.250000 0.299003 0.247407
Si Si7 0.750000 0.807026 0.912951
O O1 0.090956 0.500000 0.370493
O O2 0.166069 0.736246 0.295384
O O3 0.005210 0.677747 0.277559
O O4 0.052037 0.831562 0.392497
O O5 0.845859 0.732957 0.932465
O O6 0.002024 0.728492 0.859178
O O7 0.943080 0.000000 0.919882
O O8 0.000000 0.754737 0.000000
O O9 0.874907 0.837751 0.235845
O O10 0.750000 0.000000 0.306144
O O11 0.914109 0.000000 0.359266
O O12 0.500000 0.000000 0.500000
O O13 0.397866 0.500000 0.798603
O O14 0.250000 0.500000 0.229090
O O15 0.250000 0.197568 0.173783
O O16 0.750000 0.000000 0.940582
#
# Coordination Sequence:
#
# PCOD9399405 Si02
#       7
#     8   8   4   4   8   4   4
#     4   9  19  33  55  85 116 145 180 229 277 328
#     4  10  20  35  51  79 120 160 198 245 301 352
#     4  10  22  42  62  80 116 153 188 241 288 333
#     4  10  22  39  60  87 113 151 188 217 277 345
#     4  10  19  35  60  85 108 147 198 240 284 337
#     4  10  18  30  52  84 114 140 179 233 287 331
#     4  10  20  30  54  80 108 154 201 242 294 354
#
# _framework density 17.872015000000001
#
# number of rings (size 3 to 8) (size 9 to 14) (size 15 to 20)
#    0.000    2.200    3.000    0.000    1.400    1.200 
#    3.600    0.000    0.000    0.000    0.000    0.000 
#    0.000    0.000    0.000    0.000    0.000    0.000 
#
# Total GULP energy -222784.790106 kJ/mol
# GULP energy per Si atom -5569.619753 kJ/mol
# Density = 1.783134 g / cm^3
# Si number density = 17.872015 Si / 1000 Ang^3
#
#
#
# Elastic Constant Matrix: (Units=GPa)
#
#
# Indices 1 2 3 4 5 6 
#
# 1 100.9400 42.6051 21.4867 0.0000 0.0000 0.0000
# 2 42.6051 79.8177 49.4533 0.0000 0.0000 0.0000
# 3 21.4867 49.4533 85.1739 0.0000 0.0000 0.0000
# 4 0.0000 0.0000 0.0000 59.1884 0.0000 0.0000
# 5 0.0000 0.0000 0.0000 0.0000 19.4750 0.0000
# 6 0.0000 0.0000 0.0000 0.0000 0.0000 12.3912
#
#
#
# Elastic Compliance Matrix: (Units=1/GPa)
#
#
# Indices 1 2 3 4 5 6 
#
# 1 0.012861 -0.007582 0.001158 0.000000 0.000000 0.000000
# 2 -0.007582 0.024038 -0.012044 0.000000 0.000000 0.000000
# 3 0.001158 -0.012044 0.018442 0.000000 0.000000 0.000000
# 4 0.000000 0.000000 0.000000 0.016895 0.000000 0.000000
# 5 0.000000 0.000000 0.000000 0.000000 0.051348 0.000000
# 6 0.000000 0.000000 0.000000 0.000000 0.000000 0.080702
#
#
# Mechanical properties :
#
#
# Convention : Reuss Voigt Hill
#
# Bulk Modulus (GPa) = 54.33711 54.78020 54.55865
# Shear Modulus (GPa) = 20.21370 28.37003 24.29186
#
# Velocity S-wave (km/s) = 3.36672 3.98854 3.69075
# Velocity P-wave (km/s) = 6.75148 7.20619 6.98254
#
# Compressibility (1/GPa) = 0.01840363
#
# Stress axis : x y z
#
# Youngs Moduli (GPa) = 77.75609 41.60065 54.22541
#
# Poissons Ratio (x) = 0.31543 -0.06280
# Poissons Ratio (y) = 0.58957 0.65310
# Poissons Ratio (z) = -0.09005 0.50104
#
# Static dielectric constant tensor:
#      x y z
#    x 1.625350 0.000000 0.000000 
#    y 0.000000 1.675980 0.000000 
#    z 0.000000 0.000000 1.559190 
# 
# From -- ./inp_files/23851.got.cif
#   From: 2010.05.17/outbox.cif.g08.bks.cpg/sg51_12_cif.got.tgz:23851.got - 2010.06.03 11:52:47.
