data_PCOD9399374
_publ_section_title
;
Structure prediction by ZEFSAII (Michael W. Deem and Ramdas Pophale) SiO2 
 PCOD9399374
Probable space group: P M M A
;
_chemical_formula_sum "Si O2"
_cell_formula_units_Z 44
_cell_length_a 8.647299
_cell_length_b 29.227350
_cell_length_c 9.556710
_cell_angle_alpha 90.000000
_cell_angle_beta 90.000000
_cell_angle_gamma 90.000000
_cell_volume 2415.340278
_symmetry_space_group_name_H-M "P M M A"
_symmetry_group_IT_number 51
_symmetry_cell_setting 'orthorhombic'
loop_
_space_group_symop_operation_xyz
x,y,z
1/2-x,-y,z
1/2+x,-y,-z
-x,y,-z
-x,-y,-z
1/2+x,y,-z
1/2-x,y,z
x,-y,z
loop_
_atom_site_type_symbol
_atom_site_label
_atom_site_fract_x
_atom_site_fract_y
_atom_site_fract_z
Si Si1 0.563943 0.095502 0.658014
Si Si2 0.934449 0.367140 0.343888
Si Si3 0.935273 0.448269 0.843157
Si Si4 0.565112 0.000000 0.341274
Si Si5 0.436097 0.730690 0.343102
Si Si6 0.563637 0.182815 0.843540
O O1 0.500000 0.101607 0.500000
O O2 0.750000 0.092843 0.650398
O O3 0.498474 0.047680 0.717996
O O4 0.517650 0.138149 0.754309
O O5 0.750000 0.364928 0.348136
O O6 0.000000 0.373297 0.500000
O O7 0.990575 0.409083 0.250461
O O8 0.000569 0.318331 0.293231
O O9 0.750000 0.443330 0.844680
O O10 0.971855 0.500000 0.793012
O O11 0.000000 0.444394 0.000000
O O12 0.500000 0.000000 0.500000
O O13 0.750000 0.000000 0.342823
O O14 0.500000 0.738367 0.500000
O O15 0.250000 0.728988 0.349835
O O16 0.484271 0.771808 0.241430
O O17 0.750000 0.182984 0.849658
O O18 0.500000 0.182031 0.000000
#
# Coordination Sequence:
#
# PCOD9399374 Si02
#       6
#     8   8   8   4   8   8
#     4  10  19  34  55  81 108 139 177 220 266 315
#     4  11  22  37  58  84 113 146 183 227 276 325
#     4  10  21  38  59  83 112 147 186 227 272 325
#     4  10  18  30  51  80 107 138 176 218 264 312
#     4  10  20  37  58  82 109 140 180 225 271 324
#     4  10  23  38  55  79 109 142 179 221 267 319
#
# _framework density 18.216895999999998
#
# number of rings (size 3 to 8) (size 9 to 14) (size 15 to 20)
#    0.000    1.818    0.000    6.818    0.000    5.091 
#    0.000    2.273    0.000    0.000    0.000    0.000 
#    0.000    0.000    0.000    0.000    0.000    0.000 
#
# Total GULP energy -245732.242133 kJ/mol
# GULP energy per Si atom -5584.823685 kJ/mol
# Density = 1.817543 g / cm^3
# Si number density = 18.216896 Si / 1000 Ang^3
#
#
#
# Elastic Constant Matrix: (Units=GPa)
#
#
# Indices 1 2 3 4 5 6 
#
# 1 100.0651 73.1537 38.9054 0.0000 0.0000 0.0000
# 2 73.1537 217.0859 102.2289 0.0000 0.0000 0.0000
# 3 38.9054 102.2289 84.1453 0.0000 0.0000 0.0000
# 4 0.0000 0.0000 0.0000 -37.3257 0.0000 0.0000
# 5 0.0000 0.0000 0.0000 0.0000 32.5812 0.0000
# 6 0.0000 0.0000 0.0000 0.0000 0.0000 220.1204
#
#
#
# Elastic Compliance Matrix: (Units=1/GPa)
#
#
# Indices 1 2 3 4 5 6 
#
# 1 0.013358 -0.003723 -0.001653 0.000000 0.000000 0.000000
# 2 -0.003723 0.011803 -0.012619 0.000000 0.000000 0.000000
# 3 -0.001653 -0.012619 0.027979 0.000000 0.000000 0.000000
# 4 0.000000 0.000000 0.000000 -0.026791 0.000000 0.000000
# 5 0.000000 0.000000 0.000000 0.000000 0.030693 0.000000
# 6 0.000000 0.000000 0.000000 0.000000 0.000000 0.004543
#
#
# Mechanical properties :
#
#
# Convention : Reuss Voigt Hill
#
# Bulk Modulus (GPa) = 58.30623 92.20802 75.25713
# Shear Modulus (GPa) = 48.40692 55.54241 51.97467
#
# Velocity S-wave (km/s) = 5.16045 5.52772 5.34724
# Velocity P-wave (km/s) = 8.22090 9.56387 8.91770
#
# Compressibility (1/GPa) = 0.01715082
#
# Stress axis : x y z
#
# Youngs Moduli (GPa) = 74.86217 84.72231 35.74091
#
# Poissons Ratio (x) = 0.31540 0.05909
# Poissons Ratio (y) = 0.27869 0.45100
# Poissons Ratio (z) = 0.12377 1.06908
#
# Static dielectric constant tensor:
#      x y z
#    x 1.611080 0.000000 0.000000 
#    y 0.000000 1.645140 0.000000 
#    z 0.000000 0.000000 1.589370 
# 
# From -- ./inp_files/5724.got.cif
#   From: 2010.05.17/outbox.cif.g08.bks.cpg/sg51_3_cif.got.tgz:5724.got - 2010.06.03 11:52:47.
