data_PCOD9399006
_publ_section_title
;
Structure prediction by ZEFSAII (Michael W. Deem and Ramdas Pophale) SiO2 
 PCOD9399006
Probable space group: P M M A
;
_chemical_formula_sum "Si O2"
_cell_formula_units_Z 56
_cell_length_a 29.065291
_cell_length_b 8.482894
_cell_length_c 13.941967
_cell_angle_alpha 90.000000
_cell_angle_beta 90.000000
_cell_angle_gamma 90.000000
_cell_volume 3437.500469
_symmetry_space_group_name_H-M "P M M A"
_symmetry_group_IT_number 51
_symmetry_cell_setting 'orthorhombic'
loop_
_space_group_symop_operation_xyz
x,y,z
1/2-x,-y,z
1/2+x,-y,-z
-x,y,-z
-x,-y,-z
1/2+x,y,-z
1/2-x,y,z
x,-y,z
loop_
_atom_site_type_symbol
_atom_site_label
_atom_site_fract_x
_atom_site_fract_y
_atom_site_fract_z
Si Si1 0.801411 0.808001 0.013129
Si Si2 0.604031 0.314867 0.285878
Si Si3 0.979252 0.187500 0.398246
Si Si4 0.302472 0.809896 0.763058
Si Si5 0.894247 0.190205 0.917186
Si Si6 0.533694 0.315871 0.780721
Si Si7 0.450047 0.814364 0.892129
O O1 0.750000 0.757300 0.984825
O O2 0.842984 0.755729 0.945438
O O3 0.801966 0.000000 0.012781
O O4 0.808800 0.763057 0.124654
O O5 0.599865 0.500000 0.265609
O O6 0.568741 0.270100 0.370222
O O7 0.657043 0.267693 0.298017
O O8 0.585598 0.217414 0.194037
O O9 0.000000 0.237848 0.500000
O O10 0.015038 0.226399 0.312944
O O11 0.971504 0.000000 0.400288
O O12 0.250000 0.768354 0.736254
O O13 0.306515 0.000000 0.758404
O O14 0.917875 0.260143 0.823273
O O15 0.894213 0.000000 0.909605
O O16 0.926018 0.230988 0.008989
O O17 0.533943 0.500000 0.760028
O O18 0.495532 0.278542 0.862325
O O19 0.461377 0.000000 0.895904
#
# Coordination Sequence:
#
# PCOD9399006 Si02
#       7
#     8   8   8   8   8   8   8
#     4   8  14  26  45  67  90 123 168 208 237 265
#     4  11  20  29  46  72 103 132 157 193 244 298
#     4  10  21  38  58  74  90 117 158 203 244 292
#     4   9  16  29  48  68  94 131 173 207 233 271
#     4  10  18  29  46  66  92 128 166 201 232 270
#     4  11  22  32  45  68  97 125 153 191 238 290
#     4  10  18  30  46  64  91 129 168 199 229 269
#
# _framework density 16.290907000000001
#
# number of rings (size 3 to 8) (size 9 to 14) (size 15 to 20)
#    0.000    2.143    1.429    6.429    0.000    4.286 
#    0.000    0.000    0.000    0.429    0.000    1.000 
#    0.000    3.429    0.000    0.000    0.000    0.000 
#
# Total GULP energy -312343.500669 kJ/mol
# GULP energy per Si atom -5577.562512 kJ/mol
# Density = 1.625383 g / cm^3
# Si number density = 16.290907 Si / 1000 Ang^3
#
#
#
# Elastic Constant Matrix: (Units=GPa)
#
#
# Indices 1 2 3 4 5 6 
#
# 1 110.7525 7.8613 49.6179 0.0000 0.0000 0.0000
# 2 7.8613 15.5112 8.4307 0.0000 0.0000 0.0000
# 3 49.6179 8.4307 49.5090 0.0000 0.0000 0.0000
# 4 0.0000 0.0000 0.0000 -57.6440 0.0000 0.0000
# 5 0.0000 0.0000 0.0000 0.0000 18.2208 0.0000
# 6 0.0000 0.0000 0.0000 0.0000 0.0000 -9.0420
#
#
#
# Elastic Compliance Matrix: (Units=1/GPa)
#
#
# Indices 1 2 3 4 5 6 
#
# 1 0.016393 0.000685 -0.016546 0.000000 0.000000 0.000000
# 2 0.000685 0.071074 -0.012789 0.000000 0.000000 0.000000
# 3 -0.016546 -0.012789 0.038959 0.000000 0.000000 0.000000
# 4 0.000000 0.000000 0.000000 -0.017348 0.000000 0.000000
# 5 0.000000 0.000000 0.000000 0.000000 0.054882 0.000000
# 6 0.000000 0.000000 0.000000 0.000000 0.000000 -0.110595
#
#
# Mechanical properties :
#
#
# Convention : Reuss Voigt Hill
#
# Bulk Modulus (GPa) = 14.46660 34.17695 24.32177
# Shear Modulus (GPa) = 37.39502 -2.36887 17.51307
#
# Velocity S-wave (km/s) = 4.79629 -1.20717 3.28231
# Velocity P-wave (km/s) = 6.29062 4.36826 5.41542
#
# Compressibility (1/GPa) = 0.06912476
#
# Stress axis : x y z
#
# Youngs Moduli (GPa) = 61.00079 14.06990 25.66833
#
# Poissons Ratio (x) = -0.00964 0.42471
# Poissons Ratio (y) = -0.04177 0.32828
# Poissons Ratio (z) = 1.00931 0.17994
#
# Static dielectric constant tensor:
#      x y z
#    x 1.586980 0.000000 0.000000 
#    y 0.000000 1.545880 0.000000 
#    z 0.000000 0.000000 1.525850 
# 
# From -- ./inp_files/26477.got.cif
#   From: 2010.05.17/outbox.cif.g08.bks.cpg/sg51_14_cif.got.tgz:26477.got - 2010.06.03 11:52:47.
