data_PCOD9399629
_publ_section_title
;
Structure prediction by ZEFSAII (Michael W. Deem and Ramdas Pophale) SiO2 
 PCOD9399629
Probable space group: P M M A
;
_chemical_formula_sum "Si O2"
_cell_formula_units_Z 40
_cell_length_a 28.572539
_cell_length_b 7.860573
_cell_length_c 10.345705
_cell_angle_alpha 90.000000
_cell_angle_beta 90.000000
_cell_angle_gamma 90.000000
_cell_volume 2323.609429
_symmetry_space_group_name_H-M "P M M A"
_symmetry_group_IT_number 51
_symmetry_cell_setting 'orthorhombic'
loop_
_space_group_symop_operation_xyz
x,y,z
1/2-x,-y,z
1/2+x,-y,-z
-x,y,-z
-x,-y,-z
1/2+x,y,-z
1/2-x,y,z
x,-y,z
loop_
_atom_site_type_symbol
_atom_site_label
_atom_site_fract_x
_atom_site_fract_y
_atom_site_fract_z
Si Si1 0.473626 0.295362 0.370122
Si Si2 0.128673 0.301789 0.466842
Si Si3 0.803731 0.000000 0.218282
Si Si4 0.802921 0.000000 0.532097
Si Si5 0.628387 0.692398 0.224027
Si Si6 0.970327 0.801707 0.120291
O O1 0.500000 0.239420 0.500000
O O2 0.479747 0.500000 0.359396
O O3 0.418925 0.261796 0.390900
O O4 0.497205 0.213842 0.246215
O O5 0.140989 0.500000 0.445519
O O6 0.168679 0.168838 0.430691
O O7 0.119169 0.283557 0.621516
O O8 0.801447 0.000000 0.375154
O O9 0.833874 0.166665 0.182747
O O10 0.750000 0.000000 0.171407
O O11 0.750000 0.000000 0.580304
O O12 0.645823 0.500000 0.206783
O O13 0.579111 0.714934 0.151564
O O14 0.960117 0.000000 0.094464
O O15 0.000000 0.731444 0.000000
#
# Coordination Sequence:
#
# PCOD9399629 Si02
#       6
#     8   8   4   4   8   8
#     4  10  19  32  51  76 103 136 177 213 252 309
#     4   9  18  30  48  76 102 130 174 216 252 309
#     4   9  18  32  48  73 105 132 171 221 260 309
#     4   9  18  30  46  70 101 137 169 207 268 315
#     4  10  18  32  52  73 103 140 172 210 263 310
#     4  11  23  35  49  76 111 145 178 216 261 312
#
# _framework density 17.214599
#
# number of rings (size 3 to 8) (size 9 to 14) (size 15 to 20)
#    0.000    2.200    3.000    0.600    1.400    2.800 
#    0.000    4.000    0.000    0.000    0.000    2.800 
#    0.000    3.200    0.000    0.000    0.000    0.000 
#
# Total GULP energy -223104.434621 kJ/mol
# GULP energy per Si atom -5577.610866 kJ/mol
# Density = 1.717542 g / cm^3
# Si number density = 17.214599 Si / 1000 Ang^3
#
#
#
# Elastic Constant Matrix: (Units=GPa)
#
#
# Indices 1 2 3 4 5 6 
#
# 1 136.0973 72.7667 27.9291 0.0000 0.0000 0.0000
# 2 72.7667 88.8427 12.8420 0.0000 0.0000 0.0000
# 3 27.9291 12.8420 47.7338 0.0000 0.0000 0.0000
# 4 0.0000 0.0000 0.0000 12.5754 0.0000 0.0000
# 5 0.0000 0.0000 0.0000 0.0000 12.2576 0.0000
# 6 0.0000 0.0000 0.0000 0.0000 0.0000 33.5825
#
#
#
# Elastic Compliance Matrix: (Units=1/GPa)
#
#
# Indices 1 2 3 4 5 6 
#
# 1 0.014308 -0.010934 -0.005430 0.000000 0.000000 0.000000
# 2 -0.010934 0.020067 0.000999 0.000000 0.000000 0.000000
# 3 -0.005430 0.000999 0.023858 0.000000 0.000000 0.000000
# 4 0.000000 0.000000 0.000000 0.079520 0.000000 0.000000
# 5 0.000000 0.000000 0.000000 0.000000 0.081582 0.000000
# 6 0.000000 0.000000 0.000000 0.000000 0.000000 0.029777
#
#
# Mechanical properties :
#
#
# Convention : Reuss Voigt Hill
#
# Bulk Modulus (GPa) = 36.36041 55.52771 45.94406
# Shear Modulus (GPa) = 17.30038 22.29218 19.79628
#
# Velocity S-wave (km/s) = 3.17359 3.60246 3.39480
# Velocity P-wave (km/s) = 5.88188 7.04484 6.48947
#
# Compressibility (1/GPa) = 0.02750244
#
# Stress axis : x y z
#
# Youngs Moduli (GPa) = 69.89016 49.83272 41.91482
#
# Poissons Ratio (x) = 0.54488 0.22760
# Poissons Ratio (y) = 0.76419 -0.04187
# Poissons Ratio (z) = 0.37951 -0.04978
#
# Static dielectric constant tensor:
#      x y z
#    x 1.565460 0.000000 0.000000 
#    y 0.000000 1.603890 0.000000 
#    z 0.000000 0.000000 1.563460 
# 
# From -- ./inp_files/12182.got.cif
#   From: 2010.05.17/outbox.cif.g08.bks.cpg/sg51_7_cif.got.tgz:12182.got - 2010.06.03 11:52:47.
