data_PCOD9399921
_publ_section_title
;
Structure prediction by ZEFSAII (Michael W. Deem and Ramdas Pophale) SiO2 
 PCOD9399921
Probable space group: P M M A
;
_chemical_formula_sum "Si O2"
_cell_formula_units_Z 64
_cell_length_a 16.746395
_cell_length_b 14.968368
_cell_length_c 12.050299
_cell_angle_alpha 90.000000
_cell_angle_beta 90.000000
_cell_angle_gamma 90.000000
_cell_volume 3020.602696
_symmetry_space_group_name_H-M "P M M A"
_symmetry_group_IT_number 51
_symmetry_cell_setting 'orthorhombic'
loop_
_space_group_symop_operation_xyz
x,y,z
1/2-x,-y,z
1/2+x,-y,-z
-x,y,-z
-x,-y,-z
1/2+x,y,-z
1/2-x,y,z
x,-y,z
loop_
_atom_site_type_symbol
_atom_site_label
_atom_site_fract_x
_atom_site_fract_y
_atom_site_fract_z
Si Si1 0.346522 0.397391 0.220932
Si Si2 0.160880 0.903647 0.176505
Si Si3 0.842472 0.358547 0.028993
Si Si4 0.344348 0.231715 0.580544
Si Si5 0.912483 0.229039 0.662782
Si Si6 0.064152 0.104861 0.723145
Si Si7 0.585064 0.827593 0.031248
Si Si8 0.347404 0.597963 0.727761
O O1 0.250000 0.375742 0.228719
O O2 0.355320 0.500000 0.256580
O O3 0.400741 0.328815 0.290170
O O4 0.371711 0.389053 0.091391
O O5 0.250000 0.901872 0.131052
O O6 0.151328 0.826969 0.265639
O O7 0.146043 0.000000 0.229501
O O8 0.103544 0.890102 0.072739
O O9 0.750000 0.385814 0.029954
O O10 0.851376 0.251744 0.034037
O O11 0.877633 0.392443 0.145397
O O12 0.250000 0.240165 0.557826
O O13 0.392115 0.228273 0.466111
O O14 0.362667 0.143225 0.651539
O O15 0.370842 0.317838 0.653189
O O16 0.992183 0.172254 0.689202
O O17 0.080933 0.121906 0.852882
O O18 0.048228 0.000000 0.703201
O O19 0.500000 0.784092 0.000000
O O20 0.250000 0.601280 0.731870
O O21 0.370083 0.500000 0.684319
#
# Coordination Sequence:
#
# PCOD9399921 Si02
#       8
#     8   8   8   8   8   8   8   8
#     4  10  20  36  64 101 136 173 218 269 328 390
#     4  11  23  38  61  93 126 164 212 265 321 383
#     4  10  18  34  62  93 129 169 210 261 323 386
#     4  11  25  44  67  95 127 169 226 282 327 381
#     4  12  24  43  66  91 132 175 220 267 325 391
#     4  12  27  46  69  94 128 174 219 271 338 403
#     4  12  22  38  65  93 128 166 208 259 326 395
#     4   9  18  35  62  93 123 159 204 256 318 383
#
# _framework density 21.187825
#
# number of rings (size 3 to 8) (size 9 to 14) (size 15 to 20)
#    0.000    1.125    3.750    3.000    0.000    4.750 
#    0.000    1.875    0.000    3.000    0.000    0.000 
#    0.000    0.000    0.000    0.000    0.000    0.000 
#
# Total GULP energy -357375.842735 kJ/mol
# GULP energy per Si atom -5583.997543 kJ/mol
# Density = 2.113960 g / cm^3
# Si number density = 21.187825 Si / 1000 Ang^3
#
#
#
# Elastic Constant Matrix: (Units=GPa)
#
#
# Indices 1 2 3 4 5 6 
#
# 1 19.1752 12.3379 2.5514 0.0000 0.0000 0.0000
# 2 12.3379 146.6766 36.2239 0.0000 0.0000 0.0000
# 3 2.5514 36.2239 118.2871 0.0000 0.0000 0.0000
# 4 0.0000 0.0000 0.0000 -11.6046 0.0000 0.0000
# 5 0.0000 0.0000 0.0000 0.0000 -207.3752 0.0000
# 6 0.0000 0.0000 0.0000 0.0000 0.0000 21.9030
#
#
#
# Elastic Compliance Matrix: (Units=1/GPa)
#
#
# Indices 1 2 3 4 5 6 
#
# 1 0.055141 -0.004700 0.000250 0.000000 0.000000 0.000000
# 2 -0.004700 0.007776 -0.002280 0.000000 0.000000 0.000000
# 3 0.000250 -0.002280 0.009147 0.000000 0.000000 0.000000
# 4 0.000000 0.000000 0.000000 -0.086173 0.000000 0.000000
# 5 0.000000 0.000000 0.000000 0.000000 -0.004822 0.000000
# 6 0.000000 0.000000 0.000000 0.000000 0.000000 0.045656
#
#
# Mechanical properties :
#
#
# Convention : Reuss Voigt Hill
#
# Bulk Modulus (GPa) = 17.06359 42.92951 29.99655
# Shear Modulus (GPa) = 83.72334 -23.88033 29.92151
#
# Velocity S-wave (km/s) = 6.29290 -3.36084 3.76201
# Velocity P-wave (km/s) = 7.80204 2.29021 5.74965
#
# Compressibility (1/GPa) = 0.05860432
#
# Stress axis : x y z
#
# Youngs Moduli (GPa) = 18.13516 128.59849 109.32750
#
# Poissons Ratio (x) = 0.60442 -0.02732
# Poissons Ratio (y) = 0.08524 0.24926
# Poissons Ratio (z) = -0.00453 0.29320
#
# Static dielectric constant tensor:
#      x y z
#    x 1.824970 0.000000 0.000000 
#    y 0.000000 1.781730 0.000000 
#    z 0.000000 0.000000 1.735470 
# 
# From -- ./inp_files/17545.got.cif
#   From: 2010.05.17/outbox.cif.g08.bks.cpg/sg51_9_cif.got.tgz:17545.got - 2010.06.03 11:52:47.
