data_PCOD9399646
_publ_section_title
;
Structure prediction by ZEFSAII (Michael W. Deem and Ramdas Pophale) SiO2 
 PCOD9399646
Probable space group: P M M A
;
_chemical_formula_sum "Si O2"
_cell_formula_units_Z 36
_cell_length_a 8.654012
_cell_length_b 15.582205
_cell_length_c 14.654659
_cell_angle_alpha 90.000000
_cell_angle_beta 90.000000
_cell_angle_gamma 90.000000
_cell_volume 1976.160089
_symmetry_space_group_name_H-M "P M M A"
_symmetry_group_IT_number 51
_symmetry_cell_setting 'orthorhombic'
loop_
_space_group_symop_operation_xyz
x,y,z
1/2-x,-y,z
1/2+x,-y,-z
-x,y,-z
-x,-y,-z
1/2+x,y,-z
1/2-x,y,z
x,-y,z
loop_
_atom_site_type_symbol
_atom_site_label
_atom_site_fract_x
_atom_site_fract_y
_atom_site_fract_z
Si Si1 0.065142 0.000000 0.103283
Si Si2 0.066264 0.179331 0.898137
Si Si3 0.566411 0.252434 0.725403
Si Si4 0.434030 0.600826 0.600571
Si Si5 0.064073 0.098163 0.602758
O O1 0.999619 0.911179 0.140392
O O2 0.250000 0.000000 0.104077
O O3 0.000000 0.000000 0.000000
O O4 0.250000 0.173940 0.903557
O O5 0.010759 0.248331 0.825048
O O6 0.000000 0.192345 0.000000
O O7 0.750000 0.247326 0.734082
O O8 0.515466 0.337406 0.672164
O O9 0.506175 0.171418 0.666408
O O10 0.500000 0.619698 0.500000
O O11 0.250000 0.615891 0.601164
O O12 0.461908 0.500000 0.618998
O O13 0.250000 0.105958 0.602290
O O14 0.000000 0.109129 0.500000
O O15 0.024947 0.000000 0.631430
#
# Coordination Sequence:
#
# PCOD9399646 Si02
#       5
#     4   8   8   8   8
#     4  10  18  32  52  76 105 142 187 234 284 332
#     4  11  22  38  57  80 112 149 193 241 290 339
#     4  12  24  37  57  84 115 151 192 236 285 343
#     4  10  21  39  63  90 119 150 187 234 288 345
#     4  10  21  37  55  77 110 150 192 234 281 336
#
# _framework density 18.217148999999999
#
# number of rings (size 3 to 8) (size 9 to 14) (size 15 to 20)
#    0.000    1.333    0.000    8.333    1.556    2.667 
#    0.000    0.000    0.000    0.667    0.000    0.000 
#    0.000    0.000    0.000    0.000    0.000    0.000 
#
# Total GULP energy -201260.323938 kJ/mol
# GULP energy per Si atom -5590.564554 kJ/mol
# Density = 1.817569 g / cm^3
# Si number density = 18.217149 Si / 1000 Ang^3
#
#
#
# Elastic Constant Matrix: (Units=GPa)
#
#
# Indices 1 2 3 4 5 6 
#
# 1 162.7155 49.3346 53.3102 0.0000 0.0000 0.0000
# 2 49.3346 57.6182 56.3669 0.0000 0.0000 0.0000
# 3 53.3102 56.3669 105.6113 0.0000 0.0000 0.0000
# 4 0.0000 0.0000 0.0000 16.3275 0.0000 0.0000
# 5 0.0000 0.0000 0.0000 0.0000 30.8726 0.0000
# 6 0.0000 0.0000 0.0000 0.0000 0.0000 25.6742
#
#
#
# Elastic Compliance Matrix: (Units=1/GPa)
#
#
# Indices 1 2 3 4 5 6 
#
# 1 0.008335 -0.006322 -0.000834 0.000000 0.000000 0.000000
# 2 -0.006322 0.041113 -0.018752 0.000000 0.000000 0.000000
# 3 -0.000834 -0.018752 0.019898 0.000000 0.000000 0.000000
# 4 0.000000 0.000000 0.000000 0.061246 0.000000 0.000000
# 5 0.000000 0.000000 0.000000 0.000000 0.032391 0.000000
# 6 0.000000 0.000000 0.000000 0.000000 0.000000 0.038950
#
#
# Mechanical properties :
#
#
# Convention : Reuss Voigt Hill
#
# Bulk Modulus (GPa) = 57.03829 71.55204 64.29517
# Shear Modulus (GPa) = 19.26102 25.70374 22.48238
#
# Velocity S-wave (km/s) = 3.25515 3.76036 3.51683
# Velocity P-wave (km/s) = 6.74582 7.62996 7.20147
#
# Compressibility (1/GPa) = 0.01753208
#
# Stress axis : x y z
#
# Youngs Moduli (GPa) = 119.96887 24.32320 50.25710
#
# Poissons Ratio (x) = 0.15376 0.04189
# Poissons Ratio (y) = 0.75840 0.94241
# Poissons Ratio (z) = 0.10000 0.45610
#
# Static dielectric constant tensor:
#      x y z
#    x 1.603920 0.000000 0.000000 
#    y 0.000000 1.643110 0.000000 
#    z 0.000000 0.000000 1.604490 
# 
# From -- ./inp_files/20330.got.cif
#   From: 2010.05.17/outbox.cif.g08.bks.cpg/sg51_11_cif.got.tgz:20330.got - 2010.06.03 11:52:47.
