data_PCOD9399859
_publ_section_title
;
Structure prediction by ZEFSAII (Michael W. Deem and Ramdas Pophale) SiO2 
 PCOD9399859
Probable space group: P M M A
;
_chemical_formula_sum "Si O2"
_cell_formula_units_Z 48
_cell_length_a 17.965052
_cell_length_b 13.683616
_cell_length_c 9.727789
_cell_angle_alpha 90.000000
_cell_angle_beta 90.000000
_cell_angle_gamma 90.000000
_cell_volume 2391.351951
_symmetry_space_group_name_H-M "P M M A"
_symmetry_group_IT_number 51
_symmetry_cell_setting 'orthorhombic'
loop_
_space_group_symop_operation_xyz
x,y,z
1/2-x,-y,z
1/2+x,-y,-z
-x,y,-z
-x,-y,-z
1/2+x,y,-z
1/2-x,y,z
x,-y,z
loop_
_atom_site_type_symbol
_atom_site_label
_atom_site_fract_x
_atom_site_fract_y
_atom_site_fract_z
Si Si1 0.332673 0.284006 0.451058
Si Si2 0.167538 0.706042 0.054804
Si Si3 0.858575 0.886504 0.753583
Si Si4 0.388836 0.279626 0.753998
Si Si5 0.950437 0.384231 0.742535
Si Si6 0.477394 0.889842 0.852054
O O1 0.250000 0.322990 0.417849
O O2 0.336555 0.176244 0.380428
O O3 0.344643 0.287343 0.613309
O O4 0.400660 0.343183 0.382986
O O5 0.250000 0.668138 0.090535
O O6 0.164680 0.817118 0.117374
O O7 0.099826 0.650405 0.128634
O O8 0.155413 0.696656 0.892605
O O9 0.948054 0.888788 0.762740
O O10 0.834169 0.000000 0.758634
O O11 0.467224 0.338278 0.746964
O O12 0.414415 0.168547 0.776538
O O13 0.956158 0.500000 0.737062
O O14 0.453461 0.000000 0.881149
O O15 0.500000 0.844432 0.000000
#
# Coordination Sequence:
#
# PCOD9399859 Si02
#       6
#     8   8   8   8   8   8
#     4  11  25  41  60  89 126 162 196 244 306 360
#     4  11  23  39  63  93 125 159 195 245 305 355
#     4  10  20  37  62  88 119 164 212 247 284 345
#     4  12  22  40  62  93 125 155 199 252 299 355
#     4  11  24  44  69  89 112 154 206 249 293 361
#     4  10  18  33  60  92 121 156 203 253 295 339
#
# _framework density 20.072327000000001
#
# number of rings (size 3 to 8) (size 9 to 14) (size 15 to 20)
#    0.000    1.167    5.000    3.500    0.000    6.000 
#    0.000    1.667    0.000    6.000    0.000    0.000 
#    0.000    0.000    0.000    0.000    0.000    0.000 
#
# Total GULP energy -267858.837674 kJ/mol
# GULP energy per Si atom -5580.392452 kJ/mol
# Density = 2.002664 g / cm^3
# Si number density = 20.072327 Si / 1000 Ang^3
#
#
#
# Elastic Constant Matrix: (Units=GPa)
#
#
# Indices 1 2 3 4 5 6 
#
# 1 91.8812 14.7598 25.6396 0.0000 0.0000 0.0000
# 2 14.7598 99.0188 23.6650 0.0000 0.0000 0.0000
# 3 25.6396 23.6650 150.0014 0.0000 0.0000 0.0000
# 4 0.0000 0.0000 0.0000 4.1611 0.0000 0.0000
# 5 0.0000 0.0000 0.0000 0.0000 48.8957 0.0000
# 6 0.0000 0.0000 0.0000 0.0000 0.0000 -0.1152
#
#
#
# Elastic Compliance Matrix: (Units=1/GPa)
#
#
# Indices 1 2 3 4 5 6 
#
# 1 0.011588 -0.001303 -0.001775 0.000000 0.000000 0.000000
# 2 -0.001303 0.010641 -0.001456 0.000000 0.000000 0.000000
# 3 -0.001775 -0.001456 0.007200 0.000000 0.000000 0.000000
# 4 0.000000 0.000000 0.000000 0.240320 0.000000 0.000000
# 5 0.000000 0.000000 0.000000 0.000000 0.020452 0.000000
# 6 0.000000 0.000000 0.000000 0.000000 0.000000 -8.683556
#
#
# Mechanical properties :
#
#
# Convention : Reuss Voigt Hill
#
# Bulk Modulus (GPa) = 49.11438 52.11445 50.61441
# Shear Modulus (GPa) = -0.59684 29.04412 14.22364
#
# Velocity S-wave (km/s) = -0.54588 3.80804 2.66488
# Velocity P-wave (km/s) = 4.91167 6.73458 5.89402
#
# Compressibility (1/GPa) = 0.02036064
#
# Stress axis : x y z
#
# Youngs Moduli (GPa) = 86.29377 93.97320 138.89352
#
# Poissons Ratio (x) = 0.12246 0.24656
# Poissons Ratio (y) = 0.11245 0.20224
# Poissons Ratio (z) = 0.15319 0.13683
#
# Static dielectric constant tensor:
#      x y z
#    x 1.702400 0.000000 0.000000 
#    y 0.000000 1.722590 0.000000 
#    z 0.000000 0.000000 1.785190 
# 
# From -- ./inp_files/9667.got.cif
#   From: 2010.05.17/outbox.cif.g08.bks.cpg/sg51_5_cif.got.tgz:9667.got - 2010.06.03 11:52:47.
