data_PCOD9399349
_publ_section_title
;
Structure prediction by ZEFSAII (Michael W. Deem and Ramdas Pophale) SiO2 
 PCOD9399349
Probable space group: P M M A
;
_chemical_formula_sum "Si O2"
_cell_formula_units_Z 56
_cell_length_a 14.638109
_cell_length_b 7.405565
_cell_length_c 22.833338
_cell_angle_alpha 90.000000
_cell_angle_beta 90.000000
_cell_angle_gamma 90.000000
_cell_volume 2475.213018
_symmetry_space_group_name_H-M "P M M A"
_symmetry_group_IT_number 51
_symmetry_cell_setting 'orthorhombic'
loop_
_space_group_symop_operation_xyz
x,y,z
1/2-x,-y,z
1/2+x,-y,-z
-x,y,-z
-x,-y,-z
1/2+x,y,-z
1/2-x,y,z
x,-y,z
loop_
_atom_site_type_symbol
_atom_site_label
_atom_site_fract_x
_atom_site_fract_y
_atom_site_fract_z
Si Si1 0.652433 0.218595 0.267538
Si Si2 0.348983 0.782957 0.870813
Si Si3 0.547617 0.217183 0.709842
Si Si4 0.354347 0.780060 0.536331
Si Si5 0.352740 0.284678 0.167278
Si Si6 0.551560 0.219816 0.583792
Si Si7 0.473093 0.296245 0.061938
O O1 0.750000 0.283129 0.291494
O O2 0.650148 0.256939 0.198172
O O3 0.556678 0.284833 0.290907
O O4 0.652771 0.000000 0.274149
O O5 0.250000 0.729794 0.894674
O O6 0.432770 0.695515 0.902719
O O7 0.357671 0.000000 0.876082
O O8 0.595002 0.259830 0.771313
O O9 0.587795 0.276703 0.647528
O O10 0.545058 0.000000 0.708668
O O11 0.250000 0.720860 0.550318
O O12 0.384747 0.726108 0.470440
O O13 0.444899 0.726015 0.573473
O O14 0.352113 0.000000 0.539481
O O15 0.250000 0.214858 0.172151
O O16 0.349453 0.500000 0.159049
O O17 0.403957 0.212364 0.109375
O O18 0.550648 0.000000 0.582144
O O19 0.439749 0.500000 0.048057
O O20 0.500000 0.208819 0.000000
#
# Coordination Sequence:
#
# PCOD9399349 Si02
#       7
#     8   8   8   8   8   8   8
#     4   8  14  25  43  68  97 125 151 188 241 292
#     4   9  17  31  51  74 100 128 156 191 242 298
#     4  10  18  30  51  76 101 129 166 210 248 289
#     4   8  13  23  37  56  92 134 163 195 242 288
#     4  10  22  39  54  70  99 135 165 198 245 298
#     4   8  15  24  37  64  95 124 162 202 240 284
#     4  10  21  36  55  77  98 126 166 208 247 290
#
# _framework density 22.624316
#
# number of rings (size 3 to 8) (size 9 to 14) (size 15 to 20)
#    0.000    3.000    1.429    1.714    0.000    2.571 
#    0.000    5.714    0.000    0.429    0.000    2.000 
#    0.000    1.143    0.000    0.000    0.000    0.000 
#
# Total GULP energy -312183.004463 kJ/mol
# GULP energy per Si atom -5574.696508 kJ/mol
# Density = 2.257282 g / cm^3
# Si number density = 22.624316 Si / 1000 Ang^3
#
#
#
# Elastic Constant Matrix: (Units=GPa)
#
#
# Indices 1 2 3 4 5 6 
#
# 1 102.1852 -1.2760 42.8971 0.0000 0.0000 0.0000
# 2 -1.2760 69.7787 5.2438 0.0000 0.0000 0.0000
# 3 42.8971 5.2438 140.0679 0.0000 0.0000 0.0000
# 4 0.0000 0.0000 0.0000 7.2315 0.0000 0.0000
# 5 0.0000 0.0000 0.0000 0.0000 1.0610 0.0000
# 6 0.0000 0.0000 0.0000 0.0000 0.0000 2.5449
#
#
#
# Elastic Compliance Matrix: (Units=1/GPa)
#
#
# Indices 1 2 3 4 5 6 
#
# 1 0.011245 0.000466 -0.003461 0.000000 0.000000 0.000000
# 2 0.000466 0.014391 -0.000681 0.000000 0.000000 0.000000
# 3 -0.003461 -0.000681 0.008225 0.000000 0.000000 0.000000
# 4 0.000000 0.000000 0.000000 0.138284 0.000000 0.000000
# 5 0.000000 0.000000 0.000000 0.000000 0.942506 0.000000
# 6 0.000000 0.000000 0.000000 0.000000 0.000000 0.392938
#
#
# Mechanical properties :
#
#
# Convention : Reuss Voigt Hill
#
# Bulk Modulus (GPa) = 37.72617 45.08462 41.40539
# Shear Modulus (GPa) = 3.28132 19.84527 11.56329
#
# Velocity S-wave (km/s) = 1.20561 2.96491 2.26321
# Velocity P-wave (km/s) = 4.31848 5.62954 5.01702
#
# Compressibility (1/GPa) = 0.02650680
#
# Stress axis : x y z
#
# Youngs Moduli (GPa) = 88.92817 69.48907 121.58097
#
# Poissons Ratio (x) = -0.03236 0.42083
# Poissons Ratio (y) = -0.04142 0.08285
# Poissons Ratio (z) = 0.30781 0.04735
#
# Static dielectric constant tensor:
#      x y z
#    x 1.831970 0.000000 0.000000 
#    y 0.000000 1.917700 0.000000 
#    z 0.000000 0.000000 1.839080 
# 
# From -- ./inp_files/33362.got.cif
#   From: 2010.05.17/outbox.cif.g08.bks.cpg/sg51_17_cif.got.tgz:33362.got - 2010.06.03 11:52:47.
