data_PCOD9399256
_publ_section_title
;
Structure prediction by ZEFSAII (Michael W. Deem and Ramdas Pophale) SiO2 
 PCOD9399256
Probable space group: P M M A
;
_chemical_formula_sum "Si O2"
_cell_formula_units_Z 64
_cell_length_a 7.982877
_cell_length_b 19.083888
_cell_length_c 23.888888
_cell_angle_alpha 90.000000
_cell_angle_beta 90.000000
_cell_angle_gamma 90.000000
_cell_volume 3639.336651
_symmetry_space_group_name_H-M "P M M A"
_symmetry_group_IT_number 51
_symmetry_cell_setting 'orthorhombic'
loop_
_space_group_symop_operation_xyz
x,y,z
1/2-x,-y,z
1/2+x,-y,-z
-x,y,-z
-x,-y,-z
1/2+x,y,-z
1/2-x,y,z
x,-y,z
loop_
_atom_site_type_symbol
_atom_site_label
_atom_site_fract_x
_atom_site_fract_y
_atom_site_fract_z
Si Si1 0.050685 0.289023 0.060376
Si Si2 0.547447 0.579038 0.435041
Si Si3 0.045325 0.787707 0.747122
Si Si4 0.442997 0.422048 0.271536
Si Si5 0.553424 0.656791 0.175600
Si Si6 0.440357 0.693764 0.649926
Si Si7 0.451432 0.922434 0.815659
Si Si8 0.549832 0.127926 0.938363
O O1 0.250000 0.286105 0.065066
O O2 0.986025 0.208535 0.064129
O O3 0.980358 0.333404 0.110939
O O4 0.000000 0.316565 0.000000
O O5 0.500000 0.585415 0.500000
O O6 0.750000 0.579212 0.429384
O O7 0.489759 0.500000 0.416928
O O8 0.483429 0.647451 0.400898
O O9 0.250000 0.788947 0.744245
O O10 0.998651 0.728414 0.792695
O O11 0.987212 0.759751 0.685616
O O12 0.987281 0.861100 0.773821
O O13 0.250000 0.412418 0.289184
O O14 0.497355 0.500000 0.284041
O O15 0.457403 0.405341 0.206160
O O16 0.557388 0.366256 0.302572
O O17 0.750000 0.647551 0.184906
O O18 0.250000 0.712664 0.633921
O O19 0.250000 0.922191 0.810744
O O20 0.489853 0.907849 0.881128
O O21 0.514502 0.000000 0.801107
O O22 0.750000 0.127905 0.936868
O O23 0.500000 0.099369 0.000000
#
# Coordination Sequence:
#
# PCOD9399256 Si02
#       8
#     8   8   8   8   8   8   8   8
#     4  10  19  30  46  67  87 109 140 180 224 271
#     4   9  17  28  43  65  95 129 161 190 223 265
#     4   8  15  28  45  65  86 110 146 186 225 264
#     4  10  20  31  44  66  94 119 146 184 225 265
#     4  10  18  30  49  66  85 113 144 183 224 268
#     4   9  17  30  48  67  89 122 159 194 224 261
#     4  10  19  31  47  65  89 119 148 184 231 282
#     4  10  20  32  47  65  87 115 147 185 225 275
#
# _framework density 17.585622000000001
#
# number of rings (size 3 to 8) (size 9 to 14) (size 15 to 20)
#    0.000    2.500    1.250    2.625    0.000    3.500 
#    0.000    1.250    0.000    0.375    0.000    0.000 
#    0.000    0.500    0.000    0.375    0.000    0.750 
#
# Total GULP energy -356380.310920 kJ/mol
# GULP energy per Si atom -5568.442358 kJ/mol
# Density = 1.754560 g / cm^3
# Si number density = 17.585622 Si / 1000 Ang^3
#
#
#
# Elastic Constant Matrix: (Units=GPa)
#
#
# Indices 1 2 3 4 5 6 
#
# 1 20.1194 5.1734 -3.7101 0.0000 0.0000 0.0000
# 2 5.1734 67.4332 47.9797 0.0000 0.0000 0.0000
# 3 -3.7101 47.9797 103.8382 0.0000 0.0000 0.0000
# 4 0.0000 0.0000 0.0000 23.2091 0.0000 0.0000
# 5 0.0000 0.0000 0.0000 0.0000 18.8801 0.0000
# 6 0.0000 0.0000 0.0000 0.0000 0.0000 7.1196
#
#
#
# Elastic Compliance Matrix: (Units=1/GPa)
#
#
# Indices 1 2 3 4 5 6 
#
# 1 0.052802 -0.008035 0.005599 0.000000 0.000000 0.000000
# 2 -0.008035 0.023315 -0.011060 0.000000 0.000000 0.000000
# 3 0.005599 -0.011060 0.014941 0.000000 0.000000 0.000000
# 4 0.000000 0.000000 0.000000 0.043087 0.000000 0.000000
# 5 0.000000 0.000000 0.000000 0.000000 0.052966 0.000000
# 6 0.000000 0.000000 0.000000 0.000000 0.000000 0.140457
#
#
# Mechanical properties :
#
#
# Convention : Reuss Voigt Hill
#
# Bulk Modulus (GPa) = 15.60879 32.25298 23.93088
# Shear Modulus (GPa) = 13.30087 19.30494 16.30291
#
# Velocity S-wave (km/s) = 2.75316 3.31685 3.04807
# Velocity P-wave (km/s) = 4.35909 5.74883 5.10151
#
# Compressibility (1/GPa) = 0.06406648
#
# Stress axis : x y z
#
# Youngs Moduli (GPa) = 18.93874 42.89007 66.93017
#
# Poissons Ratio (x) = 0.34461 -0.37475
# Poissons Ratio (y) = 0.15217 0.74026
# Poissons Ratio (z) = -0.10604 0.47437
#
# Static dielectric constant tensor:
#      x y z
#    x 1.606930 0.000000 0.000000 
#    y 0.000000 1.621800 0.000000 
#    z 0.000000 0.000000 1.633720 
# 
# From -- ./inp_files/35133.got.cif
#   From: 2010.05.17/outbox.cif.g08.bks.cpg/sg51_18_cif.got.tgz:35133.got - 2010.06.03 11:52:47.
