data_PCOD9399935
_publ_section_title
;
Structure prediction by ZEFSAII (Michael W. Deem and Ramdas Pophale) SiO2 
 PCOD9399935
Probable space group: P M M A
;
_chemical_formula_sum "Si O2"
_cell_formula_units_Z 32
_cell_length_a 16.861988
_cell_length_b 11.368135
_cell_length_c 7.403501
_cell_angle_alpha 90.000000
_cell_angle_beta 90.000000
_cell_angle_gamma 90.000000
_cell_volume 1419.172338
_symmetry_space_group_name_H-M "P M M A"
_symmetry_group_IT_number 51
_symmetry_cell_setting 'orthorhombic'
loop_
_space_group_symop_operation_xyz
x,y,z
1/2-x,-y,z
1/2+x,-y,-z
-x,y,-z
-x,-y,-z
1/2+x,y,-z
1/2-x,y,z
x,-y,z
loop_
_atom_site_type_symbol
_atom_site_label
_atom_site_fract_x
_atom_site_fract_y
_atom_site_fract_z
Si Si1 0.404713 0.000000 0.505768
Si Si2 0.660565 0.250963 0.503888
Si Si3 0.104031 0.749422 0.892622
Si Si4 0.154682 0.000000 0.919440
Si Si5 0.554095 0.632385 0.775863
O O1 0.500000 0.000000 0.500000
O O2 0.369578 0.121918 0.433262
O O3 0.372410 0.000000 0.710439
O O4 0.750000 0.269404 0.565132
O O5 0.657603 0.258148 0.285897
O O6 0.600652 0.342111 0.593678
O O7 0.016828 0.724927 0.808590
O O8 0.118103 0.876789 0.983198
O O9 0.111399 0.655204 0.052356
O O10 0.250000 0.000000 0.937280
O O11 0.522801 0.500000 0.779909
#
# Coordination Sequence:
#
# PCOD9399935 Si02
#       5
#     4   8   8   4   8
#     4  10  18  35  62  91 121 157 199 248 304 369
#     4  11  23  39  62  92 126 160 196 249 315 373
#     4  10  21  41  66  89 122 162 199 253 312 356
#     4  10  20  36  62  96 126 152 192 246 311 384
#     4  11  25  42  62  90 120 161 220 260 284 348
#
# _framework density 22.548352999999999
#
# number of rings (size 3 to 8) (size 9 to 14) (size 15 to 20)
#    0.000    1.500    0.000    8.625    0.000    8.500 
#    0.000    0.000    0.000    6.750    0.000    0.000 
#    0.000    0.000    0.000    0.000    0.000    0.000 
#
# Total GULP energy -178677.206996 kJ/mol
# GULP energy per Si atom -5583.662719 kJ/mol
# Density = 2.249703 g / cm^3
# Si number density = 22.548353 Si / 1000 Ang^3
#
#
#
# Elastic Constant Matrix: (Units=GPa)
#
#
# Indices 1 2 3 4 5 6 
#
# 1 106.8842 38.7255 -3.3186 0.0000 0.0000 0.0000
# 2 38.7255 80.2603 -4.4246 0.0000 0.0000 0.0000
# 3 -3.3186 -4.4246 63.7704 0.0000 0.0000 0.0000
# 4 0.0000 0.0000 0.0000 28.1750 0.0000 0.0000
# 5 0.0000 0.0000 0.0000 0.0000 21.0287 0.0000
# 6 0.0000 0.0000 0.0000 0.0000 0.0000 2.6977
#
#
#
# Elastic Compliance Matrix: (Units=1/GPa)
#
#
# Indices 1 2 3 4 5 6 
#
# 1 0.011341 -0.005460 0.000211 0.000000 0.000000 0.000000
# 2 -0.005460 0.015136 0.000766 0.000000 0.000000 0.000000
# 3 0.000211 0.000766 0.015745 0.000000 0.000000 0.000000
# 4 0.000000 0.000000 0.000000 0.035492 0.000000 0.000000
# 5 0.000000 0.000000 0.000000 0.000000 0.047554 0.000000
# 6 0.000000 0.000000 0.000000 0.000000 0.000000 0.370690
#
#
# Mechanical properties :
#
#
# Convention : Reuss Voigt Hill
#
# Bulk Modulus (GPa) = 30.06914 34.76439 32.41676
# Shear Modulus (GPa) = 9.68973 25.04245 17.36609
#
# Velocity S-wave (km/s) = 2.07525 3.33620 2.77821
# Velocity P-wave (km/s) = 4.37110 5.50377 4.96981
#
# Compressibility (1/GPa) = 0.03325669
#
# Stress axis : x y z
#
# Youngs Moduli (GPa) = 88.17718 66.06646 63.51057
#
# Poissons Ratio (x) = 0.36074 -0.01342
# Poissons Ratio (y) = 0.48147 -0.04865
# Poissons Ratio (z) = -0.01863 -0.05061
#
# Static dielectric constant tensor:
#      x y z
#    x 1.836770 0.000000 0.000000 
#    y 0.000000 1.891870 0.000000 
#    z 0.000000 0.000000 1.904390 
# 
# From -- ./inp_files/7615.got.cif
#   From: 2010.05.17/outbox.cif.g08.bks.cpg/sg51_4_cif.got.tgz:7615.got - 2010.06.03 11:52:47.
