data_PCOD9399302
_publ_section_title
;
Structure prediction by ZEFSAII (Michael W. Deem and Ramdas Pophale) SiO2 
 PCOD9399302
Probable space group: P M M A
;
_chemical_formula_sum "Si O2"
_cell_formula_units_Z 56
_cell_length_a 29.379622
_cell_length_b 8.313532
_cell_length_c 14.100244
_cell_angle_alpha 90.000000
_cell_angle_beta 90.000000
_cell_angle_gamma 90.000000
_cell_volume 3443.962426
_symmetry_space_group_name_H-M "P M M A"
_symmetry_group_IT_number 51
_symmetry_cell_setting 'orthorhombic'
loop_
_space_group_symop_operation_xyz
x,y,z
1/2-x,-y,z
1/2+x,-y,-z
-x,y,-z
-x,-y,-z
1/2+x,y,-z
1/2-x,y,z
x,-y,z
loop_
_atom_site_type_symbol
_atom_site_label
_atom_site_fract_x
_atom_site_fract_y
_atom_site_fract_z
Si Si1 0.107106 0.692033 0.201731
Si Si2 0.698493 0.807883 0.729271
Si Si3 0.033020 0.305565 0.714671
Si Si4 0.480706 0.807929 0.100249
Si Si5 0.055846 0.695429 0.392293
Si Si6 0.891945 0.696886 0.419862
Si Si7 0.698987 0.694181 0.514384
O O1 0.107736 0.500000 0.202296
O O2 0.158681 0.753121 0.200272
O O3 0.070025 0.746918 0.124984
O O4 0.086342 0.747841 0.303018
O O5 0.750000 0.754933 0.754642
O O6 0.688954 0.741346 0.623304
O O7 0.698155 0.000000 0.724073
O O8 0.032543 0.500000 0.720639
O O9 0.082096 0.252759 0.675645
O O10 0.014176 0.242072 0.813976
O O11 0.995409 0.259203 0.635094
O O12 0.478857 0.000000 0.097247
O O13 0.500000 0.747346 0.000000
O O14 0.056711 0.500000 0.395006
O O15 0.077318 0.749483 0.490514
O O16 0.891666 0.500000 0.419338
O O17 0.840863 0.750402 0.444237
O O18 0.750000 0.752474 0.491863
O O19 0.699265 0.500000 0.511318
#
# Coordination Sequence:
#
# PCOD9399302 Si02
#       7
#     8   8   8   8   8   8   8
#     4  10  18  30  50  71  91 121 158 195 229 268
#     4  10  19  29  42  64  97 132 161 190 226 268
#     4   9  17  27  44  66  87 115 152 190 223 269
#     4  10  21  36  51  67  92 120 145 185 242 296
#     4   8  13  22  38  61  87 115 146 179 219 260
#     4   9  14  23  40  63  90 119 153 189 226 261
#     4   9  16  26  41  61  88 125 166 197 220 258
#
# _framework density 16.260341
#
# number of rings (size 3 to 8) (size 9 to 14) (size 15 to 20)
#    0.000    2.714    1.429    2.571    0.000    3.714 
#    0.000    0.714    0.000    1.714    0.000    1.000 
#    0.000    3.429    0.000    0.000    0.000    0.000 
#
# Total GULP energy -311898.592523 kJ/mol
# GULP energy per Si atom -5569.617724 kJ/mol
# Density = 1.622333 g / cm^3
# Si number density = 16.260341 Si / 1000 Ang^3
#
#
#
# Elastic Constant Matrix: (Units=GPa)
#
#
# Indices 1 2 3 4 5 6 
#
# 1 147.6727 17.9837 61.8513 0.0000 0.0000 0.0000
# 2 17.9837 13.0357 7.3506 0.0000 0.0000 0.0000
# 3 61.8513 7.3506 61.8012 0.0000 0.0000 0.0000
# 4 0.0000 0.0000 0.0000 27.0877 0.0000 0.0000
# 5 0.0000 0.0000 0.0000 0.0000 19.5775 0.0000
# 6 0.0000 0.0000 0.0000 0.0000 0.0000 14.3399
#
#
#
# Elastic Compliance Matrix: (Units=1/GPa)
#
#
# Indices 1 2 3 4 5 6 
#
# 1 0.013074 -0.011425 -0.011726 0.000000 0.000000 0.000000
# 2 -0.011425 0.092211 0.000467 0.000000 0.000000 0.000000
# 3 -0.011726 0.000467 0.027861 0.000000 0.000000 0.000000
# 4 0.000000 0.000000 0.000000 0.036917 0.000000 0.000000
# 5 0.000000 0.000000 0.000000 0.000000 0.051079 0.000000
# 6 0.000000 0.000000 0.000000 0.000000 0.000000 0.069736
#
#
# Mechanical properties :
#
#
# Convention : Reuss Voigt Hill
#
# Bulk Modulus (GPa) = 11.39242 44.09787 27.74514
# Shear Modulus (GPa) = 13.67963 21.22261 17.45112
#
# Velocity S-wave (km/s) = 2.90364 3.61664 3.27958
# Velocity P-wave (km/s) = 4.27352 6.67974 5.60722
#
# Compressibility (1/GPa) = 0.08777768
#
# Stress axis : x y z
#
# Youngs Moduli (GPa) = 76.48489 10.84468 35.89232
#
# Poissons Ratio (x) = 0.12390 0.42088
# Poissons Ratio (y) = 0.87384 -0.01675
# Poissons Ratio (z) = 0.89688 -0.00506
#
# Static dielectric constant tensor:
#      x y z
#    x 1.597180 0.000000 0.000000 
#    y 0.000000 1.562240 0.000000 
#    z 0.000000 0.000000 1.524420 
# 
# From -- ./inp_files/26479.got.cif
#   From: 2010.05.17/outbox.cif.g08.bks.cpg/sg51_14_cif.got.tgz:26479.got - 2010.06.03 11:52:47.
