data_PCOD9399244
_publ_section_title
;
Structure prediction by ZEFSAII (Michael W. Deem and Ramdas Pophale) SiO2 
 PCOD9399244
Probable space group: P M M A
;
_chemical_formula_sum "Si O2"
_cell_formula_units_Z 64
_cell_length_a 29.367128
_cell_length_b 8.776053
_cell_length_c 15.997209
_cell_angle_alpha 90.000000
_cell_angle_beta 90.000000
_cell_angle_gamma 90.000000
_cell_volume 4122.920231
_symmetry_space_group_name_H-M "P M M A"
_symmetry_group_IT_number 51
_symmetry_cell_setting 'orthorhombic'
loop_
_space_group_symop_operation_xyz
x,y,z
1/2-x,-y,z
1/2+x,-y,-z
-x,y,-z
-x,-y,-z
1/2+x,y,-z
1/2-x,y,z
x,-y,z
loop_
_atom_site_type_symbol
_atom_site_label
_atom_site_fract_x
_atom_site_fract_y
_atom_site_fract_z
Si Si1 0.552910 0.319362 0.677641
Si Si2 0.052347 0.185603 0.004237
Si Si3 0.198569 0.683414 0.902301
Si Si4 0.055248 0.824744 0.496563
Si Si5 0.892063 0.182750 0.830593
Si Si6 0.697928 0.683518 0.902264
Si Si7 0.107824 0.183803 0.839893
Si Si8 0.451496 0.184893 0.680359
O O1 0.551084 0.500000 0.684610
O O2 0.568197 0.271554 0.584218
O O3 0.585880 0.250676 0.747490
O O4 0.502092 0.251632 0.690476
O O5 0.077635 0.232523 0.089106
O O6 0.051971 0.000000 0.003749
O O7 0.080026 0.234981 0.922286
O O8 0.000000 0.236538 0.000000
O O9 0.250000 0.730284 0.879237
O O10 0.196555 0.500000 0.898420
O O11 0.158633 0.753594 0.847668
O O12 0.191301 0.726346 0.999941
O O13 0.068249 0.770225 0.589379
O O14 0.000000 0.825108 0.500000
O O15 0.069951 0.000000 0.484850
O O16 0.841000 0.239054 0.847949
O O17 0.893313 0.000000 0.826589
O O18 0.750000 0.723827 0.879654
O O19 0.693863 0.500000 0.896971
O O20 0.080672 0.230036 0.756856
O O21 0.109217 0.000000 0.841021
O O22 0.455722 0.000000 0.679455
#
# Coordination Sequence:
#
# PCOD9399244 Si02
#       8
#     8   8   8   8   8   8   8   8
#     4  11  21  31  46  69  97 128 161 197 235 280
#     4   9  17  28  42  62  91 125 157 188 224 265
#     4   9  18  32  48  66  93 127 157 192 239 282
#     4   8  15  30  49  68  91 122 157 195 239 282
#     4  11  20  31  48  69  94 126 161 199 236 276
#     4   9  18  33  50  67  92 124 156 196 242 283
#     4  10  18  30  48  71  94 122 160 198 233 273
#     4   9  18  32  50  70  96 127 158 195 240 283
#
# _framework density 15.522978999999999
#
# number of rings (size 3 to 8) (size 9 to 14) (size 15 to 20)
#    0.000    2.500    1.250    3.750    0.000    5.250 
#    0.000    1.250    0.000    1.875    0.000    0.875 
#    0.000    5.000    0.000    0.000    0.000    0.000 
#
# Total GULP energy -356800.622253 kJ/mol
# GULP energy per Si atom -5575.009723 kJ/mol
# Density = 1.548765 g / cm^3
# Si number density = 15.522979 Si / 1000 Ang^3
#
#
#
# Elastic Constant Matrix: (Units=GPa)
#
#
# Indices 1 2 3 4 5 6 
#
# 1 107.0778 32.8412 66.8956 0.0000 0.0000 0.0000
# 2 32.8412 32.4022 39.3910 0.0000 0.0000 0.0000
# 3 66.8956 39.3910 127.4736 0.0000 0.0000 0.0000
# 4 0.0000 0.0000 0.0000 14.7188 0.0000 0.0000
# 5 0.0000 0.0000 0.0000 0.0000 9.4745 0.0000
# 6 0.0000 0.0000 0.0000 0.0000 0.0000 20.9059
#
#
#
# Elastic Compliance Matrix: (Units=1/GPa)
#
#
# Indices 1 2 3 4 5 6 
#
# 1 0.015468 -0.009305 -0.005242 0.000000 0.000000 0.000000
# 2 -0.009305 0.055029 -0.012122 0.000000 0.000000 0.000000
# 3 -0.005242 -0.012122 0.014341 0.000000 0.000000 0.000000
# 4 0.000000 0.000000 0.000000 0.067940 0.000000 0.000000
# 5 0.000000 0.000000 0.000000 0.000000 0.105547 0.000000
# 6 0.000000 0.000000 0.000000 0.000000 0.000000 0.047833
#
#
# Mechanical properties :
#
#
# Convention : Reuss Voigt Hill
#
# Bulk Modulus (GPa) = 31.74456 60.57881 46.16169
# Shear Modulus (GPa) = 13.51367 17.54155 15.52761
#
# Velocity S-wave (km/s) = 2.95373 3.36525 3.16618
# Velocity P-wave (km/s) = 5.66808 7.36273 6.57027
#
# Compressibility (1/GPa) = 0.03150146
#
# Stress axis : x y z
#
# Youngs Moduli (GPa) = 64.65145 18.17217 69.72853
#
# Poissons Ratio (x) = 0.16909 0.36550
# Poissons Ratio (y) = 0.60157 0.84523
# Poissons Ratio (z) = 0.33889 0.22028
#
# Static dielectric constant tensor:
#      x y z
#    x 1.497420 0.000000 0.000000 
#    y 0.000000 1.520050 0.000000 
#    z 0.000000 0.000000 1.523780 
# 
# From -- ./inp_files/26707.got.cif
#   From: 2010.05.17/outbox.cif.g08.bks.cpg/sg51_14_cif.got.tgz:26707.got - 2010.06.03 11:52:47.
