data_PCOD9399286
_publ_section_title
;
Structure prediction by ZEFSAII (Michael W. Deem and Ramdas Pophale) SiO2 
 PCOD9399286
Probable space group: P M M A
;
_chemical_formula_sum "Si O2"
_cell_formula_units_Z 64
_cell_length_a 24.463491
_cell_length_b 7.312176
_cell_length_c 15.313335
_cell_angle_alpha 90.000000
_cell_angle_beta 90.000000
_cell_angle_gamma 90.000000
_cell_volume 2739.270065
_symmetry_space_group_name_H-M "P M M A"
_symmetry_group_IT_number 51
_symmetry_cell_setting 'orthorhombic'
loop_
_space_group_symop_operation_xyz
x,y,z
1/2-x,-y,z
1/2+x,-y,-z
-x,y,-z
-x,-y,-z
1/2+x,y,-z
1/2-x,y,z
x,-y,z
loop_
_atom_site_type_symbol
_atom_site_label
_atom_site_fract_x
_atom_site_fract_y
_atom_site_fract_z
Si Si1 0.191547 0.778123 0.279363
Si Si2 0.987756 0.211738 0.207378
Si Si3 0.365398 0.776401 0.811575
Si Si4 0.362857 0.778995 0.449498
Si Si5 0.484586 0.706664 0.405885
Si Si6 0.687040 0.223063 0.370705
Si Si7 0.396796 0.223554 0.141148
Si Si8 0.312190 0.222701 0.992432
O O1 0.250000 0.715765 0.245088
O O2 0.183470 0.729234 0.380022
O O3 0.140443 0.718792 0.222729
O O4 0.191461 0.000000 0.274737
O O5 0.928209 0.287700 0.184622
O O6 0.996629 0.215855 0.312739
O O7 0.041421 0.288081 0.158750
O O8 0.985512 0.000000 0.181250
O O9 0.338411 0.718517 0.720763
O O10 0.366153 0.000000 0.810554
O O11 0.329759 0.723183 0.895009
O O12 0.419347 0.708503 0.410896
O O13 0.348559 0.717483 0.546438
O O14 0.367008 0.000000 0.450703
O O15 0.500000 0.793095 0.500000
O O16 0.506455 0.500000 0.407087
O O17 0.750000 0.279003 0.379590
O O18 0.686647 0.000000 0.371613
O O19 0.360919 0.279537 0.057603
O O20 0.398975 0.000000 0.140125
O O21 0.250000 0.281473 0.013559
O O22 0.311243 0.000000 0.996175
#
# Coordination Sequence:
#
# PCOD9399286 Si02
#       8
#     8   8   8   8   8   8   8   8
#     4   9  15  24  41  67  96 124 159 201 240 283
#     4  10  19  33  51  74 102 130 167 210 252 295
#     4   9  17  27  42  66  99 135 166 205 253 298
#     4  10  18  30  49  73  97 127 165 205 249 291
#     4  11  23  36  50  70  99 135 171 206 246 298
#     4   9  16  26  42  67  96 127 167 209 248 295
#     4   9  16  26  42  67  99 133 166 200 239 290
#     4   9  16  26  41  66 103 141 167 195 250 310
#
# _framework density 23.363890000000001
#
# number of rings (size 3 to 8) (size 9 to 14) (size 15 to 20)
#    0.000    2.500    1.250    2.250    0.000    7.000 
#    0.000    2.500    0.000    1.500    0.000    1.750 
#    0.000    2.500    0.000    0.000    0.000    0.000 
#
# Total GULP energy -357483.606420 kJ/mol
# GULP energy per Si atom -5585.681350 kJ/mol
# Density = 2.331071 g / cm^3
# Si number density = 23.363890 Si / 1000 Ang^3
#
#
#
# Elastic Constant Matrix: (Units=GPa)
#
#
# Indices 1 2 3 4 5 6 
#
# 1 90.8461 -3.6423 11.0902 0.0000 0.0000 0.0000
# 2 -3.6423 91.3905 -2.7335 0.0000 0.0000 0.0000
# 3 11.0902 -2.7335 102.9729 0.0000 0.0000 0.0000
# 4 0.0000 0.0000 0.0000 -30.5132 0.0000 0.0000
# 5 0.0000 0.0000 0.0000 0.0000 34.7423 0.0000
# 6 0.0000 0.0000 0.0000 0.0000 0.0000 78.5334
#
#
#
# Elastic Compliance Matrix: (Units=1/GPa)
#
#
# Indices 1 2 3 4 5 6 
#
# 1 0.011170 0.000410 -0.001192 0.000000 0.000000 0.000000
# 2 0.000410 0.010966 0.000247 0.000000 0.000000 0.000000
# 3 -0.001192 0.000247 0.009846 0.000000 0.000000 0.000000
# 4 0.000000 0.000000 0.000000 -0.032773 0.000000 0.000000
# 5 0.000000 0.000000 0.000000 0.000000 0.028783 0.000000
# 6 0.000000 0.000000 0.000000 0.000000 0.000000 0.012733
#
#
# Mechanical properties :
#
#
# Convention : Reuss Voigt Hill
#
# Bulk Modulus (GPa) = 32.35161 32.73759 32.54460
# Shear Modulus (GPa) = 95.96867 35.25216 65.61042
#
# Velocity S-wave (km/s) = 6.41598 3.88858 5.30499
# Velocity P-wave (km/s) = 8.29236 5.84841 7.17521
#
# Compressibility (1/GPa) = 0.03091037
#
# Stress axis : x y z
#
# Youngs Moduli (GPa) = 89.52890 91.19290 101.56160
#
# Poissons Ratio (x) = -0.03734 0.12107
# Poissons Ratio (y) = -0.03666 -0.02508
# Poissons Ratio (z) = 0.10673 -0.02252
#
# Static dielectric constant tensor:
#      x y z
#    x 1.889730 0.000000 0.000000 
#    y 0.000000 1.951770 0.000000 
#    z 0.000000 0.000000 1.844120 
# 
# From -- ./inp_files/26302.got.cif
#   From: 2010.05.17/outbox.cif.g08.bks.cpg/sg51_14_cif.got.tgz:26302.got - 2010.06.03 11:52:47.
