data_PCOD9399092
_publ_section_title
;
Structure prediction by ZEFSAII (Michael W. Deem and Ramdas Pophale) SiO2 
 PCOD9399092
Probable space group: P M M A
;
_chemical_formula_sum "Si O2"
_cell_formula_units_Z 64
_cell_length_a 18.602771
_cell_length_b 7.748053
_cell_length_c 22.266726
_cell_angle_alpha 90.000000
_cell_angle_beta 90.000000
_cell_angle_gamma 90.000000
_cell_volume 3209.420245
_symmetry_space_group_name_H-M "P M M A"
_symmetry_group_IT_number 51
_symmetry_cell_setting 'orthorhombic'
loop_
_space_group_symop_operation_xyz
x,y,z
1/2-x,-y,z
1/2+x,-y,-z
-x,y,-z
-x,-y,-z
1/2+x,y,-z
1/2-x,y,z
x,-y,z
loop_
_atom_site_type_symbol
_atom_site_label
_atom_site_fract_x
_atom_site_fract_y
_atom_site_fract_z
Si Si1 0.911443 0.707471 0.622222
Si Si2 0.951525 0.794965 0.186919
Si Si3 0.830879 0.295211 0.274367
Si Si4 0.167886 0.711121 0.497228
Si Si5 0.975734 0.291929 0.934950
Si Si6 0.171410 0.295937 0.122215
Si Si7 0.399748 0.794503 0.243259
Si Si8 0.923840 0.288484 0.387372
O O1 0.913616 0.500000 0.618052
O O2 0.863535 0.769285 0.566690
O O3 0.883130 0.751676 0.688240
O O4 0.993753 0.770366 0.616358
O O5 0.877662 0.729321 0.214638
O O6 0.968758 0.749741 0.118292
O O7 0.020071 0.727896 0.225677
O O8 0.950659 0.000000 0.192750
O O9 0.750000 0.224392 0.271552
O O10 0.824898 0.500000 0.284448
O O11 0.877830 0.227236 0.330194
O O12 0.250000 0.766792 0.506484
O O13 0.168213 0.500000 0.497212
O O14 0.116038 0.763784 0.551594
O O15 0.971016 0.500000 0.938045
O O16 0.897671 0.224497 0.913360
O O17 0.000000 0.227748 0.000000
O O18 0.250000 0.221887 0.108495
O O19 0.173883 0.500000 0.109239
O O20 0.153487 0.276167 0.192710
O O21 0.400209 0.000000 0.236432
O O22 0.925192 0.500000 0.386459
#
# Coordination Sequence:
#
# PCOD9399092 Si02
#       8
#     8   8   8   8   8   8   8   8
#     4  10  18  29  49  73  96 128 168 211 259 313
#     4  10  20  34  52  74 104 138 172 209 252 306
#     4  10  19  31  51  77 101 130 170 217 267 312
#     4   9  17  28  43  68  99 126 160 211 265 313
#     4   9  18  34  57  82 108 140 176 213 253 298
#     4   9  18  33  54  79 106 136 172 213 254 296
#     4  10  20  33  50  73 101 135 171 208 255 306
#     4   9  16  28  47  70  97 127 164 211 261 311
#
# _framework density 19.941296000000001
#
# number of rings (size 3 to 8) (size 9 to 14) (size 15 to 20)
#    0.000    2.500    1.250    1.500    0.000    5.250 
#    0.000    1.875    0.000    4.500    0.000    0.000 
#    0.000    0.000    0.000    0.000    0.000    0.000 
#
# Total GULP energy -357187.624712 kJ/mol
# GULP energy per Si atom -5581.056636 kJ/mol
# Density = 1.989591 g / cm^3
# Si number density = 19.941296 Si / 1000 Ang^3
#
#
#
# Elastic Constant Matrix: (Units=GPa)
#
#
# Indices 1 2 3 4 5 6 
#
# 1 61.7788 1.0840 16.8717 0.0000 0.0000 0.0000
# 2 1.0840 28.5540 -9.9323 0.0000 0.0000 0.0000
# 3 16.8717 -9.9323 102.6327 0.0000 0.0000 0.0000
# 4 0.0000 0.0000 0.0000 -26.4831 0.0000 0.0000
# 5 0.0000 0.0000 0.0000 0.0000 13.4018 0.0000
# 6 0.0000 0.0000 0.0000 0.0000 0.0000 -7.5683
#
#
#
# Elastic Compliance Matrix: (Units=1/GPa)
#
#
# Indices 1 2 3 4 5 6 
#
# 1 0.017025 -0.001676 -0.002961 0.000000 0.000000 0.000000
# 2 -0.001676 0.036406 0.003799 0.000000 0.000000 0.000000
# 3 -0.002961 0.003799 0.010598 0.000000 0.000000 0.000000
# 4 0.000000 0.000000 0.000000 -0.037760 0.000000 0.000000
# 5 0.000000 0.000000 0.000000 0.000000 0.074617 0.000000
# 6 0.000000 0.000000 0.000000 0.000000 0.000000 -0.132130
#
#
# Mechanical properties :
#
#
# Convention : Reuss Voigt Hill
#
# Bulk Modulus (GPa) = 16.03789 23.22359 19.63074
# Shear Modulus (GPa) = -569.25255 8.19955 -280.52650
#
# Velocity S-wave (km/s) = -16.91401 2.02997 -11.87357
# Velocity P-wave (km/s) = 19.32318 4.14314 13.34578
#
# Compressibility (1/GPa) = 0.06235236
#
# Stress axis : x y z
#
# Youngs Moduli (GPa) = 58.73778 27.46766 94.35872
#
# Poissons Ratio (x) = 0.04604 0.27939
# Poissons Ratio (y) = 0.09846 -0.35845
# Poissons Ratio (z) = 0.17392 -0.10434
#
# Static dielectric constant tensor:
#      x y z
#    x 1.714050 0.000000 0.000000 
#    y 0.000000 1.723600 0.000000 
#    z 0.000000 0.000000 1.674760 
# 
# From -- ./inp_files/33874.got.cif
#   From: 2010.05.17/outbox.cif.g08.bks.cpg/sg51_17_cif.got.tgz:33874.got - 2010.06.03 11:52:47.
