data_PCOD9399713
_publ_section_title
;
Structure prediction by ZEFSAII (Michael W. Deem and Ramdas Pophale) SiO2 
 PCOD9399713
Probable space group: P M M A
;
_chemical_formula_sum "Si O2"
_cell_formula_units_Z 48
_cell_length_a 7.666164
_cell_length_b 14.912875
_cell_length_c 21.249034
_cell_angle_alpha 90.000000
_cell_angle_beta 90.000000
_cell_angle_gamma 90.000000
_cell_volume 2429.286154
_symmetry_space_group_name_H-M "P M M A"
_symmetry_group_IT_number 51
_symmetry_cell_setting 'orthorhombic'
loop_
_space_group_symop_operation_xyz
x,y,z
1/2-x,-y,z
1/2+x,-y,-z
-x,y,-z
-x,-y,-z
1/2+x,y,-z
1/2-x,y,z
x,-y,z
loop_
_atom_site_type_symbol
_atom_site_label
_atom_site_fract_x
_atom_site_fract_y
_atom_site_fract_z
Si Si1 0.536422 0.603041 0.690837
Si Si2 0.459757 0.716824 0.188518
Si Si3 0.459651 0.602210 0.071665
Si Si4 0.956988 0.900358 0.248495
Si Si5 0.953544 0.098976 0.607090
Si Si6 0.959499 0.289006 0.568817
O O1 0.750000 0.603482 0.691079
O O2 0.481251 0.500000 0.694521
O O3 0.478323 0.659858 0.751187
O O4 0.477774 0.650792 0.626688
O O5 0.250000 0.710537 0.187959
O O6 0.524962 0.670867 0.124499
O O7 0.502549 0.820178 0.201271
O O8 0.250000 0.598672 0.077255
O O9 0.524767 0.500000 0.081851
O O10 0.500000 0.628146 0.000000
O O11 0.750000 0.901543 0.258455
O O12 0.038241 0.884782 0.317549
O O13 0.012330 0.000000 0.227281
O O14 0.750000 0.094338 0.589333
O O15 0.030833 0.187327 0.575200
O O16 0.030913 0.000000 0.594564
O O17 0.750000 0.283811 0.575266
O O18 0.000000 0.325572 0.500000
#
# Coordination Sequence:
#
# PCOD9399713 Si02
#       6
#     8   8   8   8   8   8
#     4   9  17  31  51  73  96 125 166 211 250 291
#     4  10  18  32  55  79 101 133 174 209 243 291
#     4   9  18  32  52  80 112 143 173 206 247 296
#     4  10  20  32  49  76 106 132 160 203 259 306
#     4   9  17  32  52  71  93 124 165 208 250 304
#     4  10  20  33  48  69  95 129 166 205 254 302
#
# _framework density 19.758891999999999
#
# number of rings (size 3 to 8) (size 9 to 14) (size 15 to 20)
#    0.000    2.500    1.667    1.000    0.000    5.000 
#    0.000    0.000    0.000    3.000    0.000    0.000 
#    0.000    0.000    0.000    0.000    0.000    0.000 
#
# Total GULP energy -267870.603915 kJ/mol
# GULP energy per Si atom -5580.637582 kJ/mol
# Density = 1.971392 g / cm^3
# Si number density = 19.758892 Si / 1000 Ang^3
#
#
#
# Elastic Constant Matrix: (Units=GPa)
#
#
# Indices 1 2 3 4 5 6 
#
# 1 36.9458 1.8489 -1.2133 0.0000 0.0000 0.0000
# 2 1.8489 133.8983 79.6254 0.0000 0.0000 0.0000
# 3 -1.2133 79.6254 124.9368 0.0000 0.0000 0.0000
# 4 0.0000 0.0000 0.0000 17.9465 0.0000 0.0000
# 5 0.0000 0.0000 0.0000 0.0000 12.1177 0.0000
# 6 0.0000 0.0000 0.0000 0.0000 0.0000 -47.3936
#
#
#
# Elastic Compliance Matrix: (Units=1/GPa)
#
#
# Indices 1 2 3 4 5 6 
#
# 1 0.027136 -0.000856 0.000809 0.000000 0.000000 0.000000
# 2 -0.000856 0.012053 -0.007690 0.000000 0.000000 0.000000
# 3 0.000809 -0.007690 0.012913 0.000000 0.000000 0.000000
# 4 0.000000 0.000000 0.000000 0.055721 0.000000 0.000000
# 5 0.000000 0.000000 0.000000 0.000000 0.082524 0.000000
# 6 0.000000 0.000000 0.000000 0.000000 0.000000 -0.021100
#
#
# Mechanical properties :
#
#
# Convention : Reuss Voigt Hill
#
# Bulk Modulus (GPa) = 27.30123 50.70033 39.00078
# Shear Modulus (GPa) = 25.38956 10.90211 18.14583
#
# Velocity S-wave (km/s) = 3.58854 2.35150 3.03374
# Velocity P-wave (km/s) = 5.56932 5.75221 5.66150
#
# Compressibility (1/GPa) = 0.03662839
#
# Stress axis : x y z
#
# Youngs Moduli (GPa) = 36.85132 82.96478 77.44101
#
# Poissons Ratio (x) = 0.07100 -0.06264
# Poissons Ratio (y) = 0.03153 0.59554
# Poissons Ratio (z) = -0.02981 0.63801
#
# Static dielectric constant tensor:
#      x y z
#    x 1.743750 0.000000 0.000000 
#    y 0.000000 1.713070 0.000000 
#    z 0.000000 0.000000 1.670170 
# 
# From -- ./inp_files/27577.got.cif
#   From: 2010.05.17/outbox.cif.g08.bks.cpg/sg51_14_cif.got.tgz:27577.got - 2010.06.03 11:52:47.
