data_PCOD9399418
_publ_section_title
;
Structure prediction by ZEFSAII (Michael W. Deem and Ramdas Pophale) SiO2 
 PCOD9399418
Probable space group: P M M A
;
_chemical_formula_sum "Si O2"
_cell_formula_units_Z 48
_cell_length_a 8.717819
_cell_length_b 31.807384
_cell_length_c 9.348023
_cell_angle_alpha 90.000000
_cell_angle_beta 90.000000
_cell_angle_gamma 90.000000
_cell_volume 2592.122801
_symmetry_space_group_name_H-M "P M M A"
_symmetry_group_IT_number 51
_symmetry_cell_setting 'orthorhombic'
loop_
_space_group_symop_operation_xyz
x,y,z
1/2-x,-y,z
1/2+x,-y,-z
-x,y,-z
-x,-y,-z
1/2+x,y,-z
1/2-x,y,z
x,-y,z
loop_
_atom_site_type_symbol
_atom_site_label
_atom_site_fract_x
_atom_site_fract_y
_atom_site_fract_z
Si Si1 0.566282 0.329904 0.659375
Si Si2 0.566085 0.252653 0.159307
Si Si3 0.933285 0.500000 0.161729
Si Si4 0.934019 0.170438 0.340821
Si Si5 0.565181 0.000000 0.841837
Si Si6 0.933790 0.413109 0.839664
Si Si7 0.065534 0.918955 0.340811
O O1 0.500000 0.330281 0.500000
O O2 0.750000 0.326123 0.653480
O O3 0.498907 0.291006 0.747942
O O4 0.528573 0.373015 0.742833
O O5 0.750000 0.255688 0.153967
O O6 0.525236 0.208958 0.237843
O O7 0.500000 0.254059 0.000000
O O8 0.750000 0.500000 0.158727
O O9 0.996083 0.456243 0.223154
O O10 0.000000 0.500000 0.000000
O O11 0.750000 0.167333 0.350283
O O12 0.000000 0.178009 0.500000
O O13 0.001618 0.125940 0.289567
O O14 0.517935 0.958026 0.757082
O O15 0.750000 0.000000 0.847151
O O16 0.500000 0.000000 0.000000
O O17 0.750000 0.417441 0.850092
O O18 0.000000 0.407028 0.000000
O O19 0.250000 0.917154 0.347263
O O20 0.000000 0.925272 0.500000
#
# Coordination Sequence:
#
# PCOD9399418 Si02
#       7
#     8   8   4   8   4   8   8
#     4  11  24  40  60  84 113 149 189 233 282 335
#     4  11  24  40  60  85 115 149 187 231 280 333
#     4  10  18  30  53  82 111 146 184 226 274 328
#     4  10  21  37  58  85 113 146 185 227 276 330
#     4  10  23  38  54  80 112 146 185 228 278 328
#     4  10  20  35  56  83 113 146 184 229 277 329
#     4  10  20  36  58  83 110 144 185 228 273 328
#
# _framework density 18.517641999999999
#
# number of rings (size 3 to 8) (size 9 to 14) (size 15 to 20)
#    0.000    1.667    0.000    6.500    0.000   10.000 
#    0.000    3.750    0.000    0.000    0.000    0.000 
#    0.000    0.000    0.000    0.000    0.000    0.000 
#
# Total GULP energy -268228.167384 kJ/mol
# GULP energy per Si atom -5588.086820 kJ/mol
# Density = 1.847549 g / cm^3
# Si number density = 18.517642 Si / 1000 Ang^3
#
#
#
# Elastic Constant Matrix: (Units=GPa)
#
#
# Indices 1 2 3 4 5 6 
#
# 1 74.2756 82.3874 52.3206 0.0000 0.0000 0.0000
# 2 82.3874 223.4935 120.0742 0.0000 0.0000 0.0000
# 3 52.3206 120.0742 123.3568 0.0000 0.0000 0.0000
# 4 0.0000 0.0000 0.0000 31.0797 0.0000 0.0000
# 5 0.0000 0.0000 0.0000 0.0000 33.2612 0.0000
# 6 0.0000 0.0000 0.0000 0.0000 0.0000 45.4335
#
#
#
# Elastic Compliance Matrix: (Units=1/GPa)
#
#
# Indices 1 2 3 4 5 6 
#
# 1 0.023364 -0.006894 -0.003199 0.000000 0.000000 0.000000
# 2 -0.006894 0.011414 -0.008186 0.000000 0.000000 0.000000
# 3 -0.003199 -0.008186 0.017432 0.000000 0.000000 0.000000
# 4 0.000000 0.000000 0.000000 0.032175 0.000000 0.000000
# 5 0.000000 0.000000 0.000000 0.000000 0.030065 0.000000
# 6 0.000000 0.000000 0.000000 0.000000 0.000000 0.022010
#
#
# Mechanical properties :
#
#
# Convention : Reuss Voigt Hill
#
# Bulk Modulus (GPa) = 63.89338 103.41004 83.65171
# Shear Modulus (GPa) = 28.05291 33.04445 30.54868
#
# Velocity S-wave (km/s) = 3.89643 4.22890 4.06606
# Velocity P-wave (km/s) = 7.40418 8.93365 8.20463
#
# Compressibility (1/GPa) = 0.01565107
#
# Stress axis : x y z
#
# Youngs Moduli (GPa) = 42.80162 87.61313 57.36713
#
# Poissons Ratio (x) = 0.60400 0.18351
# Poissons Ratio (y) = 0.29507 0.46961
# Poissons Ratio (z) = 0.13692 0.71721
#
# Static dielectric constant tensor:
#      x y z
#    x 1.622880 0.000000 0.000000 
#    y 0.000000 1.650630 0.000000 
#    z 0.000000 0.000000 1.602220 
# 
# From -- ./inp_files/6190.got.cif
#   From: 2010.05.17/outbox.cif.g08.bks.cpg/sg51_4_cif.got.tgz:6190.got - 2010.06.03 11:52:47.
