data_PCOD9399919
_publ_section_title
;
Structure prediction by ZEFSAII (Michael W. Deem and Ramdas Pophale) SiO2 
 PCOD9399919
Probable space group: P M M A
;
_chemical_formula_sum "Si O2"
_cell_formula_units_Z 64
_cell_length_a 31.879752
_cell_length_b 8.546765
_cell_length_c 12.219158
_cell_angle_alpha 90.000000
_cell_angle_beta 90.000000
_cell_angle_gamma 90.000000
_cell_volume 3329.338689
_symmetry_space_group_name_H-M "P M M A"
_symmetry_group_IT_number 51
_symmetry_cell_setting 'orthorhombic'
loop_
_space_group_symop_operation_xyz
x,y,z
1/2-x,-y,z
1/2+x,-y,-z
-x,y,-z
-x,-y,-z
1/2+x,y,-z
1/2-x,y,z
x,-y,z
loop_
_atom_site_type_symbol
_atom_site_label
_atom_site_fract_x
_atom_site_fract_y
_atom_site_fract_z
Si Si1 0.296986 0.689021 0.761466
Si Si2 0.203216 0.186660 0.235875
Si Si3 0.951875 0.310363 0.241068
Si Si4 0.125631 0.312633 0.374722
Si Si5 0.824383 0.688734 0.994901
Si Si6 0.454423 0.308965 0.233803
Si Si7 0.077178 0.310168 0.998570
Si Si8 0.874237 0.814313 0.379944
O O1 0.250000 0.737039 0.728579
O O2 0.299404 0.500000 0.756581
O O3 0.333611 0.755839 0.686551
O O4 0.305000 0.732714 0.888210
O O5 0.250000 0.236299 0.270845
O O6 0.166350 0.263695 0.305822
O O7 0.196816 0.233379 0.109410
O O8 0.200203 0.000000 0.246740
O O9 0.950054 0.500000 0.242910
O O10 0.915785 0.248730 0.319805
O O11 0.999146 0.261642 0.270649
O O12 0.942190 0.258421 0.116397
O O13 0.124067 0.500000 0.380190
O O14 0.083771 0.257899 0.310701
O O15 0.127318 0.245953 0.496257
O O16 0.821069 0.500000 0.983416
O O17 0.873704 0.730098 0.996087
O O18 0.453818 0.500000 0.232685
O O19 0.445616 0.256992 0.109040
O O20 0.074783 0.500000 0.998265
O O21 0.874869 0.000000 0.378913
#
# Coordination Sequence:
#
# PCOD9399919 Si02
#       8
#     8   8   8   8   8   8   8   8
#     4  10  21  39  64  92 119 152 198 248 296 347
#     4  11  24  40  59  88 125 161 195 235 292 355
#     4  10  19  36  63  90 120 154 194 242 293 348
#     4  11  23  42  65  87 113 150 204 254 296 346
#     4  10  18  34  62  92 121 154 195 240 287 345
#     4   9  18  33  60  95 119 146 191 246 297 345
#     4   9  15  29  58  93 122 147 185 239 294 343
#     4  12  26  42  59  83 119 159 200 244 300 358
#
# _framework density 19.223036
#
# number of rings (size 3 to 8) (size 9 to 14) (size 15 to 20)
#    0.000    1.750    2.500    2.625    0.000    4.750 
#    0.000    3.750    0.000    0.750    0.000    0.000 
#    0.000    0.000    0.000    0.000    0.000    0.000 
#
# Total GULP energy -357557.356033 kJ/mol
# GULP energy per Si atom -5586.833688 kJ/mol
# Density = 1.917928 g / cm^3
# Si number density = 19.223036 Si / 1000 Ang^3
#
#
#
# Elastic Constant Matrix: (Units=GPa)
#
#
# Indices 1 2 3 4 5 6 
#
# 1 186.0789 39.0746 85.2802 0.0000 0.0000 0.0000
# 2 39.0746 31.0903 30.4191 0.0000 0.0000 0.0000
# 3 85.2802 30.4191 145.0507 0.0000 0.0000 0.0000
# 4 0.0000 0.0000 0.0000 -12.2140 0.0000 0.0000
# 5 0.0000 0.0000 0.0000 0.0000 -6.9090 0.0000
# 6 0.0000 0.0000 0.0000 0.0000 0.0000 3.9468
#
#
#
# Elastic Compliance Matrix: (Units=1/GPa)
#
#
# Indices 1 2 3 4 5 6 
#
# 1 0.008491 -0.007281 -0.003465 0.000000 0.000000 0.000000
# 2 -0.007281 0.046712 -0.005515 0.000000 0.000000 0.000000
# 3 -0.003465 -0.005515 0.010088 0.000000 0.000000 0.000000
# 4 0.000000 0.000000 0.000000 -0.081873 0.000000 0.000000
# 5 0.000000 0.000000 0.000000 0.000000 -0.144738 0.000000
# 6 0.000000 0.000000 0.000000 0.000000 0.000000 0.253368
#
#
# Mechanical properties :
#
#
# Convention : Reuss Voigt Hill
#
# Bulk Modulus (GPa) = 30.51802 74.64086 52.57944
# Shear Modulus (GPa) = 36.90204 10.79448 23.84826
#
# Velocity S-wave (km/s) = 4.38617 2.37225 3.52605
# Velocity P-wave (km/s) = 6.44682 6.81297 6.63242
#
# Compressibility (1/GPa) = 0.03276752
#
# Stress axis : x y z
#
# Youngs Moduli (GPa) = 117.76873 21.40787 99.12690
#
# Poissons Ratio (x) = 0.15588 0.34350
# Poissons Ratio (y) = 0.85752 0.54670
# Poissons Ratio (z) = 0.40810 0.11807
#
# Static dielectric constant tensor:
#      x y z
#    x 1.669090 0.000000 0.000000 
#    y 0.000000 1.655070 0.000000 
#    z 0.000000 0.000000 1.639050 
# 
# From -- ./inp_files/19578.got.cif
#   From: 2010.05.17/outbox.cif.g08.bks.cpg/sg51_10_cif.got.tgz:19578.got - 2010.06.03 11:52:47.
