data_PCOD9399190
_publ_section_title
;
Structure prediction by ZEFSAII (Michael W. Deem and Ramdas Pophale) SiO2 
 PCOD9399190
Probable space group: P M M A
;
_chemical_formula_sum "Si O2"
_cell_formula_units_Z 48
_cell_length_a 27.008297
_cell_length_b 7.652709
_cell_length_c 12.424290
_cell_angle_alpha 90.000000
_cell_angle_beta 90.000000
_cell_angle_gamma 90.000000
_cell_volume 2567.934724
_symmetry_space_group_name_H-M "P M M A"
_symmetry_group_IT_number 51
_symmetry_cell_setting 'orthorhombic'
loop_
_space_group_symop_operation_xyz
x,y,z
1/2-x,-y,z
1/2+x,-y,-z
-x,y,-z
-x,-y,-z
1/2+x,y,-z
1/2-x,y,z
x,-y,z
loop_
_atom_site_type_symbol
_atom_site_label
_atom_site_fract_x
_atom_site_fract_y
_atom_site_fract_z
Si Si1 0.380984 0.286093 0.512454
Si Si2 0.055075 0.289634 0.964163
Si Si3 0.106064 0.797901 0.178639
Si Si4 0.533453 0.699336 0.641149
Si Si5 0.071167 0.714335 0.722071
Si Si6 0.693870 0.289126 0.669851
O O1 0.381046 0.500000 0.508778
O O2 0.430414 0.224822 0.449170
O O3 0.386282 0.235049 0.637024
O O4 0.335140 0.229337 0.438129
O O5 0.051882 0.500000 0.959589
O O6 0.071079 0.227294 0.845712
O O7 0.094825 0.242464 0.055232
O O8 0.000000 0.226693 0.000000
O O9 0.066282 0.696217 0.250902
O O10 0.159790 0.758200 0.227954
O O11 0.095703 0.000000 0.198054
O O12 0.523677 0.500000 0.608481
O O13 0.480740 0.776610 0.670661
O O14 0.070433 0.500000 0.724615
O O15 0.750000 0.224489 0.676098
O O16 0.695238 0.500000 0.665716
#
# Coordination Sequence:
#
# PCOD9399190 Si02
#       6
#     8   8   8   8   8   8
#     4   8  14  24  44  73  96 115 149 197 244 286
#     4  10  18  30  47  67  96 136 176 203 230 277
#     4  11  21  31  46  70  99 129 163 202 243 284
#     4   9  15  27  45  66  94 127 162 195 230 278
#     4   9  15  24  43  69  96 128 162 196 234 277
#     4   9  18  34  56  76  93 116 151 199 250 296
#
# _framework density 18.692063999999998
#
# number of rings (size 3 to 8) (size 9 to 14) (size 15 to 20)
#    0.000    2.667    1.667    3.000    0.000    2.667 
#    0.000    0.000    0.000   13.000    0.000    4.667 
#    0.000    0.000    0.000    0.000    0.000    0.000 
#
# Total GULP energy -267532.896228 kJ/mol
# GULP energy per Si atom -5573.602005 kJ/mol
# Density = 1.864952 g / cm^3
# Si number density = 18.692064 Si / 1000 Ang^3
#
#
#
# Elastic Constant Matrix: (Units=GPa)
#
#
# Indices 1 2 3 4 5 6 
#
# 1 119.1028 4.4231 85.5053 0.0000 0.0000 0.0000
# 2 4.4231 43.8565 6.2298 0.0000 0.0000 0.0000
# 3 85.5053 6.2298 145.7630 0.0000 0.0000 0.0000
# 4 0.0000 0.0000 0.0000 -23.1328 0.0000 0.0000
# 5 0.0000 0.0000 0.0000 0.0000 5.8958 0.0000
# 6 0.0000 0.0000 0.0000 0.0000 0.0000 -19.6240
#
#
#
# Elastic Compliance Matrix: (Units=1/GPa)
#
#
# Indices 1 2 3 4 5 6 
#
# 1 0.014507 -0.000256 -0.008499 0.000000 0.000000 0.000000
# 2 -0.000256 0.022945 -0.000831 0.000000 0.000000 0.000000
# 3 -0.008499 -0.000831 0.011882 0.000000 0.000000 0.000000
# 4 0.000000 0.000000 0.000000 -0.043229 0.000000 0.000000
# 5 0.000000 0.000000 0.000000 0.000000 0.169612 0.000000
# 6 0.000000 0.000000 0.000000 0.000000 0.000000 -0.050958
#
#
# Mechanical properties :
#
#
# Convention : Reuss Voigt Hill
#
# Bulk Modulus (GPa) = 33.15297 55.67097 44.41197
# Shear Modulus (GPa) = 32.47080 6.79874 19.63477
#
# Velocity S-wave (km/s) = 4.17243 1.90922 3.24456
# Velocity P-wave (km/s) = 6.40212 5.89135 6.15204
#
# Compressibility (1/GPa) = 0.03016321
#
# Stress axis : x y z
#
# Youngs Moduli (GPa) = 68.93136 43.58162 84.16420
#
# Poissons Ratio (x) = 0.01115 0.71532
# Poissons Ratio (y) = 0.01763 0.06991
# Poissons Ratio (z) = 0.58585 0.03620
#
# Static dielectric constant tensor:
#      x y z
#    x 1.628940 0.000000 0.000000 
#    y 0.000000 1.696220 0.000000 
#    z 0.000000 0.000000 1.680000 
# 
# From -- ./inp_files/18963.got.cif
#   From: 2010.05.17/outbox.cif.g08.bks.cpg/sg51_10_cif.got.tgz:18963.got - 2010.06.03 11:52:47.
